# generated using pymatgen
data_ZnH22C24(N2O5)2
_symmetry_space_group_name_H-M   'P 1'
_cell_length_a   7.31338000
_cell_length_b   7.83565000
_cell_length_c   11.15130000
_cell_angle_alpha   85.77420000
_cell_angle_beta   73.62520000
_cell_angle_gamma   62.73590000
_symmetry_Int_Tables_number   1
_chemical_formula_structural   ZnH22C24(N2O5)2
_chemical_formula_sum   'Zn1 H22 C24 N4 O10'
_cell_volume   543.83923438
_cell_formula_units_Z   1
loop_
 _symmetry_equiv_pos_site_id
 _symmetry_equiv_pos_as_xyz
  1  'x, y, z'
loop_
 _atom_site_type_symbol
 _atom_site_label
 _atom_site_symmetry_multiplicity
 _atom_site_fract_x
 _atom_site_fract_y
 _atom_site_fract_z
 _atom_site_occupancy
  Zn  Zn0  1  0.00000000  0.00000000  0.50000000  1.0
  H  H1  1  0.14811000  0.19064000  0.61169000  1.0
  H  H2  1  0.85189000  0.80937000  0.38831000  1.0
  H  H3  1  0.94745000  0.15860000  0.69720000  1.0
  H  H4  1  0.05254000  0.84140000  0.30280000  1.0
  H  H5  1  0.07457000  0.45647000  0.26486000  1.0
  H  H6  1  0.92543000  0.54353000  0.73514000  1.0
  H  H7  1  0.38479000  0.21869000  0.81573000  1.0
  H  H8  1  0.61520000  0.78131000  0.18427000  1.0
  H  H9  1  0.75066000  0.49799000  0.52888000  1.0
  H  H10  1  0.24934000  0.50201000  0.47112000  1.0
  H  H11  1  0.75084000  0.71025000  0.57784000  1.0
  H  H12  1  0.24916000  0.28975000  0.42216000  1.0
  H  H13  1  0.17414000  0.65910000  0.10577000  1.0
  H  H14  1  0.82585000  0.34090000  0.89423000  1.0
  H  H15  1  0.16346000  0.84278000  0.96023000  1.0
  H  H16  1  0.83654000  0.15722000  0.03977000  1.0
  H  H17  1  0.37084000  0.95265000  0.73868000  1.0
  H  H18  1  0.62916000  0.04735000  0.26132000  1.0
  H  H19  1  0.57816000  0.35325000  0.70422000  1.0
  H  H20  1  0.42184000  0.64676000  0.29578000  1.0
  H  H21  1  0.30309000  0.01121000  0.98004000  1.0
  H  H22  1  0.69691000  0.98879000  0.01995000  1.0
  C  C23  1  0.14659000  0.40272000  0.16696000  1.0
  C  C24  1  0.85341000  0.59728000  0.83304000  1.0
  C  C25  1  0.29021000  0.44885000  0.95141000  1.0
  C  C26  1  0.70979000  0.55115000  0.04858000  1.0
  C  C27  1  0.32334000  0.26826000  0.91445000  1.0
  C  C28  1  0.67666000  0.73174000  0.08555000  1.0
  C  C29  1  0.64881000  0.64853000  0.56547000  1.0
  C  C30  1  0.35119000  0.35147000  0.43453000  1.0
  C  C31  1  0.20016000  0.51790000  0.07714000  1.0
  C  C32  1  0.79984000  0.48210000  0.92286000  1.0
  C  C33  1  0.14152000  0.08581000  0.22786000  1.0
  C  C34  1  0.85848000  0.91418000  0.77214000  1.0
  C  C35  1  0.27880000  0.76078000  0.87512000  1.0
  C  C36  1  0.72121000  0.23921000  0.12488000  1.0
  C  C37  1  0.18613000  0.21812000  0.13247000  1.0
  C  C38  1  0.81386000  0.78188000  0.86753000  1.0
  C  C39  1  0.52186000  0.76224000  0.47264000  1.0
  C  C40  1  0.47814000  0.23777000  0.52736000  1.0
  C  C41  1  0.37909000  0.81470000  0.76805000  1.0
  C  C42  1  0.62091000  0.18529000  0.23196000  1.0
  C  C43  1  0.49100000  0.50010000  0.74444000  1.0
  C  C44  1  0.50900000  0.49989000  0.25556000  1.0
  C  C45  1  0.27216000  0.15466000  0.00570000  1.0
  C  C46  1  0.72784000  0.84534000  0.99430000  1.0
  N  N47  1  0.50963000  0.65079000  0.68874000  1.0
  N  N48  1  0.49037000  0.34922000  0.31126000  1.0
  N  N49  1  0.34996000  0.56426000  0.85936000  1.0
  N  N50  1  0.65005000  0.43574000  0.14064000  1.0
  O  O51  1  0.62469000  0.81643000  0.37957000  1.0
  O  O52  1  0.37530000  0.18358000  0.62043000  1.0
  O  O53  1  0.15528000  0.93131000  0.18693000  1.0
  O  O54  1  0.84472000  0.06869000  0.81307000  1.0
  O  O55  1  0.00553000  0.20022000  0.61281000  1.0
  O  O56  1  0.99446000  0.79979000  0.38719000  1.0
  O  O57  1  0.09405000  0.13807000  0.34280000  1.0
  O  O58  1  0.90595000  0.86193000  0.65720000  1.0
  O  O59  1  0.33342000  0.78357000  0.49327000  1.0
  O  O60  1  0.66658000  0.21643000  0.50673000  1.0
