# generated using pymatgen
data_PrH17C22N(O5F)2
_symmetry_space_group_name_H-M   'P 1'
_cell_length_a   9.67826000
_cell_length_b   10.78740000
_cell_length_c   13.16450000
_cell_angle_alpha   67.26060000
_cell_angle_beta   77.34910000
_cell_angle_gamma   64.24420000
_symmetry_Int_Tables_number   1
_chemical_formula_structural   PrH17C22N(O5F)2
_chemical_formula_sum   'Pr2 H34 C44 N2 O20 F4'
_cell_volume   1139.49978999
_cell_formula_units_Z   2
loop_
 _symmetry_equiv_pos_site_id
 _symmetry_equiv_pos_as_xyz
  1  'x, y, z'
loop_
 _atom_site_type_symbol
 _atom_site_label
 _atom_site_symmetry_multiplicity
 _atom_site_fract_x
 _atom_site_fract_y
 _atom_site_fract_z
 _atom_site_occupancy
  Pr  Pr0  1  0.77032000  0.96632000  0.48825000  1.0
  Pr  Pr1  1  0.22968000  0.03368000  0.51175000  1.0
  H  H2  1  0.83411000  0.20614000  0.21854000  1.0
  H  H3  1  0.16589000  0.79386000  0.78146000  1.0
  H  H4  1  0.94498000  0.38616000  0.19001000  1.0
  H  H5  1  0.05502000  0.61384000  0.80998000  1.0
  H  H6  1  0.95917000  0.47463000  0.83794000  1.0
  H  H7  1  0.04083000  0.52537000  0.16205000  1.0
  H  H8  1  0.84509000  0.29326000  0.88284000  1.0
  H  H9  1  0.15491000  0.70674000  0.11716000  1.0
  H  H10  1  0.84718000  0.52013000  0.45099000  1.0
  H  H11  1  0.15282000  0.47988000  0.54900000  1.0
  H  H12  1  0.37765000  0.76883000  0.35852000  1.0
  H  H13  1  0.62235000  0.23118000  0.64148000  1.0
  H  H14  1  0.61829000  0.33527000  0.33764000  1.0
  H  H15  1  0.38171000  0.66474000  0.66236000  1.0
  H  H16  1  0.77070000  0.99889000  0.86186000  1.0
  H  H17  1  0.22930000  0.00111000  0.13814000  1.0
  H  H18  1  0.61056000  0.74919000  0.17058000  1.0
  H  H19  1  0.38944000  0.25081000  0.82942000  1.0
  H  H20  1  0.59840000  0.68848000  0.86769000  1.0
  H  H21  1  0.40160000  0.31153000  0.13230000  1.0
  H  H22  1  0.13316000  0.74010000  0.32337000  1.0
  H  H23  1  0.86684000  0.25990000  0.67664000  1.0
  H  H24  1  0.06330000  0.87576000  0.19340000  1.0
  H  H25  1  0.93670000  0.12424000  0.80660000  1.0
  H  H26  1  0.94076000  0.79390000  0.29173000  1.0
  H  H27  1  0.05924000  0.20610000  0.70827000  1.0
  H  H28  1  0.79989000  0.12365000  0.05008000  1.0
  H  H29  1  0.20012000  0.87635000  0.94992000  1.0
  H  H30  1  0.05491000  0.98239000  0.32295000  1.0
  H  H31  1  0.94509000  0.01762000  0.67705000  1.0
  H  H32  1  0.52044000  0.13730000  0.31625000  1.0
  H  H33  1  0.47956000  0.86270000  0.68375000  1.0
  H  H34  1  0.66716000  0.04642000  0.25846000  1.0
  H  H35  1  0.33284000  0.95358000  0.74154000  1.0
  C  C36  1  0.86387000  0.26855000  0.13583000  1.0
  C  C37  1  0.13613000  0.73145000  0.86418000  1.0
  C  C38  1  0.92639000  0.36981000  0.11843000  1.0
  C  C39  1  0.07361000  0.63019000  0.88157000  1.0
  C  C40  1  0.96518000  0.44689000  0.01075000  1.0
  C  C41  1  0.03481000  0.55311000  0.98925000  1.0
  C  C42  1  0.93449000  0.41889000  0.92408000  1.0
  C  C43  1  0.06551000  0.58111000  0.07592000  1.0
  C  C44  1  0.87101000  0.31695000  0.94820000  1.0
  C  C45  1  0.12899000  0.68305000  0.05180000  1.0
  C  C46  1  0.88402000  0.27032000  0.42291000  1.0
  C  C47  1  0.11598000  0.72968000  0.57709000  1.0
  C  C48  1  0.74820000  0.41316000  0.39648000  1.0
  C  C49  1  0.25181000  0.58684000  0.60352000  1.0
  C  C50  1  0.74642000  0.53016000  0.41952000  1.0
  C  C51  1  0.25358000  0.46984000  0.58048000  1.0
  C  C52  1  0.61251000  0.65691000  0.40788000  1.0
  C  C53  1  0.38749000  0.34309000  0.59212000  1.0
  C  C54  1  0.60673000  0.77630000  0.44272000  1.0
  C  C55  1  0.39327000  0.22370000  0.55728000  1.0
  C  C56  1  0.48200000  0.67001000  0.36801000  1.0
  C  C57  1  0.51800000  0.32999000  0.63199000  1.0
  C  C58  1  0.49045000  0.55458000  0.34078000  1.0
  C  C59  1  0.50954000  0.44542000  0.65922000  1.0
  C  C60  1  0.61911000  0.42531000  0.35573000  1.0
  C  C61  1  0.38089000  0.57469000  0.64427000  1.0
  C  C62  1  0.72101000  0.88472000  0.72994000  1.0
  C  C63  1  0.27899000  0.11528000  0.27006000  1.0
  C  C64  1  0.68999000  0.84714000  0.85185000  1.0
  C  C65  1  0.31002000  0.15286000  0.14815000  1.0
  C  C66  1  0.72369000  0.91643000  0.90775000  1.0
  C  C67  1  0.27632000  0.08357000  0.09225000  1.0
  C  C68  1  0.69488000  0.88195000  0.02199000  1.0
  C  C69  1  0.30513000  0.11804000  0.97802000  1.0
  C  C70  1  0.72438000  0.96151000  0.08064000  1.0
  C  C71  1  0.27562000  0.03848000  0.91936000  1.0
  C  C72  1  0.63311000  0.77640000  0.08151000  1.0
  C  C73  1  0.36689000  0.22360000  0.91849000  1.0
  C  C74  1  0.60000000  0.70984000  0.02361000  1.0
  C  C75  1  0.39999000  0.29017000  0.97639000  1.0
  C  C76  1  0.62627000  0.74290000  0.91005000  1.0
  C  C77  1  0.37373000  0.25710000  0.08995000  1.0
  C  C78  1  0.03259000  0.83197000  0.28186000  1.0
  C  C79  1  0.96741000  0.16803000  0.71814000  1.0
  N  N80  1  0.83796000  0.24151000  0.05201000  1.0
  N  N81  1  0.16204000  0.75849000  0.94799000  1.0
  O  O82  1  0.86324000  0.15618000  0.43447000  1.0
  O  O83  1  0.13676000  0.84382000  0.56553000  1.0
  O  O84  1  0.01150000  0.26849000  0.43420000  1.0
  O  O85  1  0.98850000  0.73151000  0.56580000  1.0
  O  O86  1  0.73346000  0.78290000  0.44549000  1.0
  O  O87  1  0.26654000  0.21710000  0.55451000  1.0
  O  O88  1  0.47611000  0.86260000  0.46955000  1.0
  O  O89  1  0.52389000  0.13740000  0.53044000  1.0
  O  O90  1  0.67198000  0.83484000  0.67796000  1.0
  O  O91  1  0.32802000  0.16516000  0.32204000  1.0
  O  O92  1  0.79630000  0.96636000  0.67880000  1.0
  O  O93  1  0.20370000  0.03364000  0.32120000  1.0
  O  O94  1  0.69011000  0.94083000  0.18083000  1.0
  O  O95  1  0.30989000  0.05917000  0.81917000  1.0
  O  O96  1  0.78679000  0.05360000  0.01515000  1.0
  O  O97  1  0.21322000  0.94640000  0.98485000  1.0
  O  O98  1  0.97421000  0.94548000  0.33023000  1.0
  O  O99  1  0.02579000  0.05452000  0.66977000  1.0
  O  O100  1  0.63422000  0.10417000  0.30945000  1.0
  O  O101  1  0.36578000  0.89583000  0.69055000  1.0
  F  F102  1  0.36540000  0.56629000  0.29974000  1.0
  F  F103  1  0.63460000  0.43371000  0.70026000  1.0
  F  F104  1  0.53953000  0.60705000  0.08016000  1.0
  F  F105  1  0.46047000  0.39296000  0.91984000  1.0
