# generated using pymatgen
data_ZnH25C31N5O4
_symmetry_space_group_name_H-M   'P 1'
_cell_length_a   10.99620000
_cell_length_b   10.99560000
_cell_length_c   14.74843598
_cell_angle_alpha   68.52575177
_cell_angle_beta   68.52407820
_cell_angle_gamma   62.93700000
_symmetry_Int_Tables_number   1
_chemical_formula_structural   ZnH25C31N5O4
_chemical_formula_sum   'Zn2 H50 C62 N10 O8'
_cell_volume   1434.25985097
_cell_formula_units_Z   2
loop_
 _symmetry_equiv_pos_site_id
 _symmetry_equiv_pos_as_xyz
  1  'x, y, z'
loop_
 _atom_site_type_symbol
 _atom_site_label
 _atom_site_symmetry_multiplicity
 _atom_site_fract_x
 _atom_site_fract_y
 _atom_site_fract_z
 _atom_site_occupancy
  Zn  Zn0  1  0.80965000  0.19018000  0.24998000  1.0
  Zn  Zn1  1  0.19035000  0.80983000  0.75001000  1.0
  H  H2  1  0.89089000  0.38748000  0.04295000  1.0
  H  H3  1  0.61213000  0.10889000  0.45712000  1.0
  H  H4  1  0.10913000  0.61253000  0.95704000  1.0
  H  H5  1  0.38787000  0.89112000  0.54287000  1.0
  H  H6  1  0.04645000  0.36404000  0.94323000  1.0
  H  H7  1  0.63567000  0.95326000  0.55681000  1.0
  H  H8  1  0.95357000  0.63596000  0.05676000  1.0
  H  H9  1  0.36433000  0.04675000  0.44318000  1.0
  H  H10  1  0.05082000  0.35325000  0.06635000  1.0
  H  H11  1  0.64655000  0.94889000  0.43365000  1.0
  H  H12  1  0.94920000  0.64676000  0.93364000  1.0
  H  H13  1  0.35344000  0.05111000  0.56635000  1.0
  H  H14  1  0.88252000  0.87340000  0.26321000  1.0
  H  H15  1  0.12592000  0.11789000  0.23695000  1.0
  H  H16  1  0.11748000  0.12662000  0.73679000  1.0
  H  H17  1  0.87408000  0.88211000  0.76305000  1.0
  H  H18  1  0.02765000  0.63553000  0.22955000  1.0
  H  H19  1  0.36381000  0.97308000  0.27065000  1.0
  H  H20  1  0.97234000  0.36449000  0.77045000  1.0
  H  H21  1  0.63619000  0.02691000  0.72935000  1.0
  H  H22  1  0.23784000  0.59866000  0.08742000  1.0
  H  H23  1  0.40093000  0.76278000  0.41265000  1.0
  H  H24  1  0.76215000  0.40134000  0.91259000  1.0
  H  H25  1  0.59907000  0.23721000  0.58735000  1.0
  H  H26  1  0.30537000  0.80095000  0.96903000  1.0
  H  H27  1  0.19881000  0.69493000  0.53103000  1.0
  H  H28  1  0.69463000  0.19904000  0.03098000  1.0
  H  H29  1  0.80118000  0.30507000  0.46897000  1.0
  H  H30  1  0.22436000  0.21455000  0.87992000  1.0
  H  H31  1  0.78518000  0.77561000  0.62014000  1.0
  H  H32  1  0.77566000  0.78544000  0.12008000  1.0
  H  H33  1  0.21481000  0.22439000  0.37987000  1.0
  H  H34  1  0.27698000  0.04358000  0.86531000  1.0
  H  H35  1  0.95612000  0.72305000  0.63475000  1.0
  H  H36  1  0.72302000  0.95641000  0.13469000  1.0
  H  H37  1  0.04388000  0.27695000  0.36525000  1.0
  H  H38  1  0.28243000  0.19118000  0.05955000  1.0
  H  H39  1  0.80860000  0.71737000  0.44054000  1.0
  H  H40  1  0.71758000  0.80881000  0.94045000  1.0
  H  H41  1  0.19139000  0.28264000  0.55946000  1.0
  H  H42  1  0.51372000  0.89996000  0.86831000  1.0
  H  H43  1  0.10007000  0.48656000  0.63158000  1.0
  H  H44  1  0.48629000  0.10003000  0.13169000  1.0
  H  H45  1  0.89992000  0.51344000  0.36843000  1.0
  H  H46  1  0.53231000  0.70840000  0.23434000  1.0
  H  H47  1  0.29143000  0.46739000  0.26560000  1.0
  H  H48  1  0.46769000  0.29161000  0.76565000  1.0
  H  H49  1  0.70857000  0.53260000  0.73440000  1.0
  H  H50  1  0.30020000  0.69957000  0.24993000  1.0
  H  H51  1  0.69980000  0.30043000  0.75007000  1.0
  C  C52  1  0.00456000  0.32849000  0.02388000  1.0
  C  C53  1  0.67123000  0.99520000  0.47616000  1.0
  C  C54  1  0.99545000  0.67152000  0.97611000  1.0
  C  C55  1  0.32877000  0.00480000  0.52384000  1.0
  C  C56  1  0.03154000  0.17589000  0.05342000  1.0
  C  C57  1  0.82377000  0.96840000  0.44663000  1.0
  C  C58  1  0.96847000  0.82411000  0.94658000  1.0
  C  C59  1  0.17622000  0.03160000  0.55337000  1.0
  C  C60  1  0.01470000  0.97004000  0.13593000  1.0
  C  C61  1  0.02953000  0.98546000  0.36418000  1.0
  C  C62  1  0.98531000  0.02997000  0.86407000  1.0
  C  C63  1  0.97047000  0.01454000  0.63582000  1.0
  C  C64  1  0.97578000  0.85714000  0.20126000  1.0
  C  C65  1  0.14230000  0.02460000  0.29888000  1.0
  C  C66  1  0.02422000  0.14287000  0.79874000  1.0
  C  C67  1  0.85770000  0.97540000  0.70112000  1.0
  C  C68  1  0.05793000  0.72458000  0.18170000  1.0
  C  C69  1  0.27487000  0.94259000  0.31843000  1.0
  C  C70  1  0.94206000  0.27543000  0.81830000  1.0
  C  C71  1  0.72513000  0.05741000  0.68157000  1.0
  C  C72  1  0.17625000  0.70425000  0.09976000  1.0
  C  C73  1  0.29531000  0.82424000  0.40034000  1.0
  C  C74  1  0.82375000  0.29575000  0.90024000  1.0
  C  C75  1  0.70468000  0.17576000  0.59966000  1.0
  C  C76  1  0.21568000  0.81580000  0.03355000  1.0
  C  C77  1  0.18386000  0.78463000  0.46652000  1.0
  C  C78  1  0.78432000  0.18420000  0.96645000  1.0
  C  C79  1  0.81613000  0.21537000  0.53348000  1.0
  C  C80  1  0.13216000  0.94833000  0.05315000  1.0
  C  C81  1  0.05130000  0.86801000  0.44695000  1.0
  C  C82  1  0.86784000  0.05167000  0.94685000  1.0
  C  C83  1  0.94870000  0.13199000  0.55305000  1.0
  C  C84  1  0.25589000  0.10260000  0.91906000  1.0
  C  C85  1  0.89715000  0.74408000  0.58100000  1.0
  C  C86  1  0.74412000  0.89740000  0.08094000  1.0
  C  C87  1  0.10285000  0.25592000  0.41901000  1.0
  C  C88  1  0.38366000  0.05195000  0.95895000  1.0
  C  C89  1  0.94789000  0.61634000  0.54106000  1.0
  C  C90  1  0.61635000  0.94803000  0.04106000  1.0
  C  C91  1  0.05210000  0.38365000  0.45895000  1.0
  C  C92  1  0.37793000  0.10725000  0.03282000  1.0
  C  C93  1  0.89258000  0.62197000  0.46725000  1.0
  C  C94  1  0.62208000  0.89274000  0.96718000  1.0
  C  C95  1  0.10741000  0.37803000  0.53275000  1.0
  C  C96  1  0.50704000  0.94388000  0.92635000  1.0
  C  C97  1  0.05612000  0.49309000  0.57360000  1.0
  C  C98  1  0.49297000  0.05611000  0.07365000  1.0
  C  C99  1  0.94387000  0.50690000  0.42641000  1.0
  C  C100  1  0.78789000  0.47455000  0.24051000  1.0
  C  C101  1  0.52540000  0.21180000  0.25948000  1.0
  C  C102  1  0.21211000  0.52545000  0.75949000  1.0
  C  C103  1  0.47461000  0.78820000  0.74052000  1.0
  C  C104  1  0.64239000  0.48663000  0.24363000  1.0
  C  C105  1  0.51322000  0.35735000  0.25630000  1.0
  C  C106  1  0.35761000  0.51337000  0.75637000  1.0
  C  C107  1  0.48678000  0.64265000  0.74370000  1.0
  C  C108  1  0.52328000  0.61054000  0.24161000  1.0
  C  C109  1  0.38931000  0.47645000  0.25831000  1.0
  C  C110  1  0.47671000  0.38946000  0.75839000  1.0
  C  C111  1  0.61069000  0.52355000  0.74169000  1.0
  C  C112  1  0.39517000  0.60461000  0.24996000  1.0
  C  C113  1  0.60483000  0.39539000  0.75004000  1.0
  N  N114  1  0.95501000  0.11294000  0.13399000  1.0
  N  N115  1  0.88667000  0.04500000  0.36607000  1.0
  N  N116  1  0.04500000  0.88707000  0.86600000  1.0
  N  N117  1  0.11333000  0.95500000  0.63393000  1.0
  N  N118  1  0.13855000  0.08036000  0.00229000  1.0
  N  N119  1  0.91931000  0.86147000  0.49779000  1.0
  N  N120  1  0.86145000  0.91964000  0.99771000  1.0
  N  N121  1  0.08068000  0.13853000  0.50221000  1.0
  N  N122  1  0.63424000  0.36559000  0.24996000  1.0
  N  N123  1  0.36576000  0.63441000  0.75004000  1.0
  O  O124  1  0.88175000  0.34954000  0.24849000  1.0
  O  O125  1  0.65045000  0.11803000  0.25138000  1.0
  O  O126  1  0.11825000  0.65046000  0.75151000  1.0
  O  O127  1  0.34955000  0.88197000  0.74861000  1.0
  O  O128  1  0.80341000  0.58490000  0.23144000  1.0
  O  O129  1  0.41507000  0.19614000  0.26867000  1.0
  O  O130  1  0.19658000  0.41510000  0.76856000  1.0
  O  O131  1  0.58493000  0.80386000  0.73133000  1.0
