# generated using pymatgen
data_PrH6C6(NO4)2
_symmetry_space_group_name_H-M   'P 1'
_cell_length_a   7.48819000
_cell_length_b   8.34948000
_cell_length_c   17.23760000
_cell_angle_alpha   90.00000000
_cell_angle_beta   89.99990000
_cell_angle_gamma   110.86500000
_symmetry_Int_Tables_number   1
_chemical_formula_structural   PrH6C6(NO4)2
_chemical_formula_sum   'Pr4 H24 C24 N8 O32'
_cell_volume   1007.06207086
_cell_formula_units_Z   4
loop_
 _symmetry_equiv_pos_site_id
 _symmetry_equiv_pos_as_xyz
  1  'x, y, z'
loop_
 _atom_site_type_symbol
 _atom_site_label
 _atom_site_symmetry_multiplicity
 _atom_site_fract_x
 _atom_site_fract_y
 _atom_site_fract_z
 _atom_site_occupancy
  Pr  Pr0  1  0.31820000  0.75885000  0.58398000  1.0
  Pr  Pr1  1  0.68180000  0.74115000  0.08398000  1.0
  Pr  Pr2  1  0.68180000  0.24114000  0.41602000  1.0
  Pr  Pr3  1  0.31820000  0.25885000  0.91602000  1.0
  H  H4  1  0.23545000  0.08038000  0.52144000  1.0
  H  H5  1  0.76455000  0.41962000  0.02144000  1.0
  H  H6  1  0.76455000  0.91962000  0.47856000  1.0
  H  H7  1  0.23544000  0.58038000  0.97856000  1.0
  H  H8  1  0.16046000  0.00842000  0.60323000  1.0
  H  H9  1  0.83954000  0.49159000  0.10323000  1.0
  H  H10  1  0.83954000  0.99159000  0.39676000  1.0
  H  H11  1  0.16046000  0.50841000  0.89677000  1.0
  H  H12  1  0.92063000  0.66020000  0.53244000  1.0
  H  H13  1  0.07937000  0.83980000  0.03244000  1.0
  H  H14  1  0.07937000  0.33980000  0.46756000  1.0
  H  H15  1  0.92063000  0.16020000  0.96756000  1.0
  H  H16  1  0.90245000  0.49823000  0.58168000  1.0
  H  H17  1  0.09756000  0.00177000  0.08168000  1.0
  H  H18  1  0.09756000  0.50177000  0.41832000  1.0
  H  H19  1  0.90245000  0.99823000  0.91832000  1.0
  H  H20  1  0.95586000  0.90185000  0.78974000  1.0
  H  H21  1  0.04414000  0.59815000  0.28975000  1.0
  H  H22  1  0.04415000  0.09815000  0.21025000  1.0
  H  H23  1  0.95586000  0.40185000  0.71025000  1.0
  H  H24  1  0.85825000  0.92876000  0.65167000  1.0
  H  H25  1  0.14175000  0.57123000  0.15167000  1.0
  H  H26  1  0.14174000  0.07123000  0.34833000  1.0
  H  H27  1  0.85826000  0.42877000  0.84833000  1.0
  C  C28  1  0.76408000  0.84866000  0.69533000  1.0
  C  C29  1  0.23592000  0.65133000  0.19533000  1.0
  C  C30  1  0.23592000  0.15133000  0.30467000  1.0
  C  C31  1  0.76408000  0.34867000  0.80467000  1.0
  C  C32  1  0.67556000  0.68069000  0.89140000  1.0
  C  C33  1  0.32444000  0.81931000  0.39140000  1.0
  C  C34  1  0.32444000  0.31931000  0.10860000  1.0
  C  C35  1  0.67556000  0.18069000  0.60860000  1.0
  C  C36  1  0.66734000  0.71515000  0.80721000  1.0
  C  C37  1  0.33266000  0.78485000  0.30721000  1.0
  C  C38  1  0.33266000  0.28485000  0.19279000  1.0
  C  C39  1  0.66734000  0.21515000  0.69279000  1.0
  C  C40  1  0.51960000  0.66150000  0.75221000  1.0
  C  C41  1  0.48040000  0.83850000  0.25221000  1.0
  C  C42  1  0.48040000  0.33851000  0.24779000  1.0
  C  C43  1  0.51960000  0.16149000  0.74779000  1.0
  C  C44  1  0.31638000  0.54275000  0.75404000  1.0
  C  C45  1  0.68361000  0.95726000  0.25404000  1.0
  C  C46  1  0.68361000  0.45725000  0.24597000  1.0
  C  C47  1  0.31639000  0.04275000  0.74596000  1.0
  C  C48  1  0.41080000  0.42164000  0.51156000  1.0
  C  C49  1  0.58920000  0.07836000  0.01156000  1.0
  C  C50  1  0.58921000  0.57836000  0.48843000  1.0
  C  C51  1  0.41079000  0.92164000  0.98843000  1.0
  N  N52  1  0.58290000  0.74927000  0.68394000  1.0
  N  N53  1  0.41710000  0.75073000  0.18394000  1.0
  N  N54  1  0.41710000  0.25072000  0.31606000  1.0
  N  N55  1  0.58290000  0.24928000  0.81606000  1.0
  N  N56  1  0.81915000  0.83432000  0.76886000  1.0
  N  N57  1  0.18085000  0.66567000  0.26886000  1.0
  N  N58  1  0.18085000  0.16567000  0.23114000  1.0
  N  N59  1  0.81915000  0.33433000  0.73114000  1.0
  O  O60  1  0.20963000  0.55885000  0.69895000  1.0
  O  O61  1  0.79036000  0.94115000  0.19894000  1.0
  O  O62  1  0.79036000  0.44115000  0.30105000  1.0
  O  O63  1  0.20964000  0.05886000  0.80105000  1.0
  O  O64  1  0.25535000  0.43286000  0.80773000  1.0
  O  O65  1  0.74466000  0.06714000  0.30773000  1.0
  O  O66  1  0.74465000  0.56714000  0.19227000  1.0
  O  O67  1  0.25535000  0.93286000  0.69227000  1.0
  O  O68  1  0.56977000  0.53868000  0.91917000  1.0
  O  O69  1  0.43023000  0.96132000  0.41918000  1.0
  O  O70  1  0.43022000  0.46132000  0.08083000  1.0
  O  O71  1  0.56978000  0.03868000  0.58083000  1.0
  O  O72  1  0.78856000  0.79841000  0.93425000  1.0
  O  O73  1  0.21144000  0.70159000  0.43425000  1.0
  O  O74  1  0.21144000  0.20159000  0.06575000  1.0
  O  O75  1  0.78856000  0.29840000  0.56575000  1.0
  O  O76  1  0.27928000  0.45037000  0.54807000  1.0
  O  O77  1  0.72072000  0.04964000  0.04807000  1.0
  O  O78  1  0.72072000  0.54964000  0.45193000  1.0
  O  O79  1  0.27929000  0.95037000  0.95193000  1.0
  O  O80  1  0.40972000  0.27520000  0.49092000  1.0
  O  O81  1  0.59028000  0.22480000  0.99092000  1.0
  O  O82  1  0.59028000  0.72480000  0.50908000  1.0
  O  O83  1  0.40971000  0.77520000  0.00908000  1.0
  O  O84  1  0.15595000  0.97392000  0.54872000  1.0
  O  O85  1  0.84405000  0.52608000  0.04871000  1.0
  O  O86  1  0.84406000  0.02608000  0.45128000  1.0
  O  O87  1  0.15594000  0.47392000  0.95129000  1.0
  O  O88  1  0.96737000  0.62642000  0.58059000  1.0
  O  O89  1  0.03263000  0.87358000  0.08059000  1.0
  O  O90  1  0.03264000  0.37358000  0.41941000  1.0
  O  O91  1  0.96736000  0.12642000  0.91941000  1.0
