# generated using pymatgen
data_LiH5(C2O)3
_symmetry_space_group_name_H-M   'P 1'
_cell_length_a   6.64441000
_cell_length_b   7.49351000
_cell_length_c   12.29622724
_cell_angle_alpha   89.83312072
_cell_angle_beta   74.35070238
_cell_angle_gamma   89.99030000
_symmetry_Int_Tables_number   1
_chemical_formula_structural   LiH5(C2O)3
_chemical_formula_sum   'Li4 H20 C24 O12'
_cell_volume   589.53114729
_cell_formula_units_Z   4
loop_
 _symmetry_equiv_pos_site_id
 _symmetry_equiv_pos_as_xyz
  1  'x, y, z'
loop_
 _atom_site_type_symbol
 _atom_site_label
 _atom_site_symmetry_multiplicity
 _atom_site_fract_x
 _atom_site_fract_y
 _atom_site_fract_z
 _atom_site_occupancy
  Li  Li0  1  0.34081000  0.40131000  0.93505000  1.0
  Li  Li1  1  0.27576000  0.09868000  0.06492000  1.0
  Li  Li2  1  0.65920000  0.59869000  0.06494000  1.0
  Li  Li3  1  0.72424000  0.90133000  0.93508000  1.0
  H  H4  1  0.31794000  0.71550000  0.87754000  1.0
  H  H5  1  0.19551000  0.78445000  0.12250000  1.0
  H  H6  1  0.68206000  0.28450000  0.12246000  1.0
  H  H7  1  0.80449000  0.21555000  0.87750000  1.0
  H  H8  1  0.09081000  0.63923000  0.88519000  1.0
  H  H9  1  0.97607000  0.86075000  0.11484000  1.0
  H  H10  1  0.90919000  0.36077000  0.11481000  1.0
  H  H11  1  0.02393000  0.13925000  0.88516000  1.0
  H  H12  1  0.77680000  0.28833000  0.67857000  1.0
  H  H13  1  0.45525000  0.21180000  0.32143000  1.0
  H  H14  1  0.22319000  0.71167000  0.32143000  1.0
  H  H15  1  0.54475000  0.78820000  0.67857000  1.0
  H  H16  1  0.13300000  0.85027000  0.51219000  1.0
  H  H17  1  0.64508000  0.64965000  0.48781000  1.0
  H  H18  1  0.86700000  0.14973000  0.48781000  1.0
  H  H19  1  0.35492000  0.35034000  0.51219000  1.0
  H  H20  1  0.97750000  0.82523000  0.71878000  1.0
  H  H21  1  0.69629000  0.67488000  0.28124000  1.0
  H  H22  1  0.02251000  0.17477000  0.28122000  1.0
  H  H23  1  0.30371000  0.32512000  0.71876000  1.0
  C  C24  1  0.76857000  0.53712000  0.83506000  1.0
  C  C25  1  0.60371000  0.96290000  0.16482000  1.0
  C  C26  1  0.23144000  0.46288000  0.16493000  1.0
  C  C27  1  0.39629000  0.03710000  0.83518000  1.0
  C  C28  1  0.86798000  0.55290000  0.71090000  1.0
  C  C29  1  0.57879000  0.94724000  0.28904000  1.0
  C  C30  1  0.13203000  0.44710000  0.28910000  1.0
  C  C31  1  0.42121000  0.05276000  0.71096000  1.0
  C  C32  1  0.85679000  0.40989000  0.64153000  1.0
  C  C33  1  0.49821000  0.09020000  0.35844000  1.0
  C  C34  1  0.14321000  0.59011000  0.35847000  1.0
  C  C35  1  0.50179000  0.90980000  0.64156000  1.0
  C  C36  1  0.94863000  0.41902000  0.52373000  1.0
  C  C37  1  0.47230000  0.08097000  0.47626000  1.0
  C  C38  1  0.05137000  0.58098000  0.47627000  1.0
  C  C39  1  0.52770000  0.91902000  0.52374000  1.0
  C  C40  1  0.05769000  0.72676000  0.54899000  1.0
  C  C41  1  0.60682000  0.77330000  0.45100000  1.0
  C  C42  1  0.94232000  0.27324000  0.45101000  1.0
  C  C43  1  0.39318000  0.22670000  0.54900000  1.0
  C  C44  1  0.97098000  0.71292000  0.66368000  1.0
  C  C45  1  0.63477000  0.78725000  0.33631000  1.0
  C  C46  1  0.02902000  0.28707000  0.33633000  1.0
  C  C47  1  0.36523000  0.21275000  0.66369000  1.0
  O  O48  1  0.64401000  0.40845000  0.87224000  1.0
  O  O49  1  0.51688000  0.09185000  0.12750000  1.0
  O  O50  1  0.35598000  0.59155000  0.12776000  1.0
  O  O51  1  0.48312000  0.90815000  0.87250000  1.0
  O  O52  1  0.23797000  0.60506000  0.87584000  1.0
  O  O53  1  0.11386000  0.89492000  0.12422000  1.0
  O  O54  1  0.76203000  0.39494000  0.12416000  1.0
  O  O55  1  0.88614000  0.10508000  0.87578000  1.0
  O  O56  1  0.81476000  0.65363000  0.90105000  1.0
  O  O57  1  0.71555000  0.84616000  0.09892000  1.0
  O  O58  1  0.18524000  0.34637000  0.09895000  1.0
  O  O59  1  0.28445000  0.15384000  0.90108000  1.0
