# generated using pymatgen
data_Zn3H35C34IO12
_symmetry_space_group_name_H-M   'P 1'
_cell_length_a   21.65780000
_cell_length_b   21.66500000
_cell_length_c   22.14570000
_cell_angle_alpha   118.86700000
_cell_angle_beta   119.19700000
_cell_angle_gamma   90.42360000
_symmetry_Int_Tables_number   1
_chemical_formula_structural   Zn3H35C34IO12
_chemical_formula_sum   'Zn6 H70 C68 I2 O24'
_cell_volume   7532.13697456
_cell_formula_units_Z   2
loop_
 _symmetry_equiv_pos_site_id
 _symmetry_equiv_pos_as_xyz
  1  'x, y, z'
loop_
 _atom_site_type_symbol
 _atom_site_label
 _atom_site_symmetry_multiplicity
 _atom_site_fract_x
 _atom_site_fract_y
 _atom_site_fract_z
 _atom_site_occupancy
  Zn  Zn0  1  0.94075000  0.00045000  0.49994000  1.0
  Zn  Zn1  1  0.05924000  0.99955000  0.50006000  1.0
  Zn  Zn2  1  0.50055000  0.44086000  0.50012000  1.0
  Zn  Zn3  1  0.49944000  0.55914000  0.49988000  1.0
  Zn  Zn4  1  0.03945000  0.54013000  0.57950000  1.0
  Zn  Zn5  1  0.96055000  0.45987000  0.42050000  1.0
  H  H6  1  0.21120000  0.42444000  0.53662000  1.0
  H  H7  1  0.78894000  0.57577000  0.46365000  1.0
  H  H8  1  0.80222000  0.76301000  0.92889000  1.0
  H  H9  1  0.19970000  0.23366000  0.07114000  1.0
  H  H10  1  0.70116000  0.83769000  0.07109000  1.0
  H  H11  1  0.30084000  0.16559000  0.92891000  1.0
  H  H12  1  0.76942000  0.88378000  0.07193000  1.0
  H  H13  1  0.23439000  0.11694000  0.92812000  1.0
  H  H14  1  0.62999000  0.76373000  0.92539000  1.0
  H  H15  1  0.37197000  0.23950000  0.07464000  1.0
  H  H16  1  0.71031000  0.72117000  0.07326000  1.0
  H  H17  1  0.28714000  0.28163000  0.92670000  1.0
  H  H18  1  0.63746000  0.64919000  0.92734000  1.0
  H  H19  1  0.35998000  0.35363000  0.07260000  1.0
  H  H20  1  0.69778000  0.81019000  0.92608000  1.0
  H  H21  1  0.30597000  0.19052000  0.07396000  1.0
  H  H22  1  0.88628000  0.78356000  0.46605000  1.0
  H  H23  1  0.11389000  0.21673000  0.53450000  1.0
  H  H24  1  0.95262000  0.83848000  0.57443000  1.0
  H  H25  1  0.04783000  0.16179000  0.42605000  1.0
  H  H26  1  0.95940000  0.73191000  0.57682000  1.0
  H  H27  1  0.04110000  0.26838000  0.42369000  1.0
  H  H28  1  0.37311000  0.56486000  0.63354000  1.0
  H  H29  1  0.62688000  0.43535000  0.36648000  1.0
  H  H30  1  0.88925000  0.67726000  0.46880000  1.0
  H  H31  1  0.11092000  0.32305000  0.53181000  1.0
  H  H32  1  0.92783000  0.74007000  0.36687000  1.0
  H  H33  1  0.07183000  0.26001000  0.63321000  1.0
  H  H34  1  0.92585000  0.63178000  0.36572000  1.0
  H  H35  1  0.07371000  0.36831000  0.63436000  1.0
  H  H36  1  0.11974000  0.83836000  0.56243000  1.0
  H  H37  1  0.88023000  0.16145000  0.43718000  1.0
  H  H38  1  0.09167000  0.86833000  0.63195000  1.0
  H  H39  1  0.90865000  0.13161000  0.36797000  1.0
  H  H40  1  0.09524000  0.75888000  0.62834000  1.0
  H  H41  1  0.90510000  0.24101000  0.37151000  1.0
  H  H42  1  0.12127000  0.72802000  0.55710000  1.0
  H  H43  1  0.87862000  0.27172000  0.44234000  1.0
  H  H44  1  0.02413000  0.76079000  0.40767000  1.0
  H  H45  1  0.97545000  0.23904000  0.59202000  1.0
  H  H46  1  0.02041000  0.64944000  0.40069000  1.0
  H  H47  1  0.97902000  0.35035000  0.59890000  1.0
  H  H48  1  0.15731000  0.38265000  0.42774000  1.0
  H  H49  1  0.84279000  0.61736000  0.57250000  1.0
  H  H50  1  0.26582000  0.56459000  0.63448000  1.0
  H  H51  1  0.73416000  0.43563000  0.36553000  1.0
  H  H52  1  0.27397000  0.55354000  0.43346000  1.0
  H  H53  1  0.72593000  0.44628000  0.56635000  1.0
  H  H54  1  0.23633000  0.45572000  0.36701000  1.0
  H  H55  1  0.76367000  0.54409000  0.63296000  1.0
  H  H56  1  0.35157000  0.61729000  0.58896000  1.0
  H  H57  1  0.64835000  0.38276000  0.41088000  1.0
  H  H58  1  0.32004000  0.42367000  0.53889000  1.0
  H  H59  1  0.68008000  0.57651000  0.46136000  1.0
  H  H60  1  0.13011000  0.46206000  0.36989000  1.0
  H  H61  1  0.86987000  0.53771000  0.63004000  1.0
  H  H62  1  0.16822000  0.55967000  0.43744000  1.0
  H  H63  1  0.83164000  0.44012000  0.56231000  1.0
  H  H64  1  0.24668000  0.62081000  0.59508000  1.0
  H  H65  1  0.75322000  0.37924000  0.40472000  1.0
  H  H66  1  0.26621000  0.37861000  0.43000000  1.0
  H  H67  1  0.73389000  0.62142000  0.57023000  1.0
  H  H68  1  0.71049000  0.61283000  0.92838000  1.0
  H  H69  1  0.28558000  0.38717000  0.07154000  1.0
  H  H70  1  0.78401000  0.68648000  0.07367000  1.0
  H  H71  1  0.21212000  0.31345000  0.92624000  1.0
  H  H72  1  0.87627000  0.83321000  0.07370000  1.0
  H  H73  1  0.12553000  0.16339000  0.92630000  1.0
  H  H74  1  0.88049000  0.75199000  0.07383000  1.0
  H  H75  1  0.11825000  0.24439000  0.92617000  1.0
  C  C76  1  0.00011000  0.88136000  0.50142000  1.0
  C  C77  1  0.99991000  0.11867000  0.49862000  1.0
  C  C78  1  0.79104000  0.79037000  0.08173000  1.0
  C  C79  1  0.20896000  0.20957000  0.91826000  1.0
  C  C80  1  0.69719000  0.66468000  0.95247000  1.0
  C  C81  1  0.30042000  0.33634000  0.04748000  1.0
  C  C82  1  0.71050000  0.70741000  0.91839000  1.0
  C  C83  1  0.28942000  0.29253000  0.08159000  1.0
  C  C84  1  0.68984000  0.78010000  0.95122000  1.0
  C  C85  1  0.31227000  0.22133000  0.04880000  1.0
  C  C86  1  0.73681000  0.82867000  0.04745000  1.0
  C  C87  1  0.26532000  0.17279000  0.95257000  1.0
  C  C88  1  0.66502000  0.66288000  0.82801000  1.0
  C  C89  1  0.33494000  0.33706000  0.17197000  1.0
  C  C90  1  0.83595000  0.83568000  0.17208000  1.0
  C  C91  1  0.16404000  0.16429000  0.82791000  1.0
  C  C92  1  0.87360000  0.87371000  0.24778000  1.0
  C  C93  1  0.12638000  0.12630000  0.75222000  1.0
  C  C94  1  0.94175000  0.79145000  0.51556000  1.0
  C  C95  1  0.05848000  0.20877000  0.48483000  1.0
  C  C96  1  0.94426000  0.72044000  0.51643000  1.0
  C  C97  1  0.05598000  0.27978000  0.48398000  1.0
  C  C98  1  0.91856000  0.91877000  0.33754000  1.0
  C  C99  1  0.08142000  0.08124000  0.66246000  1.0
  C  C100  1  0.98216000  0.74644000  0.41699000  1.0
  C  C101  1  0.01755000  0.25354000  0.58294000  1.0
  C  C102  1  0.07819000  0.82203000  0.57117000  1.0
  C  C103  1  0.92192000  0.17788000  0.42865000  1.0
  C  C104  1  0.00012000  0.81146000  0.50202000  1.0
  C  C105  1  0.99992000  0.18858000  0.49805000  1.0
  C  C106  1  0.00228000  0.68983000  0.49925000  1.0
  C  C107  1  0.99770000  0.31019000  0.50075000  1.0
  C  C108  1  0.98111000  0.67389000  0.41482000  1.0
  C  C109  1  0.01853000  0.32607000  0.58507000  1.0
  C  C110  1  0.07962000  0.74943000  0.56869000  1.0
  C  C111  1  0.92047000  0.25044000  0.43108000  1.0
  C  C112  1  0.20580000  0.42932000  0.48718000  1.0
  C  C113  1  0.79429000  0.57076000  0.51301000  1.0
  C  C114  1  0.25010000  0.50407000  0.42686000  1.0
  C  C115  1  0.74985000  0.49579000  0.57305000  1.0
  C  C116  1  0.17967000  0.50761000  0.42877000  1.0
  C  C117  1  0.82027000  0.49223000  0.57111000  1.0
  C  C118  1  0.19046000  0.50309000  0.50048000  1.0
  C  C119  1  0.80953000  0.49692000  0.49951000  1.0
  C  C120  1  0.32882000  0.56700000  0.58190000  1.0
  C  C121  1  0.67115000  0.43310000  0.41805000  1.0
  C  C122  1  0.25827000  0.56830000  0.58374000  1.0
  C  C123  1  0.74168000  0.43181000  0.41619000  1.0
  C  C124  1  0.38015000  0.49884000  0.49890000  1.0
  C  C125  1  0.61986000  0.50119000  0.50112000  1.0
  C  C126  1  0.58120000  0.58153000  0.66258000  1.0
  C  C127  1  0.41881000  0.41849000  0.33741000  1.0
  C  C128  1  0.87990000  0.49801000  0.49976000  1.0
  C  C129  1  0.12010000  0.50201000  0.50025000  1.0
  C  C130  1  0.00157000  0.61979000  0.49962000  1.0
  C  C131  1  0.99842000  0.38023000  0.50040000  1.0
  C  C132  1  0.30966000  0.49826000  0.49831000  1.0
  C  C133  1  0.69035000  0.50176000  0.50172000  1.0
  C  C134  1  0.27769000  0.42766000  0.48798000  1.0
  C  C135  1  0.72240000  0.57242000  0.51220000  1.0
  C  C136  1  0.74521000  0.71313000  0.04876000  1.0
  C  C137  1  0.25242000  0.28788000  0.95119000  1.0
  C  C138  1  0.84200000  0.77891000  0.04926000  1.0
  C  C139  1  0.15822000  0.21848000  0.95075000  1.0
  C  C140  1  0.79431000  0.73232000  0.95328000  1.0
  C  C141  1  0.20595000  0.26507000  0.04671000  1.0
  C  C142  1  0.62581000  0.62614000  0.75238000  1.0
  C  C143  1  0.37421000  0.37386000  0.24761000  1.0
  I  I144  1  0.83237000  0.63822000  0.90308000  1.0
  I  I145  1  0.16536000  0.35673000  0.09700000  1.0
  O  O146  1  0.94782000  0.90856000  0.50076000  1.0
  O  O147  1  0.05220000  0.09145000  0.49926000  1.0
  O  O148  1  0.87197000  0.46355000  0.42931000  1.0
  O  O149  1  0.12803000  0.53645000  0.57068000  1.0
  O  O150  1  0.03579000  0.62869000  0.57077000  1.0
  O  O151  1  0.96421000  0.37132000  0.42923000  1.0
  O  O152  1  0.96564000  0.55726000  0.42926000  1.0
  O  O153  1  0.03435000  0.44275000  0.57075000  1.0
  O  O154  1  0.05250000  0.90759000  0.50042000  1.0
  O  O155  1  0.94751000  0.09243000  0.49959000  1.0
  O  O156  1  0.88360000  0.93679000  0.37310000  1.0
  O  O157  1  0.11640000  0.06322000  0.62689000  1.0
  O  O158  1  0.98928000  0.93656000  0.37324000  1.0
  O  O159  1  0.01071000  0.06345000  0.62676000  1.0
  O  O160  1  0.40798000  0.44717000  0.49947000  1.0
  O  O161  1  0.59204000  0.55284000  0.50055000  1.0
  O  O162  1  0.40730000  0.55215000  0.49976000  1.0
  O  O163  1  0.59269000  0.44785000  0.50024000  1.0
  O  O164  1  0.56359000  0.51103000  0.62699000  1.0
  O  O165  1  0.43642000  0.48896000  0.37299000  1.0
  O  O166  1  0.56353000  0.61659000  0.62695000  1.0
  O  O167  1  0.43647000  0.38341000  0.37305000  1.0
  O  O168  1  0.94220000  0.53501000  0.57081000  1.0
  O  O169  1  0.05779000  0.46499000  0.42919000  1.0
