# generated using pymatgen
data_SmH15(C8O3)3
_symmetry_space_group_name_H-M   'P 1'
_cell_length_a   7.66061000
_cell_length_b   9.66322000
_cell_length_c   13.64690000
_cell_angle_alpha   81.67390000
_cell_angle_beta   88.30930000
_cell_angle_gamma   82.79430000
_symmetry_Int_Tables_number   1
_chemical_formula_structural   SmH15(C8O3)3
_chemical_formula_sum   'Sm2 H30 C48 O18'
_cell_volume   991.61909577
_cell_formula_units_Z   2
loop_
 _symmetry_equiv_pos_site_id
 _symmetry_equiv_pos_as_xyz
  1  'x, y, z'
loop_
 _atom_site_type_symbol
 _atom_site_label
 _atom_site_symmetry_multiplicity
 _atom_site_fract_x
 _atom_site_fract_y
 _atom_site_fract_z
 _atom_site_occupancy
  Sm  Sm0  1  0.75686000  0.98233000  0.04937000  1.0
  Sm  Sm1  1  0.24314000  0.01767000  0.95063000  1.0
  H  H2  1  0.58969000  0.98213000  0.24510000  1.0
  H  H3  1  0.41031000  0.01787000  0.75491000  1.0
  H  H4  1  0.44461000  0.93464000  0.17843000  1.0
  H  H5  1  0.55538000  0.06536000  0.82157000  1.0
  H  H6  1  0.86525000  0.39251000  0.08006000  1.0
  H  H7  1  0.13476000  0.60750000  0.91994000  1.0
  H  H8  1  0.66677000  0.61600000  0.07880000  1.0
  H  H9  1  0.33325000  0.38401000  0.92120000  1.0
  H  H10  1  0.47368000  0.74165000  0.73990000  1.0
  H  H11  1  0.52632000  0.25834000  0.26010000  1.0
  H  H12  1  0.52966000  0.63232000  0.58900000  1.0
  H  H13  1  0.47033000  0.36768000  0.41101000  1.0
  H  H14  1  0.73353000  0.40926000  0.59102000  1.0
  H  H15  1  0.26647000  0.59074000  0.40898000  1.0
  H  H16  1  0.30249000  0.19557000  0.69585000  1.0
  H  H17  1  0.69749000  0.80443000  0.30415000  1.0
  H  H18  1  0.88788000  0.30018000  0.74459000  1.0
  H  H19  1  0.11212000  0.69982000  0.25541000  1.0
  H  H20  1  0.31885000  0.83368000  0.33405000  1.0
  H  H21  1  0.68115000  0.16631000  0.66595000  1.0
  H  H22  1  0.37574000  0.87169000  0.50598000  1.0
  H  H23  1  0.62426000  0.12831000  0.49402000  1.0
  H  H24  1  0.02763000  0.31449000  0.54592000  1.0
  H  H25  1  0.97237000  0.68551000  0.45408000  1.0
  H  H26  1  0.83596000  0.48891000  0.43572000  1.0
  H  H27  1  0.16404000  0.51109000  0.56428000  1.0
  H  H28  1  0.79349000  0.45524000  0.26096000  1.0
  H  H29  1  0.20650000  0.54476000  0.73904000  1.0
  H  H30  1  0.93078000  0.23786000  0.20047000  1.0
  H  H31  1  0.06922000  0.76213000  0.79953000  1.0
  C  C32  1  0.84505000  0.38904000  0.92429000  1.0
  C  C33  1  0.15496000  0.61096000  0.07571000  1.0
  C  C34  1  0.80624000  0.44541000  0.01106000  1.0
  C  C35  1  0.19376000  0.55459000  0.98894000  1.0
  C  C36  1  0.69409000  0.57185000  0.01031000  1.0
  C  C37  1  0.30591000  0.42814000  0.98969000  1.0
  C  C38  1  0.61614000  0.64128000  0.92363000  1.0
  C  C39  1  0.38386000  0.35872000  0.07637000  1.0
  C  C40  1  0.64515000  0.58257000  0.83289000  1.0
  C  C41  1  0.35485000  0.41743000  0.16711000  1.0
  C  C42  1  0.56392000  0.64516000  0.74222000  1.0
  C  C43  1  0.43608000  0.35484000  0.25778000  1.0
  C  C44  1  0.59483000  0.58301000  0.65753000  1.0
  C  C45  1  0.40516000  0.41699000  0.34248000  1.0
  C  C46  1  0.70982000  0.45687000  0.65859000  1.0
  C  C47  1  0.29018000  0.54313000  0.34140000  1.0
  C  C48  1  0.79454000  0.39496000  0.74449000  1.0
  C  C49  1  0.20546000  0.60504000  0.25551000  1.0
  C  C50  1  0.76457000  0.45473000  0.83346000  1.0
  C  C51  1  0.23544000  0.54527000  0.16654000  1.0
  C  C52  1  0.97913000  0.26229000  0.92926000  1.0
  C  C53  1  0.02088000  0.73771000  0.07074000  1.0
  C  C54  1  0.49566000  0.77202000  0.93227000  1.0
  C  C55  1  0.50434000  0.22799000  0.06773000  1.0
  C  C56  1  0.14866000  0.02835000  0.30090000  1.0
  C  C57  1  0.85135000  0.97164000  0.69910000  1.0
  C  C58  1  0.25796000  0.92904000  0.36140000  1.0
  C  C59  1  0.74204000  0.07095000  0.63860000  1.0
  C  C60  1  0.28994000  0.95002000  0.45830000  1.0
  C  C61  1  0.71005000  0.04998000  0.54170000  1.0
  C  C62  1  0.21662000  0.07042000  0.49627000  1.0
  C  C63  1  0.78338000  0.92958000  0.50373000  1.0
  C  C64  1  0.09991000  0.17514000  0.43651000  1.0
  C  C65  1  0.90008000  0.82486000  0.56349000  1.0
  C  C66  1  0.00996000  0.29751000  0.47017000  1.0
  C  C67  1  0.99004000  0.70249000  0.52983000  1.0
  C  C68  1  0.90185000  0.39510000  0.40826000  1.0
  C  C69  1  0.09814000  0.60491000  0.59174000  1.0
  C  C70  1  0.87698000  0.37609000  0.30939000  1.0
  C  C71  1  0.12303000  0.62391000  0.69061000  1.0
  C  C72  1  0.95632000  0.25635000  0.27515000  1.0
  C  C73  1  0.04369000  0.74365000  0.72485000  1.0
  C  C74  1  0.06741000  0.15291000  0.33676000  1.0
  C  C75  1  0.93260000  0.84708000  0.66324000  1.0
  C  C76  1  0.10867000  0.00023000  0.19881000  1.0
  C  C77  1  0.89134000  0.99977000  0.80119000  1.0
  C  C78  1  0.27448000  0.07743000  0.59808000  1.0
  C  C79  1  0.72550000  0.92258000  0.40191000  1.0
  O  O80  1  0.96062000  0.15490000  0.99619000  1.0
  O  O81  1  0.03939000  0.84511000  0.00381000  1.0
  O  O82  1  0.57305000  0.91810000  0.19486000  1.0
  O  O83  1  0.42695000  0.08190000  0.80514000  1.0
  O  O84  1  0.11344000  0.26091000  0.87345000  1.0
  O  O85  1  0.88656000  0.73909000  0.12655000  1.0
  O  O86  1  0.35814000  0.80488000  0.88088000  1.0
  O  O87  1  0.64187000  0.19512000  0.11912000  1.0
  O  O88  1  0.52951000  0.85202000  0.99670000  1.0
  O  O89  1  0.47049000  0.14798000  0.00331000  1.0
  O  O90  1  0.94990000  0.99323000  0.18122000  1.0
  O  O91  1  0.05011000  0.00677000  0.81878000  1.0
  O  O92  1  0.23694000  0.98335000  0.13688000  1.0
  O  O93  1  0.76306000  0.01666000  0.86312000  1.0
  O  O94  1  0.34443000  0.97166000  0.65165000  1.0
  O  O95  1  0.65556000  0.02834000  0.34836000  1.0
  O  O96  1  0.25522000  0.20598000  0.62764000  1.0
  O  O97  1  0.74476000  0.79402000  0.37236000  1.0
