# generated using pymatgen
data_LaH14C21NO7
_symmetry_space_group_name_H-M   'P 1'
_cell_length_a   13.02840000
_cell_length_b   14.70480000
_cell_length_c   14.70480000
_cell_angle_alpha   111.67500000
_cell_angle_beta   107.17100000
_cell_angle_gamma   107.17100000
_symmetry_Int_Tables_number   1
_chemical_formula_structural   LaH14C21NO7
_chemical_formula_sum   'La3 H42 C63 N3 O21'
_cell_volume   2226.95376723
_cell_formula_units_Z   3
loop_
 _symmetry_equiv_pos_site_id
 _symmetry_equiv_pos_as_xyz
  1  'x, y, z'
loop_
 _atom_site_type_symbol
 _atom_site_label
 _atom_site_symmetry_multiplicity
 _atom_site_fract_x
 _atom_site_fract_y
 _atom_site_fract_z
 _atom_site_occupancy
  La  La0  1  0.00000000  0.31812000  0.68188000  1.0
  La  La1  1  0.31806000  0.31803000  0.63622000  1.0
  La  La2  1  0.68194000  0.36378000  0.68197000  1.0
  H  H3  1  0.06564000  0.19263000  0.82539000  1.0
  H  H4  1  0.67518000  0.82471000  0.51617000  1.0
  H  H5  1  0.76163000  0.02785000  0.61834000  1.0
  H  H6  1  0.51385000  0.01797000  0.34344000  1.0
  H  H7  1  0.43014000  0.81576000  0.23723000  1.0
  H  H8  1  0.42101000  0.71065000  0.46101000  1.0
  H  H9  1  0.41645000  0.60507000  0.56045000  1.0
  H  H10  1  0.24040000  0.17484000  0.36715000  1.0
  H  H11  1  0.15895000  0.48374000  0.30852000  1.0
  H  H12  1  0.14319000  0.38162000  0.40954000  1.0
  H  H13  1  0.17045000  0.65669000  0.67461000  1.0
  H  H14  1  0.19296000  0.76281000  0.57854000  1.0
  H  H15  1  0.96013000  0.53898000  0.24967000  1.0
  H  H16  1  0.85609000  0.43955000  0.04461000  1.0
  H  H17  1  0.87281000  0.63276000  0.80709000  1.0
  H  H18  1  0.85051000  0.69148000  0.17534000  1.0
  H  H19  1  0.73382000  0.59056000  0.97217000  1.0
  H  H20  1  0.49597000  0.32549000  0.98208000  1.0
  H  H21  1  0.61440000  0.42150000  0.18424000  1.0
  H  H22  1  0.71030000  0.75029000  0.28932000  1.0
  H  H23  1  0.81134000  0.95537000  0.39487000  1.0
  H  H24  1  0.75960000  0.63285000  0.82517000  1.0
  H  H25  1  0.84105000  0.69148000  0.51626000  1.0
  H  H26  1  0.85681000  0.59046000  0.61838000  1.0
  H  H27  1  0.82955000  0.32539000  0.34331000  1.0
  H  H28  1  0.80704000  0.42146000  0.23719000  1.0
  H  H29  1  0.03987000  0.75033000  0.46102000  1.0
  H  H30  1  0.14391000  0.95539000  0.56045000  1.0
  H  H31  1  0.12719000  0.19291000  0.36724000  1.0
  H  H32  1  0.14949000  0.82466000  0.30852000  1.0
  H  H33  1  0.26618000  0.02783000  0.40944000  1.0
  H  H34  1  0.50404000  0.01792000  0.67451000  1.0
  H  H35  1  0.38560000  0.81576000  0.57849000  1.0
  H  H36  1  0.28970000  0.71068000  0.24971000  1.0
  H  H37  1  0.18866000  0.60513000  0.04463000  1.0
  H  H38  1  0.93436000  0.17461000  0.80737000  1.0
  H  H39  1  0.32482000  0.48383000  0.17529000  1.0
  H  H40  1  0.23837000  0.38166000  0.97215000  1.0
  H  H41  1  0.48615000  0.65656000  0.98202000  1.0
  H  H42  1  0.56986000  0.76277000  0.18424000  1.0
  H  H43  1  0.57899000  0.53899000  0.28935000  1.0
  H  H44  1  0.58355000  0.43955000  0.39493000  1.0
  C  C45  1  0.54654000  0.80517000  0.36919000  1.0
  C  C46  1  0.63943000  0.86667000  0.47796000  1.0
  C  C47  1  0.68755000  0.98031000  0.53532000  1.0
  C  C48  1  0.64359000  0.03592000  0.48720000  1.0
  C  C49  1  0.54956000  0.97464000  0.37975000  1.0
  C  C50  1  0.50207000  0.86122000  0.32106000  1.0
  C  C51  1  0.69060000  0.15680000  0.54888000  1.0
  C  C52  1  0.45561000  0.65058000  0.44640000  1.0
  C  C53  1  0.45438000  0.59250000  0.50261000  1.0
  C  C54  1  0.17733000  0.63078000  0.43596000  1.0
  C  C55  1  0.16140000  0.52198000  0.38870000  1.0
  C  C56  1  0.15217000  0.46467000  0.44502000  1.0
  C  C57  1  0.15639000  0.51285000  0.54878000  1.0
  C  C58  1  0.16986000  0.62034000  0.59496000  1.0
  C  C59  1  0.18101000  0.67895000  0.54016000  1.0
  C  C60  1  0.14178000  0.45114000  0.60792000  1.0
  C  C61  1  0.00930000  0.55360000  0.20418000  1.0
  C  C62  1  0.95183000  0.49742000  0.08989000  1.0
  C  C63  1  0.74138000  0.56405000  0.19485000  1.0
  C  C64  1  0.77277000  0.61133000  0.13335000  1.0
  C  C65  1  0.70727000  0.55507000  0.01971000  1.0
  C  C66  1  0.60776000  0.45131000  0.96411000  1.0
  C  C67  1  0.57502000  0.40511000  0.02538000  1.0
  C  C68  1  0.64088000  0.45988000  0.13879000  1.0
  C  C69  1  0.53392000  0.39212000  0.84327000  1.0
  C  C70  1  0.80497000  0.79579000  0.34938000  1.0
  C  C71  1  0.86182000  0.91010000  0.40744000  1.0
  C  C72  1  0.82267000  0.56404000  0.36922000  1.0
  C  C73  1  0.83860000  0.61130000  0.47802000  1.0
  C  C74  1  0.84783000  0.55498000  0.53533000  1.0
  C  C75  1  0.84361000  0.45122000  0.48715000  1.0
  C  C76  1  0.83014000  0.40504000  0.37966000  1.0
  C  C77  1  0.81899000  0.45984000  0.32105000  1.0
  C  C78  1  0.85822000  0.39208000  0.54886000  1.0
  C  C79  1  0.99070000  0.79582000  0.44640000  1.0
  C  C80  1  0.04817000  0.91011000  0.50258000  1.0
  C  C81  1  0.25862000  0.80515000  0.43595000  1.0
  C  C82  1  0.22723000  0.86665000  0.38867000  1.0
  C  C83  1  0.29273000  0.98029000  0.44493000  1.0
  C  C84  1  0.39224000  0.03589000  0.54869000  1.0
  C  C85  1  0.42498000  0.97462000  0.59488000  1.0
  C  C86  1  0.35912000  0.86121000  0.54012000  1.0
  C  C87  1  0.46608000  0.15673000  0.60788000  1.0
  C  C88  1  0.19503000  0.65062000  0.20421000  1.0
  C  C89  1  0.13818000  0.59256000  0.08990000  1.0
  C  C90  1  0.45346000  0.63081000  0.19483000  1.0
  C  C91  1  0.36057000  0.52204000  0.13333000  1.0
  C  C92  1  0.31245000  0.46469000  0.01969000  1.0
  C  C93  1  0.35641000  0.51280000  0.96407000  1.0
  C  C94  1  0.45044000  0.62025000  0.02536000  1.0
  C  C95  1  0.49792000  0.67893000  0.13878000  1.0
  C  C96  1  0.30939000  0.45112000  0.84320000  1.0
  C  C97  1  0.54439000  0.55360000  0.34942000  1.0
  C  C98  1  0.54562000  0.49739000  0.40751000  1.0
  C  C99  1  0.50000000  0.63112000  0.36888000  1.0
  C  C100  1  0.50000000  0.51568000  0.48432000  1.0
  C  C101  1  0.50000000  0.45408000  0.54592000  1.0
  C  C102  1  0.13120000  0.63112000  0.26225000  1.0
  C  C103  1  0.01575000  0.51576000  0.03139000  1.0
  C  C104  1  0.95413000  0.45412000  0.90820000  1.0
  C  C105  1  0.86880000  0.73775000  0.36888000  1.0
  C  C106  1  0.98425000  0.96861000  0.48424000  1.0
  C  C107  1  0.04587000  0.09180000  0.54588000  1.0
  N  N108  1  0.50000000  0.68976000  0.31024000  1.0
  N  N109  1  0.18979000  0.68973000  0.37951000  1.0
  N  N110  1  0.81021000  0.62049000  0.31027000  1.0
  O  O111  1  0.63191000  0.20048000  0.51038000  1.0
  O  O112  1  0.78656000  0.21439000  0.64238000  1.0
  O  O113  1  0.57867000  0.41897000  0.55935000  1.0
  O  O114  1  0.12160000  0.48960000  0.69014000  1.0
  O  O115  1  0.14424000  0.35764000  0.57190000  1.0
  O  O116  1  0.01939000  0.44092000  0.85962000  1.0
  O  O117  1  0.43151000  0.30996000  0.79959000  1.0
  O  O118  1  0.57227000  0.42807000  0.78570000  1.0
  O  O119  1  0.15969000  0.14033000  0.58128000  1.0
  O  O120  1  0.87840000  0.30986000  0.51040000  1.0
  O  O121  1  0.85576000  0.42810000  0.64236000  1.0
  O  O122  1  0.98061000  0.14038000  0.55908000  1.0
  O  O123  1  0.56849000  0.20041000  0.69004000  1.0
  O  O124  1  0.42773000  0.21430000  0.57193000  1.0
  O  O125  1  0.84031000  0.41872000  0.85967000  1.0
  O  O126  1  0.36809000  0.48962000  0.79952000  1.0
  O  O127  1  0.21344000  0.35762000  0.78561000  1.0
  O  O128  1  0.42133000  0.44065000  0.58103000  1.0
  O  O129  1  0.00000000  0.20697000  0.79303000  1.0
  O  O130  1  0.20669000  0.20629000  0.41389000  1.0
  O  O131  1  0.79330000  0.58611000  0.79370000  1.0
