# generated using pymatgen
data_Zn2H36C29(NO)8
_symmetry_space_group_name_H-M   'P 1'
_cell_length_a   10.15630000
_cell_length_b   18.17900000
_cell_length_c   21.78354964
_cell_angle_alpha   67.96514983
_cell_angle_beta   76.53637129
_cell_angle_gamma   89.99660000
_symmetry_Int_Tables_number   1
_chemical_formula_structural   Zn2H36C29(NO)8
_chemical_formula_sum   'Zn8 H144 C116 N32 O32'
_cell_volume   3608.65364377
_cell_formula_units_Z   4
loop_
 _symmetry_equiv_pos_site_id
 _symmetry_equiv_pos_as_xyz
  1  'x, y, z'
loop_
 _atom_site_type_symbol
 _atom_site_label
 _atom_site_symmetry_multiplicity
 _atom_site_fract_x
 _atom_site_fract_y
 _atom_site_fract_z
 _atom_site_occupancy
  Zn  Zn0  1  0.45930000  0.24480000  0.83934000  1.0
  Zn  Zn1  1  0.29862000  0.25526000  0.16071000  1.0
  Zn  Zn2  1  0.54070000  0.75520000  0.16066000  1.0
  Zn  Zn3  1  0.70138000  0.74474000  0.83929000  1.0
  Zn  Zn4  1  0.73126000  0.25609000  0.65457000  1.0
  Zn  Zn5  1  0.38620000  0.24393000  0.34538000  1.0
  Zn  Zn6  1  0.26874000  0.74391000  0.34543000  1.0
  Zn  Zn7  1  0.61380000  0.75607000  0.65462000  1.0
  H  H8  1  0.35823000  0.42874000  0.76176000  1.0
  H  H9  1  0.12025000  0.07142000  0.23815000  1.0
  H  H10  1  0.64177000  0.57126000  0.23824000  1.0
  H  H11  1  0.87975000  0.92858000  0.76185000  1.0
  H  H12  1  0.18643000  0.24369000  0.95178000  1.0
  H  H13  1  0.13779000  0.25654000  0.04822000  1.0
  H  H14  1  0.81357000  0.75631000  0.04822000  1.0
  H  H15  1  0.86221000  0.74346000  0.95178000  1.0
  H  H16  1  0.01004000  0.36401000  0.92862000  1.0
  H  H17  1  0.93835000  0.13618000  0.07141000  1.0
  H  H18  1  0.98996000  0.63599000  0.07138000  1.0
  H  H19  1  0.06165000  0.86382000  0.92859000  1.0
  H  H20  1  0.20633000  0.53303000  0.76256000  1.0
  H  H21  1  0.96915000  0.96709000  0.23735000  1.0
  H  H22  1  0.79366000  0.46697000  0.23744000  1.0
  H  H23  1  0.03085000  0.03291000  0.76265000  1.0
  H  H24  1  0.06742000  0.51679000  0.83333000  1.0
  H  H25  1  0.90092000  0.98337000  0.16657000  1.0
  H  H26  1  0.93258000  0.48321000  0.16667000  1.0
  H  H27  1  0.09907000  0.01664000  0.83343000  1.0
  H  H28  1  0.17543000  0.47153000  0.67579000  1.0
  H  H29  1  0.85132000  0.02827000  0.32431000  1.0
  H  H30  1  0.82457000  0.52848000  0.32421000  1.0
  H  H31  1  0.14869000  0.97173000  0.67568000  1.0
  H  H32  1  0.10549000  0.38042000  0.74385000  1.0
  H  H33  1  0.84948000  0.11944000  0.25628000  1.0
  H  H34  1  0.89452000  0.61958000  0.25614000  1.0
  H  H35  1  0.15052000  0.88056000  0.74372000  1.0
  H  H36  1  0.01093000  0.53133000  0.58466000  1.0
  H  H37  1  0.59568000  0.96851000  0.41537000  1.0
  H  H38  1  0.98906000  0.46867000  0.41534000  1.0
  H  H39  1  0.40432000  0.03149000  0.58463000  1.0
  H  H40  1  0.84168000  0.43957000  0.55019000  1.0
  H  H41  1  0.39199000  0.06035000  0.44975000  1.0
  H  H42  1  0.15831000  0.56043000  0.44982000  1.0
  H  H43  1  0.60801000  0.93965000  0.55025000  1.0
  H  H44  1  0.94355000  0.29318000  0.73089000  1.0
  H  H45  1  0.67457000  0.20664000  0.26911000  1.0
  H  H46  1  0.05645000  0.70682000  0.26911000  1.0
  H  H47  1  0.32544000  0.79336000  0.73089000  1.0
  H  H48  1  0.10023000  0.59569000  0.66850000  1.0
  H  H49  1  0.76934000  0.90418000  0.33134000  1.0
  H  H50  1  0.89976000  0.40431000  0.33150000  1.0
  H  H51  1  0.23066000  0.09582000  0.66866000  1.0
  H  H52  1  0.92485000  0.57378000  0.67725000  1.0
  H  H53  1  0.60259000  0.92602000  0.32271000  1.0
  H  H54  1  0.07515000  0.42622000  0.32275000  1.0
  H  H55  1  0.39742000  0.07398000  0.67728000  1.0
  H  H56  1  0.75014000  0.62869000  0.75114000  1.0
  H  H57  1  0.50146000  0.87104000  0.24900000  1.0
  H  H58  1  0.24986000  0.37132000  0.24886000  1.0
  H  H59  1  0.49855000  0.12896000  0.75099000  1.0
  H  H60  1  0.01552000  0.73647000  0.82313000  1.0
  H  H61  1  0.83892000  0.76388000  0.17628000  1.0
  H  H62  1  0.98448000  0.26353000  0.17687000  1.0
  H  H63  1  0.16108000  0.23611000  0.82372000  1.0
  H  H64  1  0.16766000  0.65703000  0.74829000  1.0
  H  H65  1  0.91652000  0.84318000  0.25119000  1.0
  H  H66  1  0.83234000  0.34296000  0.25171000  1.0
  H  H67  1  0.08348000  0.15682000  0.74881000  1.0
  H  H68  1  0.54930000  0.40642000  0.70401000  1.0
  H  H69  1  0.25354000  0.09367000  0.29592000  1.0
  H  H70  1  0.45070000  0.59358000  0.29599000  1.0
  H  H71  1  0.74645000  0.90634000  0.70408000  1.0
  H  H72  1  0.73951000  0.51715000  0.69979000  1.0
  H  H73  1  0.43954000  0.98290000  0.30022000  1.0
  H  H74  1  0.26050000  0.48285000  0.30020000  1.0
  H  H75  1  0.56045000  0.01710000  0.69978000  1.0
  H  H76  1  0.72842000  0.29461000  0.86746000  1.0
  H  H77  1  0.59600000  0.20539000  0.13252000  1.0
  H  H78  1  0.27158000  0.70539000  0.13254000  1.0
  H  H79  1  0.40400000  0.79461000  0.86748000  1.0
  H  H80  1  0.90149000  0.39285000  0.84946000  1.0
  H  H81  1  0.75098000  0.10715000  0.15056000  1.0
  H  H82  1  0.09851000  0.60715000  0.15054000  1.0
  H  H83  1  0.24901000  0.89285000  0.84944000  1.0
  H  H84  1  0.83942000  0.48755000  0.83147000  1.0
  H  H85  1  0.67091000  0.01247000  0.16851000  1.0
  H  H86  1  0.16058000  0.51245000  0.16853000  1.0
  H  H87  1  0.32908000  0.98753000  0.83149000  1.0
  H  H88  1  0.86786000  0.05861000  0.85641000  1.0
  H  H89  1  0.72466000  0.44129000  0.14360000  1.0
  H  H90  1  0.13215000  0.94139000  0.14359000  1.0
  H  H91  1  0.27536000  0.55871000  0.85639000  1.0
  H  H92  1  0.74712000  0.12169000  0.87783000  1.0
  H  H93  1  0.62533000  0.37821000  0.12216000  1.0
  H  H94  1  0.25290000  0.87831000  0.12217000  1.0
  H  H95  1  0.37467000  0.62179000  0.87784000  1.0
  H  H96  1  0.67873000  0.99029000  0.83044000  1.0
  H  H97  1  0.50965000  0.50973000  0.16941000  1.0
  H  H98  1  0.32128000  0.00972000  0.16956000  1.0
  H  H99  1  0.49035000  0.49027000  0.83059000  1.0
  H  H100  1  0.56433000  0.04977000  0.86013000  1.0
  H  H101  1  0.42496000  0.45026000  0.13969000  1.0
  H  H102  1  0.43568000  0.95023000  0.13987000  1.0
  H  H103  1  0.57504000  0.54974000  0.86031000  1.0
  H  H104  1  0.61261000  0.99030000  0.97541000  1.0
  H  H105  1  0.58858000  0.50972000  0.02445000  1.0
  H  H106  1  0.38739000  0.00970000  0.02460000  1.0
  H  H107  1  0.41141000  0.49027000  0.97555000  1.0
  H  H108  1  0.73036000  0.93183000  0.94705000  1.0
  H  H109  1  0.67775000  0.56827000  0.05284000  1.0
  H  H110  1  0.26965000  0.06817000  0.05295000  1.0
  H  H111  1  0.32226000  0.43173000  0.94715000  1.0
  H  H112  1  0.43130000  0.92261000  0.94131000  1.0
  H  H113  1  0.37293000  0.57705000  0.05852000  1.0
  H  H114  1  0.56869000  0.07739000  0.05870000  1.0
  H  H115  1  0.62707000  0.42295000  0.94148000  1.0
  H  H116  1  0.55351000  0.85806000  0.92714000  1.0
  H  H117  1  0.48036000  0.64166000  0.07296000  1.0
  H  H118  1  0.44649000  0.14195000  0.07286000  1.0
  H  H119  1  0.51964000  0.35834000  0.92704000  1.0
  H  H120  1  0.64574000  0.10034000  0.53206000  1.0
  H  H121  1  0.17751000  0.39923000  0.46787000  1.0
  H  H122  1  0.35427000  0.89966000  0.46794000  1.0
  H  H123  1  0.82249000  0.60076000  0.53213000  1.0
  H  H124  1  0.75730000  0.04656000  0.57860000  1.0
  H  H125  1  0.33536000  0.45335000  0.42148000  1.0
  H  H126  1  0.24269000  0.95344000  0.42140000  1.0
  H  H127  1  0.66464000  0.54665000  0.57852000  1.0
  H  H128  1  0.83522000  0.20259000  0.45136000  1.0
  H  H129  1  0.28641000  0.29733000  0.54871000  1.0
  H  H130  1  0.16478000  0.79741000  0.54864000  1.0
  H  H131  1  0.71360000  0.70266000  0.45129000  1.0
  H  H132  1  0.94875000  0.15572000  0.50097000  1.0
  H  H133  1  0.44948000  0.34423000  0.49916000  1.0
  H  H134  1  0.05125000  0.84428000  0.49904000  1.0
  H  H135  1  0.55052000  0.65577000  0.50084000  1.0
  H  H136  1  0.79611000  0.07448000  0.43365000  1.0
  H  H137  1  0.22929000  0.42549000  0.56628000  1.0
  H  H138  1  0.20389000  0.92553000  0.56635000  1.0
  H  H139  1  0.77070000  0.57451000  0.43372000  1.0
  H  H140  1  0.91569000  0.03165000  0.48006000  1.0
  H  H141  1  0.39527000  0.46835000  0.51992000  1.0
  H  H142  1  0.08431000  0.96836000  0.51994000  1.0
  H  H143  1  0.60473000  0.53164000  0.48008000  1.0
  H  H144  1  0.97303000  0.17802000  0.34348000  1.0
  H  H145  1  0.31623000  0.32194000  0.65649000  1.0
  H  H146  1  0.02696000  0.82198000  0.65652000  1.0
  H  H147  1  0.68376000  0.67805000  0.34351000  1.0
  H  H148  1  0.02088000  0.08108000  0.35580000  1.0
  H  H149  1  0.37596000  0.41894000  0.64427000  1.0
  H  H150  1  0.97911000  0.91893000  0.64420000  1.0
  H  H151  1  0.62403000  0.58105000  0.35573000  1.0
  C  C152  1  0.28829000  0.39288000  0.81005000  1.0
  C  C153  1  0.09840000  0.10727000  0.18990000  1.0
  C  C154  1  0.71171000  0.60711000  0.18995000  1.0
  C  C155  1  0.90160000  0.89273000  0.81011000  1.0
  C  C156  1  0.19434000  0.29993000  0.90885000  1.0
  C  C157  1  0.10294000  0.20027000  0.09114000  1.0
  C  C158  1  0.80565000  0.70007000  0.09115000  1.0
  C  C159  1  0.89706000  0.79973000  0.90886000  1.0
  C  C160  1  0.10617000  0.35822000  0.89727000  1.0
  C  C161  1  0.00323000  0.14195000  0.10274000  1.0
  C  C162  1  0.89382000  0.64178000  0.10273000  1.0
  C  C163  1  0.99677000  0.85805000  0.89726000  1.0
  C  C164  1  0.11651000  0.49142000  0.79628000  1.0
  C  C165  1  0.91297000  0.00869000  0.20365000  1.0
  C  C166  1  0.88349000  0.50858000  0.20372000  1.0
  C  C167  1  0.08703000  0.99131000  0.79635000  1.0
  C  C168  1  0.01445000  0.48490000  0.75444000  1.0
  C  C169  1  0.76906000  0.01507000  0.24554000  1.0
  C  C170  1  0.98555000  0.51511000  0.24556000  1.0
  C  C171  1  0.23094000  0.98493000  0.75446000  1.0
  C  C172  1  0.07930000  0.43768000  0.71055000  1.0
  C  C173  1  0.78997000  0.06217000  0.28953000  1.0
  C  C174  1  0.92070000  0.56233000  0.28945000  1.0
  C  C175  1  0.21004000  0.93783000  0.71046000  1.0
  C  C176  1  0.97227000  0.46897000  0.60917000  1.0
  C  C177  1  0.58156000  0.03088000  0.39084000  1.0
  C  C178  1  0.02773000  0.53103000  0.39083000  1.0
  C  C179  1  0.41845000  0.96911000  0.60915000  1.0
  C  C180  1  0.89172000  0.42330000  0.59169000  1.0
  C  C181  1  0.48352000  0.07659000  0.40827000  1.0
  C  C182  1  0.10828000  0.57670000  0.40831000  1.0
  C  C183  1  0.51648000  0.92341000  0.59173000  1.0
  C  C184  1  0.93801000  0.34503000  0.68625000  1.0
  C  C185  1  0.62440000  0.15482000  0.31376000  1.0
  C  C186  1  0.06199000  0.65497000  0.31375000  1.0
  C  C187  1  0.37561000  0.84518000  0.68624000  1.0
  C  C188  1  0.00171000  0.57151000  0.70583000  1.0
  C  C189  1  0.70797000  0.92836000  0.29407000  1.0
  C  C190  1  0.99829000  0.42849000  0.29417000  1.0
  C  C191  1  0.29203000  0.07164000  0.70593000  1.0
  C  C192  1  0.84004000  0.64412000  0.76432000  1.0
  C  C193  1  0.60459000  0.85574000  0.23566000  1.0
  C  C194  1  0.15995000  0.35588000  0.23568000  1.0
  C  C195  1  0.39542000  0.14426000  0.76433000  1.0
  C  C196  1  0.98239000  0.70146000  0.79787000  1.0
  C  C197  1  0.78056000  0.79872000  0.20173000  1.0
  C  C198  1  0.01760000  0.29854000  0.20213000  1.0
  C  C199  1  0.21944000  0.20127000  0.79828000  1.0
  C  C200  1  0.05858000  0.66235000  0.76148000  1.0
  C  C201  1  0.82052000  0.83782000  0.23809000  1.0
  C  C202  1  0.94142000  0.33764000  0.23852000  1.0
  C  C203  1  0.17948000  0.16218000  0.76191000  1.0
  C  C204  1  0.61333000  0.40080000  0.73854000  1.0
  C  C205  1  0.35207000  0.09924000  0.26139000  1.0
  C  C206  1  0.38666000  0.59920000  0.26146000  1.0
  C  C207  1  0.64793000  0.90076000  0.73861000  1.0
  C  C208  1  0.71121000  0.45503000  0.73507000  1.0
  C  C209  1  0.44646000  0.04500000  0.26490000  1.0
  C  C210  1  0.28879000  0.54497000  0.26493000  1.0
  C  C211  1  0.55353000  0.95500000  0.73510000  1.0
  C  C212  1  0.70845000  0.34003000  0.82186000  1.0
  C  C213  1  0.53047000  0.16001000  0.17811000  1.0
  C  C214  1  0.29154000  0.65997000  0.17814000  1.0
  C  C215  1  0.46953000  0.83999000  0.82189000  1.0
  C  C216  1  0.87971000  0.44498000  0.80839000  1.0
  C  C217  1  0.68819000  0.05501000  0.19161000  1.0
  C  C218  1  0.12029000  0.55502000  0.19161000  1.0
  C  C219  1  0.31181000  0.94499000  0.80839000  1.0
  C  C220  1  0.80153000  0.14011000  0.77117000  1.0
  C  C221  1  0.57296000  0.35991000  0.22882000  1.0
  C  C222  1  0.19847000  0.85989000  0.22884000  1.0
  C  C223  1  0.42704000  0.64009000  0.77118000  1.0
  C  C224  1  0.77448000  0.08594000  0.84644000  1.0
  C  C225  1  0.62132000  0.41400000  0.15352000  1.0
  C  C226  1  0.22553000  0.91406000  0.15356000  1.0
  C  C227  1  0.37868000  0.58600000  0.84648000  1.0
  C  C228  1  0.65849000  0.02099000  0.86633000  1.0
  C  C229  1  0.52531000  0.47899000  0.13354000  1.0
  C  C230  1  0.34152000  0.97901000  0.13367000  1.0
  C  C231  1  0.47469000  0.52101000  0.86646000  1.0
  C  C232  1  0.63621000  0.95990000  0.93945000  1.0
  C  C233  1  0.57609000  0.54010000  0.06043000  1.0
  C  C234  1  0.36380000  0.04010000  0.06055000  1.0
  C  C235  1  0.42391000  0.45990000  0.93957000  1.0
  C  C236  1  0.52151000  0.89562000  0.95664000  1.0
  C  C237  1  0.47828000  0.60423000  0.04329000  1.0
  C  C238  1  0.47850000  0.10438000  0.04336000  1.0
  C  C239  1  0.52172000  0.39577000  0.95671000  1.0
  C  C240  1  0.47502000  0.83966000  0.03149000  1.0
  C  C241  1  0.50650000  0.66036000  0.96849000  1.0
  C  C242  1  0.52500000  0.16034000  0.96850000  1.0
  C  C243  1  0.49350000  0.33963000  0.03151000  1.0
  C  C244  1  0.70600000  0.15161000  0.59539000  1.0
  C  C245  1  0.30181000  0.34825000  0.40457000  1.0
  C  C246  1  0.29399000  0.84839000  0.40461000  1.0
  C  C247  1  0.69819000  0.65174000  0.59543000  1.0
  C  C248  1  0.73916000  0.10766000  0.54750000  1.0
  C  C249  1  0.28650000  0.39216000  0.45250000  1.0
  C  C250  1  0.26083000  0.89235000  0.45250000  1.0
  C  C251  1  0.71350000  0.60783000  0.54750000  1.0
  C  C252  1  0.85853000  0.14422000  0.48502000  1.0
  C  C253  1  0.34330000  0.35570000  0.51504000  1.0
  C  C254  1  0.14146000  0.85579000  0.51499000  1.0
  C  C255  1  0.65670000  0.64429000  0.48496000  1.0
  C  C256  1  0.88938000  0.08880000  0.44636000  1.0
  C  C257  1  0.33533000  0.41120000  0.55363000  1.0
  C  C258  1  0.11061000  0.91121000  0.55364000  1.0
  C  C259  1  0.66467000  0.58879000  0.44637000  1.0
  C  C260  1  0.00220000  0.12447000  0.38066000  1.0
  C  C261  1  0.38242000  0.37558000  0.61938000  1.0
  C  C262  1  0.99780000  0.87554000  0.61934000  1.0
  C  C263  1  0.61756000  0.62441000  0.38063000  1.0
  C  C264  1  0.13976000  0.14600000  0.39024000  1.0
  C  C265  1  0.52963000  0.35422000  0.60982000  1.0
  C  C266  1  0.86024000  0.85401000  0.60976000  1.0
  C  C267  1  0.47035000  0.64578000  0.39019000  1.0
  N  N268  1  0.30741000  0.32243000  0.85415000  1.0
  N  N269  1  0.16148000  0.17775000  0.14581000  1.0
  N  N270  1  0.69259000  0.67757000  0.14585000  1.0
  N  N271  1  0.83852000  0.82225000  0.85419000  1.0
  N  N272  1  0.16712000  0.41691000  0.83382000  1.0
  N  N273  1  0.00092000  0.08325000  0.16616000  1.0
  N  N274  1  0.83288000  0.58309000  0.16618000  1.0
  N  N275  1  0.99909000  0.91675000  0.83384000  1.0
  N  N276  1  0.99968000  0.41867000  0.66992000  1.0
  N  N277  1  0.66972000  0.08117000  0.33013000  1.0
  N  N278  1  0.00032000  0.58133000  0.33008000  1.0
  N  N279  1  0.33028000  0.91883000  0.66987000  1.0
  N  N280  1  0.87133000  0.34624000  0.64034000  1.0
  N  N281  1  0.51181000  0.15363000  0.35962000  1.0
  N  N282  1  0.12867000  0.65376000  0.35966000  1.0
  N  N283  1  0.48820000  0.84636000  0.64038000  1.0
  N  N284  1  0.96680000  0.62546000  0.74132000  1.0
  N  N285  1  0.70852000  0.87451000  0.25850000  1.0
  N  N286  1  0.03320000  0.37454000  0.25868000  1.0
  N  N287  1  0.29148000  0.12549000  0.74150000  1.0
  N  N288  1  0.84674000  0.68988000  0.79921000  1.0
  N  N289  1  0.64610000  0.81011000  0.20064000  1.0
  N  N290  1  0.15326000  0.31012000  0.20079000  1.0
  N  N291  1  0.35390000  0.18988000  0.79936000  1.0
  N  N292  1  0.77185000  0.41515000  0.78758000  1.0
  N  N293  1  0.55957000  0.08487000  0.21242000  1.0
  N  N294  1  0.22816000  0.58486000  0.21241000  1.0
  N  N295  1  0.44042000  0.91513000  0.78758000  1.0
  N  N296  1  0.61160000  0.32992000  0.79306000  1.0
  N  N297  1  0.40483000  0.17013000  0.20688000  1.0
  N  N298  1  0.38840000  0.67008000  0.20693000  1.0
  N  N299  1  0.59518000  0.82987000  0.79311000  1.0
  O  O300  1  0.70626000  0.18502000  0.75458000  1.0
  O  O301  1  0.46130000  0.31488000  0.24533000  1.0
  O  O302  1  0.29375000  0.81498000  0.24542000  1.0
  O  O303  1  0.53870000  0.68512000  0.75467000  1.0
  O  O304  1  0.90968000  0.13894000  0.72935000  1.0
  O  O305  1  0.63905000  0.36125000  0.27070000  1.0
  O  O306  1  0.09032000  0.86106000  0.27065000  1.0
  O  O307  1  0.36094000  0.63875000  0.72930000  1.0
  O  O308  1  0.35389000  0.81062000  0.05625000  1.0
  O  O309  1  0.41005000  0.68947000  0.94382000  1.0
  O  O310  1  0.64612000  0.18938000  0.94375000  1.0
  O  O311  1  0.58995000  0.31053000  0.05618000  1.0
  O  O312  1  0.56979000  0.82603000  0.06462000  1.0
  O  O313  1  0.63435000  0.67399000  0.93534000  1.0
  O  O314  1  0.43022000  0.17397000  0.93538000  1.0
  O  O315  1  0.36565000  0.32601000  0.06467000  1.0
  O  O316  1  0.60024000  0.12732000  0.64438000  1.0
  O  O317  1  0.24521000  0.37249000  0.35548000  1.0
  O  O318  1  0.39976000  0.87268000  0.35562000  1.0
  O  O319  1  0.75480000  0.62751000  0.64452000  1.0
  O  O320  1  0.78912000  0.21119000  0.58448000  1.0
  O  O321  1  0.37431000  0.28880000  0.41549000  1.0
  O  O322  1  0.21087000  0.78881000  0.41552000  1.0
  O  O323  1  0.62569000  0.71120000  0.58451000  1.0
  O  O324  1  0.21395000  0.20347000  0.33668000  1.0
  O  O325  1  0.55033000  0.29657000  0.66326000  1.0
  O  O326  1  0.78605000  0.79653000  0.66331000  1.0
  O  O327  1  0.44966000  0.70343000  0.33674000  1.0
  O  O328  1  0.17515000  0.10888000  0.44384000  1.0
  O  O329  1  0.61864000  0.39164000  0.55634000  1.0
  O  O330  1  0.82485000  0.89112000  0.55616000  1.0
  O  O331  1  0.38135000  0.60836000  0.44367000  1.0
