# generated using pymatgen
data_Zn3H10C10(NO)8
_symmetry_space_group_name_H-M   'P 1'
_cell_length_a   10.38660000
_cell_length_b   10.38740000
_cell_length_c   10.98347710
_cell_angle_alpha   116.78998323
_cell_angle_beta   117.18715600
_cell_angle_gamma   92.29670000
_symmetry_Int_Tables_number   1
_chemical_formula_structural   Zn3H10C10(NO)8
_chemical_formula_sum   'Zn6 H20 C20 N16 O16'
_cell_volume   894.64537519
_cell_formula_units_Z   2
loop_
 _symmetry_equiv_pos_site_id
 _symmetry_equiv_pos_as_xyz
  1  'x, y, z'
loop_
 _atom_site_type_symbol
 _atom_site_label
 _atom_site_symmetry_multiplicity
 _atom_site_fract_x
 _atom_site_fract_y
 _atom_site_fract_z
 _atom_site_occupancy
  Zn  Zn0  1  0.50902000  0.36578000  0.71146000  1.0
  Zn  Zn1  1  0.15443000  0.79770000  0.78855000  1.0
  Zn  Zn2  1  0.49098000  0.63422000  0.28854000  1.0
  Zn  Zn3  1  0.84557000  0.20230000  0.21145000  1.0
  Zn  Zn4  1  0.45466000  0.70457000  0.74973000  1.0
  Zn  Zn5  1  0.54534000  0.29543000  0.25027000  1.0
  H  H6  1  0.10172000  0.53489000  0.42237000  1.0
  H  H7  1  0.61236000  0.67900000  0.07713000  1.0
  H  H8  1  0.89828000  0.46511000  0.57763000  1.0
  H  H9  1  0.38764000  0.32099000  0.92287000  1.0
  H  H10  1  0.93411000  0.80847000  0.90969000  1.0
  H  H11  1  0.39878000  0.02452000  0.59026000  1.0
  H  H12  1  0.06589000  0.19153000  0.09031000  1.0
  H  H13  1  0.60121000  0.97547000  0.40973000  1.0
  H  H14  1  0.75423000  0.76462000  0.73921000  1.0
  H  H15  1  0.52537000  0.01501000  0.76071000  1.0
  H  H16  1  0.24576000  0.23538000  0.26079000  1.0
  H  H17  1  0.47464000  0.98500000  0.23929000  1.0
  H  H18  1  0.17903000  0.10394000  0.55149000  1.0
  H  H19  1  0.05244000  0.62748000  0.94842000  1.0
  H  H20  1  0.82097000  0.89606000  0.44851000  1.0
  H  H21  1  0.94756000  0.37252000  0.05158000  1.0
  H  H22  1  0.00405000  0.06886000  0.39398000  1.0
  H  H23  1  0.17496000  0.61018000  0.10604000  1.0
  H  H24  1  0.99595000  0.93114000  0.60602000  1.0
  H  H25  1  0.82504000  0.38982000  0.89396000  1.0
  C  C26  1  0.15699000  0.26451000  0.48749000  1.0
  C  C27  1  0.27697000  0.66944000  0.01231000  1.0
  C  C28  1  0.84301000  0.73549000  0.51251000  1.0
  C  C29  1  0.72303000  0.33056000  0.98769000  1.0
  C  C30  1  0.14393000  0.45911000  0.46292000  1.0
  C  C31  1  0.49604000  0.68071000  0.03663000  1.0
  C  C32  1  0.85607000  0.54089000  0.53708000  1.0
  C  C33  1  0.50396000  0.31929000  0.96337000  1.0
  C  C34  1  0.77520000  0.90677000  0.96234000  1.0
  C  C35  1  0.44445000  0.81299000  0.53747000  1.0
  C  C36  1  0.22480000  0.09323000  0.03766000  1.0
  C  C37  1  0.55555000  0.18700000  0.46252000  1.0
  C  C38  1  0.81155000  0.77685000  0.85841000  1.0
  C  C39  1  0.41843000  0.95318000  0.64146000  1.0
  C  C40  1  0.18845000  0.22315000  0.14159000  1.0
  C  C41  1  0.58156000  0.04682000  0.35853000  1.0
  C  C42  1  0.75477000  0.62145000  0.82724000  1.0
  C  C43  1  0.29415000  0.92744000  0.67250000  1.0
  C  C44  1  0.24523000  0.37855000  0.17276000  1.0
  C  C45  1  0.70585000  0.07256000  0.32750000  1.0
  N  N46  1  0.28552000  0.49324000  0.57669000  1.0
  N  N47  1  0.41637000  0.70848000  0.92283000  1.0
  N  N48  1  0.71448000  0.50676000  0.42331000  1.0
  N  N49  1  0.58363000  0.29152000  0.07717000  1.0
  N  N50  1  0.29651000  0.36913000  0.59444000  1.0
  N  N51  1  0.27459000  0.70191000  0.90527000  1.0
  N  N52  1  0.70349000  0.63087000  0.40556000  1.0
  N  N53  1  0.72541000  0.29809000  0.09473000  1.0
  N  N54  1  0.05798000  0.31848000  0.40258000  1.0
  N  N55  1  0.41585000  0.65527000  0.09716000  1.0
  N  N56  1  0.94202000  0.68152000  0.59742000  1.0
  N  N57  1  0.58415000  0.34473000  0.90284000  1.0
  N  N58  1  0.11836000  0.12551000  0.46215000  1.0
  N  N59  1  0.16336000  0.65621000  0.03775000  1.0
  N  N60  1  0.88164000  0.87450000  0.53786000  1.0
  N  N61  1  0.83664000  0.34379000  0.96225000  1.0
  O  O62  1  0.64027000  0.90030000  0.92806000  1.0
  O  O63  1  0.47254000  0.71243000  0.57183000  1.0
  O  O64  1  0.35972000  0.09970000  0.07194000  1.0
  O  O65  1  0.52746000  0.28758000  0.42817000  1.0
  O  O66  1  0.88926000  0.02418000  0.08293000  1.0
  O  O67  1  0.44109000  0.80642000  0.41676000  1.0
  O  O68  1  0.11074000  0.97582000  0.91707000  1.0
  O  O69  1  0.55891000  0.19359000  0.58324000  1.0
  O  O70  1  0.61560000  0.57855000  0.78945000  1.0
  O  O71  1  0.28900000  0.82596000  0.71016000  1.0
  O  O72  1  0.38440000  0.42145000  0.21055000  1.0
  O  O73  1  0.71100000  0.17404000  0.28984000  1.0
  O  O74  1  0.83984000  0.53999000  0.83459000  1.0
  O  O75  1  0.20532000  0.00513000  0.66524000  1.0
  O  O76  1  0.16016000  0.46001000  0.16541000  1.0
  O  O77  1  0.79468000  0.99487000  0.33476000  1.0
