# generated using pymatgen
data_CuH13C18(NO3)2
_symmetry_space_group_name_H-M   'P 1'
_cell_length_a   8.72542000
_cell_length_b   9.75607000
_cell_length_c   10.32520000
_cell_angle_alpha   91.01430000
_cell_angle_beta   106.30500000
_cell_angle_gamma   108.95800000
_symmetry_Int_Tables_number   1
_chemical_formula_structural   CuH13C18(NO3)2
_chemical_formula_sum   'Cu2 H26 C36 N4 O12'
_cell_volume   792.06821384
_cell_formula_units_Z   2
loop_
 _symmetry_equiv_pos_site_id
 _symmetry_equiv_pos_as_xyz
  1  'x, y, z'
loop_
 _atom_site_type_symbol
 _atom_site_label
 _atom_site_symmetry_multiplicity
 _atom_site_fract_x
 _atom_site_fract_y
 _atom_site_fract_z
 _atom_site_occupancy
  Cu  Cu0  1  0.84880000  0.60104000  0.86527000  1.0
  Cu  Cu1  1  0.15120000  0.39896000  0.13473000  1.0
  H  H2  1  0.65136000  0.35213000  0.80371000  1.0
  H  H3  1  0.34863000  0.64786000  0.19629000  1.0
  H  H4  1  0.54234000  0.42358000  0.87706000  1.0
  H  H5  1  0.45767000  0.57642000  0.12294000  1.0
  H  H6  1  0.65658000  0.77281000  0.29510000  1.0
  H  H7  1  0.34342000  0.22719000  0.70490000  1.0
  H  H8  1  0.78544000  0.86116000  0.54421000  1.0
  H  H9  1  0.21456000  0.13884000  0.45578000  1.0
  H  H10  1  0.07066000  0.85354000  0.66533000  1.0
  H  H11  1  0.92935000  0.14646000  0.33467000  1.0
  H  H12  1  0.36568000  0.99116000  0.59568000  1.0
  H  H13  1  0.63432000  0.00884000  0.40432000  1.0
  H  H14  1  0.65695000  0.00405000  0.72324000  1.0
  H  H15  1  0.34305000  0.99595000  0.27676000  1.0
  H  H16  1  0.47850000  0.52872000  0.65177000  1.0
  H  H17  1  0.52150000  0.47128000  0.34823000  1.0
  H  H18  1  0.19293000  0.53661000  0.52490000  1.0
  H  H19  1  0.80707000  0.46339000  0.47510000  1.0
  H  H20  1  0.99698000  0.91679000  0.92343000  1.0
  H  H21  1  0.00302000  0.08321000  0.07657000  1.0
  H  H22  1  0.28755000  0.10359000  0.00014000  1.0
  H  H23  1  0.71245000  0.89641000  0.99985000  1.0
  H  H24  1  0.47882000  0.75584000  0.94138000  1.0
  H  H25  1  0.52118000  0.24416000  0.05863000  1.0
  H  H26  1  0.18120000  0.58775000  0.86906000  1.0
  H  H27  1  0.81880000  0.41225000  0.13095000  1.0
  C  C28  1  0.78873000  0.67052000  0.12705000  1.0
  C  C29  1  0.21127000  0.32948000  0.87295000  1.0
  C  C30  1  0.13705000  0.66017000  0.27718000  1.0
  C  C31  1  0.86295000  0.33983000  0.72281000  1.0
  C  C32  1  0.86969000  0.71841000  0.27792000  1.0
  C  C33  1  0.13031000  0.28159000  0.72208000  1.0
  C  C34  1  0.78224000  0.77121000  0.35005000  1.0
  C  C35  1  0.21776000  0.22880000  0.64995000  1.0
  C  C36  1  0.85368000  0.82075000  0.48819000  1.0
  C  C37  1  0.14633000  0.17926000  0.51181000  1.0
  C  C38  1  0.01421000  0.81725000  0.55695000  1.0
  C  C39  1  0.98579000  0.18275000  0.44305000  1.0
  C  C40  1  0.10223000  0.76521000  0.48582000  1.0
  C  C41  1  0.89777000  0.23479000  0.51417000  1.0
  C  C42  1  0.03340000  0.71639000  0.34615000  1.0
  C  C43  1  0.96660000  0.28361000  0.65385000  1.0
  C  C44  1  0.59716000  0.76553000  0.70350000  1.0
  C  C45  1  0.40283000  0.23447000  0.29650000  1.0
  C  C46  1  0.39873000  0.89322000  0.61280000  1.0
  C  C47  1  0.60127000  0.10678000  0.38720000  1.0
  C  C48  1  0.55877000  0.89787000  0.68241000  1.0
  C  C49  1  0.44123000  0.10213000  0.31759000  1.0
  C  C50  1  0.45827000  0.63271000  0.64047000  1.0
  C  C51  1  0.54173000  0.36729000  0.35953000  1.0
  C  C52  1  0.30078000  0.63516000  0.57193000  1.0
  C  C53  1  0.69921000  0.36484000  0.42807000  1.0
  C  C54  1  0.10946000  0.88799000  0.93128000  1.0
  C  C55  1  0.89055000  0.11201000  0.06872000  1.0
  C  C56  1  0.27213000  0.99084000  0.97204000  1.0
  C  C57  1  0.72788000  0.00916000  0.02797000  1.0
  C  C58  1  0.41225000  0.94746000  0.97741000  1.0
  C  C59  1  0.58775000  0.05254000  0.02260000  1.0
  C  C60  1  0.37827000  0.79964000  0.93840000  1.0
  C  C61  1  0.62173000  0.20036000  0.06161000  1.0
  C  C62  1  0.21214000  0.70313000  0.89895000  1.0
  C  C63  1  0.78786000  0.29687000  0.10105000  1.0
  N  N64  1  0.26908000  0.76391000  0.55831000  1.0
  N  N65  1  0.73092000  0.23610000  0.44169000  1.0
  N  N66  1  0.07990000  0.74628000  0.89551000  1.0
  N  N67  1  0.92011000  0.25372000  0.10450000  1.0
  O  O68  1  0.89331000  0.66315000  0.06357000  1.0
  O  O69  1  0.10668000  0.33685000  0.93643000  1.0
  O  O70  1  0.63223000  0.64479000  0.07307000  1.0
  O  O71  1  0.36777000  0.35521000  0.92693000  1.0
  O  O72  1  0.26257000  0.74985000  0.25147000  1.0
  O  O73  1  0.73743000  0.25015000  0.74853000  1.0
  O  O74  1  0.09096000  0.52033000  0.26153000  1.0
  O  O75  1  0.90903000  0.47967000  0.73847000  1.0
  O  O76  1  0.74494000  0.76961000  0.77304000  1.0
  O  O77  1  0.25506000  0.23039000  0.22696000  1.0
  O  O78  1  0.62877000  0.44365000  0.82699000  1.0
  O  O79  1  0.37123000  0.55635000  0.17300000  1.0
