# generated using pymatgen
data_Al4H31C42N3O23
_symmetry_space_group_name_H-M   'P 1'
_cell_length_a   6.72432000
_cell_length_b   16.46490000
_cell_length_c   18.54390000
_cell_angle_alpha   73.12500000
_cell_angle_beta   89.79270000
_cell_angle_gamma   89.55980000
_symmetry_Int_Tables_number   1
_chemical_formula_structural   Al4H31C42N3O23
_chemical_formula_sum   'Al4 H31 C42 N3 O23'
_cell_volume   1964.62711134
_cell_formula_units_Z   1
loop_
 _symmetry_equiv_pos_site_id
 _symmetry_equiv_pos_as_xyz
  1  'x, y, z'
loop_
 _atom_site_type_symbol
 _atom_site_label
 _atom_site_symmetry_multiplicity
 _atom_site_fract_x
 _atom_site_fract_y
 _atom_site_fract_z
 _atom_site_occupancy
  Al  Al0  1  0.89644000  0.50303000  0.49756000  1.0
  Al  Al1  1  0.39653000  0.50492000  0.49825000  1.0
  Al  Al2  1  0.33795000  0.00263000  0.99981000  1.0
  Al  Al3  1  0.83659000  0.00225000  0.00189000  1.0
  H  H4  1  0.01969000  0.79782000  0.36230000  1.0
  H  H5  1  0.32926000  0.87392000  0.26004000  1.0
  H  H6  1  0.47304000  0.70852000  0.26924000  1.0
  H  H7  1  0.77075000  0.80522000  0.23693000  1.0
  H  H8  1  0.72817000  0.37156000  0.76627000  1.0
  H  H9  1  0.84296000  0.20098000  0.65572000  1.0
  H  H10  1  0.95219000  0.08092000  0.82325000  1.0
  H  H11  1  0.19432000  0.12113000  0.82898000  1.0
  H  H12  1  0.07974000  0.13932000  0.73871000  1.0
  H  H13  1  0.31174000  0.75504000  0.08840000  1.0
  H  H14  1  0.30178000  0.62326000  0.06729000  1.0
  H  H15  1  0.13386000  0.58459000  0.14383000  1.0
  H  H16  1  0.38736000  0.59861000  0.16237000  1.0
  H  H17  1  0.84244000  0.58668000  0.29705000  1.0
  H  H18  1  0.69877000  0.56347000  0.18719000  1.0
  H  H19  1  0.84290000  0.64820000  0.12975000  1.0
  H  H20  1  0.64243000  0.67109000  0.18337000  1.0
  H  H21  1  0.74209000  0.03938000  0.70959000  1.0
  H  H22  1  0.52157000  0.97630000  0.71799000  1.0
  H  H23  1  0.60914000  0.00669000  0.79747000  1.0
  H  H24  1  0.25202000  0.18155000  0.61409000  1.0
  H  H25  1  0.35134000  0.28296000  0.56337000  1.0
  H  H26  1  0.08880000  0.27102000  0.57797000  1.0
  H  H27  1  0.19448000  0.27606000  0.82564000  1.0
  H  H28  1  0.27575000  0.32688000  0.92930000  1.0
  H  H29  1  0.52589000  0.34332000  0.89768000  1.0
  H  H30  1  0.43907000  0.23817000  0.94051000  1.0
  H  H31  1  0.64772000  0.60539000  0.50964000  1.0
  H  H32  1  0.14856000  0.40176000  0.55280000  1.0
  H  H33  1  0.58991000  0.89533000  0.04993000  1.0
  H  H34  1  0.08154000  0.11404000  0.96632000  1.0
  C  C35  1  0.63843000  0.38176000  0.60791000  1.0
  C  C36  1  0.65249000  0.42196000  0.40990000  1.0
  C  C37  1  0.15321000  0.61821000  0.38391000  1.0
  C  C38  1  0.13622000  0.59048000  0.58422000  1.0
  C  C39  1  0.13421000  0.64026000  0.63658000  1.0
  C  C40  1  0.12717000  0.68379000  0.68017000  1.0
  C  C41  1  0.11823000  0.73144000  0.72775000  1.0
  C  C42  1  0.10781000  0.77541000  0.77139000  1.0
  C  C43  1  0.09689000  0.82256000  0.81933000  1.0
  C  C44  1  0.08753000  0.86515000  0.86366000  1.0
  C  C45  1  0.23844000  0.82010000  0.25722000  1.0
  C  C46  1  0.06337000  0.78041000  0.31182000  1.0
  C  C47  1  0.14494000  0.68962000  0.31408000  1.0
  C  C48  1  0.31826000  0.72967000  0.26010000  1.0
  C  C49  1  0.17773000  0.73104000  0.19003000  1.0
  C  C50  1  0.00493000  0.69002000  0.24639000  1.0
  C  C51  1  0.92485000  0.78258000  0.24364000  1.0
  C  C52  1  0.09859000  0.82234000  0.18936000  1.0
  C  C53  1  0.42601000  0.25813000  0.70646000  1.0
  C  C54  1  0.54234000  0.17094000  0.72668000  1.0
  C  C55  1  0.59737000  0.17651000  0.80894000  1.0
  C  C56  1  0.47215000  0.26896000  0.78585000  1.0
  C  C57  1  0.67439000  0.31333000  0.75609000  1.0
  C  C58  1  0.78815000  0.22698000  0.77421000  1.0
  C  C59  1  0.73941000  0.21926000  0.69382000  1.0
  C  C60  1  0.62527000  0.30592000  0.67448000  1.0
  C  C61  1  0.64451000  0.37420000  0.35606000  1.0
  C  C62  1  0.63068000  0.33165000  0.31190000  1.0
  C  C63  1  0.61583000  0.28422000  0.26440000  1.0
  C  C64  1  0.60243000  0.23948000  0.22157000  1.0
  C  C65  1  0.59212000  0.19054000  0.17520000  1.0
  C  C66  1  0.58587000  0.14531000  0.13307000  1.0
  C  C67  1  0.58985000  0.09260000  0.08306000  1.0
  C  C68  1  0.58500000  0.11244000  0.88272000  1.0
  C  C69  1  0.08207000  0.91400000  0.91689000  1.0
  C  C70  1  0.09288000  0.89063000  0.11753000  1.0
  C  C71  1  0.05391000  0.13337000  0.79838000  1.0
  C  C72  1  0.26278000  0.62543000  0.12424000  1.0
  C  C73  1  0.76407000  0.62536000  0.18377000  1.0
  C  C74  1  0.59371000  0.02676000  0.73572000  1.0
  C  C75  1  0.23497000  0.25053000  0.60304000  1.0
  C  C76  1  0.39718000  0.30121000  0.90260000  1.0
  N  N77  1  0.21273000  0.71323000  0.12080000  1.0
  N  N78  1  0.90382000  0.61551000  0.24563000  1.0
  N  N79  1  0.33476000  0.29888000  0.82817000  1.0
  O  O80  1  0.48798000  0.43129000  0.44071000  1.0
  O  O81  1  0.80687000  0.40281000  0.57601000  1.0
  O  O82  1  0.96774000  0.56287000  0.57091000  1.0
  O  O83  1  0.82192000  0.44930000  0.42206000  1.0
  O  O84  1  0.98668000  0.59609000  0.41713000  1.0
  O  O85  1  0.47455000  0.42177000  0.58876000  1.0
  O  O86  1  0.64711000  0.55527000  0.49221000  1.0
  O  O87  1  0.32190000  0.58540000  0.40686000  1.0
  O  O88  1  0.30478000  0.58031000  0.55622000  1.0
  O  O89  1  0.14746000  0.45215000  0.50957000  1.0
  O  O90  1  0.74458000  0.09388000  0.92175000  1.0
  O  O91  1  0.42437000  0.08108000  0.05432000  1.0
  O  O92  1  0.26166000  0.92168000  0.09190000  1.0
  O  O93  1  0.41519000  0.07979000  0.90591000  1.0
  O  O94  1  0.24907000  0.92550000  0.94429000  1.0
  O  O95  1  0.76035000  0.06398000  0.07260000  1.0
  O  O96  1  0.58800000  0.94996000  0.01176000  1.0
  O  O97  1  0.91155000  0.94000000  0.93084000  1.0
  O  O98  1  0.92577000  0.91150000  0.08487000  1.0
  O  O99  1  0.08656000  0.05347000  0.99095000  1.0
  O  O100  1  0.97433000  0.21193000  0.80671000  1.0
  O  O101  1  0.46690000  0.10031000  0.71099000  1.0
  O  O102  1  0.24229000  0.27377000  0.67222000  1.0
