# generated using pymatgen
data_ZnH16C22(NO)4
_symmetry_space_group_name_H-M   'P 1'
_cell_length_a   9.75033000
_cell_length_b   11.00690000
_cell_length_c   14.86380000
_cell_angle_alpha   89.73100000
_cell_angle_beta   103.52800000
_cell_angle_gamma   89.83100000
_symmetry_Int_Tables_number   1
_chemical_formula_structural   ZnH16C22(NO)4
_chemical_formula_sum   'Zn2 H32 C44 N8 O8'
_cell_volume   1550.90839039
_cell_formula_units_Z   2
loop_
 _symmetry_equiv_pos_site_id
 _symmetry_equiv_pos_as_xyz
  1  'x, y, z'
loop_
 _atom_site_type_symbol
 _atom_site_label
 _atom_site_symmetry_multiplicity
 _atom_site_fract_x
 _atom_site_fract_y
 _atom_site_fract_z
 _atom_site_occupancy
  Zn  Zn0  1  0.14628000  0.50126000  0.49015000  1.0
  Zn  Zn1  1  0.85413000  0.49963000  0.50958000  1.0
  H  H2  1  0.77285000  0.58266000  0.88263000  1.0
  H  H3  1  0.22862000  0.40860000  0.11624000  1.0
  H  H4  1  0.32202000  0.52342000  0.77037000  1.0
  H  H5  1  0.67771000  0.47632000  0.22959000  1.0
  H  H6  1  0.92154000  0.41489000  0.81375000  1.0
  H  H7  1  0.07933000  0.57961000  0.18519000  1.0
  H  H8  1  0.97356000  0.60576000  0.01622000  1.0
  H  H9  1  0.02793000  0.38561000  0.98239000  1.0
  H  H10  1  0.52436000  0.53486000  0.81809000  1.0
  H  H11  1  0.47650000  0.45813000  0.18100000  1.0
  H  H12  1  0.65807000  0.93410000  0.41087000  1.0
  H  H13  1  0.73558000  0.79763000  0.45120000  1.0
  H  H14  1  0.34395000  0.06669000  0.58631000  1.0
  H  H15  1  0.26548000  0.20273000  0.54592000  1.0
  H  H16  1  0.63665000  0.11229000  0.51949000  1.0
  H  H17  1  0.41430000  0.20733000  0.42967000  1.0
  H  H18  1  0.39817000  0.28210000  0.26944000  1.0
  H  H19  1  0.60586000  0.26109000  0.19917000  1.0
  H  H20  1  0.82795000  0.16767000  0.28950000  1.0
  H  H21  1  0.17202000  0.82782000  0.70847000  1.0
  H  H22  1  0.39357000  0.73276000  0.79803000  1.0
  H  H23  1  0.60241000  0.71510000  0.72866000  1.0
  H  H24  1  0.58841000  0.79588000  0.57020000  1.0
  H  H25  1  0.36694000  0.89283000  0.48128000  1.0
  H  H26  1  0.67503000  0.35216000  0.68611000  1.0
  H  H27  1  0.77237000  0.32830000  0.60648000  1.0
  H  H28  1  0.23309000  0.67992000  0.40161000  1.0
  H  H29  1  0.31140000  0.64224000  0.31531000  1.0
  H  H30  1  0.30794000  0.41047000  0.64698000  1.0
  H  H31  1  0.44451000  0.30655000  0.66017000  1.0
  H  H32  1  0.69198000  0.59228000  0.35357000  1.0
  H  H33  1  0.54583000  0.68915000  0.33624000  1.0
  C  C34  1  0.99098000  0.73762000  0.50164000  1.0
  C  C35  1  0.01022000  0.26327000  0.49842000  1.0
  C  C36  1  0.56507000  0.53264000  0.89286000  1.0
  C  C37  1  0.43570000  0.46133000  0.10627000  1.0
  C  C38  1  0.70456000  0.55829000  0.92853000  1.0
  C  C39  1  0.29654000  0.43454000  0.07049000  1.0
  C  C40  1  0.87033000  0.93990000  0.46463000  1.0
  C  C41  1  0.13138000  0.06087000  0.53485000  1.0
  C  C42  1  0.87767000  0.06796000  0.46052000  1.0
  C  C43  1  0.12403000  0.93284000  0.53921000  1.0
  C  C44  1  0.00642000  0.12766000  0.49600000  1.0
  C  C45  1  0.99513000  0.87318000  0.50399000  1.0
  C  C46  1  0.59070000  0.42508000  0.55988000  1.0
  C  C47  1  0.40975000  0.57575000  0.44162000  1.0
  C  C48  1  0.45156000  0.44465000  0.56940000  1.0
  C  C49  1  0.54856000  0.55557000  0.43178000  1.0
  C  C50  1  0.94355000  0.51011000  0.31757000  1.0
  C  C51  1  0.05635000  0.48996000  0.68223000  1.0
  C  C52  1  0.88225000  0.52572000  0.21622000  1.0
  C  C53  1  0.11789000  0.47198000  0.78330000  1.0
  C  C54  1  0.90884000  0.57671000  0.06306000  1.0
  C  C55  1  0.09226000  0.41649000  0.93585000  1.0
  C  C56  1  0.96769000  0.56261000  0.15633000  1.0
  C  C57  1  0.03302000  0.43239000  0.84278000  1.0
  C  C58  1  0.73954000  0.50459000  0.18114000  1.0
  C  C59  1  0.26054000  0.49324000  0.81847000  1.0
  C  C60  1  0.67645000  0.51649000  0.08595000  1.0
  C  C61  1  0.32405000  0.47917000  0.91339000  1.0
  C  C62  1  0.76420000  0.55182000  0.02556000  1.0
  C  C63  1  0.23669000  0.44204000  0.97353000  1.0
  C  C64  1  0.52801000  0.49331000  0.04813000  1.0
  C  C65  1  0.47256000  0.50193000  0.95116000  1.0
  C  C66  1  0.74776000  0.13376000  0.41073000  1.0
  C  C67  1  0.62946000  0.14449000  0.44901000  1.0
  C  C68  1  0.50506000  0.19864000  0.39885000  1.0
  C  C69  1  0.49612000  0.24132000  0.30895000  1.0
  C  C70  1  0.61259000  0.23005000  0.26988000  1.0
  C  C71  1  0.73747000  0.17717000  0.32046000  1.0
  C  C72  1  0.25395000  0.86678000  0.58869000  1.0
  C  C73  1  0.26317000  0.82022000  0.67797000  1.0
  C  C74  1  0.38772000  0.76637000  0.72809000  1.0
  C  C75  1  0.50494000  0.75705000  0.68956000  1.0
  C  C76  1  0.49715000  0.80297000  0.60068000  1.0
  C  C77  1  0.37311000  0.85824000  0.55102000  1.0
  N  N78  1  0.36265000  0.51673000  0.50826000  1.0
  N  N79  1  0.63801000  0.48355000  0.49303000  1.0
  N  N80  1  0.74568000  0.88085000  0.42354000  1.0
  N  N81  1  0.25653000  0.12014000  0.57500000  1.0
  N  N82  1  0.67437000  0.34224000  0.61797000  1.0
  N  N83  1  0.32602000  0.66013000  0.38409000  1.0
  N  N84  1  0.40972000  0.39256000  0.64289000  1.0
  N  N85  1  0.59041000  0.60787000  0.35894000  1.0
  O  O86  1  0.09594000  0.68237000  0.48296000  1.0
  O  O87  1  0.90480000  0.31837000  0.51651000  1.0
  O  O88  1  0.88153000  0.68449000  0.51630000  1.0
  O  O89  1  0.11998000  0.31649000  0.48422000  1.0
  O  O90  1  0.07650000  0.50138000  0.34584000  1.0
  O  O91  1  0.92329000  0.49787000  0.65406000  1.0
  O  O92  1  0.85592000  0.50717000  0.36972000  1.0
  O  O93  1  0.14383000  0.49555000  0.63011000  1.0
