# generated using pymatgen
data_ZnH12C14(N3O2)2
_symmetry_space_group_name_H-M   'P 1'
_cell_length_a   9.47106000
_cell_length_b   9.60548000
_cell_length_c   10.27440000
_cell_angle_alpha   104.30400000
_cell_angle_beta   100.13300000
_cell_angle_gamma   92.89730000
_symmetry_Int_Tables_number   1
_chemical_formula_structural   ZnH12C14(N3O2)2
_chemical_formula_sum   'Zn2 H24 C28 N12 O8'
_cell_volume   887.25835098
_cell_formula_units_Z   2
loop_
 _symmetry_equiv_pos_site_id
 _symmetry_equiv_pos_as_xyz
  1  'x, y, z'
loop_
 _atom_site_type_symbol
 _atom_site_label
 _atom_site_symmetry_multiplicity
 _atom_site_fract_x
 _atom_site_fract_y
 _atom_site_fract_z
 _atom_site_occupancy
  Zn  Zn0  1  0.73706000  0.56913000  0.67575000  1.0
  Zn  Zn1  1  0.26294000  0.43086000  0.32425000  1.0
  H  H2  1  0.38157000  0.76117000  0.85768000  1.0
  H  H3  1  0.61843000  0.23883000  0.14232000  1.0
  H  H4  1  0.75942000  0.06451000  0.00729000  1.0
  H  H5  1  0.24058000  0.93549000  0.99270000  1.0
  H  H6  1  0.56160000  0.17120000  0.36787000  1.0
  H  H7  1  0.43840000  0.82881000  0.63213000  1.0
  H  H8  1  0.56243000  0.07591000  0.75423000  1.0
  H  H9  1  0.43757000  0.92410000  0.24577000  1.0
  H  H10  1  0.03693000  0.77382000  0.81322000  1.0
  H  H11  1  0.96307000  0.22618000  0.18678000  1.0
  H  H12  1  0.93403000  0.33874000  0.79941000  1.0
  H  H13  1  0.06597000  0.66126000  0.20059000  1.0
  H  H14  1  0.14573000  0.13690000  0.42404000  1.0
  H  H15  1  0.85427000  0.86310000  0.57596000  1.0
  H  H16  1  0.39025000  0.52967000  0.64336000  1.0
  H  H17  1  0.60976000  0.47034000  0.35664000  1.0
  H  H18  1  0.18319000  0.28778000  0.91354000  1.0
  H  H19  1  0.81681000  0.71223000  0.08646000  1.0
  H  H20  1  0.27940000  0.44459000  0.03655000  1.0
  H  H21  1  0.72059000  0.55542000  0.96345000  1.0
  H  H22  1  0.42680000  0.49072000  0.87460000  1.0
  H  H23  1  0.57320000  0.50928000  0.12541000  1.0
  H  H24  1  0.43460000  0.30703000  0.87933000  1.0
  H  H25  1  0.56540000  0.69298000  0.12067000  1.0
  C  C26  1  0.66436000  0.80044000  0.84220000  1.0
  C  C27  1  0.33563000  0.19955000  0.15779000  1.0
  C  C28  1  0.57960000  0.90221000  0.92528000  1.0
  C  C29  1  0.42040000  0.09778000  0.07472000  1.0
  C  C30  1  0.43302000  0.86598000  0.91971000  1.0
  C  C31  1  0.56698000  0.13402000  0.08028000  1.0
  C  C32  1  0.64614000  0.03700000  0.00601000  1.0
  C  C33  1  0.35386000  0.96299000  0.99399000  1.0
  C  C34  1  0.63876000  0.28658000  0.64241000  1.0
  C  C35  1  0.36124000  0.71342000  0.35758000  1.0
  C  C36  1  0.56902000  0.13786000  0.56818000  1.0
  C  C37  1  0.43098000  0.86214000  0.43182000  1.0
  C  C38  1  0.53418000  0.09528000  0.42466000  1.0
  C  C39  1  0.46582000  0.90473000  0.57534000  1.0
  C  C40  1  0.53450000  0.04143000  0.64292000  1.0
  C  C41  1  0.46549000  0.95857000  0.35709000  1.0
  C  C42  1  0.04825000  0.66501000  0.82344000  1.0
  C  C43  1  0.95175000  0.33499000  0.17656000  1.0
  C  C44  1  0.99251000  0.44348000  0.81449000  1.0
  C  C45  1  0.00749000  0.55653000  0.18551000  1.0
  C  C46  1  0.20472000  0.22363000  0.50779000  1.0
  C  C47  1  0.79528000  0.77637000  0.49222000  1.0
  C  C48  1  0.32932000  0.42419000  0.61541000  1.0
  C  C49  1  0.67068000  0.57581000  0.38459000  1.0
  C  C50  1  0.23809000  0.39511000  0.92713000  1.0
  C  C51  1  0.76191000  0.60489000  0.07287000  1.0
  C  C52  1  0.36333000  0.38577000  0.85073000  1.0
  C  C53  1  0.63667000  0.61423000  0.14927000  1.0
  N  N54  1  0.13106000  0.48252000  0.87618000  1.0
  N  N55  1  0.86894000  0.51748000  0.12382000  1.0
  N  N56  1  0.16869000  0.62302000  0.88214000  1.0
  N  N57  1  0.83131000  0.37699000  0.11786000  1.0
  N  N58  1  0.93685000  0.55776000  0.77998000  1.0
  N  N59  1  0.06315000  0.44224000  0.22002000  1.0
  N  N60  1  0.31236000  0.34487000  0.70323000  1.0
  N  N61  1  0.68764000  0.65513000  0.29677000  1.0
  N  N62  1  0.23192000  0.21690000  0.63707000  1.0
  N  N63  1  0.76808000  0.78310000  0.36293000  1.0
  N  N64  1  0.26172000  0.34992000  0.48990000  1.0
  N  N65  1  0.73828000  0.65008000  0.51010000  1.0
  O  O66  1  0.60187000  0.66956000  0.78552000  1.0
  O  O67  1  0.39813000  0.33043000  0.21448000  1.0
  O  O68  1  0.78790000  0.84057000  0.82914000  1.0
  O  O69  1  0.21210000  0.15943000  0.17085000  1.0
  O  O70  1  0.65555000  0.37320000  0.56553000  1.0
  O  O71  1  0.34446000  0.62679000  0.43447000  1.0
  O  O72  1  0.67557000  0.32287000  0.77062000  1.0
  O  O73  1  0.32442000  0.67714000  0.22938000  1.0
