# generated using pymatgen
data_CdH10(C4N5)2
_symmetry_space_group_name_H-M   'P 1'
_cell_length_a   6.48217000
_cell_length_b   10.44980000
_cell_length_c   18.97360000
_cell_angle_alpha   89.99980000
_cell_angle_beta   90.00000000
_cell_angle_gamma   89.59170000
_symmetry_Int_Tables_number   1
_chemical_formula_structural   CdH10(C4N5)2
_chemical_formula_sum   'Cd4 H40 C32 N40'
_cell_volume   1285.18932120
_cell_formula_units_Z   4
loop_
 _symmetry_equiv_pos_site_id
 _symmetry_equiv_pos_as_xyz
  1  'x, y, z'
loop_
 _atom_site_type_symbol
 _atom_site_label
 _atom_site_symmetry_multiplicity
 _atom_site_fract_x
 _atom_site_fract_y
 _atom_site_fract_z
 _atom_site_occupancy
  Cd  Cd0  1  0.25426000  0.06070000  0.46187000  1.0
  Cd  Cd1  1  0.74574000  0.43929000  0.96186000  1.0
  Cd  Cd2  1  0.74574000  0.93930000  0.53814000  1.0
  Cd  Cd3  1  0.25426000  0.56070000  0.03813000  1.0
  H  H4  1  0.18193000  0.39792000  0.46569000  1.0
  H  H5  1  0.81807000  0.10208000  0.96569000  1.0
  H  H6  1  0.81807000  0.60208000  0.53431000  1.0
  H  H7  1  0.18193000  0.89792000  0.03431000  1.0
  H  H8  1  0.46044000  0.56328000  0.40416000  1.0
  H  H9  1  0.53956000  0.93673000  0.90416000  1.0
  H  H10  1  0.53956000  0.43672000  0.59584000  1.0
  H  H11  1  0.46045000  0.06327000  0.09584000  1.0
  H  H12  1  0.70531000  0.18557000  0.40064000  1.0
  H  H13  1  0.29469000  0.31443000  0.90064000  1.0
  H  H14  1  0.29469000  0.81443000  0.59936000  1.0
  H  H15  1  0.70531000  0.68557000  0.09936000  1.0
  H  H16  1  0.92277000  0.35307000  0.34630000  1.0
  H  H17  1  0.07724000  0.14693000  0.84630000  1.0
  H  H18  1  0.07723000  0.64693000  0.65370000  1.0
  H  H19  1  0.92276000  0.85307000  0.15370000  1.0
  H  H20  1  0.89798000  0.50402000  0.38919000  1.0
  H  H21  1  0.10202000  0.99598000  0.88919000  1.0
  H  H22  1  0.10202000  0.49598000  0.61081000  1.0
  H  H23  1  0.89798000  0.00402000  0.11081000  1.0
  H  H24  1  0.67114000  0.42459000  0.25311000  1.0
  H  H25  1  0.32886000  0.07541000  0.75311000  1.0
  H  H26  1  0.32886000  0.57541000  0.74689000  1.0
  H  H27  1  0.67114000  0.92459000  0.24689000  1.0
  H  H28  1  0.64678000  0.57628000  0.29578000  1.0
  H  H29  1  0.35323000  0.92372000  0.79578000  1.0
  H  H30  1  0.35323000  0.42372000  0.70422000  1.0
  H  H31  1  0.64677000  0.07628000  0.20422000  1.0
  H  H32  1  0.07396000  0.66969000  0.31915000  1.0
  H  H33  1  0.92604000  0.83032000  0.81914000  1.0
  H  H34  1  0.92604000  0.33032000  0.68085000  1.0
  H  H35  1  0.07396000  0.16968000  0.18085000  1.0
  H  H36  1  0.33070000  0.71089000  0.20426000  1.0
  H  H37  1  0.66930000  0.78911000  0.70426000  1.0
  H  H38  1  0.66930000  0.28912000  0.79574000  1.0
  H  H39  1  0.33070000  0.21088000  0.29574000  1.0
  H  H40  1  0.88165000  0.43954000  0.14773000  1.0
  H  H41  1  0.11835000  0.06046000  0.64772000  1.0
  H  H42  1  0.11835000  0.56046000  0.85227000  1.0
  H  H43  1  0.88165000  0.93954000  0.35228000  1.0
  C  C44  1  0.33076000  0.37705000  0.44223000  1.0
  C  C45  1  0.66925000  0.12295000  0.94223000  1.0
  C  C46  1  0.66925000  0.62295000  0.55777000  1.0
  C  C47  1  0.33075000  0.87705000  0.05777000  1.0
  C  C48  1  0.46749000  0.46065000  0.41212000  1.0
  C  C49  1  0.53252000  0.03935000  0.91212000  1.0
  C  C50  1  0.53252000  0.53935000  0.58788000  1.0
  C  C51  1  0.46749000  0.96065000  0.08788000  1.0
  C  C52  1  0.59763000  0.26391000  0.40970000  1.0
  C  C53  1  0.40237000  0.23609000  0.90970000  1.0
  C  C54  1  0.40237000  0.73609000  0.59029000  1.0
  C  C55  1  0.59762000  0.76391000  0.09030000  1.0
  C  C56  1  0.81808000  0.43445000  0.35555000  1.0
  C  C57  1  0.18192000  0.06555000  0.85555000  1.0
  C  C58  1  0.18192000  0.56555000  0.64445000  1.0
  C  C59  1  0.81808000  0.93445000  0.14445000  1.0
  C  C60  1  0.75172000  0.49533000  0.28570000  1.0
  C  C61  1  0.24828000  0.00467000  0.78570000  1.0
  C  C62  1  0.24828000  0.50467000  0.71430000  1.0
  C  C63  1  0.75172000  0.99533000  0.21430000  1.0
  C  C64  1  0.07155000  0.63069000  0.26618000  1.0
  C  C65  1  0.92845000  0.86931000  0.76619000  1.0
  C  C66  1  0.92845000  0.36931000  0.73382000  1.0
  C  C67  1  0.07155000  0.13069000  0.23381000  1.0
  C  C68  1  0.19849000  0.64862000  0.20898000  1.0
  C  C69  1  0.80150000  0.85137000  0.70898000  1.0
  C  C70  1  0.80150000  0.35138000  0.79102000  1.0
  C  C71  1  0.19850000  0.14862000  0.29102000  1.0
  C  C72  1  0.97104000  0.50771000  0.17771000  1.0
  C  C73  1  0.02897000  0.99229000  0.67771000  1.0
  C  C74  1  0.02897000  0.49229000  0.82229000  1.0
  C  C75  1  0.97103000  0.00771000  0.32229000  1.0
  N  N76  1  0.41383000  0.25492000  0.44061000  1.0
  N  N77  1  0.58617000  0.24508000  0.94061000  1.0
  N  N78  1  0.58617000  0.74508000  0.55939000  1.0
  N  N79  1  0.41383000  0.75492000  0.05939000  1.0
  N  N80  1  0.63587000  0.38748000  0.39194000  1.0
  N  N81  1  0.36414000  0.11253000  0.89194000  1.0
  N  N82  1  0.36414000  0.61253000  0.60806000  1.0
  N  N83  1  0.63586000  0.88748000  0.10806000  1.0
  N  N84  1  0.92766000  0.54101000  0.24534000  1.0
  N  N85  1  0.07234000  0.95899000  0.74534000  1.0
  N  N86  1  0.07234000  0.45899000  0.75466000  1.0
  N  N87  1  0.92766000  0.04101000  0.25466000  1.0
  N  N88  1  0.13357000  0.57167000  0.15412000  1.0
  N  N89  1  0.86644000  0.92833000  0.65412000  1.0
  N  N90  1  0.86644000  0.42833000  0.84588000  1.0
  N  N91  1  0.13356000  0.07167000  0.34588000  1.0
  N  N92  1  0.44732000  0.05466000  0.57223000  1.0
  N  N93  1  0.55268000  0.44533000  0.07223000  1.0
  N  N94  1  0.55268000  0.94532000  0.42777000  1.0
  N  N95  1  0.44732000  0.55467000  0.92777000  1.0
  N  N96  1  0.45367000  0.13903000  0.61536000  1.0
  N  N97  1  0.54633000  0.36097000  0.11536000  1.0
  N  N98  1  0.54633000  0.86098000  0.38465000  1.0
  N  N99  1  0.45367000  0.63903000  0.88465000  1.0
  N  N100  1  0.45539000  0.21878000  0.65871000  1.0
  N  N101  1  0.54461000  0.28122000  0.15871000  1.0
  N  N102  1  0.54461000  0.78122000  0.34129000  1.0
  N  N103  1  0.45539000  0.71878000  0.84129000  1.0
  N  N104  1  0.95096000  0.12891000  0.51894000  1.0
  N  N105  1  0.04903000  0.37110000  0.01894000  1.0
  N  N106  1  0.04903000  0.87110000  0.48106000  1.0
  N  N107  1  0.95096000  0.62890000  0.98106000  1.0
  N  N108  1  0.92157000  0.23792000  0.53711000  1.0
  N  N109  1  0.07843000  0.26208000  0.03711000  1.0
  N  N110  1  0.07843000  0.76208000  0.46289000  1.0
  N  N111  1  0.92156000  0.73792000  0.96289000  1.0
  N  N112  1  0.89355000  0.34412000  0.55405000  1.0
  N  N113  1  0.10644000  0.15588000  0.05405000  1.0
  N  N114  1  0.10644000  0.65588000  0.44595000  1.0
  N  N115  1  0.89355000  0.84412000  0.94595000  1.0
