# generated using pymatgen
data_CdH17C22N5O6
_symmetry_space_group_name_H-M   'P 1'
_cell_length_a   8.36883000
_cell_length_b   10.54270000
_cell_length_c   13.59510000
_cell_angle_alpha   76.31680000
_cell_angle_beta   72.75000000
_cell_angle_gamma   74.00340000
_symmetry_Int_Tables_number   1
_chemical_formula_structural   CdH17C22N5O6
_chemical_formula_sum   'Cd2 H34 C44 N10 O12'
_cell_volume   1085.41108527
_cell_formula_units_Z   2
loop_
 _symmetry_equiv_pos_site_id
 _symmetry_equiv_pos_as_xyz
  1  'x, y, z'
loop_
 _atom_site_type_symbol
 _atom_site_label
 _atom_site_symmetry_multiplicity
 _atom_site_fract_x
 _atom_site_fract_y
 _atom_site_fract_z
 _atom_site_occupancy
  Cd  Cd0  1  0.31460000  0.17914000  0.56609000  1.0
  Cd  Cd1  1  0.68540000  0.82086000  0.43391000  1.0
  H  H2  1  0.20198000  0.83247000  0.82180000  1.0
  H  H3  1  0.79802000  0.16753000  0.17820000  1.0
  H  H4  1  0.35987000  0.30091000  0.99664000  1.0
  H  H5  1  0.64013000  0.69909000  0.00336000  1.0
  H  H6  1  0.36816000  0.64017000  0.55074000  1.0
  H  H7  1  0.63184000  0.35983000  0.44926000  1.0
  H  H8  1  0.60387000  0.23913000  0.69053000  1.0
  H  H9  1  0.39613000  0.76087000  0.30947000  1.0
  H  H10  1  0.89066000  0.09688000  0.91532000  1.0
  H  H11  1  0.10934000  0.90312000  0.08468000  1.0
  H  H12  1  0.21025000  0.41159000  0.85576000  1.0
  H  H13  1  0.78975000  0.58841000  0.14424000  1.0
  H  H14  1  0.90998000  0.17168000  0.54056000  1.0
  H  H15  1  0.09002000  0.82832000  0.45943000  1.0
  H  H16  1  0.53601000  0.38186000  0.83836000  1.0
  H  H17  1  0.46399000  0.61813000  0.16164000  1.0
  H  H18  1  0.71150000  0.39757000  0.87803000  1.0
  H  H19  1  0.28850000  0.60243000  0.12197000  1.0
  H  H20  1  0.54567000  0.93176000  0.18774000  1.0
  H  H21  1  0.45433000  0.06824000  0.81226000  1.0
  H  H22  1  0.83469000  0.91896000  0.06953000  1.0
  H  H23  1  0.16530000  0.08104000  0.93047000  1.0
  H  H24  1  0.01610000  0.30171000  0.78023000  1.0
  H  H25  1  0.98390000  0.69829000  0.21977000  1.0
  H  H26  1  0.15639000  0.18176000  0.12833000  1.0
  H  H27  1  0.84361000  0.81824000  0.87167000  1.0
  H  H28  1  0.22905000  0.02685000  0.20509000  1.0
  H  H29  1  0.77095000  0.97315000  0.79491000  1.0
  H  H30  1  0.15255000  0.40213000  0.19128000  1.0
  H  H31  1  0.84745000  0.59787000  0.80873000  1.0
  H  H32  1  0.31411000  0.02627000  0.37187000  1.0
  H  H33  1  0.68589000  0.97373000  0.62813000  1.0
  H  H34  1  0.18505000  0.43970000  0.38112000  1.0
  H  H35  1  0.81495000  0.56030000  0.61888000  1.0
  C  C36  1  0.22591000  0.74388000  0.78701000  1.0
  C  C37  1  0.77409000  0.25612000  0.21299000  1.0
  C  C38  1  0.46482000  0.21767000  0.01312000  1.0
  C  C39  1  0.53518000  0.78233000  0.98689000  1.0
  C  C40  1  0.32056000  0.63538000  0.63492000  1.0
  C  C41  1  0.67944000  0.36462000  0.36508000  1.0
  C  C42  1  0.62894000  0.21228000  0.94689000  1.0
  C  C43  1  0.37106000  0.78772000  0.05311000  1.0
  C  C44  1  0.43270000  0.11749000  0.09974000  1.0
  C  C45  1  0.56730000  0.88251000  0.90026000  1.0
  C  C46  1  0.73536000  0.23991000  0.68596000  1.0
  C  C47  1  0.26464000  0.76009000  0.31404000  1.0
  C  C48  1  0.19816000  0.62192000  0.84820000  1.0
  C  C49  1  0.80184000  0.37808000  0.15180000  1.0
  C  C50  1  0.76240000  0.10380000  0.96740000  1.0
  C  C51  1  0.23760000  0.89620000  0.03260000  1.0
  C  C52  1  0.29180000  0.74915000  0.67914000  1.0
  C  C53  1  0.70820000  0.25085000  0.32086000  1.0
  C  C54  1  0.23363000  0.50549000  0.80614000  1.0
  C  C55  1  0.76637000  0.49451000  0.19386000  1.0
  C  C56  1  0.29193000  0.51376000  0.69785000  1.0
  C  C57  1  0.70807000  0.48624000  0.30215000  1.0
  C  C58  1  0.88769000  0.20737000  0.61311000  1.0
  C  C59  1  0.11231000  0.79263000  0.38689000  1.0
  C  C60  1  0.31892000  0.39354000  0.64865000  1.0
  C  C61  1  0.68108000  0.60646000  0.35135000  1.0
  C  C62  1  0.65815000  0.32630000  0.85688000  1.0
  C  C63  1  0.34185000  0.67370000  0.14312000  1.0
  C  C64  1  0.56724000  0.01085000  0.12051000  1.0
  C  C65  1  0.43276000  0.98915000  0.87949000  1.0
  C  C66  1  0.33087000  0.87789000  0.61118000  1.0
  C  C67  1  0.66913000  0.12211000  0.38882000  1.0
  C  C68  1  0.73136000  0.00395000  0.05402000  1.0
  C  C69  1  0.26864000  0.99605000  0.94597000  1.0
  C  C70  1  0.94826000  0.27559000  0.73384000  1.0
  C  C71  1  0.05174000  0.72440000  0.26616000  1.0
  C  C72  1  0.25432000  0.12687000  0.17094000  1.0
  C  C73  1  0.74568000  0.87313000  0.82906000  1.0
  C  C74  1  0.19071000  0.33175000  0.25683000  1.0
  C  C75  1  0.80929000  0.66825000  0.74317000  1.0
  C  C76  1  0.27419000  0.13367000  0.34921000  1.0
  C  C77  1  0.72581000  0.86633000  0.65079000  1.0
  C  C78  1  0.20764000  0.34869000  0.35020000  1.0
  C  C79  1  0.79236000  0.65131000  0.64980000  1.0
  N  N80  1  0.12857000  0.61553000  0.96063000  1.0
  N  N81  1  0.87143000  0.38447000  0.03937000  1.0
  N  N82  1  0.01885000  0.22992000  0.64401000  1.0
  N  N83  1  0.98115000  0.77008000  0.35598000  1.0
  N  N84  1  0.77614000  0.28404000  0.76163000  1.0
  N  N85  1  0.22386000  0.71596000  0.23837000  1.0
  N  N86  1  0.23237000  0.19500000  0.25794000  1.0
  N  N87  1  0.76763000  0.80500000  0.74206000  1.0
  N  N88  1  0.26008000  0.22419000  0.40664000  1.0
  N  N89  1  0.73992000  0.77581000  0.59336000  1.0
  O  O90  1  0.33155000  0.27849000  0.70759000  1.0
  O  O91  1  0.66845000  0.72151000  0.29241000  1.0
  O  O92  1  0.03471000  0.71815000  0.99382000  1.0
  O  O93  1  0.96529000  0.28185000  0.00618000  1.0
  O  O94  1  0.38098000  0.88276000  0.51270000  1.0
  O  O95  1  0.61901000  0.11724000  0.48730000  1.0
  O  O96  1  0.32443000  0.41182000  0.55231000  1.0
  O  O97  1  0.67557000  0.58818000  0.44770000  1.0
  O  O98  1  0.16684000  0.50660000  0.01853000  1.0
  O  O99  1  0.83317000  0.49340000  0.98147000  1.0
  O  O100  1  0.30916000  0.97315000  0.65984000  1.0
  O  O101  1  0.69084000  0.02685000  0.34016000  1.0
