# generated using pymatgen
data_AgH4C6NO2
_symmetry_space_group_name_H-M   'P 1'
_cell_length_a   3.74510000
_cell_length_b   10.95080000
_cell_length_c   14.11040000
_cell_angle_alpha   89.99980000
_cell_angle_beta   92.36480000
_cell_angle_gamma   89.99980000
_symmetry_Int_Tables_number   1
_chemical_formula_structural   AgH4C6NO2
_chemical_formula_sum   'Ag4 H16 C24 N4 O8'
_cell_volume   578.20064854
_cell_formula_units_Z   4
loop_
 _symmetry_equiv_pos_site_id
 _symmetry_equiv_pos_as_xyz
  1  'x, y, z'
loop_
 _atom_site_type_symbol
 _atom_site_label
 _atom_site_symmetry_multiplicity
 _atom_site_fract_x
 _atom_site_fract_y
 _atom_site_fract_z
 _atom_site_occupancy
  Ag  Ag0  1  0.67441000  0.99094000  0.39792000  1.0
  Ag  Ag1  1  0.32556000  0.49093000  0.10208000  1.0
  Ag  Ag2  1  0.32551000  0.00906000  0.60209000  1.0
  Ag  Ag3  1  0.67447000  0.50907000  0.89791000  1.0
  H  H4  1  0.77912000  0.46456000  0.45877000  1.0
  H  H5  1  0.22086000  0.96456000  0.04123000  1.0
  H  H6  1  0.22087000  0.53544000  0.54123000  1.0
  H  H7  1  0.77913000  0.03545000  0.95877000  1.0
  H  H8  1  0.50882000  0.56205000  0.31542000  1.0
  H  H9  1  0.49115000  0.06206000  0.18458000  1.0
  H  H10  1  0.49117000  0.43794000  0.68458000  1.0
  H  H11  1  0.50881000  0.93795000  0.81542000  1.0
  H  H12  1  0.76608000  0.26636000  0.14608000  1.0
  H  H13  1  0.23393000  0.76636000  0.35392000  1.0
  H  H14  1  0.23393000  0.73363000  0.85392000  1.0
  H  H15  1  0.76607000  0.23363000  0.64608000  1.0
  H  H16  1  0.04436000  0.15565000  0.28525000  1.0
  H  H17  1  0.95566000  0.65565000  0.21475000  1.0
  H  H18  1  0.95563000  0.84435000  0.71475000  1.0
  H  H19  1  0.04435000  0.34435000  0.78524000  1.0
  C  C20  1  0.09450000  0.23697000  0.47059000  1.0
  C  C21  1  0.90551000  0.73697000  0.02942000  1.0
  C  C22  1  0.90552000  0.76303000  0.52942000  1.0
  C  C23  1  0.09452000  0.26303000  0.97058000  1.0
  C  C24  1  0.92875000  0.30008000  0.38425000  1.0
  C  C25  1  0.07125000  0.80008000  0.11575000  1.0
  C  C26  1  0.07125000  0.69992000  0.61575000  1.0
  C  C27  1  0.92877000  0.19992000  0.88424000  1.0
  C  C28  1  0.78096000  0.41664000  0.39141000  1.0
  C  C29  1  0.21904000  0.91664000  0.10859000  1.0
  C  C30  1  0.21904000  0.58336000  0.60859000  1.0
  C  C31  1  0.78097000  0.08336000  0.89141000  1.0
  C  C32  1  0.62892000  0.47177000  0.31076000  1.0
  C  C33  1  0.37106000  0.97178000  0.18923000  1.0
  C  C34  1  0.37108000  0.52822000  0.68923000  1.0
  C  C35  1  0.62892000  0.02823000  0.81077000  1.0
  C  C36  1  0.77236000  0.30653000  0.21673000  1.0
  C  C37  1  0.22765000  0.80653000  0.28327000  1.0
  C  C38  1  0.22765000  0.69347000  0.78327000  1.0
  C  C39  1  0.77235000  0.19347000  0.71673000  1.0
  C  C40  1  0.92428000  0.24524000  0.29461000  1.0
  C  C41  1  0.07573000  0.74525000  0.20539000  1.0
  C  C42  1  0.07572000  0.75475000  0.70539000  1.0
  C  C43  1  0.92429000  0.25475000  0.79461000  1.0
  N  N44  1  0.62204000  0.41816000  0.22455000  1.0
  N  N45  1  0.37797000  0.91817000  0.27545000  1.0
  N  N46  1  0.37798000  0.58183000  0.77545000  1.0
  N  N47  1  0.62203000  0.08183000  0.72455000  1.0
  O  O48  1  0.08020000  0.11841000  0.46956000  1.0
  O  O49  1  0.91977000  0.61841000  0.03044000  1.0
  O  O50  1  0.91973000  0.88159000  0.53045000  1.0
  O  O51  1  0.08028000  0.38160000  0.96954000  1.0
  O  O52  1  0.23719000  0.29948000  0.53547000  1.0
  O  O53  1  0.76279000  0.79950000  0.96453000  1.0
  O  O54  1  0.76287000  0.70051000  0.46452000  1.0
  O  O55  1  0.23716000  0.20051000  0.03548000  1.0
