# generated using pymatgen
data_SmH6C7O9
_symmetry_space_group_name_H-M   'P 1'
_cell_length_a   9.94954000
_cell_length_b   9.95281000
_cell_length_c   13.15110000
_cell_angle_alpha   109.32300000
_cell_angle_beta   94.88490000
_cell_angle_gamma   116.74700000
_symmetry_Int_Tables_number   1
_chemical_formula_structural   SmH6C7O9
_chemical_formula_sum   'Sm4 H24 C28 O36'
_cell_volume   1054.25906097
_cell_formula_units_Z   4
loop_
 _symmetry_equiv_pos_site_id
 _symmetry_equiv_pos_as_xyz
  1  'x, y, z'
loop_
 _atom_site_type_symbol
 _atom_site_label
 _atom_site_symmetry_multiplicity
 _atom_site_fract_x
 _atom_site_fract_y
 _atom_site_fract_z
 _atom_site_occupancy
  Sm  Sm0  1  0.26266000  0.53786000  0.99377000  1.0
  Sm  Sm1  1  0.54388000  0.76877000  0.50610000  1.0
  Sm  Sm2  1  0.73735000  0.46216000  0.00623000  1.0
  Sm  Sm3  1  0.45612000  0.23122000  0.49391000  1.0
  H  H4  1  0.05370000  0.30323000  0.76001000  1.0
  H  H5  1  0.54285000  0.79317000  0.73983000  1.0
  H  H6  1  0.94631000  0.69677000  0.24000000  1.0
  H  H7  1  0.45715000  0.20682000  0.26017000  1.0
  H  H8  1  0.94912000  0.36833000  0.81441000  1.0
  H  H9  1  0.55406000  0.63456000  0.68552000  1.0
  H  H10  1  0.05088000  0.63167000  0.18559000  1.0
  H  H11  1  0.44594000  0.36543000  0.31449000  1.0
  H  H12  1  0.15534000  0.21433000  0.14384000  1.0
  H  H13  1  0.07038000  0.51097000  0.35592000  1.0
  H  H14  1  0.84465000  0.78567000  0.85616000  1.0
  H  H15  1  0.92962000  0.48902000  0.64408000  1.0
  H  H16  1  0.02244000  0.95234000  0.20005000  1.0
  H  H17  1  0.75206000  0.32159000  0.29950000  1.0
  H  H18  1  0.97756000  0.04767000  0.79995000  1.0
  H  H19  1  0.24794000  0.67840000  0.70051000  1.0
  H  H20  1  0.48500000  0.77515000  0.92561000  1.0
  H  H21  1  0.84965000  0.05933000  0.57430000  1.0
  H  H22  1  0.51501000  0.22486000  0.07439000  1.0
  H  H23  1  0.15035000  0.94066000  0.42571000  1.0
  H  H24  1  0.49513000  0.61803000  0.86275000  1.0
  H  H25  1  0.75531000  0.13218000  0.63724000  1.0
  H  H26  1  0.50487000  0.38198000  0.13724000  1.0
  H  H27  1  0.24469000  0.86781000  0.36276000  1.0
  C  C28  1  0.90690000  0.25208000  0.02956000  1.0
  C  C29  1  0.22259000  0.37729000  0.47049000  1.0
  C  C30  1  0.09309000  0.74792000  0.97044000  1.0
  C  C31  1  0.77742000  0.62270000  0.52951000  1.0
  C  C32  1  0.80203000  0.92593000  0.12067000  1.0
  C  C33  1  0.80517000  0.18089000  0.37912000  1.0
  C  C34  1  0.19798000  0.07408000  0.87933000  1.0
  C  C35  1  0.19483000  0.81911000  0.62088000  1.0
  C  C36  1  0.03164000  0.13170000  0.12944000  1.0
  C  C37  1  0.00217000  0.40169000  0.37033000  1.0
  C  C38  1  0.96836000  0.86831000  0.87056000  1.0
  C  C39  1  0.99783000  0.59831000  0.62967000  1.0
  C  C40  1  0.66712000  0.77298000  0.11305000  1.0
  C  C41  1  0.65981000  0.05374000  0.38681000  1.0
  C  C42  1  0.33288000  0.22702000  0.88695000  1.0
  C  C43  1  0.34019000  0.94626000  0.61318000  1.0
  C  C44  1  0.96209000  0.99475000  0.15762000  1.0
  C  C45  1  0.83697000  0.30382000  0.34205000  1.0
  C  C46  1  0.03792000  0.00527000  0.84238000  1.0
  C  C47  1  0.16303000  0.69617000  0.65795000  1.0
  C  C48  1  0.31543000  0.65835000  0.26396000  1.0
  C  C49  1  0.39409000  0.55152000  0.23587000  1.0
  C  C50  1  0.68457000  0.34165000  0.73604000  1.0
  C  C51  1  0.60590000  0.44848000  0.76413000  1.0
  C  C52  1  0.91066000  0.13910000  0.07706000  1.0
  C  C53  1  0.06200000  0.33333333  0.42286000  1.0
  C  C54  1  0.08933000  0.86090000  0.92293000  1.0
  C  C55  1  0.93800000  0.66666667  0.57715000  1.0
  O  O56  1  0.03314000  0.34727000  0.01410000  1.0
  O  O57  1  0.33309000  0.51901000  0.48590000  1.0
  O  O58  1  0.96685000  0.65274000  0.98590000  1.0
  O  O59  1  0.66691000  0.48098000  0.51410000  1.0
  O  O60  1  0.77832000  0.24926000  0.00829000  1.0
  O  O61  1  0.24121000  0.27019000  0.49189000  1.0
  O  O62  1  0.22168000  0.75075000  0.99171000  1.0
  O  O63  1  0.75879000  0.72979000  0.50811000  1.0
  O  O64  1  0.24131000  0.66095000  0.18208000  1.0
  O  O65  1  0.47836000  0.55910000  0.31777000  1.0
  O  O66  1  0.75870000  0.33907000  0.81793000  1.0
  O  O67  1  0.52163000  0.44090000  0.68222000  1.0
  O  O68  1  0.69691000  0.66562000  0.12457000  1.0
  O  O69  1  0.54099000  0.07221000  0.37550000  1.0
  O  O70  1  0.30309000  0.33439000  0.87543000  1.0
  O  O71  1  0.45901000  0.92778000  0.62450000  1.0
  O  O72  1  0.76957000  0.01517000  0.07286000  1.0
  O  O73  1  0.94225000  0.19640000  0.42705000  1.0
  O  O74  1  0.23043000  0.98484000  0.92713000  1.0
  O  O75  1  0.05774000  0.80359000  0.57295000  1.0
  O  O76  1  0.53154000  0.75454000  0.09168000  1.0
  O  O77  1  0.66266000  0.93951000  0.40812000  1.0
  O  O78  1  0.46846000  0.24547000  0.90832000  1.0
  O  O79  1  0.33734000  0.06049000  0.59188000  1.0
  O  O80  1  0.32525000  0.73041000  0.36607000  1.0
  O  O81  1  0.36423000  0.45937000  0.13377000  1.0
  O  O82  1  0.67475000  0.26959000  0.63393000  1.0
  O  O83  1  0.63577000  0.54063000  0.86623000  1.0
  O  O84  1  0.05855000  0.40323000  0.81073000  1.0
  O  O85  1  0.59230000  0.74754000  0.68911000  1.0
  O  O86  1  0.94145000  0.59677000  0.18927000  1.0
  O  O87  1  0.40771000  0.25245000  0.31089000  1.0
  O  O88  1  0.42238000  0.66164000  0.86806000  1.0
  O  O89  1  0.79367000  0.05416000  0.63184000  1.0
  O  O90  1  0.57762000  0.33836000  0.13194000  1.0
  O  O91  1  0.20633000  0.94583000  0.36816000  1.0
