# generated using pymatgen
data_LaH2C4N3O5
_symmetry_space_group_name_H-M   'P 1'
_cell_length_a   8.78362276
_cell_length_b   8.78346000
_cell_length_c   10.16580000
_cell_angle_alpha   89.99480000
_cell_angle_beta   90.00000004
_cell_angle_gamma   59.99983894
_symmetry_Int_Tables_number   1
_chemical_formula_structural   LaH2C4N3O5
_chemical_formula_sum   'La3 H6 C12 N9 O15'
_cell_volume   679.22050610
_cell_formula_units_Z   3
loop_
 _symmetry_equiv_pos_site_id
 _symmetry_equiv_pos_as_xyz
  1  'x, y, z'
loop_
 _atom_site_type_symbol
 _atom_site_label
 _atom_site_symmetry_multiplicity
 _atom_site_fract_x
 _atom_site_fract_y
 _atom_site_fract_z
 _atom_site_occupancy
  La  La0  1  0.00000000  0.22015000  0.83331000  1.0
  La  La1  1  0.22015000  0.77985000  0.16668000  1.0
  La  La2  1  0.77988000  0.00000000  0.50000000  1.0
  H  H3  1  0.71955000  0.36625000  0.62463000  1.0
  H  H4  1  0.36648000  0.91419000  0.95805000  1.0
  H  H5  1  0.91425000  0.71953000  0.29141000  1.0
  H  H6  1  0.28068000  0.08580000  0.04195000  1.0
  H  H7  1  0.63378000  0.28045000  0.70860000  1.0
  H  H8  1  0.08582000  0.63375000  0.37537000  1.0
  C  C9  1  0.38744000  0.09087000  0.66474000  1.0
  C  C10  1  0.09072000  0.52172000  0.99815000  1.0
  C  C11  1  0.52176000  0.38743000  0.33147000  1.0
  C  C12  1  0.61244000  0.47827000  0.00184000  1.0
  C  C13  1  0.90920000  0.61255000  0.66852000  1.0
  C  C14  1  0.47830000  0.90915000  0.33527000  1.0
  C  C15  1  0.30038000  0.03602000  0.56400000  1.0
  C  C16  1  0.03588000  0.66365000  0.89742000  1.0
  C  C17  1  0.66357000  0.30038000  0.23066000  1.0
  C  C18  1  0.69952000  0.33634000  0.10257000  1.0
  C  C19  1  0.96396000  0.69962000  0.76933000  1.0
  C  C20  1  0.33639000  0.96399000  0.43599000  1.0
  N  N21  1  0.14215000  0.05591000  0.59901000  1.0
  N  N22  1  0.05578000  0.80199000  0.93240000  1.0
  N  N23  1  0.80196000  0.14216000  0.26568000  1.0
  N  N24  1  0.85776000  0.19799000  0.06759000  1.0
  N  N25  1  0.94414000  0.85782000  0.73431000  1.0
  N  N26  1  0.19804000  0.94412000  0.40098000  1.0
  N  N27  1  0.08373000  0.00002000  0.49999000  1.0
  N  N28  1  0.99998000  0.91626000  0.83334000  1.0
  N  N29  1  0.91623000  0.08372000  0.16664000  1.0
  O  O30  1  0.30359000  0.15237000  0.77147000  1.0
  O  O31  1  0.15220000  0.54404000  0.10491000  1.0
  O  O32  1  0.54421000  0.30362000  0.43824000  1.0
  O  O33  1  0.69625000  0.45596000  0.89510000  1.0
  O  O34  1  0.84780000  0.69639000  0.56176000  1.0
  O  O35  1  0.45597000  0.84762000  0.22853000  1.0
  O  O36  1  0.74426000  0.25578000  0.66666667  1.0
  O  O37  1  0.25601000  0.00000000  1.00000000  1.0
  O  O38  1  0.00004000  0.74422000  0.33333333  1.0
  O  O39  1  0.53756000  0.07385000  0.64316000  1.0
  O  O40  1  0.07371000  0.38863000  0.97650000  1.0
  O  O41  1  0.38860000  0.53757000  0.30992000  1.0
  O  O42  1  0.46233000  0.61137000  0.02350000  1.0
  O  O43  1  0.92618000  0.46243000  0.69007000  1.0
  O  O44  1  0.61140000  0.92617000  0.35684000  1.0
