# generated using pymatgen
data_MoH7C7NO4
_symmetry_space_group_name_H-M   'P 1'
_cell_length_a   7.40158000
_cell_length_b   8.30769000
_cell_length_c   14.05140000
_cell_angle_alpha   90.00020000
_cell_angle_beta   90.00040000
_cell_angle_gamma   113.97200000
_symmetry_Int_Tables_number   1
_chemical_formula_structural   MoH7C7NO4
_chemical_formula_sum   'Mo4 H28 C28 N4 O16'
_cell_volume   789.49414067
_cell_formula_units_Z   4
loop_
 _symmetry_equiv_pos_site_id
 _symmetry_equiv_pos_as_xyz
  1  'x, y, z'
loop_
 _atom_site_type_symbol
 _atom_site_label
 _atom_site_symmetry_multiplicity
 _atom_site_fract_x
 _atom_site_fract_y
 _atom_site_fract_z
 _atom_site_occupancy
  Mo  Mo0  1  0.76338000  0.09606000  0.74761000  1.0
  Mo  Mo1  1  0.23662000  0.40393000  0.24761000  1.0
  Mo  Mo2  1  0.23663000  0.90393000  0.25239000  1.0
  Mo  Mo3  1  0.76338000  0.59606000  0.75239000  1.0
  H  H4  1  0.08282000  0.02812000  0.60685000  1.0
  H  H5  1  0.91717000  0.47188000  0.10685000  1.0
  H  H6  1  0.91718000  0.97188000  0.39316000  1.0
  H  H7  1  0.08282000  0.52812000  0.89315000  1.0
  H  H8  1  0.92222000  0.25533000  0.49836000  1.0
  H  H9  1  0.07777000  0.24467000  0.99836000  1.0
  H  H10  1  0.07778000  0.74467000  0.50164000  1.0
  H  H11  1  0.92223000  0.75533000  0.00164000  1.0
  H  H12  1  0.93051000  0.44093000  0.56563000  1.0
  H  H13  1  0.06948000  0.05907000  0.06563000  1.0
  H  H14  1  0.06949000  0.55907000  0.43437000  1.0
  H  H15  1  0.93052000  0.94093000  0.93437000  1.0
  H  H16  1  0.58433000  0.33500000  0.43065000  1.0
  H  H17  1  0.41566000  0.16500000  0.93064000  1.0
  H  H18  1  0.41567000  0.66501000  0.56936000  1.0
  H  H19  1  0.58434000  0.83500000  0.06936000  1.0
  H  H20  1  0.22071000  0.00785000  0.79426000  1.0
  H  H21  1  0.77929000  0.49215000  0.29426000  1.0
  H  H22  1  0.77929000  0.99215000  0.20575000  1.0
  H  H23  1  0.22071000  0.50785000  0.70574000  1.0
  H  H24  1  0.25263000  0.82909000  0.74088000  1.0
  H  H25  1  0.74737000  0.67090000  0.24088000  1.0
  H  H26  1  0.74737000  0.17091000  0.25912000  1.0
  H  H27  1  0.25264000  0.32910000  0.75911000  1.0
  H  H28  1  0.22369000  0.20379000  0.45738000  1.0
  H  H29  1  0.77630000  0.29620000  0.95737000  1.0
  H  H30  1  0.77631000  0.79621000  0.54263000  1.0
  H  H31  1  0.22369000  0.70379000  0.04262000  1.0
  C  C32  1  0.24082000  0.08491000  0.59251000  1.0
  C  C33  1  0.75918000  0.41508000  0.09251000  1.0
  C  C34  1  0.75918000  0.91509000  0.40749000  1.0
  C  C35  1  0.24082000  0.58492000  0.90749000  1.0
  C  C36  1  0.64557000  0.22862000  0.56198000  1.0
  C  C37  1  0.35442000  0.27138000  0.06199000  1.0
  C  C38  1  0.35442000  0.77138000  0.43802000  1.0
  C  C39  1  0.64558000  0.72862000  0.93801000  1.0
  C  C40  1  0.86695000  0.29582000  0.56300000  1.0
  C  C41  1  0.13304000  0.20418000  0.06300000  1.0
  C  C42  1  0.13305000  0.70419000  0.43700000  1.0
  C  C43  1  0.86695000  0.79582000  0.93700000  1.0
  C  C44  1  0.37124000  0.06563000  0.65821000  1.0
  C  C45  1  0.62875000  0.43437000  0.15821000  1.0
  C  C46  1  0.62876000  0.93437000  0.34179000  1.0
  C  C47  1  0.37125000  0.56563000  0.84179000  1.0
  C  C48  1  0.52420000  0.25638000  0.49418000  1.0
  C  C49  1  0.47579000  0.24361000  0.99418000  1.0
  C  C50  1  0.47580000  0.74362000  0.50582000  1.0
  C  C51  1  0.52420000  0.75639000  0.00582000  1.0
  C  C52  1  0.32576000  0.97284000  0.75261000  1.0
  C  C53  1  0.67423000  0.52716000  0.25261000  1.0
  C  C54  1  0.67424000  0.02716000  0.24739000  1.0
  C  C55  1  0.32576000  0.47284000  0.74739000  1.0
  C  C56  1  0.32006000  0.18266000  0.51012000  1.0
  C  C57  1  0.67994000  0.31734000  0.01012000  1.0
  C  C58  1  0.67994000  0.81734000  0.48989000  1.0
  C  C59  1  0.32007000  0.68266000  0.98988000  1.0
  N  N60  1  0.56600000  0.13502000  0.64060000  1.0
  N  N61  1  0.43399000  0.36497000  0.14060000  1.0
  N  N62  1  0.43400000  0.86498000  0.35940000  1.0
  N  N63  1  0.56601000  0.63503000  0.85940000  1.0
  O  O64  1  0.50371000  0.01594000  0.80466000  1.0
  O  O65  1  0.49630000  0.48406000  0.30466000  1.0
  O  O66  1  0.49630000  0.98406000  0.19534000  1.0
  O  O67  1  0.50371000  0.51594000  0.69534000  1.0
  O  O68  1  0.92807000  0.23287000  0.64529000  1.0
  O  O69  1  0.07193000  0.26713000  0.14529000  1.0
  O  O70  1  0.07193000  0.76713000  0.35471000  1.0
  O  O71  1  0.92807000  0.73287000  0.85471000  1.0
  O  O72  1  0.92013000  0.16707000  0.84521000  1.0
  O  O73  1  0.07987000  0.33292000  0.34521000  1.0
  O  O74  1  0.07987000  0.83293000  0.15479000  1.0
  O  O75  1  0.92014000  0.66707000  0.65479000  1.0
  O  O76  1  0.75778000  0.89104000  0.71776000  1.0
  O  O77  1  0.24222000  0.60896000  0.21776000  1.0
  O  O78  1  0.24223000  0.10897000  0.28224000  1.0
  O  O79  1  0.75778000  0.39103000  0.78224000  1.0
