# generated using pymatgen
data_CuH14C19N2O7
_symmetry_space_group_name_H-M   'P 1'
_cell_length_a   8.87213000
_cell_length_b   11.11180000
_cell_length_c   20.59530000
_cell_angle_alpha   90.00160000
_cell_angle_beta   90.00160000
_cell_angle_gamma   89.41790000
_symmetry_Int_Tables_number   1
_chemical_formula_structural   CuH14C19N2O7
_chemical_formula_sum   'Cu4 H56 C76 N8 O28'
_cell_volume   2030.28974612
_cell_formula_units_Z   4
loop_
 _symmetry_equiv_pos_site_id
 _symmetry_equiv_pos_as_xyz
  1  'x, y, z'
loop_
 _atom_site_type_symbol
 _atom_site_label
 _atom_site_symmetry_multiplicity
 _atom_site_fract_x
 _atom_site_fract_y
 _atom_site_fract_z
 _atom_site_occupancy
  Cu  Cu0  1  0.60577000  0.19465000  0.27227000  1.0
  Cu  Cu1  1  0.89423000  0.30532000  0.77227000  1.0
  Cu  Cu2  1  0.39424000  0.80534000  0.72774000  1.0
  Cu  Cu3  1  0.10579000  0.69466000  0.22774000  1.0
  H  H4  1  0.33021000  0.99314000  0.42745000  1.0
  H  H5  1  0.16981000  0.50689000  0.92745000  1.0
  H  H6  1  0.66975000  0.00684000  0.57254000  1.0
  H  H7  1  0.83021000  0.49316000  0.07253000  1.0
  H  H8  1  0.32116000  0.14311000  0.34381000  1.0
  H  H9  1  0.17882000  0.35690000  0.84384000  1.0
  H  H10  1  0.67881000  0.85688000  0.65618000  1.0
  H  H11  1  0.82119000  0.64311000  0.15617000  1.0
  H  H12  1  0.44031000  0.23454000  0.37056000  1.0
  H  H13  1  0.05967000  0.26545000  0.87058000  1.0
  H  H14  1  0.55968000  0.76545000  0.62944000  1.0
  H  H15  1  0.94035000  0.73454000  0.12943000  1.0
  H  H16  1  0.67392000  0.28430000  0.53497000  1.0
  H  H17  1  0.82607000  0.21572000  0.03496000  1.0
  H  H18  1  0.32604000  0.71574000  0.46504000  1.0
  H  H19  1  0.17392000  0.78428000  0.96505000  1.0
  H  H20  1  0.12138000  0.18383000  0.59664000  1.0
  H  H21  1  0.37861000  0.31617000  0.09664000  1.0
  H  H22  1  0.87859000  0.81616000  0.40335000  1.0
  H  H23  1  0.62141000  0.68389000  0.90336000  1.0
  H  H24  1  0.98257000  0.12332000  0.39875000  1.0
  H  H25  1  0.51742000  0.37670000  0.89876000  1.0
  H  H26  1  0.01738000  0.87669000  0.60125000  1.0
  H  H27  1  0.48260000  0.62330000  0.10125000  1.0
  H  H28  1  0.58726000  0.00347000  0.17030000  1.0
  H  H29  1  0.91276000  0.49649000  0.67032000  1.0
  H  H30  1  0.41273000  0.99650000  0.82969000  1.0
  H  H31  1  0.08725000  0.50351000  0.32969000  1.0
  H  H32  1  0.58103000  0.77997000  0.16640000  1.0
  H  H33  1  0.91898000  0.71999000  0.66642000  1.0
  H  H34  1  0.41898000  0.22000000  0.83360000  1.0
  H  H35  1  0.08101000  0.28001000  0.33358000  1.0
  H  H36  1  0.61840000  0.78115000  0.37567000  1.0
  H  H37  1  0.88162000  0.71887000  0.87568000  1.0
  H  H38  1  0.38164000  0.21884000  0.62434000  1.0
  H  H39  1  0.11839000  0.28115000  0.12432000  1.0
  H  H40  1  0.62278000  0.00259000  0.37092000  1.0
  H  H41  1  0.87723000  0.49741000  0.87094000  1.0
  H  H42  1  0.37724000  0.99740000  0.62907000  1.0
  H  H43  1  0.12279000  0.50259000  0.12906000  1.0
  H  H44  1  0.40097000  0.60615000  0.21342000  1.0
  H  H45  1  0.09904000  0.89380000  0.71343000  1.0
  H  H46  1  0.59904000  0.39384000  0.78659000  1.0
  H  H47  1  0.90095000  0.10617000  0.28658000  1.0
  H  H48  1  0.41199000  0.38143000  0.21908000  1.0
  H  H49  1  0.08802000  0.11854000  0.71908000  1.0
  H  H50  1  0.58801000  0.61857000  0.78093000  1.0
  H  H51  1  0.91199000  0.88144000  0.28091000  1.0
  H  H52  1  0.80348000  0.38602000  0.32731000  1.0
  H  H53  1  0.69652000  0.11396000  0.82732000  1.0
  H  H54  1  0.19653000  0.61395000  0.67268000  1.0
  H  H55  1  0.30349000  0.88605000  0.17268000  1.0
  H  H56  1  0.80905000  0.61122000  0.32804000  1.0
  H  H57  1  0.69097000  0.88874000  0.82804000  1.0
  H  H58  1  0.19098000  0.38875000  0.67196000  1.0
  H  H59  1  0.30904000  0.11126000  0.17197000  1.0
  C  C60  1  0.81899000  0.21029000  0.46081000  1.0
  C  C61  1  0.68100000  0.28973000  0.96082000  1.0
  C  C62  1  0.18101000  0.78971000  0.53918000  1.0
  C  C63  1  0.31899000  0.71028000  0.03919000  1.0
  C  C64  1  0.78615000  0.24903000  0.52393000  1.0
  C  C65  1  0.71388000  0.25097000  0.02393000  1.0
  C  C66  1  0.21386000  0.75098000  0.47607000  1.0
  C  C67  1  0.28611000  0.74904000  0.97607000  1.0
  C  C68  1  0.89472000  0.24013000  0.57304000  1.0
  C  C69  1  0.60533000  0.25987000  0.07304000  1.0
  C  C70  1  0.10532000  0.75988000  0.42696000  1.0
  C  C71  1  0.39465000  0.74017000  0.92697000  1.0
  C  C72  1  0.03694000  0.19235000  0.55860000  1.0
  C  C73  1  0.46309000  0.30766000  0.05860000  1.0
  C  C74  1  0.96308000  0.80767000  0.44139000  1.0
  C  C75  1  0.53691000  0.69240000  0.94141000  1.0
  C  C76  1  0.06947000  0.14948000  0.49604000  1.0
  C  C77  1  0.43052000  0.35054000  0.99604000  1.0
  C  C78  1  0.93047000  0.85051000  0.50395000  1.0
  C  C79  1  0.56951000  0.64951000  0.00396000  1.0
  C  C80  1  0.96022000  0.15882000  0.44708000  1.0
  C  C81  1  0.53977000  0.34117000  0.94709000  1.0
  C  C82  1  0.03973000  0.84115000  0.55291000  1.0
  C  C83  1  0.46023000  0.65884000  0.05291000  1.0
  C  C84  1  0.69766000  0.21931000  0.40977000  1.0
  C  C85  1  0.80232000  0.28070000  0.90977000  1.0
  C  C86  1  0.30230000  0.78070000  0.59024000  1.0
  C  C87  1  0.19770000  0.71929000  0.09025000  1.0
  C  C88  1  0.85207000  0.27308000  0.64168000  1.0
  C  C89  1  0.64793000  0.22692000  0.14168000  1.0
  C  C90  1  0.14795000  0.72694000  0.35831000  1.0
  C  C91  1  0.35206000  0.77310000  0.85833000  1.0
  C  C92  1  0.21758000  0.08879000  0.48601000  1.0
  C  C93  1  0.28242000  0.41124000  0.98601000  1.0
  C  C94  1  0.78237000  0.91120000  0.51399000  1.0
  C  C95  1  0.71760000  0.58881000  0.01400000  1.0
  C  C96  1  0.59322000  0.95029000  0.21454000  1.0
  C  C97  1  0.90680000  0.54966000  0.71455000  1.0
  C  C98  1  0.40676000  0.04969000  0.78545000  1.0
  C  C99  1  0.09321000  0.45034000  0.28546000  1.0
  C  C100  1  0.58899000  0.82547000  0.21300000  1.0
  C  C101  1  0.91103000  0.67449000  0.71301000  1.0
  C  C102  1  0.41102000  0.17451000  0.78700000  1.0
  C  C103  1  0.08897000  0.32552000  0.28699000  1.0
  C  C104  1  0.60062000  0.76024000  0.27091000  1.0
  C  C105  1  0.89941000  0.73974000  0.77093000  1.0
  C  C106  1  0.39941000  0.23974000  0.72909000  1.0
  C  C107  1  0.10058000  0.26026000  0.22907000  1.0
  C  C108  1  0.61259000  0.82576000  0.32868000  1.0
  C  C109  1  0.88744000  0.67421000  0.82869000  1.0
  C  C110  1  0.38744000  0.17421000  0.67132000  1.0
  C  C111  1  0.11257000  0.32579000  0.17131000  1.0
  C  C112  1  0.61297000  0.95061000  0.32651000  1.0
  C  C113  1  0.88703000  0.54937000  0.82653000  1.0
  C  C114  1  0.38704000  0.04936000  0.67349000  1.0
  C  C115  1  0.11298000  0.45062000  0.17348000  1.0
  C  C116  1  0.60311000  0.62745000  0.27150000  1.0
  C  C117  1  0.89690000  0.87252000  0.77151000  1.0
  C  C118  1  0.39690000  0.37253000  0.72850000  1.0
  C  C119  1  0.10308000  0.12748000  0.22849000  1.0
  C  C120  1  0.49226000  0.56120000  0.23942000  1.0
  C  C121  1  0.00775000  0.93876000  0.73942000  1.0
  C  C122  1  0.50775000  0.43879000  0.76058000  1.0
  C  C123  1  0.99224000  0.06122000  0.26058000  1.0
  C  C124  1  0.49728000  0.43642000  0.24224000  1.0
  C  C125  1  0.00272000  0.06355000  0.74224000  1.0
  C  C126  1  0.50273000  0.56357000  0.75776000  1.0
  C  C127  1  0.99728000  0.93643000  0.25775000  1.0
  C  C128  1  0.71575000  0.43901000  0.30363000  1.0
  C  C129  1  0.78426000  0.06096000  0.80363000  1.0
  C  C130  1  0.28426000  0.56097000  0.69636000  1.0
  C  C131  1  0.21574000  0.93905000  0.19636000  1.0
  C  C132  1  0.71694000  0.56399000  0.30438000  1.0
  C  C133  1  0.78307000  0.93598000  0.80438000  1.0
  C  C134  1  0.28308000  0.43598000  0.69562000  1.0
  C  C135  1  0.21692000  0.06402000  0.19562000  1.0
  N  N136  1  0.60459000  0.01282000  0.27034000  1.0
  N  N137  1  0.89541000  0.48716000  0.77035000  1.0
  N  N138  1  0.39541000  0.98717000  0.72966000  1.0
  N  N139  1  0.10458000  0.51283000  0.22965000  1.0
  N  N140  1  0.60785000  0.37591000  0.27344000  1.0
  N  N141  1  0.89216000  0.12405000  0.77344000  1.0
  N  N142  1  0.39215000  0.62407000  0.72656000  1.0
  N  N143  1  0.10784000  0.87594000  0.22655000  1.0
  O  O144  1  0.73896000  0.18899000  0.35166000  1.0
  O  O145  1  0.76102000  0.31100000  0.85165000  1.0
  O  O146  1  0.26102000  0.81101000  0.64835000  1.0
  O  O147  1  0.23898000  0.68897000  0.14836000  1.0
  O  O148  1  0.56819000  0.25390000  0.42631000  1.0
  O  O149  1  0.93177000  0.24608000  0.92632000  1.0
  O  O150  1  0.43176000  0.74609000  0.57369000  1.0
  O  O151  1  0.06823000  0.75391000  0.07369000  1.0
  O  O152  1  0.71703000  0.27563000  0.65822000  1.0
  O  O153  1  0.78296000  0.22438000  0.15824000  1.0
  O  O154  1  0.28299000  0.72442000  0.34176000  1.0
  O  O155  1  0.21704000  0.77564000  0.84176000  1.0
  O  O156  1  0.96541000  0.29523000  0.68015000  1.0
  O  O157  1  0.53458000  0.20474000  0.18013000  1.0
  O  O158  1  0.03458000  0.70478000  0.31985000  1.0
  O  O159  1  0.46542000  0.79524000  0.81988000  1.0
  O  O160  1  0.31585000  0.07923000  0.52743000  1.0
  O  O161  1  0.18418000  0.42078000  0.02744000  1.0
  O  O162  1  0.68415000  0.92074000  0.47255000  1.0
  O  O163  1  0.81581000  0.57927000  0.97256000  1.0
  O  O164  1  0.23505000  0.03902000  0.42564000  1.0
  O  O165  1  0.26496000  0.46102000  0.92566000  1.0
  O  O166  1  0.76489000  0.96097000  0.57432000  1.0
  O  O167  1  0.73506000  0.53902000  0.07432000  1.0
  O  O168  1  0.37917000  0.21310000  0.33090000  1.0
  O  O169  1  0.12083000  0.28691000  0.83093000  1.0
  O  O170  1  0.62083000  0.78689000  0.66909000  1.0
  O  O171  1  0.87918000  0.71310000  0.16908000  1.0
