# generated using pymatgen
data_H14PbC19S(NO3)2
_symmetry_space_group_name_H-M   'P 1'
_cell_length_a   6.80144000
_cell_length_b   11.25920000
_cell_length_c   12.66910000
_cell_angle_alpha   99.89740000
_cell_angle_beta   97.90620000
_cell_angle_gamma   103.29500000
_symmetry_Int_Tables_number   1
_chemical_formula_structural   H14PbC19S(NO3)2
_chemical_formula_sum   'H28 Pb2 C38 S2 N4 O12'
_cell_volume   914.12628890
_cell_formula_units_Z   2
loop_
 _symmetry_equiv_pos_site_id
 _symmetry_equiv_pos_as_xyz
  1  'x, y, z'
loop_
 _atom_site_type_symbol
 _atom_site_label
 _atom_site_symmetry_multiplicity
 _atom_site_fract_x
 _atom_site_fract_y
 _atom_site_fract_z
 _atom_site_occupancy
  H  H0  1  0.62958000  0.37481000  0.27898000  1.0
  H  H1  1  0.37043000  0.62519000  0.72103000  1.0
  H  H2  1  0.85855000  0.47275000  0.45723000  1.0
  H  H3  1  0.14146000  0.52725000  0.54278000  1.0
  H  H4  1  0.73300000  0.43141000  0.63006000  1.0
  H  H5  1  0.26700000  0.56859000  0.36994000  1.0
  H  H6  1  0.45070000  0.33126000  0.71579000  1.0
  H  H7  1  0.54930000  0.66874000  0.28421000  1.0
  H  H8  1  0.09288000  0.20427000  0.69753000  1.0
  H  H9  1  0.90712000  0.79572000  0.30246000  1.0
  H  H10  1  0.76023000  0.08464000  0.58094000  1.0
  H  H11  1  0.23976000  0.91536000  0.41905000  1.0
  H  H12  1  0.54317000  0.00558000  0.38985000  1.0
  H  H13  1  0.45683000  0.99442000  0.61015000  1.0
  H  H14  1  0.70065000  0.05194000  0.23222000  1.0
  H  H15  1  0.29935000  0.94806000  0.76778000  1.0
  H  H16  1  0.28690000  0.65589000  0.15351000  1.0
  H  H17  1  0.71310000  0.34410000  0.84649000  1.0
  H  H18  1  0.81585000  0.84634000  0.08728000  1.0
  H  H19  1  0.18415000  0.15366000  0.91272000  1.0
  H  H20  1  0.54926000  0.65095000  0.07542000  1.0
  H  H21  1  0.45074000  0.34905000  0.92458000  1.0
  H  H22  1  0.64894000  0.46065000  0.11258000  1.0
  H  H23  1  0.35105000  0.53935000  0.88742000  1.0
  H  H24  1  0.66214000  0.26384000  0.12744000  1.0
  H  H25  1  0.33786000  0.73616000  0.87256000  1.0
  H  H26  1  0.51668000  0.16913000  0.02532000  1.0
  H  H27  1  0.48332000  0.83087000  0.97469000  1.0
  Pb  Pb28  1  0.16003000  0.18962000  0.15654000  1.0
  Pb  Pb29  1  0.83998000  0.81038000  0.84346000  1.0
  C  C30  1  0.57727000  0.35902000  0.35410000  1.0
  C  C31  1  0.42273000  0.64098000  0.64590000  1.0
  C  C32  1  0.70726000  0.41294000  0.45548000  1.0
  C  C33  1  0.29274000  0.58706000  0.54452000  1.0
  C  C34  1  0.63832000  0.39040000  0.54947000  1.0
  C  C35  1  0.36168000  0.60960000  0.45053000  1.0
  C  C36  1  0.43705000  0.31548000  0.54164000  1.0
  C  C37  1  0.56294000  0.68452000  0.45835000  1.0
  C  C38  1  0.35374000  0.29151000  0.63580000  1.0
  C  C39  1  0.64627000  0.70850000  0.36420000  1.0
  C  C40  1  0.15606000  0.22281000  0.62577000  1.0
  C  C41  1  0.84394000  0.77718000  0.37423000  1.0
  C  C42  1  0.02671000  0.17342000  0.52109000  1.0
  C  C43  1  0.97330000  0.82658000  0.47891000  1.0
  C  C44  1  0.82055000  0.10331000  0.50824000  1.0
  C  C45  1  0.17945000  0.89669000  0.49176000  1.0
  C  C46  1  0.70272000  0.05948000  0.40492000  1.0
  C  C47  1  0.29728000  0.94052000  0.59507000  1.0
  C  C48  1  0.79145000  0.08539000  0.31454000  1.0
  C  C49  1  0.20855000  0.91461000  0.68546000  1.0
  C  C50  1  0.31396000  0.26636000  0.43577000  1.0
  C  C51  1  0.68604000  0.73365000  0.56423000  1.0
  C  C52  1  0.10413000  0.19433000  0.42533000  1.0
  C  C53  1  0.89587000  0.80567000  0.57467000  1.0
  C  C54  1  0.04230000  0.43481000  0.16147000  1.0
  C  C55  1  0.95770000  0.56519000  0.83853000  1.0
  C  C56  1  0.97535000  0.54730000  0.13836000  1.0
  C  C57  1  0.02465000  0.45270000  0.86164000  1.0
  C  C58  1  0.06837000  0.76199000  0.11934000  1.0
  C  C59  1  0.93162000  0.23801000  0.88066000  1.0
  C  C60  1  0.12566000  0.65571000  0.13865000  1.0
  C  C61  1  0.87433000  0.34429000  0.86135000  1.0
  C  C62  1  0.86041000  0.76161000  0.09862000  1.0
  C  C63  1  0.13959000  0.23839000  0.90138000  1.0
  C  C64  1  0.71068000  0.65198000  0.09437000  1.0
  C  C65  1  0.28932000  0.34802000  0.90563000  1.0
  C  C66  1  0.76706000  0.54544000  0.11504000  1.0
  C  C67  1  0.23294000  0.45456000  0.88496000  1.0
  S  S68  1  0.26047000  0.90095000  0.12260000  1.0
  S  S69  1  0.73953000  0.09905000  0.87740000  1.0
  N  N70  1  0.38761000  0.28811000  0.34466000  1.0
  N  N71  1  0.61240000  0.71190000  0.65535000  1.0
  N  N72  1  0.98551000  0.15003000  0.32463000  1.0
  N  N73  1  0.01448000  0.84996000  0.67537000  1.0
  O  O74  1  0.90612000  0.34076000  0.17364000  1.0
  O  O75  1  0.09388000  0.65924000  0.82636000  1.0
  O  O76  1  0.23138000  0.43689000  0.16937000  1.0
  O  O77  1  0.76861000  0.56311000  0.83063000  1.0
  O  O78  1  0.18736000  0.94830000  0.02704000  1.0
  O  O79  1  0.81264000  0.05170000  0.97296000  1.0
  O  O80  1  0.26478000  0.98589000  0.22654000  1.0
  O  O81  1  0.73522000  0.01411000  0.77346000  1.0
  O  O82  1  0.45393000  0.86498000  0.11795000  1.0
  O  O83  1  0.54607000  0.13502000  0.88205000  1.0
  O  O84  1  0.51944000  0.20970000  0.10127000  1.0
  O  O85  1  0.48056000  0.79030000  0.89873000  1.0
