# generated using pymatgen
data_Zr3H26C30(N3O8)2
_symmetry_space_group_name_H-M   'P 1'
_cell_length_a   14.88580000
_cell_length_b   14.89030000
_cell_length_c   14.89980000
_cell_angle_alpha   60.06230000
_cell_angle_beta   60.09200000
_cell_angle_gamma   60.07340000
_symmetry_Int_Tables_number   1
_chemical_formula_structural   Zr3H26C30(N3O8)2
_chemical_formula_sum   'Zr6 H52 C60 N12 O32'
_cell_volume   2339.30775977
_cell_formula_units_Z   2
loop_
 _symmetry_equiv_pos_site_id
 _symmetry_equiv_pos_as_xyz
  1  'x, y, z'
loop_
 _atom_site_type_symbol
 _atom_site_label
 _atom_site_symmetry_multiplicity
 _atom_site_fract_x
 _atom_site_fract_y
 _atom_site_fract_z
 _atom_site_occupancy
  Zr  Zr0  1  0.38104000  0.61771000  0.11894000  1.0
  Zr  Zr1  1  0.61944000  0.38208000  0.88134000  1.0
  Zr  Zr2  1  0.38314000  0.61545000  0.88100000  1.0
  Zr  Zr3  1  0.62069000  0.38034000  0.11699000  1.0
  Zr  Zr4  1  0.37990000  0.38322000  0.11817000  1.0
  Zr  Zr5  1  0.61470000  0.62211000  0.88250000  1.0
  H  H6  1  0.21952000  0.59122000  0.09335000  1.0
  H  H7  1  0.59540000  0.22011000  0.09156000  1.0
  H  H8  1  0.59308000  0.59395000  0.72014000  1.0
  H  H9  1  0.59174000  0.59417000  0.09393000  1.0
  H  H10  1  0.12818000  0.25032000  0.46315000  1.0
  H  H11  1  0.04168000  0.33430000  0.38021000  1.0
  H  H12  1  0.87509000  0.33500000  0.54967000  1.0
  H  H13  1  0.96101000  0.24849000  0.63345000  1.0
  H  H14  1  0.67082000  0.94804000  0.75718000  1.0
  H  H15  1  0.75020000  0.87038000  0.84655000  1.0
  H  H16  1  0.74515000  0.04560000  0.83812000  1.0
  H  H17  1  0.66389000  0.12382000  0.74997000  1.0
  H  H18  1  0.65887000  0.12832000  0.45950000  1.0
  H  H19  1  0.74392000  0.04442000  0.37415000  1.0
  H  H20  1  0.74274000  0.87500000  0.54172000  1.0
  H  H21  1  0.66202000  0.95910000  0.62689000  1.0
  H  H22  1  0.94536000  0.25685000  0.17016000  1.0
  H  H23  1  0.87252000  0.34501000  0.25012000  1.0
  H  H24  1  0.05216000  0.33105000  0.24142000  1.0
  H  H25  1  0.12536000  0.24628000  0.15776000  1.0
  H  H26  1  0.13005000  0.95140000  0.16198000  1.0
  H  H27  1  0.04070000  0.87120000  0.24703000  1.0
  H  H28  1  0.87727000  0.04637000  0.24256000  1.0
  H  H29  1  0.96827000  0.12417000  0.15812000  1.0
  H  H30  1  0.25310000  0.66359000  0.45473000  1.0
  H  H31  1  0.33923000  0.74708000  0.37293000  1.0
  H  H32  1  0.33616000  0.74367000  0.54479000  1.0
  H  H33  1  0.24905000  0.66108000  0.62656000  1.0
  H  H34  1  0.83818000  0.67489000  0.64953000  1.0
  H  H35  1  0.91694000  0.74453000  0.52844000  1.0
  H  H36  1  0.16499000  0.65933000  0.35337000  1.0
  H  H37  1  0.08255000  0.69197000  0.47187000  1.0
  H  H38  1  0.33530000  0.15719000  0.16672000  1.0
  H  H39  1  0.31580000  0.03323000  0.24458000  1.0
  H  H40  1  0.32132000  0.85514000  0.16099000  1.0
  H  H41  1  0.25688000  0.97394000  0.19390000  1.0
  H  H42  1  0.33808000  0.83829000  0.64874000  1.0
  H  H43  1  0.31026000  0.91596000  0.52820000  1.0
  H  H44  1  0.31943000  0.16710000  0.35505000  1.0
  H  H45  1  0.25265000  0.08311000  0.47286000  1.0
  H  H46  1  0.15505000  0.66764000  0.83484000  1.0
  H  H47  1  0.03151000  0.74279000  0.81280000  1.0
  H  H48  1  0.85063000  0.66164000  0.82534000  1.0
  H  H49  1  0.97196000  0.68871000  0.75480000  1.0
  H  H50  1  0.84096000  0.15172000  0.83430000  1.0
  H  H51  1  0.92406000  0.03183000  0.80310000  1.0
  H  H52  1  0.16469000  0.85193000  0.82415000  1.0
  H  H53  1  0.09415000  0.97413000  0.74986000  1.0
  H  H54  1  0.67083000  0.33533000  0.65245000  1.0
  H  H55  1  0.74306000  0.30930000  0.53036000  1.0
  H  H56  1  0.66035000  0.32279000  0.35178000  1.0
  H  H57  1  0.69244000  0.25502000  0.47090000  1.0
  C  C58  1  0.19877000  0.49862000  0.30706000  1.0
  C  C59  1  0.49649000  0.20071000  0.99733000  1.0
  C  C60  1  0.80525000  0.50122000  0.70041000  1.0
  C  C61  1  0.49391000  0.80648000  0.00077000  1.0
  C  C62  1  0.19840000  0.80297000  0.99569000  1.0
  C  C63  1  0.49887000  0.49470000  0.30553000  1.0
  C  C64  1  0.80840000  0.20025000  0.99357000  1.0
  C  C65  1  0.49983000  0.49539000  0.69833000  1.0
  C  C66  1  0.20110000  0.49599000  0.99409000  1.0
  C  C67  1  0.49323000  0.80716000  0.69961000  1.0
  C  C68  1  0.80321000  0.50173000  0.99687000  1.0
  C  C69  1  0.49483000  0.19968000  0.30487000  1.0
  C  C70  1  0.10003000  0.50233000  0.40613000  1.0
  C  C71  1  0.90567000  0.50253000  0.60295000  1.0
  C  C72  1  0.04845000  0.42309000  0.45885000  1.0
  C  C73  1  0.95387000  0.58555000  0.55100000  1.0
  C  C74  1  0.95720000  0.42229000  0.55289000  1.0
  C  C75  1  0.05128000  0.58406000  0.45541000  1.0
  C  C76  1  0.05405000  0.32174000  0.45299000  1.0
  C  C77  1  0.94965000  0.32089000  0.56027000  1.0
  C  C78  1  0.49392000  0.90305000  0.00536000  1.0
  C  C79  1  0.49272000  0.10149000  0.00143000  1.0
  C  C80  1  0.57441000  0.95310000  0.92698000  1.0
  C  C81  1  0.41274000  0.05070000  0.08513000  1.0
  C  C82  1  0.57260000  0.04827000  0.92393000  1.0
  C  C83  1  0.41189000  0.95416000  0.08562000  1.0
  C  C84  1  0.67896000  0.94283000  0.82908000  1.0
  C  C85  1  0.67553000  0.05293000  0.82414000  1.0
  C  C86  1  0.49127000  0.10033000  0.40359000  1.0
  C  C87  1  0.48976000  0.90615000  0.60053000  1.0
  C  C88  1  0.57041000  0.04860000  0.45488000  1.0
  C  C89  1  0.40984000  0.95415000  0.54931000  1.0
  C  C90  1  0.56922000  0.95711000  0.54876000  1.0
  C  C91  1  0.40899000  0.05141000  0.45374000  1.0
  C  C92  1  0.67224000  0.05478000  0.44788000  1.0
  C  C93  1  0.67209000  0.94914000  0.55387000  1.0
  C  C94  1  0.90133000  0.50540000  0.99491000  1.0
  C  C95  1  0.10222000  0.49952000  0.99049000  1.0
  C  C96  1  0.95267000  0.42606000  0.07411000  1.0
  C  C97  1  0.05054000  0.58377000  0.91130000  1.0
  C  C98  1  0.04925000  0.42175000  0.07056000  1.0
  C  C99  1  0.95297000  0.58502000  0.91178000  1.0
  C  C100  1  0.94326000  0.32742000  0.17799000  1.0
  C  C101  1  0.05554000  0.32028000  0.17190000  1.0
  C  C102  1  0.09899000  0.90160000  0.99278000  1.0
  C  C103  1  0.90701000  0.10098000  0.99034000  1.0
  C  C104  1  0.04768000  0.95209000  0.07250000  1.0
  C  C105  1  0.95477000  0.05027000  0.90991000  1.0
  C  C106  1  0.95783000  0.04753000  0.07035000  1.0
  C  C107  1  0.05119000  0.95362000  0.90950000  1.0
  C  C108  1  0.05458000  0.94364000  0.17458000  1.0
  C  C109  1  0.95249000  0.05305000  0.17170000  1.0
  C  C110  1  0.50328000  0.49275000  0.40321000  1.0
  C  C111  1  0.50204000  0.49149000  0.60023000  1.0
  C  C112  1  0.42475000  0.57239000  0.45416000  1.0
  C  C113  1  0.58489000  0.41135000  0.54939000  1.0
  C  C114  1  0.42312000  0.57094000  0.54840000  1.0
  C  C115  1  0.58427000  0.41062000  0.45339000  1.0
  C  C116  1  0.32477000  0.67519000  0.44597000  1.0
  C  C117  1  0.32223000  0.67299000  0.55432000  1.0
  N  N118  1  0.91307000  0.67131000  0.58926000  1.0
  N  N119  1  0.09020000  0.66922000  0.41368000  1.0
  N  N120  1  0.32828000  0.09149000  0.16866000  1.0
  N  N121  1  0.32828000  0.91461000  0.17009000  1.0
  N  N122  1  0.32602000  0.91337000  0.58880000  1.0
  N  N123  1  0.32532000  0.09084000  0.41313000  1.0
  N  N124  1  0.09072000  0.66772000  0.82714000  1.0
  N  N125  1  0.91270000  0.67004000  0.82860000  1.0
  N  N126  1  0.91536000  0.09079000  0.82555000  1.0
  N  N127  1  0.09120000  0.91407000  0.82470000  1.0
  N  N128  1  0.66888000  0.32730000  0.58940000  1.0
  N  N129  1  0.66897000  0.32778000  0.41272000  1.0
  O  O130  1  0.24212000  0.57392000  0.26356000  1.0
  O  O131  1  0.57503000  0.23728000  0.92217000  1.0
  O  O132  1  0.76626000  0.42506000  0.73784000  1.0
  O  O133  1  0.41797000  0.76390000  0.07558000  1.0
  O  O134  1  0.24086000  0.75932000  0.92093000  1.0
  O  O135  1  0.57358000  0.41886000  0.26291000  1.0
  O  O136  1  0.76917000  0.23828000  0.07088000  1.0
  O  O137  1  0.42449000  0.57368000  0.73519000  1.0
  O  O138  1  0.23700000  0.42206000  0.07342000  1.0
  O  O139  1  0.56980000  0.76939000  0.73812000  1.0
  O  O140  1  0.75952000  0.57770000  0.92213000  1.0
  O  O141  1  0.41860000  0.24358000  0.26260000  1.0
  O  O142  1  0.41905000  0.76296000  0.74156000  1.0
  O  O143  1  0.76546000  0.42395000  0.07247000  1.0
  O  O144  1  0.57305000  0.23631000  0.26574000  1.0
  O  O145  1  0.24611000  0.56963000  0.91757000  1.0
  O  O146  1  0.23694000  0.76520000  0.07216000  1.0
  O  O147  1  0.57514000  0.42038000  0.74166000  1.0
  O  O148  1  0.76495000  0.24349000  0.91838000  1.0
  O  O149  1  0.42210000  0.57167000  0.26707000  1.0
  O  O150  1  0.56937000  0.76859000  0.92314000  1.0
  O  O151  1  0.23626000  0.42249000  0.26807000  1.0
  O  O152  1  0.42054000  0.24499000  0.07151000  1.0
  O  O153  1  0.76095000  0.57808000  0.74185000  1.0
  O  O154  1  0.56531000  0.56737000  0.06735000  1.0
  O  O155  1  0.56655000  0.56756000  0.79973000  1.0
  O  O156  1  0.56790000  0.29980000  0.06613000  1.0
  O  O157  1  0.29919000  0.56553000  0.06709000  1.0
  O  O158  1  0.45165000  0.44945000  0.95045000  1.0
  O  O159  1  0.45160000  0.45042000  0.14668000  1.0
  O  O160  1  0.64739000  0.45255000  0.95029000  1.0
  O  O161  1  0.44879000  0.64838000  0.95107000  1.0
