# generated using pymatgen
data_UH5C4NO6
_symmetry_space_group_name_H-M   'P 1'
_cell_length_a   6.86104000
_cell_length_b   10.17550000
_cell_length_c   10.94230000
_cell_angle_alpha   90.00000000
_cell_angle_beta   90.00010000
_cell_angle_gamma   90.00000000
_symmetry_Int_Tables_number   1
_chemical_formula_structural   UH5C4NO6
_chemical_formula_sum   'U4 H20 C16 N4 O24'
_cell_volume   763.93134035
_cell_formula_units_Z   4
loop_
 _symmetry_equiv_pos_site_id
 _symmetry_equiv_pos_as_xyz
  1  'x, y, z'
loop_
 _atom_site_type_symbol
 _atom_site_label
 _atom_site_symmetry_multiplicity
 _atom_site_fract_x
 _atom_site_fract_y
 _atom_site_fract_z
 _atom_site_occupancy
  U  U0  1  0.83667000  0.75000000  0.75964000  1.0
  U  U1  1  0.33667000  0.25000000  0.74036000  1.0
  U  U2  1  0.16333000  0.25000000  0.24036000  1.0
  U  U3  1  0.66332000  0.75000000  0.25964000  1.0
  H  H4  1  0.26682000  0.60549000  0.49012000  1.0
  H  H5  1  0.76683000  0.10550000  0.00988000  1.0
  H  H6  1  0.26683000  0.89451000  0.49012000  1.0
  H  H7  1  0.76683000  0.39450000  0.00988000  1.0
  H  H8  1  0.73318000  0.39450000  0.50988000  1.0
  H  H9  1  0.23317000  0.89451000  0.99011000  1.0
  H  H10  1  0.73318000  0.10550000  0.50988000  1.0
  H  H11  1  0.23317000  0.60549000  0.99011000  1.0
  H  H12  1  0.33763000  0.64150000  0.64142000  1.0
  H  H13  1  0.83762000  0.14150000  0.85858000  1.0
  H  H14  1  0.33763000  0.85850000  0.64142000  1.0
  H  H15  1  0.83762000  0.35850000  0.85858000  1.0
  H  H16  1  0.66237000  0.35850000  0.35859000  1.0
  H  H17  1  0.16237000  0.85850000  0.14141000  1.0
  H  H18  1  0.66237000  0.14150000  0.35859000  1.0
  H  H19  1  0.16237000  0.64150000  0.14141000  1.0
  H  H20  1  0.00395000  0.75000000  0.50743000  1.0
  H  H21  1  0.50395000  0.25000000  0.99257000  1.0
  H  H22  1  0.99605000  0.25000000  0.49257000  1.0
  H  H23  1  0.49605000  0.75000000  0.00743000  1.0
  C  C24  1  0.09471000  0.51512000  0.63176000  1.0
  C  C25  1  0.59470000  0.01512000  0.86824000  1.0
  C  C26  1  0.09471000  0.98488000  0.63176000  1.0
  C  C27  1  0.59470000  0.48488000  0.86824000  1.0
  C  C28  1  0.90530000  0.48488000  0.36824000  1.0
  C  C29  1  0.40529000  0.98488000  0.13176000  1.0
  C  C30  1  0.90530000  0.01512000  0.36824000  1.0
  C  C31  1  0.40529000  0.51512000  0.13176000  1.0
  C  C32  1  0.21006000  0.62907000  0.58140000  1.0
  C  C33  1  0.71006000  0.12907000  0.91860000  1.0
  C  C34  1  0.21006000  0.87093000  0.58139000  1.0
  C  C35  1  0.71006000  0.37093000  0.91860000  1.0
  C  C36  1  0.78994000  0.37093000  0.41860000  1.0
  C  C37  1  0.28994000  0.87093000  0.08140000  1.0
  C  C38  1  0.78994000  0.12907000  0.41860000  1.0
  C  C39  1  0.28994000  0.62907000  0.08140000  1.0
  N  N40  1  0.09221000  0.75000000  0.58323000  1.0
  N  N41  1  0.59221000  0.25000000  0.91677000  1.0
  N  N42  1  0.90779000  0.25000000  0.41677000  1.0
  N  N43  1  0.40779000  0.75000000  0.08323000  1.0
  O  O44  1  0.64546000  0.75000000  0.64586000  1.0
  O  O45  1  0.14546000  0.25000000  0.85415000  1.0
  O  O46  1  0.35454000  0.25000000  0.35415000  1.0
  O  O47  1  0.85454000  0.75000000  0.14586000  1.0
  O  O48  1  0.04897000  0.75000000  0.85770000  1.0
  O  O49  1  0.54896000  0.25000000  0.64230000  1.0
  O  O50  1  0.95104000  0.25000000  0.14230000  1.0
  O  O51  1  0.45103000  0.75000000  0.35770000  1.0
  O  O52  1  0.93644000  0.53919000  0.68768000  1.0
  O  O53  1  0.43644000  0.03919000  0.81233000  1.0
  O  O54  1  0.93644000  0.96081000  0.68768000  1.0
  O  O55  1  0.43644000  0.46081000  0.81233000  1.0
  O  O56  1  0.06356000  0.46081000  0.31233000  1.0
  O  O57  1  0.56356000  0.96081000  0.18768000  1.0
  O  O58  1  0.06356000  0.03920000  0.31233000  1.0
  O  O59  1  0.56356000  0.53919000  0.18768000  1.0
  O  O60  1  0.16215000  0.39931000  0.61669000  1.0
  O  O61  1  0.66216000  0.89931000  0.88331000  1.0
  O  O62  1  0.16215000  0.10069000  0.61669000  1.0
  O  O63  1  0.66216000  0.60069000  0.88331000  1.0
  O  O64  1  0.83784000  0.60069000  0.38331000  1.0
  O  O65  1  0.33785000  0.10069000  0.11669000  1.0
  O  O66  1  0.83784000  0.89931000  0.38331000  1.0
  O  O67  1  0.33785000  0.39931000  0.11669000  1.0
