# generated using pymatgen
data_Zn2H36C41N11O4
_symmetry_space_group_name_H-M   'P 1'
_cell_length_a   19.85150000
_cell_length_b   19.89371986
_cell_length_c   20.03990000
_cell_angle_alpha   110.76693473
_cell_angle_beta   106.76000000
_cell_angle_gamma   110.42095875
_symmetry_Int_Tables_number   1
_chemical_formula_structural   Zn2H36C41N11O4
_chemical_formula_sum   'Zn4 H72 C82 N22 O8'
_cell_volume   6120.25052555
_cell_formula_units_Z   2
loop_
 _symmetry_equiv_pos_site_id
 _symmetry_equiv_pos_as_xyz
  1  'x, y, z'
loop_
 _atom_site_type_symbol
 _atom_site_label
 _atom_site_symmetry_multiplicity
 _atom_site_fract_x
 _atom_site_fract_y
 _atom_site_fract_z
 _atom_site_occupancy
  Zn  Zn0  1  0.01131000  0.08271000  0.60414000  1.0
  Zn  Zn1  1  0.00147000  0.86786000  0.36827000  1.0
  Zn  Zn2  1  0.90729000  0.86830000  0.49311000  1.0
  Zn  Zn3  1  0.10616000  0.08555000  0.48637000  1.0
  H  H4  1  0.01750000  0.13436000  0.76963000  1.0
  H  H5  1  0.16898000  0.48790000  0.51193000  1.0
  H  H6  1  0.18386000  0.86767000  0.41306000  1.0
  H  H7  1  0.84797000  0.08836000  0.58523000  1.0
  H  H8  1  0.03307000  0.85197000  0.62199000  1.0
  H  H9  1  0.06052000  0.19566000  0.42992000  1.0
  H  H10  1  0.26550000  0.28670000  0.61351000  1.0
  H  H11  1  0.74349000  0.82592000  0.35922000  1.0
  H  H12  1  0.23160000  0.07988000  0.62356000  1.0
  H  H13  1  0.73298000  0.82703000  0.51404000  1.0
  H  H14  1  0.43848000  0.45428000  0.95375000  1.0
  H  H15  1  0.88076000  0.88789000  0.23724000  1.0
  H  H16  1  0.49675000  0.73100000  0.99394000  1.0
  H  H17  1  0.35501000  0.45708000  0.02969000  1.0
  H  H18  1  0.31654000  0.52702000  0.04411000  1.0
  H  H19  1  0.37374000  0.57377000  0.19281000  1.0
  H  H20  1  0.30457000  0.46425000  0.13196000  1.0
  H  H21  1  0.41165000  0.50360000  0.17775000  1.0
  H  H22  1  0.61959000  0.66387000  0.91244000  1.0
  H  H23  1  0.57745000  0.72953000  0.91175000  1.0
  H  H24  1  0.52893000  0.66807000  0.76159000  1.0
  H  H25  1  0.63641000  0.71393000  0.81646000  1.0
  H  H26  1  0.58586000  0.57578000  0.97981000  1.0
  H  H27  1  0.57214000  0.60342000  0.76289000  1.0
  H  H28  1  0.07596000  0.46881000  0.69662000  1.0
  H  H29  1  0.06427000  0.55142000  0.73549000  1.0
  H  H30  1  0.23403000  0.69882000  0.55096000  1.0
  H  H31  1  0.24475000  0.61554000  0.51235000  1.0
  H  H32  1  0.92995000  0.15710000  0.92405000  1.0
  H  H33  1  0.95554000  0.21256000  0.02299000  1.0
  H  H34  1  0.81468000  0.86998000  0.03356000  1.0
  H  H35  1  0.78012000  0.81434000  0.93215000  1.0
  H  H36  1  0.07008000  0.20732000  0.11990000  1.0
  H  H37  1  0.35008000  0.61016000  0.96847000  1.0
  H  H38  1  0.05438000  0.15043000  0.17083000  1.0
  H  H39  1  0.05892000  0.26899000  0.27922000  1.0
  H  H40  1  0.15030000  0.30419000  0.27059000  1.0
  H  H41  1  0.07380000  0.32544000  0.22801000  1.0
  H  H42  1  0.73073000  0.89987000  0.76582000  1.0
  H  H43  1  0.66565000  0.83838000  0.79229000  1.0
  H  H44  1  0.67304000  0.71412000  0.70529000  1.0
  H  H45  1  0.62994000  0.75368000  0.64888000  1.0
  H  H46  1  0.73226000  0.77721000  0.67607000  1.0
  H  H47  1  0.09930000  0.66404000  0.43611000  1.0
  H  H48  1  0.39121000  0.84238000  0.55997000  1.0
  H  H49  1  0.18222000  0.76180000  0.46837000  1.0
  H  H50  1  0.15600000  0.71298000  0.32381000  1.0
  H  H51  1  0.17057000  0.64291000  0.35426000  1.0
  H  H52  1  0.07058000  0.61686000  0.29168000  1.0
  H  H53  1  0.88518000  0.24613000  0.55828000  1.0
  H  H54  1  0.97571000  0.34191000  0.63430000  1.0
  H  H55  1  0.94993000  0.31257000  0.74151000  1.0
  H  H56  1  0.87206000  0.32261000  0.68202000  1.0
  H  H57  1  0.85499000  0.22215000  0.66334000  1.0
  H  H58  1  0.17179000  0.36151000  0.82355000  1.0
  H  H59  1  0.64966000  0.10840000  0.68807000  1.0
  H  H60  1  0.24413000  0.34147000  0.87648000  1.0
  H  H61  1  0.13893000  0.25537000  0.90420000  1.0
  H  H62  1  0.16045000  0.36020000  0.94543000  1.0
  H  H63  1  0.06907000  0.28022000  0.85460000  1.0
  H  H64  1  0.75872000  0.75157000  0.09655000  1.0
  H  H65  1  0.71837000  0.64952000  0.08193000  1.0
  H  H66  1  0.82361000  0.63291000  0.04162000  1.0
  H  H67  1  0.76192000  0.65428000  0.97760000  1.0
  H  H68  1  0.86268000  0.73467000  0.05470000  1.0
  H  H69  1  0.87626000  0.84415000  0.70422000  1.0
  H  H70  1  0.51502000  0.84008000  0.55815000  1.0
  H  H71  1  0.90843000  0.81053000  0.63657000  1.0
  H  H72  1  0.08874000  0.14746000  0.28413000  1.0
  H  H73  1  0.16424000  0.15371000  0.35643000  1.0
  H  H74  1  0.52582000  0.11050000  0.68980000  1.0
  H  H75  1  0.08467000  0.65007000  0.68705000  1.0
  C  C76  1  0.99428000  0.06808000  0.73479000  1.0
  C  C77  1  0.40257000  0.60241000  0.97137000  1.0
  C  C78  1  0.45273000  0.51659000  0.96443000  1.0
  C  C79  1  0.48400000  0.66951000  0.98504000  1.0
  C  C80  1  0.28513000  0.38807000  0.77337000  1.0
  C  C81  1  0.67429000  0.73817000  0.18089000  1.0
  C  C82  1  0.48256000  0.59957000  0.91428000  1.0
  C  C83  1  0.45307000  0.58577000  0.03401000  1.0
  C  C84  1  0.40060000  0.53141000  0.90070000  1.0
  C  C85  1  0.53569000  0.65340000  0.04800000  1.0
  C  C86  1  0.33384000  0.46037000  0.82717000  1.0
  C  C87  1  0.94046000  0.94325000  0.27117000  1.0
  C  C88  1  0.60893000  0.70736000  0.12228000  1.0
  C  C89  1  0.51717000  0.89918000  0.58730000  1.0
  C  C90  1  0.52389000  0.05142000  0.66155000  1.0
  C  C91  1  0.18349000  0.91910000  0.45616000  1.0
  C  C92  1  0.82969000  0.02327000  0.56351000  1.0
  C  C93  1  0.59005000  0.97404000  0.61982000  1.0
  C  C94  1  0.44892000  0.97654000  0.62190000  1.0
  C  C95  1  0.59299000  0.05023000  0.66043000  1.0
  C  C96  1  0.44815000  0.90050000  0.58841000  1.0
  C  C97  1  0.65523000  0.97188000  0.60591000  1.0
  C  C98  1  0.23919000  0.97492000  0.53916000  1.0
  C  C99  1  0.37487000  0.97690000  0.60608000  1.0
  C  C100  1  0.31171000  0.97816000  0.58077000  1.0
  C  C101  1  0.70612000  0.96747000  0.58457000  1.0
  C  C102  1  0.10475000  0.61485000  0.65028000  1.0
  C  C103  1  0.15222000  0.52487000  0.55157000  1.0
  C  C104  1  0.13722000  0.64525000  0.60642000  1.0
  C  C105  1  0.11141000  0.49015000  0.58821000  1.0
  C  C106  1  0.16801000  0.60274000  0.56177000  1.0
  C  C107  1  0.09331000  0.53918000  0.64387000  1.0
  C  C108  1  0.12968000  0.70979000  0.59691000  1.0
  C  C109  1  0.76375000  0.96079000  0.55965000  1.0
  C  C110  1  0.08477000  0.40663000  0.56767000  1.0
  C  C111  1  0.05446000  0.33262000  0.54623000  1.0
  C  C112  1  0.10710000  0.75025000  0.57221000  1.0
  C  C113  1  0.91497000  0.09084000  0.05046000  1.0
  C  C114  1  0.82549000  0.93681000  0.90753000  1.0
  C  C115  1  0.03285000  0.82936000  0.56408000  1.0
  C  C116  1  0.03798000  0.19060000  0.47233000  1.0
  C  C117  1  0.88075000  0.01707000  0.05303000  1.0
  C  C118  1  0.86926000  0.00990000  0.90719000  1.0
  C  C119  1  0.83087000  0.93891000  0.97950000  1.0
  C  C120  1  0.07023000  0.78544000  0.53565000  1.0
  C  C121  1  0.90941000  0.08879000  0.97858000  1.0
  C  C122  1  0.90409000  0.01894000  0.12751000  1.0
  C  C123  1  0.88283000  0.00549000  0.84095000  1.0
  C  C124  1  0.91095000  0.00611000  0.79404000  1.0
  C  C125  1  0.93084000  0.01300000  0.18716000  1.0
  C  C126  1  0.22990000  0.26095000  0.63943000  1.0
  C  C127  1  0.77702000  0.80977000  0.32825000  1.0
  C  C128  1  0.05063000  0.77585000  0.45711000  1.0
  C  C129  1  0.99797000  0.20999000  0.56656000  1.0
  C  C130  1  0.17373000  0.23854000  0.71575000  1.0
  C  C131  1  0.02781000  0.24977000  0.52667000  1.0
  C  C132  1  0.81961000  0.76477000  0.23996000  1.0
  C  C133  1  0.20771000  0.02694000  0.56460000  1.0
  C  C134  1  0.77042000  0.88935000  0.52678000  1.0
  C  C135  1  0.93527000  0.93094000  0.68036000  1.0
  C  C136  1  0.05023000  0.06281000  0.31746000  1.0
  C  C137  1  0.94375000  0.00307000  0.74080000  1.0
  C  C138  1  0.96892000  0.00762000  0.25438000  1.0
  C  C139  1  0.36497000  0.51660000  0.07420000  1.0
  C  C140  1  0.36376000  0.51456000  0.14870000  1.0
  C  C141  1  0.57103000  0.66916000  0.87446000  1.0
  C  C142  1  0.23228000  0.30347000  0.71418000  1.0
  C  C143  1  0.57741000  0.66308000  0.79927000  1.0
  C  C144  1  0.04503000  0.19824000  0.16054000  1.0
  C  C145  1  0.08419000  0.27884000  0.23924000  1.0
  C  C146  1  0.71385000  0.84543000  0.77384000  1.0
  C  C147  1  0.68599000  0.76802000  0.69680000  1.0
  C  C148  1  0.12309000  0.70870000  0.41731000  1.0
  C  C149  1  0.13040000  0.66833000  0.34215000  1.0
  C  C150  1  0.93406000  0.27977000  0.62088000  1.0
  C  C151  1  0.90079000  0.28421000  0.68037000  1.0
  C  C152  1  0.17858000  0.31689000  0.84126000  1.0
  C  C153  1  0.75095000  0.76956000  0.24435000  1.0
  C  C154  1  0.13389000  0.30178000  0.88880000  1.0
  C  C155  1  0.77390000  0.70352000  0.09718000  1.0
  C  C156  1  0.80791000  0.68016000  0.03970000  1.0
  C  C157  1  0.53289000  0.58262000  0.97644000  1.0
  N  N158  1  0.01317000  0.03699000  0.67581000  1.0
  N  N159  1  0.99361000  0.13570000  0.53922000  1.0
  N  N160  1  0.14058000  0.16490000  0.64850000  1.0
  N  N161  1  0.87960000  0.79911000  0.31449000  1.0
  N  N162  1  0.13919000  0.00372000  0.50145000  1.0
  N  N163  1  0.83541000  0.90967000  0.51380000  1.0
  N  N164  1  0.97574000  0.95122000  0.64095000  1.0
  N  N165  1  0.06802000  0.03293000  0.36684000  1.0
  N  N166  1  0.05825000  0.50743000  0.68509000  1.0
  N  N167  1  0.20640000  0.63568000  0.52299000  1.0
  N  N168  1  0.95038000  0.16228000  0.97932000  1.0
  N  N169  1  0.99894000  0.95728000  0.33693000  1.0
  N  N170  1  0.79030000  0.86563000  0.97903000  1.0
  N  N171  1  0.88853000  0.84933000  0.65979000  1.0
  N  N172  1  0.10506000  0.13899000  0.33218000  1.0
  N  N173  1  0.12455000  0.93686000  0.43432000  1.0
  N  N174  1  0.87249000  0.99197000  0.53630000  1.0
  N  N175  1  0.99437000  0.84315000  0.50747000  1.0
  N  N176  1  0.01917000  0.12350000  0.48139000  1.0
  N  N177  1  0.17585000  0.17964000  0.60136000  1.0
  N  N178  1  0.85310000  0.82688000  0.36966000  1.0
  N  N179  1  0.00597000  0.81081000  0.44155000  1.0
  O  O180  1  0.44312000  0.58313000  0.09853000  1.0
  O  O181  1  0.49271000  0.60233000  0.84993000  1.0
  O  O182  1  0.95843000  0.16752000  0.12138000  1.0
  O  O183  1  0.78420000  0.85951000  0.83791000  1.0
  O  O184  1  0.06751000  0.73896000  0.39853000  1.0
  O  O185  1  0.97782000  0.23482000  0.62622000  1.0
  O  O186  1  0.14467000  0.23819000  0.76918000  1.0
  O  O187  1  0.83534000  0.73520000  0.17777000  1.0
