# generated using pymatgen
data_SmH13C26S(N2O3)2
_symmetry_space_group_name_H-M   'P 1'
_cell_length_a   9.97357000
_cell_length_b   13.17260000
_cell_length_c   19.24240000
_cell_angle_alpha   90.00010000
_cell_angle_beta   90.00010000
_cell_angle_gamma   88.59970000
_symmetry_Int_Tables_number   1
_chemical_formula_structural   SmH13C26S(N2O3)2
_chemical_formula_sum   'Sm4 H52 C104 S4 N16 O24'
_cell_volume   2527.27014109
_cell_formula_units_Z   4
loop_
 _symmetry_equiv_pos_site_id
 _symmetry_equiv_pos_as_xyz
  1  'x, y, z'
loop_
 _atom_site_type_symbol
 _atom_site_label
 _atom_site_symmetry_multiplicity
 _atom_site_fract_x
 _atom_site_fract_y
 _atom_site_fract_z
 _atom_site_occupancy
  Sm  Sm0  1  0.94660000  0.12913000  0.45396000  1.0
  Sm  Sm1  1  0.55340000  0.37087000  0.95396000  1.0
  Sm  Sm2  1  0.05340000  0.87087000  0.54604000  1.0
  Sm  Sm3  1  0.44660000  0.62913000  0.04604000  1.0
  H  H4  1  0.89706000  0.27874000  0.59880000  1.0
  H  H5  1  0.60295000  0.22126000  0.09880000  1.0
  H  H6  1  0.10294000  0.72126000  0.40120000  1.0
  H  H7  1  0.39705000  0.77874000  0.90120000  1.0
  H  H8  1  0.14674000  0.13215000  0.31416000  1.0
  H  H9  1  0.35326000  0.36785000  0.81416000  1.0
  H  H10  1  0.85327000  0.86785000  0.68584000  1.0
  H  H11  1  0.64674000  0.63215000  0.18584000  1.0
  H  H12  1  0.95868000  0.43812000  0.66066000  1.0
  H  H13  1  0.54132000  0.06189000  0.16066000  1.0
  H  H14  1  0.04132000  0.56188000  0.33934000  1.0
  H  H15  1  0.45868000  0.93811000  0.83934000  1.0
  H  H16  1  0.32314000  0.22397000  0.24839000  1.0
  H  H17  1  0.17685000  0.27603000  0.74839000  1.0
  H  H18  1  0.67686000  0.77603000  0.75161000  1.0
  H  H19  1  0.82315000  0.72398000  0.25161000  1.0
  H  H20  1  0.63714000  0.42212000  0.36244000  1.0
  H  H21  1  0.86286000  0.07788000  0.86244000  1.0
  H  H22  1  0.36286000  0.57788000  0.63756000  1.0
  H  H23  1  0.13714000  0.92212000  0.13756000  1.0
  H  H24  1  0.13045000  0.54997000  0.60670000  1.0
  H  H25  1  0.36955000  0.95003000  0.10670000  1.0
  H  H26  1  0.86955000  0.45003000  0.39330000  1.0
  H  H27  1  0.63045000  0.04997000  0.89330000  1.0
  H  H28  1  0.40694000  0.38801000  0.29746000  1.0
  H  H29  1  0.09306000  0.11199000  0.79746000  1.0
  H  H30  1  0.59306000  0.61199000  0.70254000  1.0
  H  H31  1  0.90694000  0.88801000  0.20254000  1.0
  H  H32  1  0.55449000  0.51253000  0.24829000  1.0
  H  H33  1  0.94551000  0.98747000  0.74829000  1.0
  H  H34  1  0.44551000  0.48747000  0.75171000  1.0
  H  H35  1  0.05449000  0.01253000  0.25171000  1.0
  H  H36  1  0.28764000  0.64480000  0.53712000  1.0
  H  H37  1  0.21236000  0.85521000  0.03712000  1.0
  H  H38  1  0.71236000  0.35520000  0.46288000  1.0
  H  H39  1  0.78764000  0.14479000  0.96288000  1.0
  H  H40  1  0.40617000  0.77422000  0.53799000  1.0
  H  H41  1  0.09383000  0.72578000  0.03799000  1.0
  H  H42  1  0.59383000  0.22578000  0.46201000  1.0
  H  H43  1  0.90617000  0.27422000  0.96201000  1.0
  H  H44  1  0.60981000  0.65222000  0.35723000  1.0
  H  H45  1  0.89019000  0.84778000  0.85723000  1.0
  H  H46  1  0.39019000  0.34778000  0.64277000  1.0
  H  H47  1  0.10981000  0.15222000  0.14277000  1.0
  H  H48  1  0.55121000  0.92065000  0.53731000  1.0
  H  H49  1  0.94879000  0.57935000  0.03730000  1.0
  H  H50  1  0.44879000  0.07935000  0.46270000  1.0
  H  H51  1  0.05121000  0.42065000  0.96270000  1.0
  H  H52  1  0.76176000  0.79976000  0.35855000  1.0
  H  H53  1  0.73824000  0.70024000  0.85855000  1.0
  H  H54  1  0.23824000  0.20024000  0.64145000  1.0
  H  H55  1  0.26176000  0.29976000  0.14145000  1.0
  C  C56  1  0.81220000  0.24479000  0.34787000  1.0
  C  C57  1  0.68780000  0.25521000  0.84787000  1.0
  C  C58  1  0.18780000  0.75521000  0.65213000  1.0
  C  C59  1  0.31220000  0.74479000  0.15213000  1.0
  C  C60  1  0.12273000  0.35591000  0.48793000  1.0
  C  C61  1  0.37727000  0.14409000  0.98793000  1.0
  C  C62  1  0.87727000  0.64409000  0.51207000  1.0
  C  C63  1  0.62273000  0.85591000  0.01207000  1.0
  C  C64  1  0.97332000  0.32786000  0.57772000  1.0
  C  C65  1  0.52668000  0.17214000  0.07772000  1.0
  C  C66  1  0.02668000  0.67214000  0.42228000  1.0
  C  C67  1  0.47332000  0.82786000  0.92228000  1.0
  C  C68  1  0.18115000  0.32203000  0.42245000  1.0
  C  C69  1  0.31885000  0.17797000  0.92245000  1.0
  C  C70  1  0.81885000  0.67797000  0.57755000  1.0
  C  C71  1  0.68115000  0.82203000  0.07755000  1.0
  C  C72  1  0.18686000  0.20249000  0.33394000  1.0
  C  C73  1  0.31314000  0.29751000  0.83394000  1.0
  C  C74  1  0.81314000  0.79751000  0.66606000  1.0
  C  C75  1  0.68686000  0.70250000  0.16606000  1.0
  C  C76  1  0.74639000  0.31205000  0.29671000  1.0
  C  C77  1  0.75361000  0.18795000  0.79671000  1.0
  C  C78  1  0.25361000  0.68795000  0.70329000  1.0
  C  C79  1  0.24639000  0.81205000  0.20329000  1.0
  C  C80  1  0.16335000  0.44868000  0.51914000  1.0
  C  C81  1  0.33665000  0.05132000  0.01914000  1.0
  C  C82  1  0.83665000  0.55132000  0.48086000  1.0
  C  C83  1  0.66335000  0.94868000  0.98086000  1.0
  C  C84  1  0.00838000  0.41740000  0.61209000  1.0
  C  C85  1  0.49162000  0.08260000  0.11209000  1.0
  C  C86  1  0.99162000  0.58260000  0.38792000  1.0
  C  C87  1  0.50838000  0.91740000  0.88792000  1.0
  C  C88  1  0.28162000  0.37948000  0.38868000  1.0
  C  C89  1  0.21838000  0.12052000  0.88868000  1.0
  C  C90  1  0.71838000  0.62052000  0.61132000  1.0
  C  C91  1  0.78162000  0.87948000  0.11132000  1.0
  C  C92  1  0.28545000  0.25464000  0.29743000  1.0
  C  C93  1  0.21455000  0.24536000  0.79743000  1.0
  C  C94  1  0.71455000  0.74536000  0.70257000  1.0
  C  C95  1  0.78545000  0.75464000  0.20257000  1.0
  C  C96  1  0.66621000  0.39719000  0.31058000  1.0
  C  C97  1  0.83379000  0.10281000  0.81058000  1.0
  C  C98  1  0.33379000  0.60281000  0.68942000  1.0
  C  C99  1  0.16621000  0.89719000  0.18942000  1.0
  C  C100  1  0.26272000  0.50410000  0.48338000  1.0
  C  C101  1  0.23729000  0.99590000  0.98338000  1.0
  C  C102  1  0.73729000  0.49590000  0.51662000  1.0
  C  C103  1  0.76271000  0.00410000  0.01662000  1.0
  C  C104  1  0.10308000  0.47875000  0.58241000  1.0
  C  C105  1  0.39692000  0.02125000  0.08241000  1.0
  C  C106  1  0.89692000  0.52125000  0.41759000  1.0
  C  C107  1  0.60308000  0.97875000  0.91759000  1.0
  C  C108  1  0.32341000  0.47089000  0.42146000  1.0
  C  C109  1  0.17659000  0.02911000  0.92146000  1.0
  C  C110  1  0.67659000  0.52911000  0.57853000  1.0
  C  C111  1  0.82341000  0.97089000  0.07854000  1.0
  C  C112  1  0.33222000  0.34417000  0.32457000  1.0
  C  C113  1  0.16777000  0.15583000  0.82457000  1.0
  C  C114  1  0.66777000  0.65583000  0.67543000  1.0
  C  C115  1  0.83223000  0.84417000  0.17543000  1.0
  C  C116  1  0.66787000  0.39768000  0.18990000  1.0
  C  C117  1  0.83213000  0.10232000  0.68990000  1.0
  C  C118  1  0.33213000  0.60232000  0.81010000  1.0
  C  C119  1  0.16786000  0.89768000  0.31010000  1.0
  C  C120  1  0.62164000  0.44615000  0.24968000  1.0
  C  C121  1  0.87837000  0.05385000  0.74968000  1.0
  C  C122  1  0.37836000  0.55385000  0.75032000  1.0
  C  C123  1  0.12163000  0.94615000  0.25032000  1.0
  C  C124  1  0.63190000  0.43029000  0.11851000  1.0
  C  C125  1  0.86810000  0.06971000  0.61851000  1.0
  C  C126  1  0.36810000  0.56971000  0.88149000  1.0
  C  C127  1  0.13190000  0.93029000  0.38149000  1.0
  C  C128  1  0.41454000  0.61255000  0.44782000  1.0
  C  C129  1  0.08546000  0.88745000  0.94782000  1.0
  C  C130  1  0.58546000  0.38745000  0.55218000  1.0
  C  C131  1  0.91454000  0.11255000  0.05218000  1.0
  C  C132  1  0.49904000  0.70140000  0.44787000  1.0
  C  C133  1  0.00096000  0.79860000  0.94787000  1.0
  C  C134  1  0.50096000  0.29860000  0.55213000  1.0
  C  C135  1  0.99904000  0.20140000  0.05213000  1.0
  C  C136  1  0.48376000  0.77804000  0.49833000  1.0
  C  C137  1  0.01625000  0.72196000  0.99833000  1.0
  C  C138  1  0.51624000  0.22196000  0.50167000  1.0
  C  C139  1  0.98376000  0.27804000  0.00167000  1.0
  C  C140  1  0.59900000  0.71101000  0.39684000  1.0
  C  C141  1  0.90100000  0.78899000  0.89684000  1.0
  C  C142  1  0.40100000  0.28899000  0.60317000  1.0
  C  C143  1  0.09899000  0.21101000  0.10316000  1.0
  C  C144  1  0.56617000  0.86176000  0.49809000  1.0
  C  C145  1  0.93384000  0.63824000  0.99809000  1.0
  C  C146  1  0.43384000  0.13824000  0.50191000  1.0
  C  C147  1  0.06617000  0.36176000  0.00191000  1.0
  C  C148  1  0.68320000  0.79358000  0.39760000  1.0
  C  C149  1  0.81680000  0.70642000  0.89760000  1.0
  C  C150  1  0.31680000  0.20642000  0.60240000  1.0
  C  C151  1  0.18320000  0.29358000  0.10240000  1.0
  C  C152  1  0.66766000  0.86954000  0.44827000  1.0
  C  C153  1  0.83234000  0.63046000  0.94827000  1.0
  C  C154  1  0.33234000  0.13046000  0.55173000  1.0
  C  C155  1  0.16766000  0.36954000  0.05173000  1.0
  C  C156  1  0.76132000  0.95656000  0.45077000  1.0
  C  C157  1  0.73868000  0.54344000  0.95077000  1.0
  C  C158  1  0.23868000  0.04344000  0.54923000  1.0
  C  C159  1  0.26132000  0.45656000  0.04923000  1.0
  S  S160  1  0.76665000  0.29225000  0.20873000  1.0
  S  S161  1  0.73336000  0.20775000  0.70873000  1.0
  S  S162  1  0.23335000  0.70775000  0.79127000  1.0
  S  S163  1  0.26664000  0.79225000  0.29127000  1.0
  N  N164  1  0.02775000  0.29757000  0.51758000  1.0
  N  N165  1  0.47225000  0.20243000  0.01758000  1.0
  N  N166  1  0.97224000  0.70243000  0.48242000  1.0
  N  N167  1  0.52775000  0.79757000  0.98242000  1.0
  N  N168  1  0.13571000  0.23467000  0.39438000  1.0
  N  N169  1  0.36430000  0.26532000  0.89438000  1.0
  N  N170  1  0.86429000  0.76533000  0.60562000  1.0
  N  N171  1  0.63571000  0.73467000  0.10562000  1.0
  N  N172  1  0.32128000  0.59440000  0.49898000  1.0
  N  N173  1  0.17872000  0.90560000  0.99898000  1.0
  N  N174  1  0.67872000  0.40560000  0.50102000  1.0
  N  N175  1  0.82128000  0.09440000  0.00102000  1.0
  N  N176  1  0.41825000  0.53816000  0.40024000  1.0
  N  N177  1  0.08175000  0.96184000  0.90024000  1.0
  N  N178  1  0.58175000  0.46184000  0.59976000  1.0
  N  N179  1  0.91825000  0.03816000  0.09976000  1.0
  O  O180  1  0.07107000  0.01594000  0.38462000  1.0
  O  O181  1  0.42892000  0.48406000  0.88463000  1.0
  O  O182  1  0.92892000  0.98406000  0.61537000  1.0
  O  O183  1  0.57108000  0.51594000  0.11537000  1.0
  O  O184  1  0.88161000  0.93813000  0.47287000  1.0
  O  O185  1  0.61838000  0.56187000  0.97287000  1.0
  O  O186  1  0.11838000  0.06187000  0.52713000  1.0
  O  O187  1  0.38162000  0.43813000  0.02713000  1.0
  O  O188  1  0.72477000  0.04466000  0.43210000  1.0
  O  O189  1  0.77523000  0.45534000  0.93210000  1.0
  O  O190  1  0.27523000  0.95534000  0.56790000  1.0
  O  O191  1  0.22477000  0.54466000  0.06790000  1.0
  O  O192  1  0.80188000  0.26991000  0.41302000  1.0
  O  O193  1  0.69812000  0.23010000  0.91302000  1.0
  O  O194  1  0.19812000  0.73010000  0.58698000  1.0
  O  O195  1  0.30188000  0.76990000  0.08698000  1.0
  O  O196  1  0.87904000  0.16675000  0.32930000  1.0
  O  O197  1  0.62096000  0.33325000  0.82930000  1.0
  O  O198  1  0.12096000  0.83325000  0.67070000  1.0
  O  O199  1  0.37904000  0.66675000  0.17070000  1.0
  O  O200  1  0.83986000  0.12747000  0.56711000  1.0
  O  O201  1  0.66013000  0.37252000  0.06711000  1.0
  O  O202  1  0.16013000  0.87253000  0.43289000  1.0
  O  O203  1  0.33986000  0.62747000  0.93289000  1.0
