# generated using pymatgen
data_CoH12C12S2(NO)10
_symmetry_space_group_name_H-M   'P 1'
_cell_length_a   6.81988000
_cell_length_b   8.60277000
_cell_length_c   9.90213000
_cell_angle_alpha   64.75600000
_cell_angle_beta   73.60800000
_cell_angle_gamma   82.72530000
_symmetry_Int_Tables_number   1
_chemical_formula_structural   CoH12C12S2(NO)10
_chemical_formula_sum   'Co1 H12 C12 S2 N10 O10'
_cell_volume   504.10315528
_cell_formula_units_Z   1
loop_
 _symmetry_equiv_pos_site_id
 _symmetry_equiv_pos_as_xyz
  1  'x, y, z'
loop_
 _atom_site_type_symbol
 _atom_site_label
 _atom_site_symmetry_multiplicity
 _atom_site_fract_x
 _atom_site_fract_y
 _atom_site_fract_z
 _atom_site_occupancy
  Co  Co0  1  0.49999000  0.00000000  0.50000000  1.0
  H  H1  1  0.21061000  0.31103000  0.51756000  1.0
  H  H2  1  0.78939000  0.68897000  0.48244000  1.0
  H  H3  1  0.41222000  0.88250000  0.86612000  1.0
  H  H4  1  0.58778000  0.11750000  0.13387000  1.0
  H  H5  1  0.17375000  0.09039000  0.00070000  1.0
  H  H6  1  0.82625000  0.90961000  0.99930000  1.0
  H  H7  1  0.14548000  0.76390000  0.54390000  1.0
  H  H8  1  0.85453000  0.23610000  0.45610000  1.0
  H  H9  1  0.60331000  0.67285000  0.78344000  1.0
  H  H10  1  0.39669000  0.32716000  0.21656000  1.0
  H  H11  1  0.34771000  0.38790000  0.93024000  1.0
  H  H12  1  0.65229000  0.61210000  0.06977000  1.0
  C  C13  1  0.23894000  0.22256000  0.62714000  1.0
  C  C14  1  0.76106000  0.77744000  0.37285000  1.0
  C  C15  1  0.33714000  0.00323000  0.81296000  1.0
  C  C16  1  0.66286000  0.99677000  0.18704000  1.0
  C  C17  1  0.21749000  0.10111000  0.88266000  1.0
  C  C18  1  0.78251000  0.89889000  0.11734000  1.0
  C  C19  1  0.23529000  0.70418000  0.62807000  1.0
  C  C20  1  0.76471000  0.29582000  0.37193000  1.0
  C  C21  1  0.46928000  0.64850000  0.75706000  1.0
  C  C22  1  0.53072000  0.35151000  0.24294000  1.0
  C  C23  1  0.34866000  0.50660000  0.82874000  1.0
  C  C24  1  0.65134000  0.49340000  0.17127000  1.0
  S  S25  1  0.01342000  0.40803000  0.78297000  1.0
  S  S26  1  0.98658000  0.59197000  0.21703000  1.0
  N  N27  1  0.34978000  0.07970000  0.65512000  1.0
  N  N28  1  0.65022000  0.92030000  0.34488000  1.0
  N  N29  1  0.15446000  0.23985000  0.76366000  1.0
  N  N30  1  0.84554000  0.76014000  0.23634000  1.0
  N  N31  1  0.20107000  0.54278000  0.74608000  1.0
  N  N32  1  0.79893000  0.45722000  0.25393000  1.0
  N  N33  1  0.39618000  0.77024000  0.63411000  1.0
  N  N34  1  0.60383000  0.22976000  0.36589000  1.0
  N  N35  1  0.80562000  0.94043000  0.71195000  1.0
  N  N36  1  0.19438000  0.05957000  0.28805000  1.0
  O  O37  1  0.91899000  0.48587000  0.65808000  1.0
  O  O38  1  0.08101000  0.51414000  0.34192000  1.0
  O  O39  1  0.90652000  0.35078000  0.94144000  1.0
  O  O40  1  0.09349000  0.64921000  0.05858000  1.0
  O  O41  1  0.78217000  0.92652000  0.59305000  1.0
  O  O42  1  0.21783000  0.07348000  0.40695000  1.0
  O  O43  1  0.81370000  0.08605000  0.71102000  1.0
  O  O44  1  0.18630000  0.91395000  0.28898000  1.0
  O  O45  1  0.81911000  0.80378000  0.82964000  1.0
  O  O46  1  0.18089000  0.19623000  0.17037000  1.0
