# generated using pymatgen
data_SmH8C6SNO9
_symmetry_space_group_name_H-M   'P 1'
_cell_length_a   6.92518000
_cell_length_b   8.78864000
_cell_length_c   18.67330000
_cell_angle_alpha   90.00000000
_cell_angle_beta   90.00030000
_cell_angle_gamma   99.84870000
_symmetry_Int_Tables_number   1
_chemical_formula_structural   SmH8C6SNO9
_chemical_formula_sum   'Sm4 H32 C24 S4 N4 O36'
_cell_volume   1119.76253262
_cell_formula_units_Z   4
loop_
 _symmetry_equiv_pos_site_id
 _symmetry_equiv_pos_as_xyz
  1  'x, y, z'
loop_
 _atom_site_type_symbol
 _atom_site_label
 _atom_site_symmetry_multiplicity
 _atom_site_fract_x
 _atom_site_fract_y
 _atom_site_fract_z
 _atom_site_occupancy
  Sm  Sm0  1  0.77153000  0.60131000  0.54856000  1.0
  Sm  Sm1  1  0.22847000  0.89869000  0.04856000  1.0
  Sm  Sm2  1  0.22847000  0.39869000  0.45144000  1.0
  Sm  Sm3  1  0.77153000  0.10131000  0.95144000  1.0
  H  H4  1  0.66758000  0.64915000  0.79848000  1.0
  H  H5  1  0.33242000  0.85085000  0.29848000  1.0
  H  H6  1  0.33242000  0.35085000  0.20152000  1.0
  H  H7  1  0.66758000  0.14915000  0.70152000  1.0
  H  H8  1  0.03090000  0.65108000  0.69239000  1.0
  H  H9  1  0.96910000  0.84893000  0.19240000  1.0
  H  H10  1  0.96910000  0.34892000  0.30761000  1.0
  H  H11  1  0.03090000  0.15107000  0.80760000  1.0
  H  H12  1  0.09507000  0.73134000  0.81974000  1.0
  H  H13  1  0.90493000  0.76866000  0.31974000  1.0
  H  H14  1  0.90493000  0.26866000  0.18026000  1.0
  H  H15  1  0.09507000  0.23134000  0.68026000  1.0
  H  H16  1  0.43217000  0.72594000  0.87044000  1.0
  H  H17  1  0.56783000  0.77406000  0.37044000  1.0
  H  H18  1  0.56783000  0.27406000  0.12956000  1.0
  H  H19  1  0.43217000  0.22594000  0.62956000  1.0
  H  H20  1  0.46043000  0.82117000  0.52067000  1.0
  H  H21  1  0.53957000  0.67883000  0.02067000  1.0
  H  H22  1  0.53957000  0.17883000  0.47933000  1.0
  H  H23  1  0.46043000  0.32117000  0.97933000  1.0
  H  H24  1  0.67190000  0.91668000  0.52018000  1.0
  H  H25  1  0.32810000  0.58332000  0.02018000  1.0
  H  H26  1  0.32810000  0.08332000  0.47982000  1.0
  H  H27  1  0.67190000  0.41668000  0.97982000  1.0
  H  H28  1  0.91063000  0.92793000  0.61650000  1.0
  H  H29  1  0.08937000  0.57207000  0.11651000  1.0
  H  H30  1  0.08937000  0.07207000  0.38350000  1.0
  H  H31  1  0.91063000  0.42793000  0.88349000  1.0
  H  H32  1  0.08114000  0.87162000  0.57195000  1.0
  H  H33  1  0.91886000  0.62838000  0.07195000  1.0
  H  H34  1  0.91886000  0.12838000  0.42805000  1.0
  H  H35  1  0.08114000  0.37162000  0.92805000  1.0
  C  C36  1  0.51769000  0.62208000  0.70150000  1.0
  C  C37  1  0.48231000  0.87791000  0.20150000  1.0
  C  C38  1  0.48231000  0.37792000  0.29851000  1.0
  C  C39  1  0.51768000  0.12209000  0.79851000  1.0
  C  C40  1  0.32382000  0.61551000  0.67195000  1.0
  C  C41  1  0.67619000  0.88449000  0.17195000  1.0
  C  C42  1  0.67618000  0.38449000  0.32805000  1.0
  C  C43  1  0.32381000  0.11551000  0.82805000  1.0
  C  C44  1  0.17644000  0.65568000  0.71506000  1.0
  C  C45  1  0.82356000  0.84432000  0.21506000  1.0
  C  C46  1  0.82356000  0.34432000  0.28494000  1.0
  C  C47  1  0.17644000  0.15568000  0.78494000  1.0
  C  C48  1  0.21045000  0.70102000  0.78634000  1.0
  C  C49  1  0.78956000  0.79898000  0.28634000  1.0
  C  C50  1  0.78955000  0.29898000  0.21366000  1.0
  C  C51  1  0.21044000  0.20102000  0.71366000  1.0
  C  C52  1  0.39250000  0.69744000  0.81501000  1.0
  C  C53  1  0.60750000  0.80256000  0.31501000  1.0
  C  C54  1  0.60750000  0.30256000  0.18499000  1.0
  C  C55  1  0.39250000  0.19744000  0.68499000  1.0
  C  C56  1  0.27612000  0.56158000  0.59791000  1.0
  C  C57  1  0.72389000  0.93843000  0.09791000  1.0
  C  C58  1  0.72388000  0.43842000  0.40209000  1.0
  C  C59  1  0.27611000  0.06157000  0.90209000  1.0
  S  S60  1  0.15456000  0.80260000  0.43571000  1.0
  S  S61  1  0.84544000  0.69740000  0.93571000  1.0
  S  S62  1  0.84544000  0.19740000  0.56429000  1.0
  S  S63  1  0.15456000  0.30260000  0.06429000  1.0
  N  N64  1  0.53607000  0.65807000  0.77357000  1.0
  N  N65  1  0.46394000  0.84194000  0.27357000  1.0
  N  N66  1  0.46393000  0.34194000  0.22643000  1.0
  N  N67  1  0.53606000  0.15807000  0.72643000  1.0
  O  O68  1  0.67130000  0.59877000  0.66918000  1.0
  O  O69  1  0.32870000  0.90123000  0.16918000  1.0
  O  O70  1  0.32870000  0.40123000  0.33082000  1.0
  O  O71  1  0.67130000  0.09877000  0.83082000  1.0
  O  O72  1  0.40633000  0.50999000  0.56001000  1.0
  O  O73  1  0.59367000  0.99001000  0.06001000  1.0
  O  O74  1  0.59367000  0.49001000  0.43999000  1.0
  O  O75  1  0.40633000  0.00999000  0.93999000  1.0
  O  O76  1  0.10621000  0.56145000  0.57177000  1.0
  O  O77  1  0.89380000  0.93855000  0.07177000  1.0
  O  O78  1  0.89380000  0.43855000  0.42823000  1.0
  O  O79  1  0.10620000  0.06145000  0.92823000  1.0
  O  O80  1  0.59870000  0.81151000  0.53033000  1.0
  O  O81  1  0.40130000  0.68849000  0.03033000  1.0
  O  O82  1  0.40130000  0.18849000  0.46967000  1.0
  O  O83  1  0.59870000  0.31151000  0.96967000  1.0
  O  O84  1  0.96762000  0.83535000  0.60352000  1.0
  O  O85  1  0.03239000  0.66465000  0.10352000  1.0
  O  O86  1  0.03238000  0.16465000  0.39648000  1.0
  O  O87  1  0.96761000  0.33535000  0.89648000  1.0
  O  O88  1  0.94271000  0.75644000  0.45139000  1.0
  O  O89  1  0.05729000  0.74356000  0.95139000  1.0
  O  O90  1  0.05729000  0.24356000  0.54861000  1.0
  O  O91  1  0.94271000  0.25644000  0.04861000  1.0
  O  O92  1  0.25070000  0.89074000  0.49932000  1.0
  O  O93  1  0.74930000  0.60926000  0.99932000  1.0
  O  O94  1  0.74930000  0.10926000  0.50068000  1.0
  O  O95  1  0.25070000  0.39074000  0.00068000  1.0
  O  O96  1  0.25089000  0.66635000  0.42278000  1.0
  O  O97  1  0.74911000  0.83365000  0.92278000  1.0
  O  O98  1  0.74911000  0.33365000  0.57722000  1.0
  O  O99  1  0.25089000  0.16635000  0.07721000  1.0
  O  O100  1  0.18200000  0.90296000  0.37131000  1.0
  O  O101  1  0.81800000  0.59704000  0.87131000  1.0
  O  O102  1  0.81800000  0.09704000  0.62869000  1.0
  O  O103  1  0.18200000  0.40296000  0.12869000  1.0
