# generated using pymatgen
data_NaCdH14C9N3O10
_symmetry_space_group_name_H-M   'P 1'
_cell_length_a   8.19182000
_cell_length_b   9.62919000
_cell_length_c   9.90203000
_cell_angle_alpha   95.12500000
_cell_angle_beta   92.40280000
_cell_angle_gamma   110.72000000
_symmetry_Int_Tables_number   1
_chemical_formula_structural   NaCdH14C9N3O10
_chemical_formula_sum   'Na2 Cd2 H28 C18 N6 O20'
_cell_volume   725.36759939
_cell_formula_units_Z   2
loop_
 _symmetry_equiv_pos_site_id
 _symmetry_equiv_pos_as_xyz
  1  'x, y, z'
loop_
 _atom_site_type_symbol
 _atom_site_label
 _atom_site_symmetry_multiplicity
 _atom_site_fract_x
 _atom_site_fract_y
 _atom_site_fract_z
 _atom_site_occupancy
  Na  Na0  1  0.02272000  0.30893000  0.68720000  1.0
  Na  Na1  1  0.97728000  0.69108000  0.31280000  1.0
  Cd  Cd2  1  0.49927000  0.67686000  0.23073000  1.0
  Cd  Cd3  1  0.50073000  0.32314000  0.76927000  1.0
  H  H4  1  0.08614000  0.20573000  0.00042000  1.0
  H  H5  1  0.91386000  0.79427000  0.99958000  1.0
  H  H6  1  0.07318000  0.15257000  0.16874000  1.0
  H  H7  1  0.92682000  0.84743000  0.83126000  1.0
  H  H8  1  0.91461000  0.32827000  0.23031000  1.0
  H  H9  1  0.08539000  0.67173000  0.76969000  1.0
  H  H10  1  0.92189000  0.37547000  0.06305000  1.0
  H  H11  1  0.07812000  0.62453000  0.93695000  1.0
  H  H12  1  0.57370000  0.00567000  0.69221000  1.0
  H  H13  1  0.42630000  0.99432000  0.30779000  1.0
  H  H14  1  0.41904000  0.83194000  0.72905000  1.0
  H  H15  1  0.58096000  0.16806000  0.27095000  1.0
  H  H16  1  0.79445000  0.88417000  0.65240000  1.0
  H  H17  1  0.20555000  0.11583000  0.34760000  1.0
  H  H18  1  0.64725000  0.71362000  0.69901000  1.0
  H  H19  1  0.35275000  0.28638000  0.30099000  1.0
  H  H20  1  0.71089000  0.58303000  0.04617000  1.0
  H  H21  1  0.28911000  0.41697000  0.95383000  1.0
  H  H22  1  0.71215000  0.16494000  0.50720000  1.0
  H  H23  1  0.28785000  0.83506000  0.49279000  1.0
  H  H24  1  0.67725000  0.47285000  0.15532000  1.0
  H  H25  1  0.32276000  0.52715000  0.84468000  1.0
  H  H26  1  0.84081000  0.12431000  0.41158000  1.0
  H  H27  1  0.15919000  0.87569000  0.58842000  1.0
  H  H28  1  0.17649000  0.60473000  0.54578000  1.0
  H  H29  1  0.82351000  0.39527000  0.45421000  1.0
  H  H30  1  0.26978000  0.48476000  0.54554000  1.0
  H  H31  1  0.73022000  0.51524000  0.45445000  1.0
  C  C32  1  0.76155000  0.97332000  0.14247000  1.0
  C  C33  1  0.23845000  0.02668000  0.85753000  1.0
  C  C34  1  0.54131000  0.83064000  0.96696000  1.0
  C  C35  1  0.45868000  0.16935000  0.03304000  1.0
  C  C36  1  0.77813000  0.05240000  0.91271000  1.0
  C  C37  1  0.22188000  0.94761000  0.08728000  1.0
  C  C38  1  0.00923000  0.19137000  0.08908000  1.0
  C  C39  1  0.99077000  0.80863000  0.91092000  1.0
  C  C40  1  0.99189000  0.33881000  0.14141000  1.0
  C  C41  1  0.00811000  0.66119000  0.85859000  1.0
  C  C42  1  0.16932000  0.45980000  0.17771000  1.0
  C  C43  1  0.83068000  0.54020000  0.82229000  1.0
  C  C44  1  0.55837000  0.89972000  0.73180000  1.0
  C  C45  1  0.44163000  0.10027000  0.26820000  1.0
  C  C46  1  0.65477000  0.81432000  0.65157000  1.0
  C  C47  1  0.34523000  0.18568000  0.34843000  1.0
  C  C48  1  0.58832000  0.76857000  0.50401000  1.0
  C  C49  1  0.41168000  0.23142000  0.49599000  1.0
  N  N50  1  0.61188000  0.85696000  0.09782000  1.0
  N  N51  1  0.38812000  0.14303000  0.90217000  1.0
  N  N52  1  0.84153000  0.07121000  0.04792000  1.0
  N  N53  1  0.15847000  0.92879000  0.95208000  1.0
  N  N54  1  0.62518000  0.93106000  0.87573000  1.0
  N  N55  1  0.37482000  0.06893000  0.12427000  1.0
  O  O56  1  0.82877000  0.99277000  0.26108000  1.0
  O  O57  1  0.17123000  0.00723000  0.73892000  1.0
  O  O58  1  0.40508000  0.72244000  0.92873000  1.0
  O  O59  1  0.59492000  0.27756000  0.07127000  1.0
  O  O60  1  0.85488000  0.13689000  0.83029000  1.0
  O  O61  1  0.14511000  0.86311000  0.16972000  1.0
  O  O62  1  0.30469000  0.44150000  0.12873000  1.0
  O  O63  1  0.69531000  0.55850000  0.87128000  1.0
  O  O64  1  0.18408000  0.57704000  0.25385000  1.0
  O  O65  1  0.81591000  0.42297000  0.74615000  1.0
  O  O66  1  0.49067000  0.82673000  0.44665000  1.0
  O  O67  1  0.50933000  0.17327000  0.55335000  1.0
  O  O68  1  0.63791000  0.67162000  0.43771000  1.0
  O  O69  1  0.36209000  0.32838000  0.56229000  1.0
  O  O70  1  0.71940000  0.58105000  0.14679000  1.0
  O  O71  1  0.28060000  0.41895000  0.85321000  1.0
  O  O72  1  0.83740000  0.19378000  0.48970000  1.0
  O  O73  1  0.16260000  0.80622000  0.51029000  1.0
  O  O74  1  0.20022000  0.53134000  0.59821000  1.0
  O  O75  1  0.79978000  0.46866000  0.40179000  1.0
