# generated using pymatgen
data_HoH10(C3O4)2
_symmetry_space_group_name_H-M   'P 1'
_cell_length_a   6.62630000
_cell_length_b   9.39716000
_cell_length_c   10.25920000
_cell_angle_alpha   80.90060000
_cell_angle_beta   89.08110000
_cell_angle_gamma   69.37380000
_symmetry_Int_Tables_number   1
_chemical_formula_structural   HoH10(C3O4)2
_chemical_formula_sum   'Ho2 H20 C12 O16'
_cell_volume   589.80618364
_cell_formula_units_Z   2
loop_
 _symmetry_equiv_pos_site_id
 _symmetry_equiv_pos_as_xyz
  1  'x, y, z'
loop_
 _atom_site_type_symbol
 _atom_site_label
 _atom_site_symmetry_multiplicity
 _atom_site_fract_x
 _atom_site_fract_y
 _atom_site_fract_z
 _atom_site_occupancy
  Ho  Ho0  1  0.38350000  0.61596000  0.82099000  1.0
  Ho  Ho1  1  0.61651000  0.38404000  0.17901000  1.0
  H  H2  1  0.85972000  0.56181000  0.76430000  1.0
  H  H3  1  0.14028000  0.43820000  0.23570000  1.0
  H  H4  1  0.83473000  0.44439000  0.88701000  1.0
  H  H5  1  0.16527000  0.55561000  0.11299000  1.0
  H  H6  1  0.52670000  0.82103000  0.63368000  1.0
  H  H7  1  0.47330000  0.17898000  0.36632000  1.0
  H  H8  1  0.47652000  0.71639000  0.54235000  1.0
  H  H9  1  0.52348000  0.28361000  0.45765000  1.0
  H  H10  1  0.81240000  0.69570000  0.15428000  1.0
  H  H11  1  0.18761000  0.30429000  0.84572000  1.0
  H  H12  1  0.58961000  0.86845000  0.14554000  1.0
  H  H13  1  0.41039000  0.13154000  0.85446000  1.0
  H  H14  1  0.91058000  0.93152000  0.08094000  1.0
  H  H15  1  0.08942000  0.06847000  0.91906000  1.0
  H  H16  1  0.73337000  0.98468000  0.94175000  1.0
  H  H17  1  0.26663000  0.01532000  0.05826000  1.0
  H  H18  1  0.16836000  0.33639000  0.53447000  1.0
  H  H19  1  0.83163000  0.66362000  0.46553000  1.0
  H  H20  1  0.20696000  0.48927000  0.42479000  1.0
  H  H21  1  0.79303000  0.51073000  0.57521000  1.0
  C  C22  1  0.58730000  0.73757000  0.99519000  1.0
  C  C23  1  0.41271000  0.26243000  0.00481000  1.0
  C  C24  1  0.70815000  0.79503000  0.08517000  1.0
  C  C25  1  0.29186000  0.20496000  0.91483000  1.0
  C  C26  1  0.83702000  0.88492000  0.01045000  1.0
  C  C27  1  0.16299000  0.11508000  0.98955000  1.0
  C  C28  1  0.01465000  0.78989000  0.93279000  1.0
  C  C29  1  0.98535000  0.21011000  0.06721000  1.0
  C  C30  1  0.21096000  0.51201000  0.62469000  1.0
  C  C31  1  0.78903000  0.48800000  0.37531000  1.0
  C  C32  1  0.12137000  0.46267000  0.51271000  1.0
  C  C33  1  0.87863000  0.53733000  0.48728000  1.0
  O  O34  1  0.76246000  0.50691000  0.80024000  1.0
  O  O35  1  0.23755000  0.49308000  0.19976000  1.0
  O  O36  1  0.42615000  0.77048000  0.61722000  1.0
  O  O37  1  0.57385000  0.22952000  0.38278000  1.0
  O  O38  1  0.52584000  0.62356000  0.04194000  1.0
  O  O39  1  0.47415000  0.37643000  0.95805000  1.0
  O  O40  1  0.54307000  0.79907000  0.87549000  1.0
  O  O41  1  0.45694000  0.20092000  0.12451000  1.0
  O  O42  1  0.09216000  0.64179000  0.96632000  1.0
  O  O43  1  0.90783000  0.35821000  0.03368000  1.0
  O  O44  1  0.09453000  0.85318000  0.83762000  1.0
  O  O45  1  0.90547000  0.14682000  0.16237000  1.0
  O  O46  1  0.08550000  0.60449000  0.69593000  1.0
  O  O47  1  0.91450000  0.39552000  0.30407000  1.0
  O  O48  1  0.41469000  0.46237000  0.64714000  1.0
  O  O49  1  0.58530000  0.53763000  0.35286000  1.0
