# generated using pymatgen
data_Cu4H33C12Br4N3
_symmetry_space_group_name_H-M   'P 1'
_cell_length_a   6.32178000
_cell_length_b   13.58710000
_cell_length_c   14.27300000
_cell_angle_alpha   68.69680000
_cell_angle_beta   84.19380000
_cell_angle_gamma   89.28570000
_symmetry_Int_Tables_number   1
_chemical_formula_structural   Cu4H33C12Br4N3
_chemical_formula_sum   'Cu8 H66 C24 Br8 N6'
_cell_volume   1135.95483094
_cell_formula_units_Z   2
loop_
 _symmetry_equiv_pos_site_id
 _symmetry_equiv_pos_as_xyz
  1  'x, y, z'
loop_
 _atom_site_type_symbol
 _atom_site_label
 _atom_site_symmetry_multiplicity
 _atom_site_fract_x
 _atom_site_fract_y
 _atom_site_fract_z
 _atom_site_occupancy
  Cu  Cu0  1  0.85175000  0.73937000  0.58616000  1.0
  Cu  Cu1  1  0.14823000  0.26063000  0.41383000  1.0
  Cu  Cu2  1  0.37035000  0.09883000  0.22722000  1.0
  Cu  Cu3  1  0.62965000  0.90117000  0.77277000  1.0
  Cu  Cu4  1  0.45717000  0.00757000  0.41036000  1.0
  Cu  Cu5  1  0.54282000  0.99241000  0.58964000  1.0
  Cu  Cu6  1  0.26197000  0.86907000  0.71462000  1.0
  Cu  Cu7  1  0.73799000  0.13095000  0.28540000  1.0
  H  H8  1  0.88312000  0.68557000  0.76545000  1.0
  H  H9  1  0.11687000  0.31443000  0.23454000  1.0
  H  H10  1  0.63010000  0.70312000  0.74532000  1.0
  H  H11  1  0.36989000  0.29687000  0.25468000  1.0
  H  H12  1  0.86114000  0.85379000  0.40724000  1.0
  H  H13  1  0.13887000  0.14621000  0.59276000  1.0
  H  H14  1  0.09894000  0.83852000  0.44383000  1.0
  H  H15  1  0.90108000  0.16147000  0.55618000  1.0
  H  H16  1  0.16918000  0.24254000  0.10821000  1.0
  H  H17  1  0.83081000  0.75747000  0.89179000  1.0
  H  H18  1  0.42837000  0.26935000  0.08079000  1.0
  H  H19  1  0.57162000  0.73066000  0.91920000  1.0
  H  H20  1  0.77561000  0.53691000  0.92388000  1.0
  H  H21  1  0.22439000  0.46310000  0.07612000  1.0
  H  H22  1  0.63740000  0.42739000  0.91780000  1.0
  H  H23  1  0.36260000  0.57261000  0.08220000  1.0
  H  H24  1  0.50343000  0.54835000  0.89789000  1.0
  H  H25  1  0.49657000  0.45166000  0.10211000  1.0
  H  H26  1  0.99664000  0.52799000  0.67363000  1.0
  H  H27  1  0.00336000  0.47201000  0.32637000  1.0
  H  H28  1  0.91621000  0.41290000  0.78169000  1.0
  H  H29  1  0.08380000  0.58710000  0.21831000  1.0
  H  H30  1  0.05875000  0.51805000  0.79549000  1.0
  H  H31  1  0.94125000  0.48196000  0.20451000  1.0
  H  H32  1  0.52115000  0.43943000  0.74191000  1.0
  H  H33  1  0.47886000  0.56057000  0.25809000  1.0
  H  H34  1  0.60862000  0.55186000  0.63264000  1.0
  H  H35  1  0.39139000  0.44813000  0.36736000  1.0
  H  H36  1  0.40846000  0.56513000  0.72378000  1.0
  H  H37  1  0.59154000  0.43486000  0.27622000  1.0
  H  H38  1  0.08279000  0.59186000  0.52126000  1.0
  H  H39  1  0.91720000  0.40813000  0.47874000  1.0
  H  H40  1  0.30616000  0.67636000  0.45722000  1.0
  H  H41  1  0.69382000  0.32363000  0.54278000  1.0
  H  H42  1  0.20582000  0.58809000  0.40472000  1.0
  H  H43  1  0.79418000  0.41191000  0.59528000  1.0
  H  H44  1  0.72188000  0.63108000  0.45812000  1.0
  H  H45  1  0.27811000  0.36893000  0.54186000  1.0
  H  H46  1  0.82584000  0.61995000  0.34175000  1.0
  H  H47  1  0.17415000  0.38006000  0.65824000  1.0
  H  H48  1  0.69132000  0.73597000  0.34165000  1.0
  H  H49  1  0.30868000  0.26404000  0.65834000  1.0
  H  H50  1  0.15793000  0.73819000  0.23940000  1.0
  H  H51  1  0.84208000  0.26182000  0.76060000  1.0
  H  H52  1  0.26901000  0.82645000  0.28868000  1.0
  H  H53  1  0.73100000  0.17354000  0.71133000  1.0
  H  H54  1  0.01730000  0.85217000  0.24052000  1.0
  H  H55  1  0.98272000  0.14784000  0.75949000  1.0
  H  H56  1  0.22294000  0.01800000  0.09246000  1.0
  H  H57  1  0.77706000  0.98200000  0.90754000  1.0
  H  H58  1  0.14800000  0.06339000  0.96695000  1.0
  H  H59  1  0.85200000  0.93661000  0.03305000  1.0
  H  H60  1  0.00062000  0.10105000  0.06141000  1.0
  H  H61  1  0.99938000  0.89894000  0.93859000  1.0
  H  H62  1  0.59854000  0.09466000  0.03119000  1.0
  H  H63  1  0.40146000  0.90534000  0.96880000  1.0
  H  H64  1  0.63947000  0.22883000  0.94936000  1.0
  H  H65  1  0.36053000  0.77117000  0.05064000  1.0
  H  H66  1  0.53272000  0.13556000  0.90418000  1.0
  H  H67  1  0.46728000  0.86444000  0.09581000  1.0
  H  H68  1  0.31665000  0.34752000  0.90022000  1.0
  H  H69  1  0.68335000  0.65248000  0.09978000  1.0
  H  H70  1  0.05603000  0.29181000  0.94486000  1.0
  H  H71  1  0.94397000  0.70819000  0.05515000  1.0
  H  H72  1  0.21361000  0.25661000  0.85150000  1.0
  H  H73  1  0.78639000  0.74339000  0.14849000  1.0
  C  C74  1  0.72762000  0.54991000  0.77078000  1.0
  C  C75  1  0.27238000  0.45009000  0.22922000  1.0
  C  C76  1  0.65610000  0.51385000  0.88426000  1.0
  C  C77  1  0.34390000  0.48615000  0.11574000  1.0
  C  C78  1  0.93754000  0.49909000  0.75424000  1.0
  C  C79  1  0.06246000  0.50091000  0.24576000  1.0
  C  C80  1  0.55607000  0.52479000  0.71403000  1.0
  C  C81  1  0.44393000  0.47520000  0.28597000  1.0
  C  C82  1  0.16051000  0.64022000  0.44640000  1.0
  C  C83  1  0.83948000  0.35977000  0.55359000  1.0
  C  C84  1  0.01098000  0.72475000  0.38855000  1.0
  C  C85  1  0.98902000  0.27525000  0.61145000  1.0
  C  C86  1  0.80000000  0.67495000  0.38191000  1.0
  C  C87  1  0.20000000  0.32506000  0.61808000  1.0
  C  C88  1  0.11968000  0.78921000  0.28307000  1.0
  C  C89  1  0.88033000  0.21079000  0.71693000  1.0
  C  C90  1  0.30737000  0.18273000  0.00376000  1.0
  C  C91  1  0.69263000  0.81727000  0.99624000  1.0
  C  C92  1  0.16072000  0.08546000  0.03295000  1.0
  C  C93  1  0.83928000  0.91454000  0.96705000  1.0
  C  C94  1  0.53306000  0.15902000  0.97015000  1.0
  C  C95  1  0.46693000  0.84098000  0.02985000  1.0
  C  C96  1  0.21841000  0.27526000  0.91999000  1.0
  C  C97  1  0.78159000  0.72473000  0.08000000  1.0
  Br  Br98  1  0.08540000  0.06621000  0.36281000  1.0
  Br  Br99  1  0.91463000  0.93380000  0.63720000  1.0
  Br  Br100  1  0.63920000  0.96723000  0.25445000  1.0
  Br  Br101  1  0.36080000  0.03277000  0.74556000  1.0
  Br  Br102  1  0.42044000  0.83736000  0.55197000  1.0
  Br  Br103  1  0.57962000  0.16262000  0.44805000  1.0
  Br  Br104  1  0.19834000  0.70456000  0.85207000  1.0
  Br  Br105  1  0.80167000  0.29544000  0.14794000  1.0
  N  N106  1  0.76584000  0.66753000  0.72835000  1.0
  N  N107  1  0.23416000  0.33246000  0.27165000  1.0
  N  N108  1  0.96217000  0.79695000  0.44614000  1.0
  N  N109  1  0.03783000  0.20305000  0.55386000  1.0
  N  N110  1  0.31398000  0.21106000  0.09574000  1.0
  N  N111  1  0.68602000  0.78895000  0.90425000  1.0
