# generated using pymatgen
data_CsH15C16SO9
_symmetry_space_group_name_H-M   'P 1'
_cell_length_a   6.85627000
_cell_length_b   9.44977000
_cell_length_c   14.70530000
_cell_angle_alpha   102.47200000
_cell_angle_beta   96.45920000
_cell_angle_gamma   108.25200000
_symmetry_Int_Tables_number   1
_chemical_formula_structural   CsH15C16SO9
_chemical_formula_sum   'Cs2 H30 C32 S2 O18'
_cell_volume   866.64122132
_cell_formula_units_Z   2
loop_
 _symmetry_equiv_pos_site_id
 _symmetry_equiv_pos_as_xyz
  1  'x, y, z'
loop_
 _atom_site_type_symbol
 _atom_site_label
 _atom_site_symmetry_multiplicity
 _atom_site_fract_x
 _atom_site_fract_y
 _atom_site_fract_z
 _atom_site_occupancy
  Cs  Cs0  1  0.21680000  0.24916000  0.49270000  1.0
  Cs  Cs1  1  0.78320000  0.75084000  0.50730000  1.0
  H  H2  1  0.14693000  0.94349000  0.19456000  1.0
  H  H3  1  0.85306000  0.05651000  0.80544000  1.0
  H  H4  1  0.05252000  0.08021000  0.07928000  1.0
  H  H5  1  0.94747000  0.91978000  0.92072000  1.0
  H  H6  1  0.54607000  0.12740000  0.21636000  1.0
  H  H7  1  0.45392000  0.87259000  0.78365000  1.0
  H  H8  1  0.68141000  0.01959000  0.94846000  1.0
  H  H9  1  0.31860000  0.98041000  0.05154000  1.0
  H  H10  1  0.62640000  0.36223000  0.79228000  1.0
  H  H11  1  0.37361000  0.63777000  0.20772000  1.0
  H  H12  1  0.74032000  0.79160000  0.00528000  1.0
  H  H13  1  0.25967000  0.20840000  0.99472000  1.0
  H  H14  1  0.82338000  0.67039000  0.13198000  1.0
  H  H15  1  0.17660000  0.32960000  0.86802000  1.0
  H  H16  1  0.67936000  0.53969000  0.70089000  1.0
  H  H17  1  0.32065000  0.46031000  0.29911000  1.0
  H  H18  1  0.52093000  0.65854000  0.69378000  1.0
  H  H19  1  0.47907000  0.34146000  0.30621000  1.0
  H  H20  1  0.41581000  0.47824000  0.72285000  1.0
  H  H21  1  0.58419000  0.52175000  0.27715000  1.0
  H  H22  1  0.69720000  0.25516000  0.48024000  1.0
  H  H23  1  0.30281000  0.74485000  0.51976000  1.0
  H  H24  1  0.80815000  0.42641000  0.54582000  1.0
  H  H25  1  0.19186000  0.57360000  0.45418000  1.0
  H  H26  1  0.94495000  0.42700000  0.30483000  1.0
  H  H27  1  0.05506000  0.57300000  0.69517000  1.0
  H  H28  1  0.87694000  0.40131000  0.40290000  1.0
  H  H29  1  0.12307000  0.59869000  0.59710000  1.0
  H  H30  1  0.11658000  0.90829000  0.33699000  1.0
  H  H31  1  0.88342000  0.09171000  0.66301000  1.0
  C  C32  1  0.90275000  0.96051000  0.27065000  1.0
  C  C33  1  0.09726000  0.03949000  0.72935000  1.0
  C  C34  1  0.01389000  0.98261000  0.19763000  1.0
  C  C35  1  0.98611000  0.01739000  0.80237000  1.0
  C  C36  1  0.96050000  0.05893000  0.13366000  1.0
  C  C37  1  0.03950000  0.94106000  0.86635000  1.0
  C  C38  1  0.79642000  0.11672000  0.14035000  1.0
  C  C39  1  0.20359000  0.88328000  0.85965000  1.0
  C  C40  1  0.67841000  0.08779000  0.21051000  1.0
  C  C41  1  0.32159000  0.91221000  0.78949000  1.0
  C  C42  1  0.72623000  0.00727000  0.27398000  1.0
  C  C43  1  0.27378000  0.99273000  0.72603000  1.0
  C  C44  1  0.76014000  0.20864000  0.07479000  1.0
  C  C45  1  0.23985000  0.79136000  0.92521000  1.0
  C  C46  1  0.70990000  0.14152000  0.97959000  1.0
  C  C47  1  0.29008000  0.85848000  0.02041000  1.0
  C  C48  1  0.71154000  0.36800000  0.93878000  1.0
  C  C49  1  0.28847000  0.63201000  0.06122000  1.0
  C  C50  1  0.67018000  0.43312000  0.86552000  1.0
  C  C51  1  0.32983000  0.56688000  0.13447000  1.0
  C  C52  1  0.68007000  0.58656000  0.89081000  1.0
  C  C53  1  0.31993000  0.41344000  0.10919000  1.0
  C  C54  1  0.73801000  0.67296000  0.98726000  1.0
  C  C55  1  0.26200000  0.32705000  0.01274000  1.0
  C  C56  1  0.78179000  0.60589000  0.05749000  1.0
  C  C57  1  0.21821000  0.39411000  0.94251000  1.0
  C  C58  1  0.76696000  0.44960000  0.03523000  1.0
  C  C59  1  0.23303000  0.55040000  0.96477000  1.0
  C  C60  1  0.80032000  0.37425000  0.10926000  1.0
  C  C61  1  0.19967000  0.62575000  0.89073000  1.0
  C  C62  1  0.55820000  0.57790000  0.73012000  1.0
  C  C63  1  0.44180000  0.42210000  0.26988000  1.0
  S  S64  1  0.57105000  0.97019000  0.36198000  1.0
  S  S65  1  0.42894000  0.02981000  0.63802000  1.0
  O  O66  1  0.39296000  0.02211000  0.34147000  1.0
  O  O67  1  0.60702000  0.97789000  0.65853000  1.0
  O  O68  1  0.50754000  0.80384000  0.35238000  1.0
  O  O69  1  0.49245000  0.19616000  0.64761000  1.0
  O  O70  1  0.71214000  0.06471000  0.45362000  1.0
  O  O71  1  0.28786000  0.93529000  0.54639000  1.0
  O  O72  1  0.99912000  0.43071000  0.37129000  1.0
  O  O73  1  0.00089000  0.56928000  0.62871000  1.0
  O  O74  1  0.70925000  0.36389000  0.48445000  1.0
  O  O75  1  0.29075000  0.63611000  0.51555000  1.0
  O  O76  1  0.96772000  0.89760000  0.33842000  1.0
  O  O77  1  0.03229000  0.10240000  0.66158000  1.0
  O  O78  1  0.68869000  0.21411000  0.91155000  1.0
  O  O79  1  0.31132000  0.78589000  0.08845000  1.0
  O  O80  1  0.86013000  0.44801000  0.19523000  1.0
  O  O81  1  0.13987000  0.55200000  0.80476000  1.0
  O  O82  1  0.63249000  0.66288000  0.82834000  1.0
  O  O83  1  0.36750000  0.33712000  0.17166000  1.0
