# generated using pymatgen
data_AlH21(C6O)6
_symmetry_space_group_name_H-M   'P 1'
_cell_length_a   3.97654000
_cell_length_b   20.40470000
_cell_length_c   20.46010000
_cell_angle_alpha   60.09970000
_cell_angle_beta   86.18190000
_cell_angle_gamma   86.12260000
_symmetry_Int_Tables_number   1
_chemical_formula_structural   AlH21(C6O)6
_chemical_formula_sum   'Al1 H21 C36 O6'
_cell_volume   1434.82889459
_cell_formula_units_Z   1
loop_
 _symmetry_equiv_pos_site_id
 _symmetry_equiv_pos_as_xyz
  1  'x, y, z'
loop_
 _atom_site_type_symbol
 _atom_site_label
 _atom_site_symmetry_multiplicity
 _atom_site_fract_x
 _atom_site_fract_y
 _atom_site_fract_z
 _atom_site_occupancy
  Al  Al0  1  0.04169000  0.49913000  0.50021000  1.0
  H  H1  1  0.84167000  0.30744000  0.70616000  1.0
  H  H2  1  0.82170000  0.23447000  0.84714000  1.0
  H  H3  1  0.24437000  0.70918000  0.30829000  1.0
  H  H4  1  0.24134000  0.85056000  0.23690000  1.0
  H  H5  1  0.28747000  0.31064000  0.48311000  1.0
  H  H6  1  0.30015000  0.23938000  0.41295000  1.0
  H  H7  1  0.78077000  0.70630000  0.48524000  1.0
  H  H8  1  0.75727000  0.84767000  0.41729000  1.0
  H  H9  1  0.18377000  0.48117000  0.71048000  1.0
  H  H10  1  0.18247000  0.41174000  0.85150000  1.0
  H  H11  1  0.88797000  0.48174000  0.30501000  1.0
  H  H12  1  0.88233000  0.41392000  0.23161000  1.0
  H  H13  1  0.78982000  0.09553000  0.34755000  1.0
  H  H14  1  0.50095000  0.02840000  0.35601000  1.0
  H  H15  1  0.35433000  0.11427000  0.35406000  1.0
  H  H16  1  0.75402000  0.34667000  0.03274000  1.0
  H  H17  1  0.61719000  0.35475000  0.11380000  1.0
  H  H18  1  0.32082000  0.35736000  0.05095000  1.0
  H  H19  1  0.65419000  0.03713000  0.10292000  1.0
  H  H20  1  0.43950000  0.11647000  0.02856000  1.0
  H  H21  1  0.21362000  0.04839000  0.11041000  1.0
  C  C22  1  0.52334000  0.44091000  0.61635000  1.0
  C  C23  1  0.57729000  0.44144000  0.44115000  1.0
  C  C24  1  0.52296000  0.61559000  0.44231000  1.0
  C  C25  1  0.69320000  0.32888000  0.73870000  1.0
  C  C26  1  0.68259000  0.28852000  0.81697000  1.0
  C  C27  1  0.36052000  0.74020000  0.33090000  1.0
  C  C28  1  0.35786000  0.81868000  0.29144000  1.0
  C  C29  1  0.42256000  0.33177000  0.42871000  1.0
  C  C30  1  0.42928000  0.29233000  0.38965000  1.0
  C  C31  1  0.65790000  0.73862000  0.43152000  1.0
  C  C32  1  0.64534000  0.81710000  0.39366000  1.0
  C  C33  1  0.32694000  0.42777000  0.74110000  1.0
  C  C34  1  0.32536000  0.38904000  0.81938000  1.0
  C  C35  1  0.75603000  0.42924000  0.32749000  1.0
  C  C36  1  0.75365000  0.39140000  0.28687000  1.0
  C  C37  1  0.51348000  0.39844000  0.70015000  1.0
  C  C38  1  0.50121000  0.31843000  0.85863000  1.0
  C  C39  1  0.49807000  0.27836000  0.93845000  1.0
  C  C40  1  0.49932000  0.24328000  0.00728000  1.0
  C  C41  1  0.50711000  0.20426000  0.08712000  1.0
  C  C42  1  0.51307000  0.69954000  0.40086000  1.0
  C  C43  1  0.49777000  0.85846000  0.32252000  1.0
  C  C44  1  0.49284000  0.93840000  0.28289000  1.0
  C  C45  1  0.49318000  0.00742000  0.24910000  1.0
  C  C46  1  0.50185000  0.08738000  0.20810000  1.0
  C  C47  1  0.58764000  0.40019000  0.39830000  1.0
  C  C48  1  0.59170000  0.32203000  0.31753000  1.0
  C  C49  1  0.58583000  0.28297000  0.27674000  1.0
  C  C50  1  0.57052000  0.24900000  0.24202000  1.0
  C  C51  1  0.54655000  0.20806000  0.20345000  1.0
  C  C52  1  0.48631000  0.12483000  0.12844000  1.0
  C  C53  1  0.52975000  0.12827000  0.24629000  1.0
  C  C54  1  0.53824000  0.24661000  0.12397000  1.0
  C  C55  1  0.54316000  0.08894000  0.33054000  1.0
  C  C56  1  0.56019000  0.33089000  0.07843000  1.0
  C  C57  1  0.44703000  0.07988000  0.08987000  1.0
  O  O58  1  0.30329000  0.58248000  0.42745000  1.0
  O  O59  1  0.28226000  0.48894000  0.58359000  1.0
  O  O60  1  0.33616000  0.42692000  0.49045000  1.0
  O  O61  1  0.75175000  0.58162000  0.49055000  1.0
  O  O62  1  0.80625000  0.48831000  0.42663000  1.0
  O  O63  1  0.77402000  0.42650000  0.58242000  1.0
