# generated using pymatgen
data_TlH8AuC22(NCl5)2
_symmetry_space_group_name_H-M   'P 1'
_cell_length_a   11.82500000
_cell_length_b   12.04470000
_cell_length_c   22.06790000
_cell_angle_alpha   90.00000000
_cell_angle_beta   89.99970000
_cell_angle_gamma   106.23700000
_symmetry_Int_Tables_number   1
_chemical_formula_structural   TlH8AuC22(NCl5)2
_chemical_formula_sum   'Tl4 H32 Au4 C88 N8 Cl40'
_cell_volume   3017.73179991
_cell_formula_units_Z   4
loop_
 _symmetry_equiv_pos_site_id
 _symmetry_equiv_pos_as_xyz
  1  'x, y, z'
loop_
 _atom_site_type_symbol
 _atom_site_label
 _atom_site_symmetry_multiplicity
 _atom_site_fract_x
 _atom_site_fract_y
 _atom_site_fract_z
 _atom_site_occupancy
  Tl  Tl0  1  0.46189000  0.74163000  0.49501000  1.0
  Tl  Tl1  1  0.96189000  0.74163000  0.00498000  1.0
  Tl  Tl2  1  0.53812000  0.25838000  0.50499000  1.0
  Tl  Tl3  1  0.03811000  0.25837000  0.99502000  1.0
  H  H4  1  0.66536000  0.67335000  0.40687000  1.0
  H  H5  1  0.16538000  0.67335000  0.09313000  1.0
  H  H6  1  0.33463000  0.32664000  0.59313000  1.0
  H  H7  1  0.83463000  0.32664000  0.90687000  1.0
  H  H8  1  0.75026000  0.65706000  0.30521000  1.0
  H  H9  1  0.25026000  0.65705000  0.19479000  1.0
  H  H10  1  0.24974000  0.34294000  0.69479000  1.0
  H  H11  1  0.74975000  0.34294000  0.80521000  1.0
  H  H12  1  0.51451000  0.84202000  0.23277000  1.0
  H  H13  1  0.01450000  0.84200000  0.26723000  1.0
  H  H14  1  0.48549000  0.15798000  0.76723000  1.0
  H  H15  1  0.98551000  0.15800000  0.73277000  1.0
  H  H16  1  0.44233000  0.85236000  0.33784000  1.0
  H  H17  1  0.94234000  0.85235000  0.16215000  1.0
  H  H18  1  0.55767000  0.14764000  0.66216000  1.0
  H  H19  1  0.05766000  0.14764000  0.83785000  1.0
  H  H20  1  0.78917000  0.55986000  0.10856000  1.0
  H  H21  1  0.28916000  0.55985000  0.39144000  1.0
  H  H22  1  0.21083000  0.44014000  0.89144000  1.0
  H  H23  1  0.71084000  0.44016000  0.60857000  1.0
  H  H24  1  0.70348000  0.56549000  0.21117000  1.0
  H  H25  1  0.20347000  0.56547000  0.28883000  1.0
  H  H26  1  0.29652000  0.43451000  0.78883000  1.0
  H  H27  1  0.79653000  0.43453000  0.71118000  1.0
  H  H28  1  0.67800000  0.90815000  0.16768000  1.0
  H  H29  1  0.17800000  0.90813000  0.33232000  1.0
  H  H30  1  0.32200000  0.09186000  0.83233000  1.0
  H  H31  1  0.82201000  0.09188000  0.66768000  1.0
  H  H32  1  0.76203000  0.88620000  0.06642000  1.0
  H  H33  1  0.26203000  0.88619000  0.43358000  1.0
  H  H34  1  0.23797000  0.11381000  0.93358000  1.0
  H  H35  1  0.73798000  0.11383000  0.56642000  1.0
  Au  Au36  1  0.50000000  0.00000000  0.50000000  1.0
  Au  Au37  1  0.00000000  0.00000000  0.00000000  1.0
  Au  Au38  1  0.50000000  0.50000000  0.50000000  1.0
  Au  Au39  1  0.99999000  0.50000000  0.00000000  1.0
  C  C40  1  0.36511000  0.98071000  0.56265000  1.0
  C  C41  1  0.86511000  0.98071000  0.93735000  1.0
  C  C42  1  0.63489000  0.01929000  0.43735000  1.0
  C  C43  1  0.13489000  0.01929000  0.06265000  1.0
  C  C44  1  0.37154000  0.93305000  0.62028000  1.0
  C  C45  1  0.87155000  0.93304000  0.87972000  1.0
  C  C46  1  0.62845000  0.06695000  0.37972000  1.0
  C  C47  1  0.12846000  0.06696000  0.12028000  1.0
  C  C48  1  0.28834000  0.92975000  0.66621000  1.0
  C  C49  1  0.78834000  0.92974000  0.83380000  1.0
  C  C50  1  0.71165000  0.07025000  0.33379000  1.0
  C  C51  1  0.21166000  0.07025000  0.16620000  1.0
  C  C52  1  0.19532000  0.97859000  0.65525000  1.0
  C  C53  1  0.69533000  0.97859000  0.84475000  1.0
  C  C54  1  0.80467000  0.02141000  0.34475000  1.0
  C  C55  1  0.30469000  0.02141000  0.15525000  1.0
  C  C56  1  0.18380000  0.02511000  0.59794000  1.0
  C  C57  1  0.68381000  0.02511000  0.90206000  1.0
  C  C58  1  0.81619000  0.97488000  0.40206000  1.0
  C  C59  1  0.31620000  0.97488000  0.09793000  1.0
  C  C60  1  0.26748000  0.02349000  0.55290000  1.0
  C  C61  1  0.76748000  0.02348000  0.94710000  1.0
  C  C62  1  0.73252000  0.97651000  0.44710000  1.0
  C  C63  1  0.23252000  0.97651000  0.05290000  1.0
  C  C64  1  0.68027000  0.56400000  0.51127000  1.0
  C  C65  1  0.18025000  0.56399000  0.98873000  1.0
  C  C66  1  0.31975000  0.43601000  0.48873000  1.0
  C  C67  1  0.81973000  0.43600000  0.01127000  1.0
  C  C68  1  0.72875000  0.63233000  0.56168000  1.0
  C  C69  1  0.22875000  0.63233000  0.93832000  1.0
  C  C70  1  0.27125000  0.36767000  0.43832000  1.0
  C  C71  1  0.77124000  0.36767000  0.06167000  1.0
  C  C72  1  0.85028000  0.68309000  0.56920000  1.0
  C  C73  1  0.35027000  0.68309000  0.93080000  1.0
  C  C74  1  0.14973000  0.31691000  0.43080000  1.0
  C  C75  1  0.64971000  0.31691000  0.06920000  1.0
  C  C76  1  0.92847000  0.66694000  0.52426000  1.0
  C  C77  1  0.42846000  0.66694000  0.97575000  1.0
  C  C78  1  0.07154000  0.33305000  0.47575000  1.0
  C  C79  1  0.57152000  0.33305000  0.02425000  1.0
  C  C80  1  0.88406000  0.59766000  0.47358000  1.0
  C  C81  1  0.38405000  0.59767000  0.02642000  1.0
  C  C82  1  0.11595000  0.40233000  0.52642000  1.0
  C  C83  1  0.61593000  0.40233000  0.97358000  1.0
  C  C84  1  0.76206000  0.54628000  0.46870000  1.0
  C  C85  1  0.26206000  0.54627000  0.03130000  1.0
  C  C86  1  0.23795000  0.45373000  0.53130000  1.0
  C  C87  1  0.73793000  0.45373000  0.96870000  1.0
  C  C88  1  0.63395000  0.70901000  0.36693000  1.0
  C  C89  1  0.13397000  0.70900000  0.13306000  1.0
  C  C90  1  0.36603000  0.29099000  0.63307000  1.0
  C  C91  1  0.86604000  0.29099000  0.86694000  1.0
  C  C92  1  0.68060000  0.69957000  0.30994000  1.0
  C  C93  1  0.18060000  0.69956000  0.19005000  1.0
  C  C94  1  0.31939000  0.30043000  0.69006000  1.0
  C  C95  1  0.81940000  0.30044000  0.80994000  1.0
  C  C96  1  0.63829000  0.74730000  0.25977000  1.0
  C  C97  1  0.13829000  0.74728000  0.24023000  1.0
  C  C98  1  0.36171000  0.25271000  0.74023000  1.0
  C  C99  1  0.86171000  0.25271000  0.75978000  1.0
  C  C100  1  0.55125000  0.80383000  0.27004000  1.0
  C  C101  1  0.05125000  0.80382000  0.22996000  1.0
  C  C102  1  0.44875000  0.19617000  0.72996000  1.0
  C  C103  1  0.94875000  0.19618000  0.77004000  1.0
  C  C104  1  0.50994000  0.80874000  0.32870000  1.0
  C  C105  1  0.00995000  0.80873000  0.17129000  1.0
  C  C106  1  0.49005000  0.19125000  0.67130000  1.0
  C  C107  1  0.99006000  0.19126000  0.82871000  1.0
  C  C108  1  0.76218000  0.63507000  0.12320000  1.0
  C  C109  1  0.26218000  0.63505000  0.37680000  1.0
  C  C110  1  0.23781000  0.36494000  0.87680000  1.0
  C  C111  1  0.73782000  0.36496000  0.62320000  1.0
  C  C112  1  0.71560000  0.63913000  0.18071000  1.0
  C  C113  1  0.21559000  0.63912000  0.31928000  1.0
  C  C114  1  0.28439000  0.36086000  0.81929000  1.0
  C  C115  1  0.78442000  0.36089000  0.68072000  1.0
  C  C116  1  0.68417000  0.73835000  0.19848000  1.0
  C  C117  1  0.18416000  0.73833000  0.30151000  1.0
  C  C118  1  0.31583000  0.26166000  0.80152000  1.0
  C  C119  1  0.81585000  0.26168000  0.69849000  1.0
  C  C120  1  0.69931000  0.82828000  0.15620000  1.0
  C  C121  1  0.19930000  0.82827000  0.34380000  1.0
  C  C122  1  0.30069000  0.17172000  0.84380000  1.0
  C  C123  1  0.80071000  0.17173000  0.65621000  1.0
  C  C124  1  0.74663000  0.81638000  0.09959000  1.0
  C  C125  1  0.24663000  0.81637000  0.40041000  1.0
  C  C126  1  0.25337000  0.18363000  0.90041000  1.0
  C  C127  1  0.75338000  0.18365000  0.59959000  1.0
  N  N128  1  0.54942000  0.76161000  0.37654000  1.0
  N  N129  1  0.04943000  0.76161000  0.12345000  1.0
  N  N130  1  0.45057000  0.23840000  0.62346000  1.0
  N  N131  1  0.95057000  0.23838000  0.87654000  1.0
  N  N132  1  0.77843000  0.72200000  0.08316000  1.0
  N  N133  1  0.27842000  0.72200000  0.41683000  1.0
  N  N134  1  0.22157000  0.27799000  0.91684000  1.0
  N  N135  1  0.72158000  0.27801000  0.58317000  1.0
  Cl  Cl136  1  0.49059000  0.88076000  0.63745000  1.0
  Cl  Cl137  1  0.99060000  0.88075000  0.86254000  1.0
  Cl  Cl138  1  0.50940000  0.11924000  0.36254000  1.0
  Cl  Cl139  1  0.00941000  0.11924000  0.13746000  1.0
  Cl  Cl140  1  0.30011000  0.87063000  0.73601000  1.0
  Cl  Cl141  1  0.80011000  0.87062000  0.76399000  1.0
  Cl  Cl142  1  0.69989000  0.12937000  0.26399000  1.0
  Cl  Cl143  1  0.19990000  0.12937000  0.23601000  1.0
  Cl  Cl144  1  0.09732000  0.98140000  0.71209000  1.0
  Cl  Cl145  1  0.59733000  0.98140000  0.78791000  1.0
  Cl  Cl146  1  0.90267000  0.01860000  0.28791000  1.0
  Cl  Cl147  1  0.40268000  0.01860000  0.21209000  1.0
  Cl  Cl148  1  0.07051000  0.08530000  0.58452000  1.0
  Cl  Cl149  1  0.57052000  0.08531000  0.91549000  1.0
  Cl  Cl150  1  0.92948000  0.91469000  0.41548000  1.0
  Cl  Cl151  1  0.42949000  0.91469000  0.08451000  1.0
  Cl  Cl152  1  0.25128000  0.08380000  0.48306000  1.0
  Cl  Cl153  1  0.75129000  0.08380000  0.01694000  1.0
  Cl  Cl154  1  0.74872000  0.91620000  0.51694000  1.0
  Cl  Cl155  1  0.24872000  0.91620000  0.98306000  1.0
  Cl  Cl156  1  0.63490000  0.65425000  0.61820000  1.0
  Cl  Cl157  1  0.13490000  0.65424000  0.88180000  1.0
  Cl  Cl158  1  0.36510000  0.34577000  0.38180000  1.0
  Cl  Cl159  1  0.86509000  0.34575000  0.11820000  1.0
  Cl  Cl160  1  0.90487000  0.76526000  0.63182000  1.0
  Cl  Cl161  1  0.40488000  0.76526000  0.86819000  1.0
  Cl  Cl162  1  0.09513000  0.23473000  0.36818000  1.0
  Cl  Cl163  1  0.59512000  0.23473000  0.13181000  1.0
  Cl  Cl164  1  0.07661000  0.73091000  0.53136000  1.0
  Cl  Cl165  1  0.57660000  0.73091000  0.96865000  1.0
  Cl  Cl166  1  0.92340000  0.26908000  0.46864000  1.0
  Cl  Cl167  1  0.42338000  0.26908000  0.03136000  1.0
  Cl  Cl168  1  0.97889000  0.57809000  0.41842000  1.0
  Cl  Cl169  1  0.47887000  0.57809000  0.08159000  1.0
  Cl  Cl170  1  0.02113000  0.42190000  0.58158000  1.0
  Cl  Cl171  1  0.52110000  0.42191000  0.91842000  1.0
  Cl  Cl172  1  0.71179000  0.45721000  0.40655000  1.0
  Cl  Cl173  1  0.21177000  0.45719000  0.09345000  1.0
  Cl  Cl174  1  0.28822000  0.54280000  0.59345000  1.0
  Cl  Cl175  1  0.78820000  0.54280000  0.90655000  1.0
