# generated using pymatgen
data_MnH9C5N(ClO)2
_symmetry_space_group_name_H-M   'P 1'
_cell_length_a   6.89117000
_cell_length_b   9.83137000
_cell_length_c   12.83340000
_cell_angle_alpha   90.00070000
_cell_angle_beta   90.00000000
_cell_angle_gamma   89.99970000
_symmetry_Int_Tables_number   1
_chemical_formula_structural   MnH9C5N(ClO)2
_chemical_formula_sum   'Mn4 H36 C20 N4 Cl8 O8'
_cell_volume   869.45825560
_cell_formula_units_Z   4
loop_
 _symmetry_equiv_pos_site_id
 _symmetry_equiv_pos_as_xyz
  1  'x, y, z'
loop_
 _atom_site_type_symbol
 _atom_site_label
 _atom_site_symmetry_multiplicity
 _atom_site_fract_x
 _atom_site_fract_y
 _atom_site_fract_z
 _atom_site_occupancy
  Mn  Mn0  1  0.34370000  0.73554000  0.00149000  1.0
  Mn  Mn1  1  0.15631000  0.26446000  0.50149000  1.0
  Mn  Mn2  1  0.84370000  0.76446000  0.99850000  1.0
  Mn  Mn3  1  0.65631000  0.23554000  0.49850000  1.0
  H  H4  1  0.61669000  0.05556000  0.71860000  1.0
  H  H5  1  0.88332000  0.94443000  0.21861000  1.0
  H  H6  1  0.11668000  0.44444000  0.28139000  1.0
  H  H7  1  0.38333000  0.55556000  0.78139000  1.0
  H  H8  1  0.72459000  0.14905000  0.91273000  1.0
  H  H9  1  0.77540000  0.85095000  0.41273000  1.0
  H  H10  1  0.22458000  0.35095000  0.08727000  1.0
  H  H11  1  0.27542000  0.64906000  0.58727000  1.0
  H  H12  1  0.64959000  0.26053000  0.81139000  1.0
  H  H13  1  0.85042000  0.73946000  0.31140000  1.0
  H  H14  1  0.14957000  0.23947000  0.18861000  1.0
  H  H15  1  0.35042000  0.76053000  0.68861000  1.0
  H  H16  1  0.41850000  0.31858000  0.94914000  1.0
  H  H17  1  0.08150000  0.68142000  0.44914000  1.0
  H  H18  1  0.91849000  0.18142000  0.05087000  1.0
  H  H19  1  0.58150000  0.81859000  0.55087000  1.0
  H  H20  1  0.40056000  0.14504000  0.98980000  1.0
  H  H21  1  0.09943000  0.85495000  0.48981000  1.0
  H  H22  1  0.90054000  0.35495000  0.01020000  1.0
  H  H23  1  0.59945000  0.64506000  0.51019000  1.0
  H  H24  1  0.23062000  0.27365000  0.79125000  1.0
  H  H25  1  0.26938000  0.72634000  0.29126000  1.0
  H  H26  1  0.73061000  0.22636000  0.20876000  1.0
  H  H27  1  0.76939000  0.77365000  0.70875000  1.0
  H  H28  1  0.11688000  0.15770000  0.87916000  1.0
  H  H29  1  0.38311000  0.84229000  0.37917000  1.0
  H  H30  1  0.61687000  0.34231000  0.12084000  1.0
  H  H31  1  0.88312000  0.65770000  0.62083000  1.0
  H  H32  1  0.29700000  0.08095000  0.69963000  1.0
  H  H33  1  0.20300000  0.91903000  0.19964000  1.0
  H  H34  1  0.79700000  0.41905000  0.30036000  1.0
  H  H35  1  0.70300000  0.58096000  0.80036000  1.0
  H  H36  1  0.26992000  0.97855000  0.80523000  1.0
  H  H37  1  0.23009000  0.02144000  0.30523000  1.0
  H  H38  1  0.76990000  0.52146000  0.19477000  1.0
  H  H39  1  0.73010000  0.47855000  0.69477000  1.0
  C  C40  1  0.54372000  0.05510000  0.79471000  1.0
  C  C41  1  0.95629000  0.94490000  0.29471000  1.0
  C  C42  1  0.04370000  0.44490000  0.20530000  1.0
  C  C43  1  0.45629000  0.55510000  0.70529000  1.0
  C  C44  1  0.60308000  0.17690000  0.86213000  1.0
  C  C45  1  0.89692000  0.82310000  0.36214000  1.0
  C  C46  1  0.10307000  0.32311000  0.13786000  1.0
  C  C47  1  0.39693000  0.67690000  0.63787000  1.0
  C  C48  1  0.41789000  0.21273000  0.92221000  1.0
  C  C49  1  0.08210000  0.78726000  0.42222000  1.0
  C  C50  1  0.91787000  0.28726000  0.07779000  1.0
  C  C51  1  0.58211000  0.71274000  0.57778000  1.0
  C  C52  1  0.25499000  0.18768000  0.84384000  1.0
  C  C53  1  0.24501000  0.81232000  0.34384000  1.0
  C  C54  1  0.75499000  0.31233000  0.15617000  1.0
  C  C55  1  0.74502000  0.68768000  0.65616000  1.0
  C  C56  1  0.57918000  0.91858000  0.84854000  1.0
  C  C57  1  0.92078000  0.08142000  0.34855000  1.0
  C  C58  1  0.07921000  0.58142000  0.15145000  1.0
  C  C59  1  0.42080000  0.41858000  0.65144000  1.0
  N  N60  1  0.32756000  0.07022000  0.77866000  1.0
  N  N61  1  0.17244000  0.92977000  0.27866000  1.0
  N  N62  1  0.82755000  0.42978000  0.22134000  1.0
  N  N63  1  0.67245000  0.57023000  0.72134000  1.0
  Cl  Cl64  1  0.08126000  0.62704000  0.89053000  1.0
  Cl  Cl65  1  0.41875000  0.37295000  0.39051000  1.0
  Cl  Cl66  1  0.58126000  0.87296000  0.10947000  1.0
  Cl  Cl67  1  0.91875000  0.12703000  0.60947000  1.0
  Cl  Cl68  1  0.60728000  0.56428000  0.96595000  1.0
  Cl  Cl69  1  0.89273000  0.43573000  0.46595000  1.0
  Cl  Cl70  1  0.10728000  0.93572000  0.03405000  1.0
  Cl  Cl71  1  0.39273000  0.06428000  0.53404000  1.0
  O  O72  1  0.43041000  0.84435000  0.86388000  1.0
  O  O73  1  0.06961000  0.15565000  0.36388000  1.0
  O  O74  1  0.93036000  0.65566000  0.13611000  1.0
  O  O75  1  0.56965000  0.34435000  0.63610000  1.0
  O  O76  1  0.75256000  0.89068000  0.87255000  1.0
  O  O77  1  0.74748000  0.10931000  0.37255000  1.0
  O  O78  1  0.25250000  0.60932000  0.12745000  1.0
  O  O79  1  0.24750000  0.39068000  0.62744000  1.0
