# generated using pymatgen
data_Cd2H45C45N18ClO6
_symmetry_space_group_name_H-M   'P 1'
_cell_length_a   9.56292000
_cell_length_b   13.08340000
_cell_length_c   20.95340000
_cell_angle_alpha   103.01400000
_cell_angle_beta   101.15400000
_cell_angle_gamma   100.09600000
_symmetry_Int_Tables_number   1
_chemical_formula_structural   Cd2H45C45N18ClO6
_chemical_formula_sum   'Cd4 H90 C90 N36 Cl2 O12'
_cell_volume   2439.44495363
_cell_formula_units_Z   2
loop_
 _symmetry_equiv_pos_site_id
 _symmetry_equiv_pos_as_xyz
  1  'x, y, z'
loop_
 _atom_site_type_symbol
 _atom_site_label
 _atom_site_symmetry_multiplicity
 _atom_site_fract_x
 _atom_site_fract_y
 _atom_site_fract_z
 _atom_site_occupancy
  Cd  Cd0  1  0.91141000  0.16388000  0.89927000  1.0
  Cd  Cd1  1  0.08859000  0.83612000  0.10073000  1.0
  Cd  Cd2  1  0.17028000  0.89238000  0.45460000  1.0
  Cd  Cd3  1  0.82972000  0.10762000  0.54540000  1.0
  H  H4  1  0.46715000  0.27498000  0.83997000  1.0
  H  H5  1  0.53285000  0.72503000  0.16002000  1.0
  H  H6  1  0.24373000  0.29184000  0.76092000  1.0
  H  H7  1  0.75627000  0.70815000  0.23908000  1.0
  H  H8  1  0.53897000  0.03568000  0.68058000  1.0
  H  H9  1  0.46104000  0.96433000  0.31942000  1.0
  H  H10  1  0.25051000  0.35115000  0.89141000  1.0
  H  H11  1  0.74950000  0.64886000  0.10859000  1.0
  H  H12  1  0.81538000  0.37507000  0.82885000  1.0
  H  H13  1  0.18462000  0.62493000  0.17115000  1.0
  H  H14  1  0.93066000  0.60182000  0.82932000  1.0
  H  H15  1  0.06934000  0.39818000  0.17068000  1.0
  H  H16  1  0.88964000  0.50933000  0.74986000  1.0
  H  H17  1  0.11035000  0.49067000  0.25015000  1.0
  H  H18  1  0.98456000  0.42730000  0.68762000  1.0
  H  H19  1  0.01544000  0.57270000  0.31238000  1.0
  H  H20  1  0.14955000  0.42071000  0.66393000  1.0
  H  H21  1  0.85045000  0.57929000  0.33607000  1.0
  H  H22  1  0.01992000  0.47495000  0.61833000  1.0
  H  H23  1  0.98008000  0.52505000  0.38167000  1.0
  H  H24  1  0.05489000  0.79880000  0.88799000  1.0
  H  H25  1  0.94511000  0.20120000  0.11201000  1.0
  H  H26  1  0.23762000  0.80865000  0.92754000  1.0
  H  H27  1  0.76238000  0.19135000  0.07246000  1.0
  H  H28  1  0.11056000  0.68551000  0.90846000  1.0
  H  H29  1  0.88944000  0.31449000  0.09154000  1.0
  H  H30  1  0.46708000  0.79229000  0.67727000  1.0
  H  H31  1  0.53292000  0.20771000  0.32273000  1.0
  H  H32  1  0.50982000  0.88303000  0.75724000  1.0
  H  H33  1  0.49018000  0.11696000  0.24276000  1.0
  H  H34  1  0.36123000  0.88901000  0.69522000  1.0
  H  H35  1  0.63877000  0.11099000  0.30478000  1.0
  H  H36  1  0.40413000  0.63945000  0.63489000  1.0
  H  H37  1  0.59586000  0.36055000  0.36511000  1.0
  H  H38  1  0.25859000  0.52436000  0.61323000  1.0
  H  H39  1  0.74140000  0.47564000  0.38677000  1.0
  H  H40  1  0.38437000  0.75656000  0.55569000  1.0
  H  H41  1  0.61562000  0.24344000  0.44431000  1.0
  H  H42  1  0.92766000  0.68234000  0.48257000  1.0
  H  H43  1  0.07233000  0.31766000  0.51743000  1.0
  H  H44  1  0.36704000  0.91058000  0.89758000  1.0
  H  H45  1  0.63296000  0.08942000  0.10242000  1.0
  H  H46  1  0.43512000  0.94504000  0.83107000  1.0
  H  H47  1  0.56488000  0.05495000  0.16893000  1.0
  H  H48  1  0.19300000  0.01996000  0.93488000  1.0
  H  H49  1  0.80701000  0.98005000  0.06512000  1.0
  H  H50  1  0.02456000  0.08218000  0.74917000  1.0
  H  H51  1  0.97545000  0.91782000  0.25083000  1.0
  H  H52  1  0.09286000  0.43015000  0.01346000  1.0
  H  H53  1  0.90715000  0.56985000  0.98654000  1.0
  H  H54  1  0.14853000  0.12582000  0.03532000  1.0
  H  H55  1  0.85147000  0.87417000  0.96468000  1.0
  H  H56  1  0.47004000  0.30419000  0.14089000  1.0
  H  H57  1  0.52996000  0.69581000  0.85911000  1.0
  H  H58  1  0.34674000  0.18566000  0.13917000  1.0
  H  H59  1  0.65326000  0.81433000  0.86083000  1.0
  H  H60  1  0.48739000  0.57712000  0.21723000  1.0
  H  H61  1  0.51260000  0.42288000  0.78277000  1.0
  H  H62  1  0.49556000  0.45998000  0.15964000  1.0
  H  H63  1  0.50444000  0.54002000  0.84036000  1.0
  H  H64  1  0.63361000  0.51303000  0.23515000  1.0
  H  H65  1  0.36639000  0.48697000  0.76485000  1.0
  H  H66  1  0.21868000  0.10018000  0.23919000  1.0
  H  H67  1  0.78132000  0.89982000  0.76081000  1.0
  H  H68  1  0.16312000  0.13113000  0.16229000  1.0
  H  H69  1  0.83688000  0.86887000  0.83771000  1.0
  H  H70  1  0.05752000  0.14785000  0.22258000  1.0
  H  H71  1  0.94248000  0.85215000  0.77742000  1.0
  H  H72  1  0.22478000  0.51058000  0.42122000  1.0
  H  H73  1  0.77522000  0.48942000  0.57878000  1.0
  H  H74  1  0.41791000  0.54628000  0.44614000  1.0
  H  H75  1  0.58209000  0.45372000  0.55386000  1.0
  H  H76  1  0.32294000  0.42008000  0.44994000  1.0
  H  H77  1  0.67706000  0.57992000  0.55006000  1.0
  H  H78  1  0.56783000  0.60641000  0.40148000  1.0
  H  H79  1  0.43217000  0.39359000  0.59852000  1.0
  H  H80  1  0.58874000  0.62250000  0.32290000  1.0
  H  H81  1  0.41126000  0.37750000  0.67710000  1.0
  H  H82  1  0.50220000  0.78318000  0.45234000  1.0
  H  H83  1  0.49780000  0.21682000  0.54766000  1.0
  H  H84  1  0.14585000  0.76413000  0.29415000  1.0
  H  H85  1  0.85415000  0.23587000  0.70585000  1.0
  H  H86  1  0.11204000  0.32595000  0.38672000  1.0
  H  H87  1  0.88796000  0.67405000  0.61328000  1.0
  H  H88  1  0.03627000  0.22434000  0.31103000  1.0
  H  H89  1  0.96373000  0.77566000  0.68897000  1.0
  H  H90  1  0.00142000  0.07832000  0.38218000  1.0
  H  H91  1  0.99858000  0.92169000  0.61782000  1.0
  H  H92  1  0.44934000  0.08403000  0.43937000  1.0
  H  H93  1  0.55067000  0.91598000  0.56063000  1.0
  C  C94  1  0.65717000  0.15404000  0.81020000  1.0
  C  C95  1  0.34283000  0.84597000  0.18980000  1.0
  C  C96  1  0.51642000  0.15512000  0.76483000  1.0
  C  C97  1  0.48358000  0.84489000  0.23517000  1.0
  C  C98  1  0.43140000  0.22573000  0.78777000  1.0
  C  C99  1  0.56860000  0.77427000  0.21222000  1.0
  C  C100  1  0.30766000  0.23456000  0.74382000  1.0
  C  C101  1  0.69233000  0.76544000  0.25618000  1.0
  C  C102  1  0.26554000  0.17180000  0.67682000  1.0
  C  C103  1  0.73445000  0.82819000  0.32318000  1.0
  C  C104  1  0.34554000  0.09599000  0.65453000  1.0
  C  C105  1  0.65447000  0.90401000  0.34547000  1.0
  C  C106  1  0.47228000  0.09024000  0.69829000  1.0
  C  C107  1  0.52772000  0.90977000  0.30171000  1.0
  C  C108  1  0.14207000  0.19146000  0.62810000  1.0
  C  C109  1  0.85793000  0.80854000  0.37190000  1.0
  C  C110  1  0.29235000  0.02016000  0.58505000  1.0
  C  C111  1  0.70765000  0.97984000  0.41495000  1.0
  C  C112  1  0.15487000  0.37844000  0.87100000  1.0
  C  C113  1  0.84513000  0.62156000  0.12901000  1.0
  C  C114  1  0.93369000  0.38831000  0.83982000  1.0
  C  C115  1  0.06631000  0.61169000  0.16018000  1.0
  C  C116  1  0.97894000  0.55148000  0.79458000  1.0
  C  C117  1  0.02106000  0.44852000  0.20542000  1.0
  C  C118  1  0.10276000  0.61882000  0.77680000  1.0
  C  C119  1  0.89724000  0.38117000  0.22320000  1.0
  C  C120  1  0.14043000  0.58244000  0.71530000  1.0
  C  C121  1  0.85957000  0.41756000  0.28470000  1.0
  C  C122  1  0.24736000  0.65144000  0.69707000  1.0
  C  C123  1  0.75264000  0.34856000  0.30293000  1.0
  C  C124  1  0.31332000  0.75666000  0.73826000  1.0
  C  C125  1  0.68668000  0.24334000  0.26174000  1.0
  C  C126  1  0.27598000  0.79088000  0.80030000  1.0
  C  C127  1  0.72402000  0.20912000  0.19970000  1.0
  C  C128  1  0.17486000  0.72092000  0.82090000  1.0
  C  C129  1  0.82514000  0.27908000  0.17910000  1.0
  C  C130  1  0.06960000  0.47122000  0.66938000  1.0
  C  C131  1  0.93039000  0.52878000  0.33062000  1.0
  C  C132  1  0.14306000  0.75485000  0.88915000  1.0
  C  C133  1  0.85694000  0.24515000  0.11085000  1.0
  C  C134  1  0.41798000  0.83292000  0.71577000  1.0
  C  C135  1  0.58202000  0.16708000  0.28423000  1.0
  C  C136  1  0.28679000  0.61249000  0.63069000  1.0
  C  C137  1  0.71321000  0.38751000  0.36931000  1.0
  C  C138  1  0.26784000  0.72285000  0.54580000  1.0
  C  C139  1  0.73216000  0.27716000  0.45420000  1.0
  C  C140  1  0.03567000  0.68159000  0.51059000  1.0
  C  C141  1  0.96433000  0.31841000  0.48941000  1.0
  C  C142  1  0.33720000  0.90560000  0.84355000  1.0
  C  C143  1  0.66280000  0.09440000  0.15645000  1.0
  C  C144  1  0.17034000  0.02427000  0.88261000  1.0
  C  C145  1  0.82967000  0.97573000  0.11738000  1.0
  C  C146  1  0.08597000  0.05255000  0.78761000  1.0
  C  C147  1  0.91403000  0.94745000  0.21239000  1.0
  C  C148  1  0.13171000  0.36716000  0.03259000  1.0
  C  C149  1  0.86830000  0.63284000  0.96741000  1.0
  C  C150  1  0.15682000  0.21206000  0.04155000  1.0
  C  C151  1  0.84318000  0.78793000  0.95845000  1.0
  C  C152  1  0.36149000  0.27315000  0.14787000  1.0
  C  C153  1  0.63851000  0.72684000  0.85213000  1.0
  C  C154  1  0.34760000  0.32766000  0.21732000  1.0
  C  C155  1  0.65240000  0.67234000  0.78268000  1.0
  C  C156  1  0.42619000  0.43460000  0.24900000  1.0
  C  C157  1  0.57381000  0.56540000  0.75100000  1.0
  C  C158  1  0.41935000  0.48315000  0.31526000  1.0
  C  C159  1  0.58065000  0.51686000  0.68474000  1.0
  C  C160  1  0.32996000  0.42790000  0.34861000  1.0
  C  C161  1  0.67004000  0.57210000  0.65139000  1.0
  C  C162  1  0.24517000  0.32345000  0.31445000  1.0
  C  C163  1  0.75483000  0.67655000  0.68555000  1.0
  C  C164  1  0.25554000  0.27174000  0.24939000  1.0
  C  C165  1  0.74446000  0.72826000  0.75061000  1.0
  C  C166  1  0.51543000  0.49859000  0.21343000  1.0
  C  C167  1  0.48457000  0.50141000  0.78657000  1.0
  C  C168  1  0.16997000  0.15781000  0.21637000  1.0
  C  C169  1  0.83003000  0.84219000  0.78363000  1.0
  C  C170  1  0.32386000  0.47896000  0.41995000  1.0
  C  C171  1  0.67614000  0.52104000  0.58005000  1.0
  C  C172  1  0.50714000  0.59677000  0.34958000  1.0
  C  C173  1  0.49286000  0.40323000  0.65042000  1.0
  C  C174  1  0.41854000  0.75798000  0.40532000  1.0
  C  C175  1  0.58147000  0.24202000  0.59469000  1.0
  C  C176  1  0.24062000  0.74637000  0.32346000  1.0
  C  C177  1  0.75938000  0.25364000  0.67654000  1.0
  C  C178  1  0.14002000  0.26763000  0.34765000  1.0
  C  C179  1  0.85998000  0.73237000  0.65235000  1.0
  C  C180  1  0.12002000  0.10141000  0.39138000  1.0
  C  C181  1  0.87997000  0.89859000  0.60862000  1.0
  C  C182  1  0.34842000  0.10851000  0.42204000  1.0
  C  C183  1  0.65158000  0.89150000  0.57796000  1.0
  N  N184  1  0.01469000  0.32911000  0.86810000  1.0
  N  N185  1  0.98531000  0.67089000  0.13191000  1.0
  N  N186  1  0.02254000  0.46835000  0.82620000  1.0
  N  N187  1  0.97746000  0.53165000  0.17380000  1.0
  N  N188  1  0.16501000  0.46378000  0.84613000  1.0
  N  N189  1  0.83500000  0.53622000  0.15388000  1.0
  N  N190  1  0.21058000  0.65274000  0.57725000  1.0
  N  N191  1  0.78941000  0.34726000  0.42275000  1.0
  N  N192  1  0.06183000  0.62547000  0.55543000  1.0
  N  N193  1  0.93817000  0.37453000  0.44457000  1.0
  N  N194  1  0.15957000  0.74262000  0.50302000  1.0
  N  N195  1  0.84043000  0.25738000  0.49698000  1.0
  N  N196  1  0.22939000  0.97203000  0.83549000  1.0
  N  N197  1  0.77061000  0.02797000  0.16450000  1.0
  N  N198  1  0.17633000  0.98864000  0.77434000  1.0
  N  N199  1  0.82367000  0.01136000  0.22566000  1.0
  N  N200  1  0.07855000  0.07654000  0.85378000  1.0
  N  N201  1  0.92146000  0.92346000  0.14622000  1.0
  N  N202  1  0.07942000  0.25967000  0.00178000  1.0
  N  N203  1  0.92058000  0.74033000  0.99822000  1.0
  N  N204  1  0.25126000  0.28840000  0.09340000  1.0
  N  N205  1  0.74874000  0.71159000  0.90661000  1.0
  N  N206  1  0.23618000  0.38847000  0.08886000  1.0
  N  N207  1  0.76382000  0.61152000  0.91114000  1.0
  N  N208  1  0.41266000  0.67356000  0.35376000  1.0
  N  N209  1  0.58734000  0.32644000  0.64625000  1.0
  N  N210  1  0.29975000  0.66509000  0.30063000  1.0
  N  N211  1  0.70025000  0.33491000  0.69937000  1.0
  N  N212  1  0.30963000  0.80527000  0.38786000  1.0
  N  N213  1  0.69037000  0.19473000  0.61214000  1.0
  N  N214  1  0.19670000  0.18743000  0.37794000  1.0
  N  N215  1  0.80330000  0.81257000  0.62206000  1.0
  N  N216  1  0.34344000  0.19383000  0.39769000  1.0
  N  N217  1  0.65656000  0.80617000  0.60231000  1.0
  N  N218  1  0.21374000  0.05017000  0.41936000  1.0
  N  N219  1  0.78626000  0.94983000  0.58064000  1.0
  Cl  Cl220  1  0.77671000  0.02740000  0.95198000  1.0
  Cl  Cl221  1  0.22329000  0.97260000  0.04802000  1.0
  O  O222  1  0.69655000  0.22092000  0.86901000  1.0
  O  O223  1  0.30345000  0.77909000  0.13099000  1.0
  O  O224  1  0.73454000  0.09006000  0.78877000  1.0
  O  O225  1  0.26546000  0.90994000  0.21124000  1.0
  O  O226  1  0.38425000  0.98890000  0.55312000  1.0
  O  O227  1  0.61574000  0.01110000  0.44688000  1.0
  O  O228  1  0.15362000  0.98862000  0.56081000  1.0
  O  O229  1  0.84638000  0.01137000  0.43919000  1.0
  O  O230  1  0.17344000  0.23379000  0.58298000  1.0
  O  O231  1  0.82655000  0.76621000  0.41702000  1.0
  O  O232  1  0.01456000  0.16577000  0.63909000  1.0
  O  O233  1  0.98544000  0.83422000  0.36091000  1.0
