# generated using pymatgen
data_CdH6C5SN2Cl2O
_symmetry_space_group_name_H-M   'P 1'
_cell_length_a   9.46003000
_cell_length_b   13.80350000
_cell_length_c   13.82310000
_cell_angle_alpha   114.80400000
_cell_angle_beta   103.05000000
_cell_angle_gamma   103.48000000
_symmetry_Int_Tables_number   1
_chemical_formula_structural   CdH6C5SN2Cl2O
_chemical_formula_sum   'Cd6 H36 C30 S6 N12 Cl12 O6'
_cell_volume   1482.46473036
_cell_formula_units_Z   6
loop_
 _symmetry_equiv_pos_site_id
 _symmetry_equiv_pos_as_xyz
  1  'x, y, z'
loop_
 _atom_site_type_symbol
 _atom_site_label
 _atom_site_symmetry_multiplicity
 _atom_site_fract_x
 _atom_site_fract_y
 _atom_site_fract_z
 _atom_site_occupancy
  Cd  Cd0  1  0.34586000  0.35554000  0.75840000  1.0
  Cd  Cd1  1  0.58703000  0.24167000  0.59673000  1.0
  Cd  Cd2  1  0.99043000  0.40237000  0.64485000  1.0
  Cd  Cd3  1  0.08753000  0.59721000  0.24168000  1.0
  Cd  Cd4  1  0.49033000  0.64491000  0.40330000  1.0
  Cd  Cd5  1  0.84555000  0.75755000  0.35516000  1.0
  H  H6  1  0.68156000  0.44903000  0.87815000  1.0
  H  H7  1  0.80243000  0.12176000  0.56996000  1.0
  H  H8  1  0.23288000  0.42997000  0.55146000  1.0
  H  H9  1  0.30342000  0.57085000  0.12191000  1.0
  H  H10  1  0.73247000  0.55168000  0.42992000  1.0
  H  H11  1  0.18137000  0.87857000  0.44853000  1.0
  H  H12  1  0.62397000  0.54694000  0.96192000  1.0
  H  H13  1  0.66023000  0.03729000  0.58378000  1.0
  H  H14  1  0.07691000  0.41555000  0.45376000  1.0
  H  H15  1  0.16209000  0.58501000  0.03815000  1.0
  H  H16  1  0.57647000  0.45342000  0.41614000  1.0
  H  H17  1  0.12309000  0.96185000  0.54624000  1.0
  H  H18  1  0.70830000  0.41360000  0.02602000  1.0
  H  H19  1  0.68136000  0.97340000  0.38708000  1.0
  H  H20  1  0.29522000  0.61344000  0.58690000  1.0
  H  H21  1  0.18224000  0.38754000  0.97403000  1.0
  H  H22  1  0.79439000  0.58624000  0.61280000  1.0
  H  H23  1  0.20820000  0.02661000  0.41310000  1.0
  H  H24  1  0.35439000  0.16712000  0.20856000  1.0
  H  H25  1  0.14737000  0.79244000  0.95995000  1.0
  H  H26  1  0.18759000  0.04036000  0.83244000  1.0
  H  H27  1  0.64580000  0.95859000  0.79166000  1.0
  H  H28  1  0.68728000  0.83246000  0.03994000  1.0
  H  H29  1  0.85534000  0.20818000  0.16770000  1.0
  H  H30  1  0.65929000  0.27413000  0.28125000  1.0
  H  H31  1  0.37796000  0.71888000  0.99303000  1.0
  H  H32  1  0.38599000  0.00807000  0.72602000  1.0
  H  H33  1  0.87780000  0.99288000  0.71877000  1.0
  H  H34  1  0.88484000  0.72582000  0.00699000  1.0
  H  H35  1  0.16014000  0.28196000  0.27390000  1.0
  H  H36  1  0.73050000  0.38060000  0.16903000  1.0
  H  H37  1  0.56046000  0.83035000  0.21103000  1.0
  H  H38  1  0.35033000  0.78969000  0.61951000  1.0
  H  H39  1  0.06108000  0.21160000  0.83082000  1.0
  H  H40  1  0.84969000  0.61937000  0.78905000  1.0
  H  H41  1  0.23081000  0.16999000  0.38028000  1.0
  C  C42  1  0.41521000  0.21686000  0.17675000  1.0
  C  C43  1  0.23948000  0.82385000  0.04107000  1.0
  C  C44  1  0.19871000  0.95920000  0.78285000  1.0
  C  C45  1  0.73835000  0.04013000  0.82336000  1.0
  C  C46  1  0.69837000  0.78277000  0.95885000  1.0
  C  C47  1  0.91596000  0.17651000  0.21721000  1.0
  C  C48  1  0.57436000  0.27290000  0.21253000  1.0
  C  C49  1  0.36198000  0.78758000  0.06071000  1.0
  C  C50  1  0.30207000  0.93997000  0.72709000  1.0
  C  C51  1  0.86159000  0.06037000  0.78747000  1.0
  C  C52  1  0.80136000  0.72692000  0.93928000  1.0
  C  C53  1  0.07503000  0.21286000  0.27283000  1.0
  C  C54  1  0.61193000  0.32907000  0.15150000  1.0
  C  C55  1  0.46007000  0.84823000  0.17751000  1.0
  C  C56  1  0.28327000  0.82296000  0.67091000  1.0
  C  C57  1  0.96014000  0.17760000  0.84846000  1.0
  C  C58  1  0.78283000  0.67080000  0.82252000  1.0
  C  C59  1  0.11233000  0.15197000  0.32898000  1.0
  C  C60  1  0.48052000  0.31352000  0.06901000  1.0
  C  C61  1  0.41161000  0.93090000  0.24474000  1.0
  C  C62  1  0.16701000  0.75516000  0.68621000  1.0
  C  C63  1  0.91132000  0.24455000  0.93104000  1.0
  C  C64  1  0.66714000  0.68618000  0.75524000  1.0
  C  C65  1  0.98075000  0.06896000  0.31376000  1.0
  C  C66  1  0.46740000  0.35681000  0.98901000  1.0
  C  C67  1  0.47829000  0.01083000  0.36772000  1.0
  C  C68  1  0.11039000  0.63178000  0.64296000  1.0
  C  C69  1  0.97831000  0.36782000  0.01102000  1.0
  C  C70  1  0.61071000  0.64305000  0.63224000  1.0
  C  C71  1  0.96730000  0.98881000  0.35699000  1.0
  S  S72  1  0.31170000  0.23187000  0.06917000  1.0
  S  S73  1  0.24368000  0.93131000  0.16371000  1.0
  S  S74  1  0.07975000  0.83585000  0.76755000  1.0
  S  S75  1  0.74246000  0.16273000  0.93097000  1.0
  S  S76  1  0.58008000  0.76756000  0.83617000  1.0
  S  S77  1  0.81218000  0.06846000  0.23251000  1.0
  N  N78  1  0.59720000  0.46022000  0.91331000  1.0
  N  N79  1  0.68277000  0.08639000  0.54609000  1.0
  N  N80  1  0.13707000  0.45345000  0.54021000  1.0
  N  N81  1  0.18390000  0.54691000  0.08676000  1.0
  N  N82  1  0.63672000  0.54020000  0.45383000  1.0
  N  N83  1  0.09680000  0.91329000  0.45978000  1.0
  N  N84  1  0.60132000  0.41108000  0.98409000  1.0
  N  N85  1  0.61663000  0.01572000  0.42648000  1.0
  N  N86  1  0.19024000  0.57340000  0.58903000  1.0
  N  N87  1  0.11720000  0.42697000  0.01597000  1.0
  N  N88  1  0.69022000  0.58913000  0.57342000  1.0
  N  N89  1  0.10111000  0.98441000  0.41096000  1.0
  Cl  Cl90  1  0.43035000  0.17699000  0.70267000  1.0
  Cl  Cl91  1  0.72863000  0.29755000  0.47412000  1.0
  Cl  Cl92  1  0.25466000  0.52583000  0.82317000  1.0
  Cl  Cl93  1  0.22768000  0.47435000  0.29742000  1.0
  Cl  Cl94  1  0.75456000  0.82338000  0.52592000  1.0
  Cl  Cl95  1  0.93150000  0.70269000  0.17686000  1.0
  Cl  Cl96  1  0.43566000  0.37985000  0.60027000  1.0
  Cl  Cl97  1  0.83491000  0.39911000  0.77926000  1.0
  Cl  Cl98  1  0.05566000  0.22025000  0.61998000  1.0
  Cl  Cl99  1  0.33544000  0.77960000  0.39979000  1.0
  Cl  Cl100  1  0.55564000  0.61985000  0.22077000  1.0
  Cl  Cl101  1  0.93570000  0.60030000  0.38005000  1.0
  O  O102  1  0.33486000  0.34378000  0.92722000  1.0
  O  O103  1  0.40780000  0.07273000  0.41662000  1.0
  O  O104  1  0.99050000  0.58225000  0.65580000  1.0
  O  O105  1  0.90764000  0.41665000  0.07284000  1.0
  O  O106  1  0.49128000  0.65604000  0.58339000  1.0
  O  O107  1  0.83457000  0.92644000  0.34413000  1.0
