# generated using pymatgen
data_FeH14(C5N2)2
_symmetry_space_group_name_H-M   'P 1'
_cell_length_a   8.36615000
_cell_length_b   8.36792000
_cell_length_c   13.07150000
_cell_angle_alpha   90.01510000
_cell_angle_beta   89.99750000
_cell_angle_gamma   60.00700000
_symmetry_Int_Tables_number   1
_chemical_formula_structural   FeH14(C5N2)2
_chemical_formula_sum   'Fe3 H42 C30 N12'
_cell_volume   792.55576765
_cell_formula_units_Z   3
loop_
 _symmetry_equiv_pos_site_id
 _symmetry_equiv_pos_as_xyz
  1  'x, y, z'
loop_
 _atom_site_type_symbol
 _atom_site_label
 _atom_site_symmetry_multiplicity
 _atom_site_fract_x
 _atom_site_fract_y
 _atom_site_fract_z
 _atom_site_occupancy
  Fe  Fe0  1  0.52657000  0.00004000  0.66666667  1.0
  Fe  Fe1  1  0.47337000  0.52688000  0.99987000  1.0
  Fe  Fe2  1  0.00020000  0.47321000  0.33342000  1.0
  H  H3  1  0.87373000  0.01531000  0.57921000  1.0
  H  H4  1  0.11087000  0.87367000  0.91264000  1.0
  H  H5  1  0.01419000  0.11034000  0.24650000  1.0
  H  H6  1  0.98440000  0.12652000  0.42083000  1.0
  H  H7  1  0.12468000  0.88955000  0.08658000  1.0
  H  H8  1  0.88921000  0.98467000  0.75431000  1.0
  H  H9  1  0.07271000  0.79291000  0.41626000  1.0
  H  H10  1  0.13407000  0.07256000  0.74969000  1.0
  H  H11  1  0.79453000  0.13410000  0.08220000  1.0
  H  H12  1  0.20666000  0.92756000  0.58372000  1.0
  H  H13  1  0.92871000  0.86610000  0.25096000  1.0
  H  H14  1  0.86555000  0.20716000  0.91724000  1.0
  H  H15  1  0.91146000  0.36565000  0.61982000  1.0
  H  H16  1  0.72298000  0.91135000  0.95299000  1.0
  H  H17  1  0.36566000  0.72258000  0.28622000  1.0
  H  H18  1  0.63435000  0.08850000  0.38013000  1.0
  H  H19  1  0.08854000  0.27714000  0.04713000  1.0
  H  H20  1  0.27726000  0.63439000  0.71368000  1.0
  H  H21  1  0.69935000  0.36543000  0.62661000  1.0
  H  H22  1  0.93529000  0.69924000  0.95970000  1.0
  H  H23  1  0.36544000  0.93488000  0.29304000  1.0
  H  H24  1  0.63459000  0.30058000  0.37339000  1.0
  H  H25  1  0.30070000  0.06490000  0.04042000  1.0
  H  H26  1  0.06490000  0.63467000  0.70682000  1.0
  H  H27  1  0.72636000  0.53153000  0.69605000  1.0
  H  H28  1  0.74223000  0.72632000  0.02921000  1.0
  H  H29  1  0.53134000  0.74188000  0.36258000  1.0
  H  H30  1  0.46856000  0.27355000  0.30392000  1.0
  H  H31  1  0.27356000  0.25786000  0.97082000  1.0
  H  H32  1  0.25806000  0.46855000  0.63740000  1.0
  H  H33  1  0.70979000  0.50545000  0.46148000  1.0
  H  H34  1  0.78448000  0.70977000  0.79462000  1.0
  H  H35  1  0.50601000  0.78402000  0.12800000  1.0
  H  H36  1  0.49444000  0.29020000  0.53849000  1.0
  H  H37  1  0.29008000  0.21603000  0.20542000  1.0
  H  H38  1  0.21538000  0.49448000  0.87197000  1.0
  H  H39  1  0.53783000  0.67733000  0.53978000  1.0
  H  H40  1  0.78468000  0.53782000  0.87292000  1.0
  H  H41  1  0.67754000  0.78450000  0.20640000  1.0
  H  H42  1  0.32261000  0.46211000  0.46021000  1.0
  H  H43  1  0.46214000  0.21554000  0.12704000  1.0
  H  H44  1  0.21515000  0.32275000  0.79362000  1.0
  C  C45  1  0.87019000  0.89912000  0.54490000  1.0
  C  C46  1  0.23053000  0.87028000  0.87832000  1.0
  C  C47  1  0.89880000  0.23028000  0.21183000  1.0
  C  C48  1  0.10072000  0.12988000  0.45510000  1.0
  C  C49  1  0.12911000  0.76973000  0.12131000  1.0
  C  C50  1  0.76940000  0.10083000  0.78857000  1.0
  C  C51  1  0.77929000  0.69827000  0.51874000  1.0
  C  C52  1  0.52228000  0.77943000  0.85201000  1.0
  C  C53  1  0.69861000  0.52197000  0.18537000  1.0
  C  C54  1  0.30174000  0.22061000  0.48128000  1.0
  C  C55  1  0.22058000  0.47806000  0.14791000  1.0
  C  C56  1  0.47761000  0.30171000  0.81467000  1.0
  C  C57  1  0.96685000  0.79068000  0.46313000  1.0
  C  C58  1  0.24224000  0.96687000  0.79653000  1.0
  C  C59  1  0.79140000  0.24217000  0.12951000  1.0
  C  C60  1  0.20908000  0.03329000  0.53687000  1.0
  C  C61  1  0.03359000  0.75795000  0.20369000  1.0
  C  C62  1  0.75754000  0.20931000  0.87033000  1.0
  C  C63  1  0.76100000  0.45436000  0.62413000  1.0
  C  C64  1  0.78471000  0.76093000  0.95729000  1.0
  C  C65  1  0.45438000  0.78432000  0.29061000  1.0
  C  C66  1  0.54566000  0.23893000  0.37584000  1.0
  C  C67  1  0.23897000  0.21547000  0.04277000  1.0
  C  C68  1  0.21547000  0.54570000  0.70933000  1.0
  C  C69  1  0.68799000  0.58531000  0.53213000  1.0
  C  C70  1  0.72657000  0.68797000  0.86531000  1.0
  C  C71  1  0.58565000  0.72620000  0.19871000  1.0
  C  C72  1  0.41463000  0.31197000  0.46785000  1.0
  C  C73  1  0.31193000  0.27380000  0.13467000  1.0
  C  C74  1  0.27334000  0.41471000  0.80129000  1.0
  N  N75  1  0.75164000  0.84046000  0.58028000  1.0
  N  N76  1  0.40778000  0.75189000  0.91362000  1.0
  N  N77  1  0.84001000  0.40733000  0.24732000  1.0
  N  N78  1  0.15959000  0.24823000  0.41974000  1.0
  N  N79  1  0.24734000  0.59260000  0.08588000  1.0
  N  N80  1  0.59223000  0.15949000  0.75315000  1.0
  N  N81  1  0.90734000  0.66517000  0.44578000  1.0
  N  N82  1  0.42724000  0.90742000  0.77907000  1.0
  N  N83  1  0.66624000  0.42707000  0.11203000  1.0
  N  N84  1  0.33471000  0.09267000  0.55426000  1.0
  N  N85  1  0.09331000  0.57307000  0.22125000  1.0
  N  N86  1  0.57251000  0.33483000  0.88763000  1.0
