# generated using pymatgen
data_SrH8C6N8O5
_symmetry_space_group_name_H-M   'P 1'
_cell_length_a   6.71060000
_cell_length_b   6.71096000
_cell_length_c   12.93026605
_cell_angle_alpha   101.95593643
_cell_angle_beta   101.90597422
_cell_angle_gamma   101.73000000
_symmetry_Int_Tables_number   1
_chemical_formula_structural   SrH8C6N8O5
_chemical_formula_sum   'Sr2 H16 C12 N16 O10'
_cell_volume   538.69541289
_cell_formula_units_Z   2
loop_
 _symmetry_equiv_pos_site_id
 _symmetry_equiv_pos_as_xyz
  1  'x, y, z'
loop_
 _atom_site_type_symbol
 _atom_site_label
 _atom_site_symmetry_multiplicity
 _atom_site_fract_x
 _atom_site_fract_y
 _atom_site_fract_z
 _atom_site_occupancy
  Sr  Sr0  1  0.53928000  0.53932000  0.00001000  1.0
  Sr  Sr1  1  0.78916000  0.28911000  0.50001000  1.0
  H  H2  1  0.91341000  0.44504000  0.25720000  1.0
  H  H3  1  0.18798000  0.65613000  0.74273000  1.0
  H  H4  1  0.90628000  0.93807000  0.24295000  1.0
  H  H5  1  0.69513000  0.66327000  0.75716000  1.0
  H  H6  1  0.96157000  0.34869000  0.96529000  1.0
  H  H7  1  0.38317000  0.99633000  0.03464000  1.0
  H  H8  1  0.24632000  0.13303000  0.53484000  1.0
  H  H9  1  0.59832000  0.71150000  0.46525000  1.0
  H  H10  1  0.80452000  0.24640000  0.04138000  1.0
  H  H11  1  0.20494000  0.76310000  0.95855000  1.0
  H  H12  1  0.01303000  0.95497000  0.45874000  1.0
  H  H13  1  0.49606000  0.55433000  0.54131000  1.0
  H  H14  1  0.98176000  0.94081000  0.06226000  1.0
  H  H15  1  0.87855000  0.91953000  0.93785000  1.0
  H  H16  1  0.16910000  0.62811000  0.43772000  1.0
  H  H17  1  0.19014000  0.73138000  0.56209000  1.0
  C  C18  1  0.06461000  0.48123000  0.12548000  1.0
  C  C19  1  0.35560000  0.93916000  0.87445000  1.0
  C  C20  1  0.18936000  0.10545000  0.37464000  1.0
  C  C21  1  0.73074000  0.81460000  0.62545000  1.0
  C  C22  1  0.35379000  0.66876000  0.23577000  1.0
  C  C23  1  0.43272000  0.11806000  0.76415000  1.0
  C  C24  1  0.36811000  0.18278000  0.26428000  1.0
  C  C25  1  0.91850000  0.10370000  0.73576000  1.0
  C  C26  1  0.57782000  0.79257000  0.27339000  1.0
  C  C27  1  0.51922000  0.30447000  0.72663000  1.0
  C  C28  1  0.55451000  0.26893000  0.22663000  1.0
  C  C29  1  0.04243000  0.32771000  0.77335000  1.0
  N  N30  1  0.25933000  0.58137000  0.12672000  1.0
  N  N31  1  0.45440000  0.13263000  0.87319000  1.0
  N  N32  1  0.38281000  0.20426000  0.37333000  1.0
  N  N33  1  0.83091000  0.00931000  0.62672000  1.0
  N  N34  1  0.22891000  0.62766000  0.30095000  1.0
  N  N35  1  0.32659000  0.92797000  0.69896000  1.0
  N  N36  1  0.17802000  0.07677000  0.19916000  1.0
  N  N37  1  0.87761000  0.97880000  0.80091000  1.0
  N  N38  1  0.04454000  0.50943000  0.22917000  1.0
  N  N39  1  0.28018000  0.81537000  0.77075000  1.0
  N  N40  1  0.06550000  0.03024000  0.27098000  1.0
  N  N41  1  0.75917000  0.79447000  0.72912000  1.0
  N  N42  1  0.90489000  0.37571000  0.03375000  1.0
  N  N43  1  0.34180000  0.87119000  0.96618000  1.0
  N  N44  1  0.12133000  0.09168000  0.46638000  1.0
  N  N45  1  0.62524000  0.65486000  0.53369000  1.0
  O  O46  1  0.67442000  0.79176000  0.19762000  1.0
  O  O47  1  0.59422000  0.47675000  0.80248000  1.0
  O  O48  1  0.72687000  0.34347000  0.30236000  1.0
  O  O49  1  0.04155000  0.42419000  0.69757000  1.0
  O  O50  1  0.65841000  0.88832000  0.37334000  1.0
  O  O51  1  0.51541000  0.28518000  0.62673000  1.0
  O  O52  1  0.53508000  0.26531000  0.12674000  1.0
  O  O53  1  0.13844000  0.40834000  0.87327000  1.0
  O  O54  1  0.85933000  0.85942000  0.00008000  1.0
  O  O55  1  0.10878000  0.60891000  0.49990000  1.0
