# generated using pymatgen
data_CoH12C20S2(N2O3)2
_symmetry_space_group_name_H-M   'P 1'
_cell_length_a   9.61860000
_cell_length_b   15.10390000
_cell_length_c   17.28800000
_cell_angle_alpha   99.82370000
_cell_angle_beta   89.99980000
_cell_angle_gamma   90.00000000
_symmetry_Int_Tables_number   1
_chemical_formula_structural   CoH12C20S2(N2O3)2
_chemical_formula_sum   'Co4 H48 C80 S8 N16 O24'
_cell_volume   2474.74634207
_cell_formula_units_Z   4
loop_
 _symmetry_equiv_pos_site_id
 _symmetry_equiv_pos_as_xyz
  1  'x, y, z'
loop_
 _atom_site_type_symbol
 _atom_site_label
 _atom_site_symmetry_multiplicity
 _atom_site_fract_x
 _atom_site_fract_y
 _atom_site_fract_z
 _atom_site_occupancy
  Co  Co0  1  0.58351000  0.65439000  0.03745000  1.0
  Co  Co1  1  0.08351000  0.84561000  0.96255000  1.0
  Co  Co2  1  0.41649000  0.34561000  0.96254000  1.0
  Co  Co3  1  0.91649000  0.15439000  0.03745000  1.0
  H  H4  1  0.38452000  0.59310000  0.15890000  1.0
  H  H5  1  0.88452000  0.90690000  0.84110000  1.0
  H  H6  1  0.61548000  0.40690000  0.84110000  1.0
  H  H7  1  0.11548000  0.09310000  0.15890000  1.0
  H  H8  1  0.78271000  0.72876000  0.77717000  1.0
  H  H9  1  0.28271000  0.77124000  0.22283000  1.0
  H  H10  1  0.21730000  0.27124000  0.22284000  1.0
  H  H11  1  0.71729000  0.22876000  0.77717000  1.0
  H  H12  1  0.77339000  0.72458000  0.91790000  1.0
  H  H13  1  0.27339000  0.77542000  0.08210000  1.0
  H  H14  1  0.22661000  0.27542000  0.08210000  1.0
  H  H15  1  0.72661000  0.22458000  0.91790000  1.0
  H  H16  1  0.39378000  0.58190000  0.75230000  1.0
  H  H17  1  0.89378000  0.91810000  0.24770000  1.0
  H  H18  1  0.60622000  0.41811000  0.24769000  1.0
  H  H19  1  0.10622000  0.08190000  0.75231000  1.0
  H  H20  1  0.40836000  0.57544000  0.89405000  1.0
  H  H21  1  0.90836000  0.92456000  0.10595000  1.0
  H  H22  1  0.59164000  0.42456000  0.10595000  1.0
  H  H23  1  0.09164000  0.07544000  0.89405000  1.0
  H  H24  1  0.88819000  0.34371000  0.87381000  1.0
  H  H25  1  0.38819000  0.15629000  0.12619000  1.0
  H  H26  1  0.11180000  0.65629000  0.12619000  1.0
  H  H27  1  0.61180000  0.84371000  0.87381000  1.0
  H  H28  1  0.10492000  0.44772000  0.83818000  1.0
  H  H29  1  0.60492000  0.05227000  0.16182000  1.0
  H  H30  1  0.89507000  0.55228000  0.16182000  1.0
  H  H31  1  0.39507000  0.94772000  0.83818000  1.0
  H  H32  1  0.36817000  0.58693000  0.30007000  1.0
  H  H33  1  0.86817000  0.91307000  0.69993000  1.0
  H  H34  1  0.63183000  0.41307000  0.69994000  1.0
  H  H35  1  0.13183000  0.08693000  0.30006000  1.0
  H  H36  1  0.75823000  0.73056000  0.18723000  1.0
  H  H37  1  0.25823000  0.76944000  0.81277000  1.0
  H  H38  1  0.24177000  0.26945000  0.81277000  1.0
  H  H39  1  0.74177000  0.23055000  0.18723000  1.0
  H  H40  1  0.75568000  0.73429000  0.33158000  1.0
  H  H41  1  0.25568000  0.76571000  0.66842000  1.0
  H  H42  1  0.24433000  0.26571000  0.66842000  1.0
  H  H43  1  0.74432000  0.23429000  0.33158000  1.0
  H  H44  1  0.85937000  0.70502000  0.01913000  1.0
  H  H45  1  0.35937000  0.79498000  0.98087000  1.0
  H  H46  1  0.14063000  0.29498000  0.98087000  1.0
  H  H47  1  0.64063000  0.20502000  0.01913000  1.0
  H  H48  1  0.76140000  0.77440000  0.07918000  1.0
  H  H49  1  0.26140000  0.72560000  0.92081000  1.0
  H  H50  1  0.23860000  0.22560000  0.92082000  1.0
  H  H51  1  0.73860000  0.27440000  0.07918000  1.0
  C  C52  1  0.68269000  0.45862000  0.98134000  1.0
  C  C53  1  0.18269000  0.04137000  0.01866000  1.0
  C  C54  1  0.31731000  0.54138000  0.01866000  1.0
  C  C55  1  0.81731000  0.95862000  0.98134000  1.0
  C  C56  1  0.81216000  0.47203000  0.93938000  1.0
  C  C57  1  0.31216000  0.02797000  0.06061000  1.0
  C  C58  1  0.18784000  0.52797000  0.06061000  1.0
  C  C59  1  0.68784000  0.97203000  0.93939000  1.0
  C  C60  1  0.58783000  0.65533000  0.75118000  1.0
  C  C61  1  0.08783000  0.84467000  0.24882000  1.0
  C  C62  1  0.41218000  0.34467000  0.24882000  1.0
  C  C63  1  0.91218000  0.15533000  0.75118000  1.0
  C  C64  1  0.98570000  0.55558000  0.90963000  1.0
  C  C65  1  0.48569000  0.94442000  0.09037000  1.0
  C  C66  1  0.01430000  0.44442000  0.09037000  1.0
  C  C67  1  0.51429000  0.05558000  0.90963000  1.0
  C  C68  1  0.06294000  0.64052000  0.91465000  1.0
  C  C69  1  0.56294000  0.85948000  0.08535000  1.0
  C  C70  1  0.93705000  0.35948000  0.08535000  1.0
  C  C71  1  0.43705000  0.14052000  0.91466000  1.0
  C  C72  1  0.46572000  0.62311000  0.19859000  1.0
  C  C73  1  0.96572000  0.87689000  0.80141000  1.0
  C  C74  1  0.53428000  0.37690000  0.80141000  1.0
  C  C75  1  0.03428000  0.12310000  0.19859000  1.0
  C  C76  1  0.69643000  0.69406000  0.80002000  1.0
  C  C77  1  0.19643000  0.80593000  0.19998000  1.0
  C  C78  1  0.30357000  0.30594000  0.19999000  1.0
  C  C79  1  0.80357000  0.19406000  0.80002000  1.0
  C  C80  1  0.69270000  0.69107000  0.87970000  1.0
  C  C81  1  0.19270000  0.80893000  0.12030000  1.0
  C  C82  1  0.30730000  0.30893000  0.12030000  1.0
  C  C83  1  0.80730000  0.19107000  0.87970000  1.0
  C  C84  1  0.48140000  0.61264000  0.78665000  1.0
  C  C85  1  0.98140000  0.88736000  0.21335000  1.0
  C  C86  1  0.51860000  0.38737000  0.21335000  1.0
  C  C87  1  0.01860000  0.11264000  0.78665000  1.0
  C  C88  1  0.48828000  0.61001000  0.86640000  1.0
  C  C89  1  0.98828000  0.88999000  0.13360000  1.0
  C  C90  1  0.51172000  0.38999000  0.13360000  1.0
  C  C91  1  0.01172000  0.11001000  0.86640000  1.0
  C  C92  1  0.90098000  0.41549000  0.89127000  1.0
  C  C93  1  0.40098000  0.08451000  0.10872000  1.0
  C  C94  1  0.09901000  0.58451000  0.10872000  1.0
  C  C95  1  0.59901000  0.91549000  0.89128000  1.0
  C  C96  1  0.01295000  0.46913000  0.87252000  1.0
  C  C97  1  0.51294000  0.03087000  0.12748000  1.0
  C  C98  1  0.98705000  0.53087000  0.12748000  1.0
  C  C99  1  0.48705000  0.96913000  0.87252000  1.0
  C  C100  1  0.56165000  0.66053000  0.32909000  1.0
  C  C101  1  0.06165000  0.83947000  0.67091000  1.0
  C  C102  1  0.43835000  0.33947000  0.67091000  1.0
  C  C103  1  0.93835000  0.16053000  0.32909000  1.0
  C  C104  1  0.58347000  0.65894000  0.66784000  1.0
  C  C105  1  0.08348000  0.84106000  0.33216000  1.0
  C  C106  1  0.41654000  0.34106000  0.33216000  1.0
  C  C107  1  0.91653000  0.15895000  0.66785000  1.0
  C  C108  1  0.45660000  0.62067000  0.27834000  1.0
  C  C109  1  0.95660000  0.87933000  0.72166000  1.0
  C  C110  1  0.54340000  0.37933000  0.72166000  1.0
  C  C111  1  0.04340000  0.12067000  0.27834000  1.0
  C  C112  1  0.50750000  0.63954000  0.54700000  1.0
  C  C113  1  0.00750000  0.86046000  0.45300000  1.0
  C  C114  1  0.49251000  0.36046000  0.45300000  1.0
  C  C115  1  0.99251000  0.13954000  0.54700000  1.0
  C  C116  1  0.63397000  0.68183000  0.53422000  1.0
  C  C117  1  0.13397000  0.81817000  0.46578000  1.0
  C  C118  1  0.36604000  0.31818000  0.46578000  1.0
  C  C119  1  0.86604000  0.18183000  0.53422000  1.0
  C  C120  1  0.67303000  0.70013000  0.21458000  1.0
  C  C121  1  0.17303000  0.79987000  0.78542000  1.0
  C  C122  1  0.32697000  0.29987000  0.78542000  1.0
  C  C123  1  0.82697000  0.20013000  0.21458000  1.0
  C  C124  1  0.56061000  0.65999000  0.41296000  1.0
  C  C125  1  0.06061000  0.84000000  0.58704000  1.0
  C  C126  1  0.43940000  0.34000000  0.58704000  1.0
  C  C127  1  0.93939000  0.16000000  0.41296000  1.0
  C  C128  1  0.67198000  0.70150000  0.29500000  1.0
  C  C129  1  0.17198000  0.79850000  0.70500000  1.0
  C  C130  1  0.32802000  0.29850000  0.70500000  1.0
  C  C131  1  0.82802000  0.20150000  0.29500000  1.0
  S  S132  1  0.42082000  0.61294000  0.45887000  1.0
  S  S133  1  0.92082000  0.88706000  0.54112000  1.0
  S  S134  1  0.57919000  0.38706000  0.54113000  1.0
  S  S135  1  0.07919000  0.11294000  0.45888000  1.0
  S  S136  1  0.72240000  0.70702000  0.62191000  1.0
  S  S137  1  0.22240000  0.79298000  0.37810000  1.0
  S  S138  1  0.27761000  0.29298000  0.37809000  1.0
  S  S139  1  0.77761000  0.20702000  0.62191000  1.0
  N  N140  1  0.59094000  0.64921000  0.91358000  1.0
  N  N141  1  0.09094000  0.85079000  0.08642000  1.0
  N  N142  1  0.40906000  0.35079000  0.08642000  1.0
  N  N143  1  0.90906000  0.14921000  0.91358000  1.0
  N  N144  1  0.57179000  0.66190000  0.16564000  1.0
  N  N145  1  0.07179000  0.83810000  0.83436000  1.0
  N  N146  1  0.42821000  0.33811000  0.83436000  1.0
  N  N147  1  0.92821000  0.16190000  0.16564000  1.0
  N  N148  1  0.47939000  0.62704000  0.62076000  1.0
  N  N149  1  0.97939000  0.87296000  0.37924000  1.0
  N  N150  1  0.52062000  0.37296000  0.37923000  1.0
  N  N151  1  0.02061000  0.12704000  0.62077000  1.0
  N  N152  1  0.66321000  0.69338000  0.46051000  1.0
  N  N153  1  0.16321000  0.80662000  0.53949000  1.0
  N  N154  1  0.33680000  0.30662000  0.53949000  1.0
  N  N155  1  0.83680000  0.19338000  0.46051000  1.0
  O  O156  1  0.62823000  0.38039000  0.96582000  1.0
  O  O157  1  0.12822000  0.11961000  0.03418000  1.0
  O  O158  1  0.37178000  0.61961000  0.03418000  1.0
  O  O159  1  0.87177000  0.88039000  0.96582000  1.0
  O  O160  1  0.63518000  0.52406000  0.03044000  1.0
  O  O161  1  0.13517000  0.97594000  0.96956000  1.0
  O  O162  1  0.36482000  0.47594000  0.96956000  1.0
  O  O163  1  0.86482000  0.02406000  0.03044000  1.0
  O  O164  1  0.78207000  0.70922000  0.05751000  1.0
  O  O165  1  0.28206000  0.79077000  0.94249000  1.0
  O  O166  1  0.21793000  0.29077000  0.94249000  1.0
  O  O167  1  0.71793000  0.20923000  0.05751000  1.0
  O  O168  1  0.86409000  0.55753000  0.95062000  1.0
  O  O169  1  0.36408000  0.94246000  0.04937000  1.0
  O  O170  1  0.13591000  0.44247000  0.04938000  1.0
  O  O171  1  0.63591000  0.05753000  0.95063000  1.0
  O  O172  1  0.00648000  0.71165000  0.95426000  1.0
  O  O173  1  0.50648000  0.78834000  0.04574000  1.0
  O  O174  1  0.99352000  0.28834000  0.04575000  1.0
  O  O175  1  0.49352000  0.21166000  0.95426000  1.0
  O  O176  1  0.17945000  0.63668000  0.88073000  1.0
  O  O177  1  0.67944000  0.86332000  0.11926000  1.0
  O  O178  1  0.82055000  0.36332000  0.11926000  1.0
  O  O179  1  0.32055000  0.13668000  0.88074000  1.0
