# generated using pymatgen
data_HoH21C25N4O7
_symmetry_space_group_name_H-M   'P 1'
_cell_length_a   8.70136000
_cell_length_b   16.22110000
_cell_length_c   20.35940000
_cell_angle_alpha   94.05000000
_cell_angle_beta   89.99990000
_cell_angle_gamma   89.99920000
_symmetry_Int_Tables_number   1
_chemical_formula_structural   HoH21C25N4O7
_chemical_formula_sum   'Ho4 H84 C100 N16 O28'
_cell_volume   2866.46428831
_cell_formula_units_Z   4
loop_
 _symmetry_equiv_pos_site_id
 _symmetry_equiv_pos_as_xyz
  1  'x, y, z'
loop_
 _atom_site_type_symbol
 _atom_site_label
 _atom_site_symmetry_multiplicity
 _atom_site_fract_x
 _atom_site_fract_y
 _atom_site_fract_z
 _atom_site_occupancy
  Ho  Ho0  1  0.78130000  0.24318000  0.71412000  1.0
  Ho  Ho1  1  0.28131000  0.25681000  0.78587000  1.0
  Ho  Ho2  1  0.21870000  0.75682000  0.28587000  1.0
  Ho  Ho3  1  0.71869000  0.74319000  0.21413000  1.0
  H  H4  1  0.24393000  0.21601000  0.62207000  1.0
  H  H5  1  0.74393000  0.28399000  0.87793000  1.0
  H  H6  1  0.75606000  0.78399000  0.37793000  1.0
  H  H7  1  0.25607000  0.71602000  0.12207000  1.0
  H  H8  1  0.04700000  0.14496000  0.54844000  1.0
  H  H9  1  0.54700000  0.35505000  0.95156000  1.0
  H  H10  1  0.95299000  0.85505000  0.45156000  1.0
  H  H11  1  0.45300000  0.64495000  0.04844000  1.0
  H  H12  1  0.33165000  0.92806000  0.52876000  1.0
  H  H13  1  0.83166000  0.57194000  0.97124000  1.0
  H  H14  1  0.66834000  0.07194000  0.47124000  1.0
  H  H15  1  0.16834000  0.42806000  0.02876000  1.0
  H  H16  1  0.53132000  0.00016000  0.60218000  1.0
  H  H17  1  0.03132000  0.49983000  0.89781000  1.0
  H  H18  1  0.46867000  0.99984000  0.39782000  1.0
  H  H19  1  0.96868000  0.50017000  0.10218000  1.0
  H  H20  1  0.36903000  0.48429000  0.86263000  1.0
  H  H21  1  0.86903000  0.01571000  0.63738000  1.0
  H  H22  1  0.63097000  0.51571000  0.13737000  1.0
  H  H23  1  0.13098000  0.98429000  0.36262000  1.0
  H  H24  1  0.36056000  0.63893000  0.88762000  1.0
  H  H25  1  0.86056000  0.86107000  0.61239000  1.0
  H  H26  1  0.63945000  0.36107000  0.11238000  1.0
  H  H27  1  0.13946000  0.13893000  0.38761000  1.0
  H  H28  1  0.76035000  0.66579000  0.76654000  1.0
  H  H29  1  0.26038000  0.83421000  0.73345000  1.0
  H  H30  1  0.23965000  0.33421000  0.23345000  1.0
  H  H31  1  0.73963000  0.16580000  0.26655000  1.0
  H  H32  1  0.77269000  0.51151000  0.74461000  1.0
  H  H33  1  0.27272000  0.98849000  0.75538000  1.0
  H  H34  1  0.22730000  0.48849000  0.25539000  1.0
  H  H35  1  0.72729000  0.01151000  0.24462000  1.0
  H  H36  1  0.38851000  0.03661000  0.88173000  1.0
  H  H37  1  0.88849000  0.46339000  0.61827000  1.0
  H  H38  1  0.61150000  0.96339000  0.11828000  1.0
  H  H39  1  0.11150000  0.53661000  0.38173000  1.0
  H  H40  1  0.40426000  0.88083000  0.87775000  1.0
  H  H41  1  0.90426000  0.61917000  0.62225000  1.0
  H  H42  1  0.59574000  0.11917000  0.12225000  1.0
  H  H43  1  0.09574000  0.38084000  0.37776000  1.0
  H  H44  1  0.82310000  0.88938000  0.76646000  1.0
  H  H45  1  0.32308000  0.61061000  0.73355000  1.0
  H  H46  1  0.17691000  0.11062000  0.23354000  1.0
  H  H47  1  0.67692000  0.38939000  0.26646000  1.0
  H  H48  1  0.80574000  0.04442000  0.77058000  1.0
  H  H49  1  0.30571000  0.45556000  0.72943000  1.0
  H  H50  1  0.19427000  0.95557000  0.22942000  1.0
  H  H51  1  0.69428000  0.54443000  0.27058000  1.0
  H  H52  1  0.45633000  0.37241000  0.64084000  1.0
  H  H53  1  0.95634000  0.12758000  0.85915000  1.0
  H  H54  1  0.54366000  0.62759000  0.35916000  1.0
  H  H55  1  0.04367000  0.87243000  0.14085000  1.0
  H  H56  1  0.46236000  0.42541000  0.56690000  1.0
  H  H57  1  0.96238000  0.07458000  0.93309000  1.0
  H  H58  1  0.53763000  0.57459000  0.43310000  1.0
  H  H59  1  0.03762000  0.92542000  0.06690000  1.0
  H  H60  1  0.58747000  0.45512000  0.63381000  1.0
  H  H61  1  0.08749000  0.04487000  0.86619000  1.0
  H  H62  1  0.41252000  0.54488000  0.36619000  1.0
  H  H63  1  0.91251000  0.95513000  0.13381000  1.0
  H  H64  1  0.64020000  0.40461000  0.44160000  1.0
  H  H65  1  0.14022000  0.09540000  0.05840000  1.0
  H  H66  1  0.35980000  0.59539000  0.55840000  1.0
  H  H67  1  0.85978000  0.90461000  0.94160000  1.0
  H  H68  1  0.82409000  0.43857000  0.46992000  1.0
  H  H69  1  0.32410000  0.06143000  0.03008000  1.0
  H  H70  1  0.17591000  0.56142000  0.53009000  1.0
  H  H71  1  0.67590000  0.93857000  0.96992000  1.0
  H  H72  1  0.65787000  0.47171000  0.51509000  1.0
  H  H73  1  0.15788000  0.02829000  0.98491000  1.0
  H  H74  1  0.34213000  0.52829000  0.48491000  1.0
  H  H75  1  0.84212000  0.97171000  0.01509000  1.0
  H  H76  1  0.95255000  0.30385000  0.51081000  1.0
  H  H77  1  0.45255000  0.19615000  0.98919000  1.0
  H  H78  1  0.04745000  0.69615000  0.48919000  1.0
  H  H79  1  0.54745000  0.80384000  0.01081000  1.0
  H  H80  1  0.81876000  0.27361000  0.44713000  1.0
  H  H81  1  0.31878000  0.22639000  0.05287000  1.0
  H  H82  1  0.18123000  0.72639000  0.55287000  1.0
  H  H83  1  0.68124000  0.77361000  0.94713000  1.0
  H  H84  1  0.81049000  0.22773000  0.52467000  1.0
  H  H85  1  0.31049000  0.27227000  0.97532000  1.0
  H  H86  1  0.18950000  0.77227000  0.47533000  1.0
  H  H87  1  0.68951000  0.72773000  0.02468000  1.0
  C  C88  1  0.50811000  0.15247000  0.66514000  1.0
  C  C89  1  0.00811000  0.34753000  0.83485000  1.0
  C  C90  1  0.49188000  0.84753000  0.33486000  1.0
  C  C91  1  0.99188000  0.65247000  0.16514000  1.0
  C  C92  1  0.39679000  0.11129000  0.61778000  1.0
  C  C93  1  0.89679000  0.38870000  0.88221000  1.0
  C  C94  1  0.60319000  0.88871000  0.38222000  1.0
  C  C95  1  0.10321000  0.61130000  0.11779000  1.0
  C  C96  1  0.26301000  0.15336000  0.60076000  1.0
  C  C97  1  0.76302000  0.34664000  0.89923000  1.0
  C  C98  1  0.73697000  0.84664000  0.39924000  1.0
  C  C99  1  0.23698000  0.65336000  0.10076000  1.0
  C  C100  1  0.15372000  0.11421000  0.56012000  1.0
  C  C101  1  0.65372000  0.38579000  0.93988000  1.0
  C  C102  1  0.84627000  0.88579000  0.43988000  1.0
  C  C103  1  0.34628000  0.61422000  0.06012000  1.0
  C  C104  1  0.17691000  0.03164000  0.53620000  1.0
  C  C105  1  0.67691000  0.46836000  0.96380000  1.0
  C  C106  1  0.82308000  0.96836000  0.46380000  1.0
  C  C107  1  0.32309000  0.53164000  0.03620000  1.0
  C  C108  1  0.31496000  0.99115000  0.54964000  1.0
  C  C109  1  0.81497000  0.50885000  0.95036000  1.0
  C  C110  1  0.68502000  0.00885000  0.45036000  1.0
  C  C111  1  0.18503000  0.49115000  0.04964000  1.0
  C  C112  1  0.42446000  0.03087000  0.59035000  1.0
  C  C113  1  0.92446000  0.46912000  0.90964000  1.0
  C  C114  1  0.57553000  0.96913000  0.40965000  1.0
  C  C115  1  0.07553000  0.53088000  0.09036000  1.0
  C  C116  1  0.57133000  0.39832000  0.78362000  1.0
  C  C117  1  0.07134000  0.10167000  0.71638000  1.0
  C  C118  1  0.42868000  0.60168000  0.21638000  1.0
  C  C119  1  0.92865000  0.89833000  0.28361000  1.0
  C  C120  1  0.56977000  0.48963000  0.80128000  1.0
  C  C121  1  0.06977000  0.01037000  0.69871000  1.0
  C  C122  1  0.43024000  0.51037000  0.19872000  1.0
  C  C123  1  0.93024000  0.98963000  0.30129000  1.0
  C  C124  1  0.45428000  0.52470000  0.84235000  1.0
  C  C125  1  0.95428000  0.97530000  0.65765000  1.0
  C  C126  1  0.54572000  0.47530000  0.15765000  1.0
  C  C127  1  0.04572000  0.02470000  0.34235000  1.0
  C  C128  1  0.44935000  0.60994000  0.85599000  1.0
  C  C129  1  0.94935000  0.89006000  0.64402000  1.0
  C  C130  1  0.55065000  0.39006000  0.14402000  1.0
  C  C131  1  0.05066000  0.10994000  0.35598000  1.0
  C  C132  1  0.55791000  0.66084000  0.82764000  1.0
  C  C133  1  0.05792000  0.83915000  0.67236000  1.0
  C  C134  1  0.44209000  0.33916000  0.17236000  1.0
  C  C135  1  0.94210000  0.16085000  0.32765000  1.0
  C  C136  1  0.67623000  0.62543000  0.78753000  1.0
  C  C137  1  0.17624000  0.87456000  0.71247000  1.0
  C  C138  1  0.32377000  0.37457000  0.21247000  1.0
  C  C139  1  0.82377000  0.12544000  0.28754000  1.0
  C  C140  1  0.68201000  0.54044000  0.77511000  1.0
  C  C141  1  0.18202000  0.95956000  0.72488000  1.0
  C  C142  1  0.31800000  0.45956000  0.22489000  1.0
  C  C143  1  0.81799000  0.04045000  0.27512000  1.0
  C  C144  1  0.58378000  0.14126000  0.82405000  1.0
  C  C145  1  0.08376000  0.35874000  0.67594000  1.0
  C  C146  1  0.41624000  0.85874000  0.17594000  1.0
  C  C147  1  0.91623000  0.64126000  0.32406000  1.0
  C  C148  1  0.59820000  0.04938000  0.82751000  1.0
  C  C149  1  0.09818000  0.45061000  0.67249000  1.0
  C  C150  1  0.40181000  0.95062000  0.17249000  1.0
  C  C151  1  0.90181000  0.54938000  0.32751000  1.0
  C  C152  1  0.48435000  0.00327000  0.85773000  1.0
  C  C153  1  0.98434000  0.49673000  0.64227000  1.0
  C  C154  1  0.51566000  0.99673000  0.14227000  1.0
  C  C155  1  0.01566000  0.50327000  0.35773000  1.0
  C  C156  1  0.49243000  0.91758000  0.85546000  1.0
  C  C157  1  0.99242000  0.58242000  0.64454000  1.0
  C  C158  1  0.50757000  0.08242000  0.14454000  1.0
  C  C159  1  0.00758000  0.41758000  0.35546000  1.0
  C  C160  1  0.61585000  0.87663000  0.82207000  1.0
  C  C161  1  0.11584000  0.62337000  0.67794000  1.0
  C  C162  1  0.38415000  0.12337000  0.17794000  1.0
  C  C163  1  0.88416000  0.37663000  0.32207000  1.0
  C  C164  1  0.73022000  0.92267000  0.79261000  1.0
  C  C165  1  0.23020000  0.57732000  0.70739000  1.0
  C  C166  1  0.26979000  0.07733000  0.20739000  1.0
  C  C167  1  0.76980000  0.42267000  0.29261000  1.0
  C  C168  1  0.72131000  0.00827000  0.79538000  1.0
  C  C169  1  0.22129000  0.49172000  0.70462000  1.0
  C  C170  1  0.27870000  0.99173000  0.20462000  1.0
  C  C171  1  0.77870000  0.50828000  0.29538000  1.0
  C  C172  1  0.65063000  0.33962000  0.58230000  1.0
  C  C173  1  0.15064000  0.16036000  0.91770000  1.0
  C  C174  1  0.34936000  0.66038000  0.41770000  1.0
  C  C175  1  0.84937000  0.83962000  0.08231000  1.0
  C  C176  1  0.53179000  0.40221000  0.60658000  1.0
  C  C177  1  0.03181000  0.09778000  0.89342000  1.0
  C  C178  1  0.46820000  0.59779000  0.39342000  1.0
  C  C179  1  0.96819000  0.90222000  0.10658000  1.0
  C  C180  1  0.70974000  0.41959000  0.48608000  1.0
  C  C181  1  0.20976000  0.08041000  0.01392000  1.0
  C  C182  1  0.29026000  0.58041000  0.51392000  1.0
  C  C183  1  0.79024000  0.91959000  0.98608000  1.0
  C  C184  1  0.83330000  0.28456000  0.50048000  1.0
  C  C185  1  0.33333333  0.21544000  0.99951000  1.0
  C  C186  1  0.16669000  0.71544000  0.49952000  1.0
  C  C187  1  0.66666667  0.78455000  0.00049000  1.0
  N  N188  1  0.06689000  0.98432000  0.49938000  1.0
  N  N189  1  0.56689000  0.51568000  0.00062000  1.0
  N  N190  1  0.93310000  0.01568000  0.50062000  1.0
  N  N191  1  0.43310000  0.48432000  0.99938000  1.0
  N  N192  1  0.53670000  0.74689000  0.84052000  1.0
  N  N193  1  0.03670000  0.75310000  0.65949000  1.0
  N  N194  1  0.46330000  0.25310000  0.15948000  1.0
  N  N195  1  0.96331000  0.24690000  0.34052000  1.0
  N  N196  1  0.63556000  0.79044000  0.81289000  1.0
  N  N197  1  0.13556000  0.70955000  0.68712000  1.0
  N  N198  1  0.36444000  0.20956000  0.18711000  1.0
  N  N199  1  0.86444000  0.29045000  0.31289000  1.0
  N  N200  1  0.72566000  0.34847000  0.52527000  1.0
  N  N201  1  0.22567000  0.15153000  0.97472000  1.0
  N  N202  1  0.27434000  0.65153000  0.47473000  1.0
  N  N203  1  0.77434000  0.84847000  0.02527000  1.0
  O  O204  1  0.64662000  0.12747000  0.66467000  1.0
  O  O205  1  0.14662000  0.37252000  0.83533000  1.0
  O  O206  1  0.35337000  0.87253000  0.33533000  1.0
  O  O207  1  0.85338000  0.62748000  0.16467000  1.0
  O  O208  1  0.68384000  0.36877000  0.74977000  1.0
  O  O209  1  0.18385000  0.13123000  0.75022000  1.0
  O  O210  1  0.31616000  0.63124000  0.25023000  1.0
  O  O211  1  0.81616000  0.86877000  0.24978000  1.0
  O  O212  1  0.45573000  0.17433000  0.83968000  1.0
  O  O213  1  0.95572000  0.32566000  0.66031000  1.0
  O  O214  1  0.54427000  0.82567000  0.16031000  1.0
  O  O215  1  0.04428000  0.67434000  0.33969000  1.0
  O  O216  1  0.70094000  0.17978000  0.80440000  1.0
  O  O217  1  0.20092000  0.32021000  0.69560000  1.0
  O  O218  1  0.29906000  0.82021000  0.19560000  1.0
  O  O219  1  0.79906000  0.67978000  0.30440000  1.0
  O  O220  1  0.45842000  0.35661000  0.80254000  1.0
  O  O221  1  0.95842000  0.14339000  0.69746000  1.0
  O  O222  1  0.54158000  0.64339000  0.19746000  1.0
  O  O223  1  0.04159000  0.85661000  0.30254000  1.0
  O  O224  1  0.46426000  0.21359000  0.70430000  1.0
  O  O225  1  0.96426000  0.28641000  0.79569000  1.0
  O  O226  1  0.53573000  0.78641000  0.29569000  1.0
  O  O227  1  0.03574000  0.71360000  0.20431000  1.0
  O  O228  1  0.67843000  0.27833000  0.61473000  1.0
  O  O229  1  0.17844000  0.22166000  0.88526000  1.0
  O  O230  1  0.32156000  0.72166000  0.38528000  1.0
  O  O231  1  0.82158000  0.77834000  0.11473000  1.0
