# generated using pymatgen
data_NiH24C30(NO)4
_symmetry_space_group_name_H-M   'P 1'
_cell_length_a   11.17760000
_cell_length_b   11.33150000
_cell_length_c   12.62830000
_cell_angle_alpha   98.07010000
_cell_angle_beta   90.64330000
_cell_angle_gamma   67.28500000
_symmetry_Int_Tables_number   1
_chemical_formula_structural   NiH24C30(NO)4
_chemical_formula_sum   'Ni2 H48 C60 N8 O8'
_cell_volume   1459.19683233
_cell_formula_units_Z   2
loop_
 _symmetry_equiv_pos_site_id
 _symmetry_equiv_pos_as_xyz
  1  'x, y, z'
loop_
 _atom_site_type_symbol
 _atom_site_label
 _atom_site_symmetry_multiplicity
 _atom_site_fract_x
 _atom_site_fract_y
 _atom_site_fract_z
 _atom_site_occupancy
  Ni  Ni0  1  0.78695000  0.53742000  0.78732000  1.0
  Ni  Ni1  1  0.21305000  0.46258000  0.21268000  1.0
  H  H2  1  0.04651000  0.57673000  0.53068000  1.0
  H  H3  1  0.95348000  0.42327000  0.46934000  1.0
  H  H4  1  0.55336000  0.90751000  0.89440000  1.0
  H  H5  1  0.44664000  0.09250000  0.10559000  1.0
  H  H6  1  0.46184000  0.24953000  0.04698000  1.0
  H  H7  1  0.53817000  0.75047000  0.95301000  1.0
  H  H8  1  0.73003000  0.73862000  0.63794000  1.0
  H  H9  1  0.26998000  0.26137000  0.36205000  1.0
  H  H10  1  0.57497000  0.42675000  0.58996000  1.0
  H  H11  1  0.42503000  0.57326000  0.41005000  1.0
  H  H12  1  0.25147000  0.57093000  0.45592000  1.0
  H  H13  1  0.74852000  0.42908000  0.54410000  1.0
  H  H14  1  0.24424000  0.39571000  0.79469000  1.0
  H  H15  1  0.75576000  0.60427000  0.20532000  1.0
  H  H16  1  0.65368000  0.77239000  0.45759000  1.0
  H  H17  1  0.34632000  0.22761000  0.54240000  1.0
  H  H18  1  0.45740000  0.63833000  0.79034000  1.0
  H  H19  1  0.54259000  0.36168000  0.20967000  1.0
  H  H20  1  0.54566000  0.40390000  0.99285000  1.0
  H  H21  1  0.45435000  0.59610000  0.00714000  1.0
  H  H22  1  0.86722000  0.78951000  0.80422000  1.0
  H  H23  1  0.13277000  0.21050000  0.19579000  1.0
  H  H24  1  0.45218000  0.39128000  0.72221000  1.0
  H  H25  1  0.54783000  0.60870000  0.27780000  1.0
  H  H26  1  0.66147000  0.97470000  0.77053000  1.0
  H  H27  1  0.33852000  0.02530000  0.22946000  1.0
  H  H28  1  0.77868000  0.04479000  0.07123000  1.0
  H  H29  1  0.22131000  0.95522000  0.92876000  1.0
  H  H30  1  0.73716000  0.13714000  0.71201000  1.0
  H  H31  1  0.26283000  0.86286000  0.28797000  1.0
  H  H32  1  0.32462000  0.83514000  0.67269000  1.0
  H  H33  1  0.67539000  0.16486000  0.32731000  1.0
  H  H34  1  0.62452000  0.95094000  0.23706000  1.0
  H  H35  1  0.37548000  0.04905000  0.76293000  1.0
  H  H36  1  0.71356000  0.80661000  0.29051000  1.0
  H  H37  1  0.28644000  0.19339000  0.70949000  1.0
  H  H38  1  0.75853000  0.94068000  0.31680000  1.0
  H  H39  1  0.24147000  0.05932000  0.68319000  1.0
  H  H40  1  0.91064000  0.75771000  0.13432000  1.0
  H  H41  1  0.08937000  0.24229000  0.86567000  1.0
  H  H42  1  0.81041000  0.58193000  0.03709000  1.0
  H  H43  1  0.18959000  0.41808000  0.96291000  1.0
  H  H44  1  0.87670000  0.28023000  0.19160000  1.0
  H  H45  1  0.12330000  0.71977000  0.80840000  1.0
  H  H46  1  0.74088000  0.26542000  0.12576000  1.0
  H  H47  1  0.25911000  0.73458000  0.87424000  1.0
  H  H48  1  0.83708000  0.33321000  0.06566000  1.0
  H  H49  1  0.16292000  0.66680000  0.93434000  1.0
  C  C50  1  0.70151000  0.37399000  0.82067000  1.0
  C  C51  1  0.29850000  0.62600000  0.17932000  1.0
  C  C52  1  0.00722000  0.48973000  0.70927000  1.0
  C  C53  1  0.99278000  0.51027000  0.29075000  1.0
  C  C54  1  0.13579000  0.53674000  0.57234000  1.0
  C  C55  1  0.86421000  0.46326000  0.42768000  1.0
  C  C56  1  0.65002000  0.27929000  0.85033000  1.0
  C  C57  1  0.34998000  0.72071000  0.14966000  1.0
  C  C58  1  0.50433000  0.91253000  0.56755000  1.0
  C  C59  1  0.49567000  0.08746000  0.43245000  1.0
  C  C60  1  0.58625000  0.95942000  0.40634000  1.0
  C  C61  1  0.41375000  0.04057000  0.59365000  1.0
  C  C62  1  0.52766000  0.99656000  0.95150000  1.0
  C  C63  1  0.47234000  0.00345000  0.04849000  1.0
  C  C64  1  0.36776000  0.48145000  0.58422000  1.0
  C  C65  1  0.63223000  0.51855000  0.41579000  1.0
  C  C66  1  0.52578000  0.22137000  0.97548000  1.0
  C  C67  1  0.47422000  0.77863000  0.02451000  1.0
  C  C68  1  0.95146000  0.90456000  0.98625000  1.0
  C  C69  1  0.04854000  0.09544000  0.01374000  1.0
  C  C70  1  0.63848000  0.73905000  0.66563000  1.0
  C  C71  1  0.36152000  0.26095000  0.33437000  1.0
  C  C72  1  0.49142000  0.47520000  0.54372000  1.0
  C  C73  1  0.50857000  0.52481000  0.45629000  1.0
  C  C74  1  0.56161000  0.09682000  0.91586000  1.0
  C  C75  1  0.43839000  0.90318000  0.08414000  1.0
  C  C76  1  0.25130000  0.53407000  0.53110000  1.0
  C  C77  1  0.74870000  0.46594000  0.46891000  1.0
  C  C78  1  0.24718000  0.43382000  0.72066000  1.0
  C  C79  1  0.75282000  0.56617000  0.27935000  1.0
  C  C80  1  0.58791000  0.87362000  0.47637000  1.0
  C  C81  1  0.41209000  0.12637000  0.52363000  1.0
  C  C82  1  0.49405000  0.69109000  0.74330000  1.0
  C  C83  1  0.50595000  0.30892000  0.25670000  1.0
  C  C84  1  0.13228000  0.48552000  0.66682000  1.0
  C  C85  1  0.86772000  0.51447000  0.33319000  1.0
  C  C86  1  0.57124000  0.30957000  0.94426000  1.0
  C  C87  1  0.42877000  0.69042000  0.05573000  1.0
  C  C88  1  0.86141000  0.75796000  0.88031000  1.0
  C  C89  1  0.13858000  0.24205000  0.11969000  1.0
  C  C90  1  0.36299000  0.43233000  0.68020000  1.0
  C  C91  1  0.63701000  0.56766000  0.31981000  1.0
  C  C92  1  0.63614000  0.06931000  0.81925000  1.0
  C  C93  1  0.36386000  0.93070000  0.18074000  1.0
  C  C94  1  0.87654000  0.02633000  0.04167000  1.0
  C  C95  1  0.12346000  0.97367000  0.95832000  1.0
  C  C96  1  0.92304000  0.12545000  0.05677000  1.0
  C  C97  1  0.07696000  0.87456000  0.94323000  1.0
  C  C98  1  0.67904000  0.15910000  0.78638000  1.0
  C  C99  1  0.32096000  0.84089000  0.21360000  1.0
  C  C100  1  0.42695000  0.78907000  0.68611000  1.0
  C  C101  1  0.57305000  0.21093000  0.31389000  1.0
  C  C102  1  0.67487000  0.91233000  0.30746000  1.0
  C  C103  1  0.32513000  0.08766000  0.69253000  1.0
  C  C104  1  0.88134000  0.74194000  0.05339000  1.0
  C  C105  1  0.11867000  0.25806000  0.94661000  1.0
  C  C106  1  0.83362000  0.65426000  0.00440000  1.0
  C  C107  1  0.16637000  0.34574000  0.99560000  1.0
  C  C108  1  0.84050000  0.25784000  0.11316000  1.0
  C  C109  1  0.15949000  0.74216000  0.88684000  1.0
  N  N110  1  0.52004000  0.81890000  0.63684000  1.0
  N  N111  1  0.47996000  0.18109000  0.36316000  1.0
  N  N112  1  0.89839000  0.80729000  0.97374000  1.0
  N  N113  1  0.10160000  0.19271000  0.02625000  1.0
  N  N114  1  0.62540000  0.66155000  0.73023000  1.0
  N  N115  1  0.37460000  0.33845000  0.26977000  1.0
  N  N116  1  0.82124000  0.66571000  0.89709000  1.0
  N  N117  1  0.17875000  0.33430000  0.10291000  1.0
  O  O118  1  0.74750000  0.36382000  0.72626000  1.0
  O  O119  1  0.25250000  0.63619000  0.27374000  1.0
  O  O120  1  0.69930000  0.46726000  0.89277000  1.0
  O  O121  1  0.30071000  0.53274000  0.10721000  1.0
  O  O122  1  0.00267000  0.42266000  0.78068000  1.0
  O  O123  1  0.99733000  0.57734000  0.21934000  1.0
  O  O124  1  0.90133000  0.56688000  0.67419000  1.0
  O  O125  1  0.09867000  0.43311000  0.32582000  1.0
