# generated using pymatgen
data_ZnH18C14(NO)4
_symmetry_space_group_name_H-M   'P 1'
_cell_length_a   8.98030000
_cell_length_b   13.31600000
_cell_length_c   16.49548370
_cell_angle_alpha   85.08101084
_cell_angle_beta   75.29721190
_cell_angle_gamma   70.28660000
_symmetry_Int_Tables_number   1
_chemical_formula_structural   ZnH18C14(NO)4
_chemical_formula_sum   'Zn4 H72 C56 N16 O16'
_cell_volume   1796.14421031
_cell_formula_units_Z   4
loop_
 _symmetry_equiv_pos_site_id
 _symmetry_equiv_pos_as_xyz
  1  'x, y, z'
loop_
 _atom_site_type_symbol
 _atom_site_label
 _atom_site_symmetry_multiplicity
 _atom_site_fract_x
 _atom_site_fract_y
 _atom_site_fract_z
 _atom_site_occupancy
  Zn  Zn0  1  0.78972000  0.92777000  0.42792000  1.0
  Zn  Zn1  1  0.21794000  0.07239000  0.92794000  1.0
  Zn  Zn2  1  0.85786000  0.39540000  0.50478000  1.0
  Zn  Zn3  1  0.75400000  0.60459000  0.00477000  1.0
  H  H4  1  0.44622000  0.23879000  0.32436000  1.0
  H  H5  1  0.18557000  0.76144000  0.82429000  1.0
  H  H6  1  0.62841000  0.26694000  0.28058000  1.0
  H  H7  1  0.39582000  0.73342000  0.78034000  1.0
  H  H8  1  0.43765000  0.37274000  0.41677000  1.0
  H  H9  1  0.31163000  0.62745000  0.91650000  1.0
  H  H10  1  0.49207000  0.25046000  0.47025000  1.0
  H  H11  1  0.24340000  0.74963000  0.97006000  1.0
  H  H12  1  0.66138000  0.81121000  0.70252000  1.0
  H  H13  1  0.97254000  0.18863000  0.20257000  1.0
  H  H14  1  0.54519000  0.78350000  0.64314000  1.0
  H  H15  1  0.82882000  0.21648000  0.14306000  1.0
  H  H16  1  0.67285000  0.62551000  0.72837000  1.0
  H  H17  1  0.79850000  0.37437000  0.22843000  1.0
  H  H18  1  0.86819000  0.62553000  0.67374000  1.0
  H  H19  1  0.99400000  0.37418000  0.17390000  1.0
  H  H20  1  0.90369000  0.85683000  0.23083000  1.0
  H  H21  1  0.26046000  0.14312000  0.73083000  1.0
  H  H22  1  0.84480000  0.67657000  0.18560000  1.0
  H  H23  1  0.02101000  0.32322000  0.68560000  1.0
  H  H24  1  0.68032000  0.71954000  0.44813000  1.0
  H  H25  1  0.89999000  0.28037000  0.94817000  1.0
  H  H26  1  0.03508000  0.33233000  0.31523000  1.0
  H  H27  1  0.86781000  0.66766000  0.81503000  1.0
  H  H28  1  0.22786000  0.44553000  0.21467000  1.0
  H  H29  1  0.17345000  0.55401000  0.71439000  1.0
  H  H30  1  0.01594000  0.58998000  0.45468000  1.0
  H  H31  1  0.10619000  0.40993000  0.95458000  1.0
  H  H32  1  0.64815000  0.56648000  0.39042000  1.0
  H  H33  1  0.71441000  0.43325000  0.89050000  1.0
  H  H34  1  0.75366000  0.52491000  0.28555000  1.0
  H  H35  1  0.77833000  0.47496000  0.78565000  1.0
  H  H36  1  0.43847000  0.71564000  0.32876000  1.0
  H  H37  1  0.65423000  0.28412000  0.82871000  1.0
  H  H38  1  0.53535000  0.65378000  0.22925000  1.0
  H  H39  1  0.68931000  0.34602000  0.72919000  1.0
  H  H40  1  0.39579000  0.54190000  0.38618000  1.0
  H  H41  1  0.43754000  0.45777000  0.88607000  1.0
  H  H42  1  0.47237000  0.48846000  0.28348000  1.0
  H  H43  1  0.46071000  0.51124000  0.78336000  1.0
  H  H44  1  0.17038000  0.68668000  0.34002000  1.0
  H  H45  1  0.35717000  0.31293000  0.83986000  1.0
  H  H46  1  0.24403000  0.63367000  0.23706000  1.0
  H  H47  1  0.37788000  0.36598000  0.73690000  1.0
  H  H48  1  0.14956000  0.79673000  0.46062000  1.0
  H  H49  1  0.44668000  0.20336000  0.96084000  1.0
  H  H50  1  0.39374000  0.89375000  0.41886000  1.0
  H  H51  1  0.78793000  0.10621000  0.91924000  1.0
  H  H52  1  0.96003000  0.10360000  0.36159000  1.0
  H  H53  1  0.56404000  0.89669000  0.86150000  1.0
  H  H54  1  0.99386000  0.74374000  0.02330000  1.0
  H  H55  1  0.23714000  0.25657000  0.52310000  1.0
  H  H56  1  0.84946000  0.95237000  0.08399000  1.0
  H  H57  1  0.30183000  0.04803000  0.58405000  1.0
  H  H58  1  0.48402000  0.82896000  0.06194000  1.0
  H  H59  1  0.81311000  0.17076000  0.56174000  1.0
  H  H60  1  0.19163000  0.17761000  0.37612000  1.0
  H  H61  1  0.86967000  0.82248000  0.87630000  1.0
  H  H62  1  0.38432000  0.08171000  0.37677000  1.0
  H  H63  1  0.96651000  0.91837000  0.87694000  1.0
  H  H64  1  0.21501000  0.12308000  0.23052000  1.0
  H  H65  1  0.83836000  0.87711000  0.73073000  1.0
  H  H66  1  0.37015000  0.17324000  0.23655000  1.0
  H  H67  1  0.04372000  0.82683000  0.73671000  1.0
  H  H68  1  0.40884000  0.93531000  0.23059000  1.0
  H  H69  1  0.84464000  0.06482000  0.73076000  1.0
  H  H70  1  0.56260000  0.98614000  0.24104000  1.0
  H  H71  1  0.04932000  0.01389000  0.74110000  1.0
  H  H72  1  0.40005000  0.03063000  0.09253000  1.0
  H  H73  1  0.93078000  0.96946000  0.59274000  1.0
  H  H74  1  0.55182000  0.08180000  0.10399000  1.0
  H  H75  1  0.13386000  0.91826000  0.60406000  1.0
  C  C76  1  0.66171000  0.11483000  0.34040000  1.0
  C  C77  1  0.27700000  0.88551000  0.84019000  1.0
  C  C78  1  0.56424000  0.23316000  0.33584000  1.0
  C  C79  1  0.29801000  0.76715000  0.83566000  1.0
  C  C80  1  0.53399000  0.29509000  0.41498000  1.0
  C  C81  1  0.33003000  0.70517000  0.91476000  1.0
  C  C82  1  0.68503000  0.31397000  0.42681000  1.0
  C  C83  1  0.49993000  0.68644000  0.92659000  1.0
  C  C84  1  0.76838000  0.80050000  0.57036000  1.0
  C  C85  1  0.06926000  0.19945000  0.07045000  1.0
  C  C86  1  0.67091000  0.76298000  0.64928000  1.0
  C  C87  1  0.93400000  0.23692000  0.14931000  1.0
  C  C88  1  0.74252000  0.64536000  0.66766000  1.0
  C  C89  1  0.88811000  0.35448000  0.16774000  1.0
  C  C90  1  0.74725000  0.57155000  0.60110000  1.0
  C  C91  1  0.81934000  0.42836000  0.10111000  1.0
  C  C92  1  0.85049000  0.80120000  0.26858000  1.0
  C  C93  1  0.15160000  0.19870000  0.76858000  1.0
  C  C94  1  0.82154000  0.71400000  0.24542000  1.0
  C  C95  1  0.03531000  0.28581000  0.74542000  1.0
  C  C96  1  0.73013000  0.73659000  0.38304000  1.0
  C  C97  1  0.96676000  0.26333000  0.88308000  1.0
  C  C98  1  0.06517000  0.40026000  0.32894000  1.0
  C  C99  1  0.96576000  0.59967000  0.82876000  1.0
  C  C100  1  0.15751000  0.45618000  0.27916000  1.0
  C  C101  1  0.11385000  0.54355000  0.77894000  1.0
  C  C102  1  0.04922000  0.53261000  0.40442000  1.0
  C  C103  1  0.08206000  0.46727000  0.90429000  1.0
  C  C104  1  0.66877000  0.59283000  0.32475000  1.0
  C  C105  1  0.76142000  0.40699000  0.82481000  1.0
  C  C106  1  0.50863000  0.63842000  0.29719000  1.0
  C  C107  1  0.64710000  0.36136000  0.79713000  1.0
  C  C108  1  0.40883000  0.56329000  0.31932000  1.0
  C  C109  1  0.47209000  0.43640000  0.81920000  1.0
  C  C110  1  0.23863000  0.61318000  0.30348000  1.0
  C  C111  1  0.35189000  0.38645000  0.80332000  1.0
  C  C112  1  0.15041000  0.87261000  0.43110000  1.0
  C  C113  1  0.52344000  0.12751000  0.93127000  1.0
  C  C114  1  0.26952000  0.91999000  0.41182000  1.0
  C  C115  1  0.68994000  0.08004000  0.91212000  1.0
  C  C116  1  0.04439000  0.03096000  0.38080000  1.0
  C  C117  1  0.57577000  0.96926000  0.88083000  1.0
  C  C118  1  0.86636000  0.79188000  0.04114000  1.0
  C  C119  1  0.15799000  0.20831000  0.54095000  1.0
  C  C120  1  0.79720000  0.89485000  0.07075000  1.0
  C  C121  1  0.19202000  0.10539000  0.57073000  1.0
  C  C122  1  0.60401000  0.83200000  0.06026000  1.0
  C  C123  1  0.93601000  0.16793000  0.56012000  1.0
  C  C124  1  0.27776000  0.10079000  0.35012000  1.0
  C  C125  1  0.87900000  0.89932000  0.85030000  1.0
  C  C126  1  0.32478000  0.10540000  0.25470000  1.0
  C  C127  1  0.93056000  0.89471000  0.75487000  1.0
  C  C128  1  0.45452000  0.00345000  0.21556000  1.0
  C  C129  1  0.95845000  0.99663000  0.71568000  1.0
  C  C130  1  0.50417000  0.01507000  0.12078000  1.0
  C  C131  1  0.01949000  0.98501000  0.62088000  1.0
  N  N132  1  0.79309000  0.81414000  0.35444000  1.0
  N  N133  1  0.10736000  0.18583000  0.85446000  1.0
  N  N134  1  0.74577000  0.67456000  0.31855000  1.0
  N  N135  1  0.92021000  0.32529000  0.81858000  1.0
  N  N136  1  0.99847000  0.44865000  0.40677000  1.0
  N  N137  1  0.94750000  0.55136000  0.90665000  1.0
  N  N138  1  0.14555000  0.53960000  0.32760000  1.0
  N  N139  1  0.18525000  0.46008000  0.82740000  1.0
  N  N140  1  0.01099000  0.94284000  0.41136000  1.0
  N  N141  1  0.45427000  0.05738000  0.91138000  1.0
  N  N142  1  0.19987000  0.01995000  0.38049000  1.0
  N  N143  1  0.72024000  0.98017000  0.88067000  1.0
  N  N144  1  0.74450000  0.75363000  0.03486000  1.0
  N  N145  1  0.99791000  0.24636000  0.53462000  1.0
  N  N146  1  0.63104000  0.91876000  0.08237000  1.0
  N  N147  1  0.04991000  0.08132000  0.58236000  1.0
  O  O148  1  0.64281000  0.07405000  0.41562000  1.0
  O  O149  1  0.21719000  0.92622000  0.91542000  1.0
  O  O150  1  0.74764000  0.06370000  0.27545000  1.0
  O  O151  1  0.31194000  0.93662000  0.77524000  1.0
  O  O152  1  0.65968000  0.37280000  0.49104000  1.0
  O  O153  1  0.53341000  0.62749000  0.99079000  1.0
  O  O154  1  0.82116000  0.27411000  0.37731000  1.0
  O  O155  1  0.59609000  0.72641000  0.87715000  1.0
  O  O156  1  0.68921000  0.89234000  0.54248000  1.0
  O  O157  1  0.08223000  0.10757000  0.04255000  1.0
  O  O158  1  0.91205000  0.74594000  0.53653000  1.0
  O  O159  1  0.15834000  0.25406000  0.03670000  1.0
  O  O160  1  0.83517000  0.47207000  0.60767000  1.0
  O  O161  1  0.80814000  0.52777000  0.10761000  1.0
  O  O162  1  0.67338000  0.60481000  0.54409000  1.0
  O  O163  1  0.77861000  0.39522000  0.04410000  1.0
