# generated using pymatgen
data_Ag2H19C25S(N2O3)2
_symmetry_space_group_name_H-M   'P 1'
_cell_length_a   9.70849000
_cell_length_b   10.43890000
_cell_length_c   12.84120000
_cell_angle_alpha   79.64400000
_cell_angle_beta   82.13170000
_cell_angle_gamma   68.66960000
_symmetry_Int_Tables_number   1
_chemical_formula_structural   Ag2H19C25S(N2O3)2
_chemical_formula_sum   'Ag4 H38 C50 S2 N8 O12'
_cell_volume   1188.87083463
_cell_formula_units_Z   2
loop_
 _symmetry_equiv_pos_site_id
 _symmetry_equiv_pos_as_xyz
  1  'x, y, z'
loop_
 _atom_site_type_symbol
 _atom_site_label
 _atom_site_symmetry_multiplicity
 _atom_site_fract_x
 _atom_site_fract_y
 _atom_site_fract_z
 _atom_site_occupancy
  Ag  Ag0  1  0.09257000  0.51154000  0.59405000  1.0
  Ag  Ag1  1  0.90742000  0.48846000  0.40595000  1.0
  Ag  Ag2  1  0.93005000  0.34379000  0.15142000  1.0
  Ag  Ag3  1  0.06995000  0.65621000  0.84858000  1.0
  H  H4  1  0.46243000  0.49907000  0.35419000  1.0
  H  H5  1  0.53757000  0.50093000  0.64581000  1.0
  H  H6  1  0.10233000  0.82490000  0.12344000  1.0
  H  H7  1  0.89767000  0.17510000  0.87656000  1.0
  H  H8  1  0.10756000  0.91589000  0.93194000  1.0
  H  H9  1  0.89244000  0.08411000  0.06806000  1.0
  H  H10  1  0.34199000  0.84148000  0.81683000  1.0
  H  H11  1  0.65801000  0.15853000  0.18317000  1.0
  H  H12  1  0.57408000  0.67473000  0.89546000  1.0
  H  H13  1  0.42592000  0.32528000  0.10454000  1.0
  H  H14  1  0.11174000  0.30485000  0.93071000  1.0
  H  H15  1  0.88826000  0.69515000  0.06929000  1.0
  H  H16  1  0.16271000  0.06384000  0.22691000  1.0
  H  H17  1  0.83730000  0.93616000  0.77309000  1.0
  H  H18  1  0.42096000  0.92812000  0.17770000  1.0
  H  H19  1  0.57904000  0.07188000  0.82229000  1.0
  H  H20  1  0.36643000  0.17067000  0.86511000  1.0
  H  H21  1  0.63357000  0.82933000  0.13489000  1.0
  H  H22  1  0.16073000  0.20374000  0.67992000  1.0
  H  H23  1  0.83927000  0.79625000  0.32008000  1.0
  H  H24  1  0.37331000  0.98251000  0.68446000  1.0
  H  H25  1  0.62669000  0.01749000  0.31554000  1.0
  H  H26  1  0.64659000  0.22066000  0.52476000  1.0
  H  H27  1  0.35341000  0.77934000  0.47524000  1.0
  H  H28  1  0.42102000  0.42865000  0.52627000  1.0
  H  H29  1  0.57898000  0.57135000  0.47373000  1.0
  H  H30  1  0.76328000  0.59624000  0.67284000  1.0
  H  H31  1  0.23672000  0.40376000  0.32717000  1.0
  H  H32  1  0.54242000  0.80791000  0.67587000  1.0
  H  H33  1  0.45757000  0.19209000  0.32414000  1.0
  H  H34  1  0.82550000  0.04331000  0.53570000  1.0
  H  H35  1  0.17450000  0.95669000  0.46429000  1.0
  H  H36  1  0.03456000  0.81800000  0.53568000  1.0
  H  H37  1  0.96544000  0.18199000  0.46432000  1.0
  H  H38  1  0.15343000  0.49128000  0.07852000  1.0
  H  H39  1  0.84657000  0.50872000  0.92149000  1.0
  H  H40  1  0.07790000  0.55477000  0.18558000  1.0
  H  H41  1  0.92210000  0.44523000  0.81442000  1.0
  C  C42  1  0.46247000  0.54299000  0.27076000  1.0
  C  C43  1  0.53754000  0.45701000  0.72924000  1.0
  C  C44  1  0.33686000  0.64015000  0.23098000  1.0
  C  C45  1  0.66314000  0.35985000  0.76902000  1.0
  C  C46  1  0.33452000  0.69649000  0.11924000  1.0
  C  C47  1  0.66548000  0.30351000  0.88076000  1.0
  C  C48  1  0.20530000  0.79166000  0.07336000  1.0
  C  C49  1  0.79470000  0.20834000  0.92664000  1.0
  C  C50  1  0.20864000  0.84294000  0.96596000  1.0
  C  C51  1  0.79136000  0.15706000  0.03404000  1.0
  C  C52  1  0.34141000  0.80175000  0.90127000  1.0
  C  C53  1  0.65859000  0.19825000  0.09873000  1.0
  C  C54  1  0.46973000  0.70848000  0.94430000  1.0
  C  C55  1  0.53027000  0.29153000  0.05570000  1.0
  C  C56  1  0.46877000  0.65401000  0.05272000  1.0
  C  C57  1  0.53123000  0.34599000  0.94728000  1.0
  C  C58  1  0.60734000  0.55405000  0.09491000  1.0
  C  C59  1  0.39266000  0.44595000  0.90508000  1.0
  C  C60  1  0.59770000  0.49763000  0.20665000  1.0
  C  C61  1  0.40230000  0.50237000  0.79335000  1.0
  C  C62  1  0.18432000  0.21876000  0.98212000  1.0
  C  C63  1  0.81568000  0.78124000  0.01787000  1.0
  C  C64  1  0.21335000  0.08791000  0.14840000  1.0
  C  C65  1  0.78664000  0.91209000  0.85160000  1.0
  C  C66  1  0.35908000  0.01057000  0.11920000  1.0
  C  C67  1  0.64092000  0.98941000  0.88080000  1.0
  C  C68  1  0.42189000  0.03850000  0.01648000  1.0
  C  C69  1  0.57811000  0.96149000  0.98351000  1.0
  C  C70  1  0.32802000  0.14346000  0.94688000  1.0
  C  C71  1  0.67198000  0.85653000  0.05313000  1.0
  C  C72  1  0.27122000  0.20092000  0.64669000  1.0
  C  C73  1  0.72878000  0.79908000  0.35331000  1.0
  C  C74  1  0.39191000  0.07797000  0.64850000  1.0
  C  C75  1  0.60809000  0.92202000  0.35150000  1.0
  C  C76  1  0.53259000  0.07829000  0.60434000  1.0
  C  C77  1  0.46741000  0.92171000  0.39566000  1.0
  C  C78  1  0.54310000  0.20795000  0.56010000  1.0
  C  C79  1  0.45690000  0.79205000  0.43990000  1.0
  C  C80  1  0.41716000  0.32675000  0.56090000  1.0
  C  C81  1  0.58284000  0.67325000  0.43910000  1.0
  C  C82  1  0.77163000  0.69775000  0.64315000  1.0
  C  C83  1  0.22837000  0.30225000  0.35686000  1.0
  C  C84  1  0.64833000  0.81818000  0.64432000  1.0
  C  C85  1  0.35167000  0.18182000  0.35568000  1.0
  C  C86  1  0.66203000  0.94779000  0.60433000  1.0
  C  C87  1  0.33797000  0.05221000  0.39567000  1.0
  C  C88  1  0.80453000  0.94729000  0.56504000  1.0
  C  C89  1  0.19547000  0.05272000  0.43495000  1.0
  C  C90  1  0.92292000  0.82243000  0.56620000  1.0
  C  C91  1  0.07708000  0.17757000  0.43380000  1.0
  S  S92  1  0.17726000  0.69642000  0.32164000  1.0
  S  S93  1  0.82274000  0.30359000  0.67836000  1.0
  N  N94  1  0.72242000  0.39988000  0.24761000  1.0
  N  N95  1  0.27759000  0.60012000  0.75238000  1.0
  N  N96  1  0.12719000  0.19314000  0.08238000  1.0
  N  N97  1  0.87281000  0.80686000  0.91762000  1.0
  N  N98  1  0.28293000  0.32444000  0.60301000  1.0
  N  N99  1  0.71707000  0.67555000  0.39699000  1.0
  N  N100  1  0.90726000  0.69899000  0.60425000  1.0
  N  N101  1  0.09274000  0.30101000  0.39575000  1.0
  O  O102  1  0.22500000  0.62214000  0.42635000  1.0
  O  O103  1  0.77500000  0.37786000  0.57365000  1.0
  O  O104  1  0.13077000  0.84764000  0.31417000  1.0
  O  O105  1  0.86923000  0.15236000  0.68583000  1.0
  O  O106  1  0.06415000  0.65292000  0.28512000  1.0
  O  O107  1  0.93585000  0.34709000  0.71488000  1.0
  O  O108  1  0.71414000  0.34743000  0.34503000  1.0
  O  O109  1  0.28587000  0.65257000  0.65497000  1.0
  O  O110  1  0.72726000  0.52006000  0.03682000  1.0
  O  O111  1  0.27274000  0.47994000  0.96317000  1.0
  O  O112  1  0.06748000  0.50321000  0.13146000  1.0
  O  O113  1  0.93251000  0.49679000  0.86854000  1.0
