# generated using pymatgen
data_NiH42C24(NO2)4
_symmetry_space_group_name_H-M   'P 1'
_cell_length_a   7.97048000
_cell_length_b   8.47031000
_cell_length_c   10.97420000
_cell_angle_alpha   77.43070000
_cell_angle_beta   85.91600000
_cell_angle_gamma   67.86550000
_symmetry_Int_Tables_number   1
_chemical_formula_structural   NiH42C24(NO2)4
_chemical_formula_sum   'Ni1 H42 C24 N4 O8'
_cell_volume   669.79683556
_cell_formula_units_Z   1
loop_
 _symmetry_equiv_pos_site_id
 _symmetry_equiv_pos_as_xyz
  1  'x, y, z'
loop_
 _atom_site_type_symbol
 _atom_site_label
 _atom_site_symmetry_multiplicity
 _atom_site_fract_x
 _atom_site_fract_y
 _atom_site_fract_z
 _atom_site_occupancy
  Ni  Ni0  1  0.00000000  0.00000000  0.00000000  1.0
  H  H1  1  0.97957000  0.21330000  0.13073000  1.0
  H  H2  1  0.02044000  0.78670000  0.86927000  1.0
  H  H3  1  0.10747000  0.88047000  0.40608000  1.0
  H  H4  1  0.89254000  0.11953000  0.59392000  1.0
  H  H5  1  0.92100000  0.03109000  0.31370000  1.0
  H  H6  1  0.07901000  0.96890000  0.68630000  1.0
  H  H7  1  0.17045000  0.69263000  0.23743000  1.0
  H  H8  1  0.82955000  0.30736000  0.76257000  1.0
  H  H9  1  0.02930000  0.61332000  0.08424000  1.0
  H  H10  1  0.97070000  0.38668000  0.91576000  1.0
  H  H11  1  0.81776000  0.64217000  0.15958000  1.0
  H  H12  1  0.18224000  0.35783000  0.84042000  1.0
  H  H13  1  0.33725000  0.10778000  0.01405000  1.0
  H  H14  1  0.66274000  0.89222000  0.98595000  1.0
  H  H15  1  0.22923000  0.30590000  0.06575000  1.0
  H  H16  1  0.77077000  0.69410000  0.93425000  1.0
  H  H17  1  0.37827000  0.80155000  0.16752000  1.0
  H  H18  1  0.62174000  0.19845000  0.83248000  1.0
  H  H19  1  0.42339000  0.81238000  0.32160000  1.0
  H  H20  1  0.57661000  0.18762000  0.67840000  1.0
  H  H21  1  0.46801000  0.95622000  0.19285000  1.0
  H  H22  1  0.53199000  0.04378000  0.80715000  1.0
  H  H23  1  0.27453000  0.22309000  0.26908000  1.0
  H  H24  1  0.72546000  0.77691000  0.73092000  1.0
  H  H25  1  0.25288000  0.08115000  0.40789000  1.0
  H  H26  1  0.74712000  0.91885000  0.59211000  1.0
  H  H27  1  0.05459000  0.24409000  0.32893000  1.0
  H  H28  1  0.94541000  0.75590000  0.67108000  1.0
  H  H29  1  0.59740000  0.51905000  0.87474000  1.0
  H  H30  1  0.40260000  0.48095000  0.12526000  1.0
  H  H31  1  0.82610000  0.76208000  0.39656000  1.0
  H  H32  1  0.17390000  0.23792000  0.60344000  1.0
  H  H33  1  0.04876000  0.62595000  0.45110000  1.0
  H  H34  1  0.95125000  0.37404000  0.54890000  1.0
  H  H35  1  0.94258000  0.56661000  0.34116000  1.0
  H  H36  1  0.05742000  0.43338000  0.65883000  1.0
  H  H37  1  0.79807000  0.93408000  0.16958000  1.0
  H  H38  1  0.20193000  0.06593000  0.83042000  1.0
  H  H39  1  0.43571000  0.76748000  0.71399000  1.0
  H  H40  1  0.56429000  0.23252000  0.28601000  1.0
  H  H41  1  0.34558000  0.42978000  0.52973000  1.0
  H  H42  1  0.65442000  0.57022000  0.47027000  1.0
  C  C43  1  0.36497000  0.74030000  0.92374000  1.0
  C  C44  1  0.63503000  0.25970000  0.07625000  1.0
  C  C45  1  0.05713000  0.93098000  0.30905000  1.0
  C  C46  1  0.94287000  0.06902000  0.69095000  1.0
  C  C47  1  0.18295000  0.02116000  0.23975000  1.0
  C  C48  1  0.81704000  0.97884000  0.76026000  1.0
  C  C49  1  0.03711000  0.77974000  0.26342000  1.0
  C  C50  1  0.96289000  0.22026000  0.73658000  1.0
  C  C51  1  0.89459000  0.71051000  0.09717000  1.0
  C  C52  1  0.10541000  0.28949000  0.90283000  1.0
  C  C53  1  0.20443000  0.20614000  0.02796000  1.0
  C  C54  1  0.79557000  0.79386000  0.97204000  1.0
  C  C55  1  0.37449000  0.88974000  0.22821000  1.0
  C  C56  1  0.62551000  0.11026000  0.77179000  1.0
  C  C57  1  0.19103000  0.15088000  0.31568000  1.0
  C  C58  1  0.80897000  0.84912000  0.68432000  1.0
  C  C59  1  0.49795000  0.55769000  0.94693000  1.0
  C  C60  1  0.50204000  0.44232000  0.05307000  1.0
  C  C61  1  0.95924000  0.67690000  0.36869000  1.0
  C  C62  1  0.04076000  0.32309000  0.63131000  1.0
  C  C63  1  0.42868000  0.50403000  0.53733000  1.0
  C  C64  1  0.57132000  0.49597000  0.46267000  1.0
  C  C65  1  0.37717000  0.60701000  0.63656000  1.0
  C  C66  1  0.62283000  0.39299000  0.36344000  1.0
  N  N67  1  0.09958000  0.11874000  0.11360000  1.0
  N  N68  1  0.90042000  0.88126000  0.88640000  1.0
  N  N69  1  0.92199000  0.84573000  0.14925000  1.0
  N  N70  1  0.07801000  0.15427000  0.85075000  1.0
  O  O71  1  0.24312000  0.78215000  0.00453000  1.0
  O  O72  1  0.75688000  0.21786000  0.99547000  1.0
  O  O73  1  0.38303000  0.84558000  0.82459000  1.0
  O  O74  1  0.61698000  0.15443000  0.17541000  1.0
  O  O75  1  0.47008000  0.70868000  0.63592000  1.0
  O  O76  1  0.52991000  0.29133000  0.36408000  1.0
  O  O77  1  0.25828000  0.59442000  0.71303000  1.0
  O  O78  1  0.74172000  0.40558000  0.28697000  1.0
