# generated using pymatgen
data_ZnH18C23N6(ClO2)2
_symmetry_space_group_name_H-M   'P 1'
_cell_length_a   9.92069000
_cell_length_b   10.90140000
_cell_length_c   15.25120000
_cell_angle_alpha   69.82050000
_cell_angle_beta   81.26580000
_cell_angle_gamma   72.71570000
_symmetry_Int_Tables_number   1
_chemical_formula_structural   ZnH18C23N6(ClO2)2
_chemical_formula_sum   'Zn2 H36 C46 N12 Cl4 O8'
_cell_volume   1476.00685568
_cell_formula_units_Z   2
loop_
 _symmetry_equiv_pos_site_id
 _symmetry_equiv_pos_as_xyz
  1  'x, y, z'
loop_
 _atom_site_type_symbol
 _atom_site_label
 _atom_site_symmetry_multiplicity
 _atom_site_fract_x
 _atom_site_fract_y
 _atom_site_fract_z
 _atom_site_occupancy
  Zn  Zn0  1  0.63107000  0.31327000  0.39245000  1.0
  Zn  Zn1  1  0.36894000  0.68673000  0.60755000  1.0
  H  H2  1  0.68316000  0.50761000  0.49347000  1.0
  H  H3  1  0.31684000  0.49239000  0.50653000  1.0
  H  H4  1  0.74755000  0.52280000  0.21049000  1.0
  H  H5  1  0.25246000  0.47720000  0.78951000  1.0
  H  H6  1  0.81888000  0.74235000  0.22921000  1.0
  H  H7  1  0.18113000  0.25765000  0.77078000  1.0
  H  H8  1  0.69733000  0.74130000  0.47759000  1.0
  H  H9  1  0.30267000  0.25871000  0.52241000  1.0
  H  H10  1  0.75021000  0.84551000  0.36848000  1.0
  H  H11  1  0.24979000  0.15449000  0.63152000  1.0
  H  H12  1  0.00427000  0.70494000  0.39127000  1.0
  H  H13  1  0.99573000  0.29507000  0.60873000  1.0
  H  H14  1  0.95016000  0.59700000  0.49844000  1.0
  H  H15  1  0.04983000  0.40300000  0.50156000  1.0
  H  H16  1  0.87346000  0.78311000  0.56695000  1.0
  H  H17  1  0.12654000  0.21689000  0.43305000  1.0
  H  H18  1  0.05391000  0.76093000  0.52317000  1.0
  H  H19  1  0.94609000  0.23907000  0.47684000  1.0
  H  H20  1  0.71659000  0.00989000  0.51890000  1.0
  H  H21  1  0.28341000  0.99011000  0.48110000  1.0
  H  H22  1  0.91660000  0.20424000  0.26621000  1.0
  H  H23  1  0.08340000  0.79576000  0.73379000  1.0
  H  H24  1  0.07772000  0.93497000  0.33861000  1.0
  H  H25  1  0.92229000  0.06503000  0.66140000  1.0
  H  H26  1  0.00799000  0.51944000  0.15855000  1.0
  H  H27  1  0.99201000  0.48055000  0.84145000  1.0
  H  H28  1  0.33529000  0.39713000  0.96206000  1.0
  H  H29  1  0.66471000  0.60287000  0.03794000  1.0
  H  H30  1  0.51745000  0.35454000  0.07496000  1.0
  H  H31  1  0.48255000  0.64547000  0.92504000  1.0
  H  H32  1  0.49987000  0.92417000  0.86210000  1.0
  H  H33  1  0.50013000  0.07582000  0.13790000  1.0
  H  H34  1  0.57244000  0.28179000  0.88555000  1.0
  H  H35  1  0.42756000  0.71820000  0.11445000  1.0
  H  H36  1  0.63098000  0.35966000  0.71286000  1.0
  H  H37  1  0.36901000  0.64034000  0.28714000  1.0
  C  C38  1  0.70924000  0.54026000  0.41897000  1.0
  C  C39  1  0.29077000  0.45975000  0.58103000  1.0
  C  C40  1  0.74659000  0.55232000  0.27158000  1.0
  C  C41  1  0.25341000  0.44768000  0.72842000  1.0
  C  C42  1  0.78062000  0.66073000  0.28010000  1.0
  C  C43  1  0.21938000  0.33927000  0.71990000  1.0
  C  C44  1  0.77617000  0.74264000  0.41857000  1.0
  C  C45  1  0.22383000  0.25736000  0.58142000  1.0
  C  C46  1  0.92609000  0.70167000  0.45084000  1.0
  C  C47  1  0.07390000  0.29833000  0.54916000  1.0
  C  C48  1  0.94427000  0.79109000  0.50364000  1.0
  C  C49  1  0.05573000  0.20891000  0.49637000  1.0
  C  C50  1  0.79182000  0.02833000  0.45943000  1.0
  C  C51  1  0.20818000  0.97167000  0.54057000  1.0
  C  C52  1  0.89947000  0.12411000  0.32931000  1.0
  C  C53  1  0.10053000  0.87589000  0.67069000  1.0
  C  C54  1  0.97929000  0.99237000  0.36336000  1.0
  C  C55  1  0.02072000  0.00763000  0.63664000  1.0
  C  C56  1  0.36687000  0.40897000  0.18004000  1.0
  C  C57  1  0.63313000  0.59103000  0.81996000  1.0
  C  C58  1  0.22140000  0.45707000  0.20239000  1.0
  C  C59  1  0.77861000  0.54293000  0.79762000  1.0
  C  C60  1  0.11956000  0.48148000  0.14088000  1.0
  C  C61  1  0.88044000  0.51851000  0.85913000  1.0
  C  C62  1  0.16069000  0.45818000  0.05444000  1.0
  C  C63  1  0.83931000  0.54181000  0.94557000  1.0
  C  C64  1  0.30458000  0.41204000  0.03010000  1.0
  C  C65  1  0.69542000  0.58797000  0.96990000  1.0
  C  C66  1  0.40488000  0.38867000  0.09247000  1.0
  C  C67  1  0.59512000  0.61133000  0.90753000  1.0
  C  C68  1  0.48543000  0.37837000  0.24179000  1.0
  C  C69  1  0.51457000  0.62162000  0.75821000  1.0
  C  C70  1  0.59248000  0.19002000  0.68957000  1.0
  C  C71  1  0.40751000  0.80999000  0.31043000  1.0
  C  C72  1  0.55350000  0.06764000  0.73270000  1.0
  C  C73  1  0.44650000  0.93236000  0.26730000  1.0
  C  C74  1  0.52560000  0.02082000  0.82867000  1.0
  C  C75  1  0.47440000  0.97917000  0.17133000  1.0
  C  C76  1  0.53332000  0.09854000  0.88368000  1.0
  C  C77  1  0.46667000  0.90146000  0.11632000  1.0
  C  C78  1  0.56813000  0.22249000  0.84177000  1.0
  C  C79  1  0.43186000  0.77751000  0.15824000  1.0
  C  C80  1  0.59933000  0.26579000  0.74603000  1.0
  C  C81  1  0.40067000  0.73421000  0.25397000  1.0
  C  C82  1  0.63695000  0.24169000  0.58778000  1.0
  C  C83  1  0.36304000  0.75831000  0.41222000  1.0
  N  N84  1  0.75562000  0.65169000  0.37357000  1.0
  N  N85  1  0.24438000  0.34831000  0.62643000  1.0
  N  N86  1  0.70245000  0.47773000  0.35906000  1.0
  N  N87  1  0.29756000  0.52228000  0.64094000  1.0
  N  N88  1  0.90926000  0.93378000  0.44589000  1.0
  N  N89  1  0.09074000  0.06622000  0.55411000  1.0
  N  N90  1  0.78310000  0.14504000  0.39015000  1.0
  N  N91  1  0.21690000  0.85496000  0.60985000  1.0
  N  N92  1  0.06462000  0.48015000  0.98765000  1.0
  N  N93  1  0.93538000  0.51985000  0.01235000  1.0
  N  N94  1  0.50973000  0.05869000  0.98168000  1.0
  N  N95  1  0.49027000  0.94130000  0.01832000  1.0
  Cl  Cl96  1  0.16006000  0.49548000  0.30555000  1.0
  Cl  Cl97  1  0.83994000  0.50452000  0.69445000  1.0
  Cl  Cl98  1  0.54578000  0.96473000  0.66890000  1.0
  Cl  Cl99  1  0.45422000  0.03527000  0.33110000  1.0
  O  O100  1  0.45561000  0.34445000  0.33131000  1.0
  O  O101  1  0.54439000  0.65554000  0.66869000  1.0
  O  O102  1  0.60575000  0.38495000  0.20459000  1.0
  O  O103  1  0.39426000  0.61505000  0.79541000  1.0
  O  O104  1  0.55322000  0.25344000  0.52667000  1.0
  O  O105  1  0.44678000  0.74655000  0.47333000  1.0
  O  O106  1  0.75263000  0.27203000  0.56956000  1.0
  O  O107  1  0.24736000  0.72798000  0.43045000  1.0
