# generated using pymatgen
data_ZnPH10C6N3O5
_symmetry_space_group_name_H-M   'P 1'
_cell_length_a   8.41767000
_cell_length_b   8.51860000
_cell_length_c   16.63500000
_cell_angle_alpha   98.02970000
_cell_angle_beta   89.99980000
_cell_angle_gamma   119.60900000
_symmetry_Int_Tables_number   1
_chemical_formula_structural   ZnPH10C6N3O5
_chemical_formula_sum   'Zn4 P4 H40 C24 N12 O20'
_cell_volume   1023.60489119
_cell_formula_units_Z   4
loop_
 _symmetry_equiv_pos_site_id
 _symmetry_equiv_pos_as_xyz
  1  'x, y, z'
loop_
 _atom_site_type_symbol
 _atom_site_label
 _atom_site_symmetry_multiplicity
 _atom_site_fract_x
 _atom_site_fract_y
 _atom_site_fract_z
 _atom_site_occupancy
  Zn  Zn0  1  0.87545000  0.75040000  0.93300000  1.0
  Zn  Zn1  1  0.12504000  0.24959000  0.56700000  1.0
  Zn  Zn2  1  0.12456000  0.24960000  0.06700000  1.0
  Zn  Zn3  1  0.87496000  0.75041000  0.43300000  1.0
  P  P4  1  0.79364000  0.88325000  0.10989000  1.0
  P  P5  1  0.91038000  0.11676000  0.39011000  1.0
  P  P6  1  0.20637000  0.11675000  0.89011000  1.0
  P  P7  1  0.08961000  0.88324000  0.60989000  1.0
  H  H8  1  0.78262000  0.75521000  0.15843000  1.0
  H  H9  1  0.02741000  0.24479000  0.34158000  1.0
  H  H10  1  0.21738000  0.24479000  0.84158000  1.0
  H  H11  1  0.97259000  0.75520000  0.65842000  1.0
  H  H12  1  0.44551000  0.14029000  0.68684000  1.0
  H  H13  1  0.30522000  0.85971000  0.81316000  1.0
  H  H14  1  0.55449000  0.85971000  0.31316000  1.0
  H  H15  1  0.69478000  0.14029000  0.18684000  1.0
  H  H16  1  0.67111000  0.28945000  0.72257000  1.0
  H  H17  1  0.38166000  0.71055000  0.77743000  1.0
  H  H18  1  0.32889000  0.71055000  0.27743000  1.0
  H  H19  1  0.61834000  0.28945000  0.22257000  1.0
  H  H20  1  0.49587000  0.20575000  0.78657000  1.0
  H  H21  1  0.29012000  0.79425000  0.71343000  1.0
  H  H22  1  0.50413000  0.79425000  0.21343000  1.0
  H  H23  1  0.70989000  0.20575000  0.28657000  1.0
  H  H24  1  0.35273000  0.35364000  0.72528000  1.0
  H  H25  1  0.99908000  0.64634000  0.77472000  1.0
  H  H26  1  0.64727000  0.64635000  0.27472000  1.0
  H  H27  1  0.00092000  0.35366000  0.22528000  1.0
  H  H28  1  0.72706000  0.58271000  0.66208000  1.0
  H  H29  1  0.14434000  0.41729000  0.83793000  1.0
  H  H30  1  0.27294000  0.41729000  0.33792000  1.0
  H  H31  1  0.85566000  0.58271000  0.16207000  1.0
  H  H32  1  0.52494000  0.59304000  0.64765000  1.0
  H  H33  1  0.93189000  0.40696000  0.85235000  1.0
  H  H34  1  0.47506000  0.40696000  0.35235000  1.0
  H  H35  1  0.06811000  0.59304000  0.14765000  1.0
  H  H36  1  0.26482000  0.08188000  0.41901000  1.0
  H  H37  1  0.18295000  0.91813000  0.08099000  1.0
  H  H38  1  0.73517000  0.91812000  0.58099000  1.0
  H  H39  1  0.81705000  0.08187000  0.91901000  1.0
  H  H40  1  0.60046000  0.13829000  0.42257000  1.0
  H  H41  1  0.46218000  0.86172000  0.07743000  1.0
  H  H42  1  0.39953000  0.86171000  0.57743000  1.0
  H  H43  1  0.53782000  0.13828000  0.92257000  1.0
  H  H44  1  0.79122000  0.36159000  0.54497000  1.0
  H  H45  1  0.42962000  0.63841000  0.95503000  1.0
  H  H46  1  0.20878000  0.63841000  0.45503000  1.0
  H  H47  1  0.57037000  0.36159000  0.04497000  1.0
  C  C48  1  0.59316000  0.55634000  0.80325000  1.0
  C  C49  1  0.03683000  0.44366000  0.69675000  1.0
  C  C50  1  0.40684000  0.44366000  0.19674000  1.0
  C  C51  1  0.96318000  0.55634000  0.30325000  1.0
  C  C52  1  0.50163000  0.40856000  0.72777000  1.0
  C  C53  1  0.09306000  0.59144000  0.77223000  1.0
  C  C54  1  0.49837000  0.59144000  0.27223000  1.0
  C  C55  1  0.90694000  0.40856000  0.22777000  1.0
  C  C56  1  0.57731000  0.49909000  0.65174000  1.0
  C  C57  1  0.07821000  0.50091000  0.84827000  1.0
  C  C58  1  0.42269000  0.50091000  0.34826000  1.0
  C  C59  1  0.92179000  0.49909000  0.15174000  1.0
  C  C60  1  0.53427000  0.37105000  0.57384000  1.0
  C  C61  1  0.16321000  0.62894000  0.92616000  1.0
  C  C62  1  0.46572000  0.62894000  0.42615000  1.0
  C  C63  1  0.83679000  0.37106000  0.07384000  1.0
  C  C64  1  0.37623000  0.17420000  0.46474000  1.0
  C  C65  1  0.20203000  0.82580000  0.03526000  1.0
  C  C66  1  0.62376000  0.82579000  0.53526000  1.0
  C  C67  1  0.79797000  0.17420000  0.96474000  1.0
  C  C68  1  0.64918000  0.32242000  0.53258000  1.0
  C  C69  1  0.32676000  0.67758000  0.96742000  1.0
  C  C70  1  0.35081000  0.67758000  0.46742000  1.0
  C  C71  1  0.67323000  0.32242000  0.03258000  1.0
  N  N72  1  0.53412000  0.25343000  0.73123000  1.0
  N  N73  1  0.28068000  0.74657000  0.76877000  1.0
  N  N74  1  0.46589000  0.74657000  0.26877000  1.0
  N  N75  1  0.71932000  0.25343000  0.23123000  1.0
  N  N76  1  0.36367000  0.27764000  0.53022000  1.0
  N  N77  1  0.08603000  0.72237000  0.96979000  1.0
  N  N78  1  0.63633000  0.72236000  0.46978000  1.0
  N  N79  1  0.91397000  0.27763000  0.03022000  1.0
  N  N80  1  0.54733000  0.19945000  0.46485000  1.0
  N  N81  1  0.34788000  0.80055000  0.03515000  1.0
  N  N82  1  0.45266000  0.80054000  0.53515000  1.0
  N  N83  1  0.65212000  0.19945000  0.96485000  1.0
  O  O84  1  0.73974000  0.78410000  0.02133000  1.0
  O  O85  1  0.95563000  0.21590000  0.47867000  1.0
  O  O86  1  0.26027000  0.21590000  0.97867000  1.0
  O  O87  1  0.04437000  0.78410000  0.52133000  1.0
  O  O88  1  0.99308000  0.03937000  0.12641000  1.0
  O  O89  1  0.95371000  0.96064000  0.37359000  1.0
  O  O90  1  0.00693000  0.96064000  0.87359000  1.0
  O  O91  1  0.04629000  0.03936000  0.62640000  1.0
  O  O92  1  0.64927000  0.93450000  0.14032000  1.0
  O  O93  1  0.71477000  0.06551000  0.35967000  1.0
  O  O94  1  0.35073000  0.06550000  0.85967000  1.0
  O  O95  1  0.28523000  0.93449000  0.64033000  1.0
  O  O96  1  0.55497000  0.68172000  0.81525000  1.0
  O  O97  1  0.87326000  0.31828000  0.68474000  1.0
  O  O98  1  0.44502000  0.31829000  0.18474000  1.0
  O  O99  1  0.12674000  0.68172000  0.31526000  1.0
  O  O100  1  0.71023000  0.54225000  0.84724000  1.0
  O  O101  1  0.16799000  0.45775000  0.65277000  1.0
  O  O102  1  0.28977000  0.45776000  0.15275000  1.0
  O  O103  1  0.83201000  0.54226000  0.34723000  1.0
