# generated using pymatgen
data_AlH8C14NClO6
_symmetry_space_group_name_H-M   'P 1'
_cell_length_a   6.63376000
_cell_length_b   15.24330000
_cell_length_c   17.03360000
_cell_angle_alpha   86.25730000
_cell_angle_beta   81.41850000
_cell_angle_gamma   77.73110000
_symmetry_Int_Tables_number   1
_chemical_formula_structural   AlH8C14NClO6
_chemical_formula_sum   'Al2 H16 C28 N2 Cl2 O12'
_cell_volume   1663.25788506
_cell_formula_units_Z   2
loop_
 _symmetry_equiv_pos_site_id
 _symmetry_equiv_pos_as_xyz
  1  'x, y, z'
loop_
 _atom_site_type_symbol
 _atom_site_label
 _atom_site_symmetry_multiplicity
 _atom_site_fract_x
 _atom_site_fract_y
 _atom_site_fract_z
 _atom_site_occupancy
  Al  Al0  1  0.50000000  0.50000000  0.50000000  1.0
  Al  Al1  1  0.00001000  0.50000000  0.50000000  1.0
  H  H2  1  0.20322000  0.61171000  0.47138000  1.0
  H  H3  1  0.79676000  0.38829000  0.52860000  1.0
  H  H4  1  0.83178000  0.52901000  0.74135000  1.0
  H  H5  1  0.77515000  0.53366000  0.88968000  1.0
  H  H6  1  0.43976000  0.46058000  0.89041000  1.0
  H  H7  1  0.56021000  0.53943000  0.10959000  1.0
  H  H8  1  0.22483000  0.46634000  0.11031000  1.0
  H  H9  1  0.16821000  0.47099000  0.25864000  1.0
  H  H10  1  0.21111000  0.05964000  0.43274000  1.0
  H  H11  1  0.78922000  0.94034000  0.56709000  1.0
  H  H12  1  0.33479000  0.76673000  0.46826000  1.0
  H  H13  1  0.25510000  0.93048000  0.45208000  1.0
  H  H14  1  0.66500000  0.23328000  0.53189000  1.0
  H  H15  1  0.74460000  0.06953000  0.54812000  1.0
  H  H16  1  0.53222000  0.45864000  0.67957000  1.0
  H  H17  1  0.46778000  0.54138000  0.32042000  1.0
  C  C18  1  0.65825000  0.65949000  0.52022000  1.0
  C  C19  1  0.80920000  0.50851000  0.35510000  1.0
  C  C20  1  0.34177000  0.34050000  0.47978000  1.0
  C  C21  1  0.19079000  0.49150000  0.64489000  1.0
  C  C22  1  0.16570000  0.49412000  0.73190000  1.0
  C  C23  1  0.96322000  0.51531000  0.77478000  1.0
  C  C24  1  0.93087000  0.51718000  0.85655000  1.0
  C  C25  1  0.10508000  0.49646000  0.89809000  1.0
  C  C26  1  0.30724000  0.47618000  0.85734000  1.0
  C  C27  1  0.34043000  0.47497000  0.77413000  1.0
  C  C28  1  0.69274000  0.52384000  0.14266000  1.0
  C  C29  1  0.89489000  0.50354000  0.10191000  1.0
  C  C30  1  0.06911000  0.48282000  0.14344000  1.0
  C  C31  1  0.03677000  0.48469000  0.22521000  1.0
  C  C32  1  0.83427000  0.50589000  0.26810000  1.0
  C  C33  1  0.65956000  0.52504000  0.22587000  1.0
  C  C34  1  0.39072000  0.24060000  0.47738000  1.0
  C  C35  1  0.60931000  0.75940000  0.52262000  1.0
  C  C36  1  0.26590000  0.18921000  0.44881000  1.0
  C  C37  1  0.31132000  0.09578000  0.45691000  1.0
  C  C38  1  0.73424000  0.81078000  0.55113000  1.0
  C  C39  1  0.68887000  0.90421000  0.54301000  1.0
  C  C40  1  0.43472000  0.80591000  0.48900000  1.0
  C  C41  1  0.39086000  0.89882000  0.48002000  1.0
  C  C42  1  0.56517000  0.19409000  0.51108000  1.0
  C  C43  1  0.60897000  0.10118000  0.52009000  1.0
  C  C44  1  0.48009000  0.04960000  0.49441000  1.0
  C  C45  1  0.51991000  0.95040000  0.50560000  1.0
  N  N46  1  0.09210000  0.49430000  0.98182000  1.0
  N  N47  1  0.90788000  0.50571000  0.01817000  1.0
  Cl  Cl48  1  0.05712000  0.23788000  0.39980000  1.0
  Cl  Cl49  1  0.94317000  0.76212000  0.60006000  1.0
  O  O50  1  0.50522000  0.61980000  0.52783000  1.0
  O  O51  1  0.97011000  0.49731000  0.38974000  1.0
  O  O52  1  0.15107000  0.37883000  0.49369000  1.0
  O  O53  1  0.38013000  0.47630000  0.60761000  1.0
  O  O54  1  0.49477000  0.38020000  0.47217000  1.0
  O  O55  1  0.02990000  0.50269000  0.61026000  1.0
  O  O56  1  0.84895000  0.62116000  0.50629000  1.0
  O  O57  1  0.61987000  0.52370000  0.39239000  1.0
  O  O58  1  0.23968000  0.54665000  0.46937000  1.0
  O  O59  1  0.76033000  0.45335000  0.53062000  1.0
  O  O60  1  0.53926000  0.45462000  0.73796000  1.0
  O  O61  1  0.46074000  0.54540000  0.26203000  1.0
