# generated using pymatgen
data_Zn4H9C24S4(NO5)3
_symmetry_space_group_name_H-M   'P 1'
_cell_length_a   19.62120000
_cell_length_b   19.66640000
_cell_length_c   33.36390000
_cell_angle_alpha   79.23540000
_cell_angle_beta   79.37020000
_cell_angle_gamma   64.01570000
_symmetry_Int_Tables_number   1
_chemical_formula_structural   Zn4H9C24S4(NO5)3
_chemical_formula_sum   'Zn16 H36 C96 S16 N12 O60'
_cell_volume   11292.29256630
_cell_formula_units_Z   4
loop_
 _symmetry_equiv_pos_site_id
 _symmetry_equiv_pos_as_xyz
  1  'x, y, z'
loop_
 _atom_site_type_symbol
 _atom_site_label
 _atom_site_symmetry_multiplicity
 _atom_site_fract_x
 _atom_site_fract_y
 _atom_site_fract_z
 _atom_site_occupancy
  Zn  Zn0  1  0.59932000  0.94298000  0.52186000  1.0
  Zn  Zn1  1  0.51617000  0.01727000  0.44011000  1.0
  Zn  Zn2  1  0.44011000  0.93995000  0.51816000  1.0
  Zn  Zn3  1  0.44401000  0.09998000  0.51998000  1.0
  Zn  Zn4  1  0.64964000  0.30574000  0.72894000  1.0
  Zn  Zn5  1  0.81111000  0.30956000  0.73276000  1.0
  Zn  Zn6  1  0.73227000  0.23145000  0.80944000  1.0
  Zn  Zn7  1  0.80616000  0.15158000  0.72759000  1.0
  Zn  Zn8  1  0.23215000  0.73292000  0.31034000  1.0
  Zn  Zn9  1  0.30485000  0.65286000  0.22786000  1.0
  Zn  Zn10  1  0.14948000  0.80793000  0.22878000  1.0
  Zn  Zn11  1  0.31061000  0.80935000  0.23295000  1.0
  Zn  Zn12  1  0.93983000  0.43911000  0.01709000  1.0
  Zn  Zn13  1  0.94385000  0.59930000  0.02095000  1.0
  Zn  Zn14  1  0.09862000  0.44474000  0.02195000  1.0
  Zn  Zn15  1  0.01659000  0.51676000  0.93960000  1.0
  H  H16  1  0.75222000  0.04805000  0.64712000  1.0
  H  H17  1  0.54298000  0.25146000  0.65076000  1.0
  H  H18  1  0.70260000  0.00147000  0.59862000  1.0
  H  H19  1  0.40407000  0.90018000  0.30022000  1.0
  H  H20  1  0.29493000  0.80188000  0.40268000  1.0
  H  H21  1  0.45186000  0.94763000  0.34919000  1.0
  H  H22  1  0.76126000  0.53511000  0.65879000  1.0
  H  H23  1  0.29651000  0.52046000  0.39702000  1.0
  H  H24  1  0.02041000  0.79846000  0.39900000  1.0
  H  H25  1  0.02888000  0.05331000  0.64924000  1.0
  H  H26  1  0.94819000  0.45085000  0.84777000  1.0
  H  H27  1  0.84916000  0.34433000  0.95128000  1.0
  H  H28  1  0.89961000  0.40161000  0.80012000  1.0
  H  H29  1  0.22872000  0.45299000  0.85231000  1.0
  H  H30  1  0.86038000  0.83699000  0.95877000  1.0
  H  H31  1  0.20191000  0.49936000  0.10209000  1.0
  H  H32  1  0.99665000  0.70683000  0.09914000  1.0
  H  H33  1  0.24836000  0.54888000  0.15066000  1.0
  H  H34  1  0.72172000  0.69800000  0.09808000  1.0
  H  H35  1  0.99133000  0.21244000  0.08994000  1.0
  H  H36  1  0.44999000  0.67775000  0.59675000  1.0
  H  H37  1  0.44826000  0.76491000  0.57235000  1.0
  H  H38  1  0.47961000  0.23272000  0.31420000  1.0
  H  H39  1  0.48510000  0.16433000  0.35638000  1.0
  H  H40  1  0.73206000  0.95426000  0.31453000  1.0
  H  H41  1  0.66346000  0.97637000  0.35709000  1.0
  H  H42  1  0.20109000  0.25399000  0.61805000  1.0
  H  H43  1  0.28090000  0.20103000  0.58650000  1.0
  H  H44  1  0.51827000  0.28700000  0.93642000  1.0
  H  H45  1  0.58707000  0.26850000  0.89352000  1.0
  H  H46  1  0.91512000  0.85523000  0.77244000  1.0
  H  H47  1  0.88242000  0.95371000  0.75970000  1.0
  H  H48  1  0.56253000  0.48518000  0.14517000  1.0
  H  H49  1  0.47675000  0.54485000  0.17072000  1.0
  H  H50  1  0.29914000  0.07273000  0.15590000  1.0
  H  H51  1  0.30144000  0.98440000  0.17877000  1.0
  C  C52  1  0.68377000  0.94054000  0.43783000  1.0
  C  C53  1  0.43112000  0.93071000  0.43091000  1.0
  C  C54  1  0.56162000  0.81410000  0.56181000  1.0
  C  C55  1  0.31619000  0.06300000  0.56159000  1.0
  C  C56  1  0.56926000  0.06983000  0.56799000  1.0
  C  C57  1  0.43640000  0.18463000  0.43643000  1.0
  C  C58  1  0.68821000  0.43447000  0.68962000  1.0
  C  C59  1  0.81922000  0.31813000  0.81891000  1.0
  C  C60  1  0.56472000  0.30955000  0.81231000  1.0
  C  C61  1  0.81502000  0.06419000  0.81045000  1.0
  C  C62  1  0.67989000  0.18096000  0.68052000  1.0
  C  C63  1  0.93453000  0.18882000  0.68731000  1.0
  C  C64  1  0.31112000  0.56579000  0.31036000  1.0
  C  C65  1  0.17943000  0.68177000  0.18127000  1.0
  C  C66  1  0.06537000  0.81318000  0.31219000  1.0
  C  C67  1  0.19078000  0.93350000  0.18692000  1.0
  C  C68  1  0.31814000  0.81952000  0.31965000  1.0
  C  C69  1  0.43560000  0.68799000  0.18852000  1.0
  C  C70  1  0.81602000  0.56097000  0.06149000  1.0
  C  C71  1  0.06822000  0.57100000  0.06898000  1.0
  C  C72  1  0.06162000  0.31599000  0.06204000  1.0
  C  C73  1  0.18410000  0.43817000  0.93904000  1.0
  C  C74  1  0.93019000  0.42971000  0.93097000  1.0
  C  C75  1  0.93769000  0.68421000  0.93792000  1.0
  C  C76  1  0.59530000  0.09889000  0.59799000  1.0
  C  C77  1  0.65064000  0.15232000  0.65183000  1.0
  C  C78  1  0.55101000  0.16910000  0.61331000  1.0
  C  C79  1  0.69569000  0.08169000  0.63732000  1.0
  C  C80  1  0.57788000  0.19648000  0.63954000  1.0
  C  C81  1  0.66818000  0.05581000  0.61063000  1.0
  C  C82  1  0.40029000  0.90223000  0.40300000  1.0
  C  C83  1  0.34662000  0.84848000  0.34853000  1.0
  C  C84  1  0.35571000  0.86114000  0.41744000  1.0
  C  C85  1  0.39078000  0.88962000  0.33333333  1.0
  C  C86  1  0.32913000  0.83402000  0.39093000  1.0
  C  C87  1  0.41716000  0.91584000  0.36035000  1.0
  C  C88  1  0.54388000  0.69673000  0.59979000  1.0
  C  C89  1  0.70381000  0.55299000  0.65127000  1.0
  C  C90  1  0.58603000  0.74091000  0.58656000  1.0
  C  C91  1  0.66300000  0.50905000  0.66459000  1.0
  C  C92  1  0.66112000  0.62115000  0.62751000  1.0
  C  C93  1  0.58832000  0.62786000  0.62331000  1.0
  C  C94  1  0.42335000  0.27277000  0.36893000  1.0
  C  C95  1  0.32565000  0.47551000  0.37720000  1.0
  C  C96  1  0.41145000  0.25824000  0.41194000  1.0
  C  C97  1  0.33626000  0.49073000  0.33488000  1.0
  C  C98  1  0.35699000  0.39637000  0.38984000  1.0
  C  C99  1  0.39127000  0.35276000  0.35675000  1.0
  C  C100  1  0.77225000  0.92700000  0.37055000  1.0
  C  C101  1  0.97533000  0.82804000  0.37914000  1.0
  C  C102  1  0.75761000  0.91684000  0.41361000  1.0
  C  C103  1  0.99037000  0.83833000  0.33679000  1.0
  C  C104  1  0.89610000  0.86052000  0.39170000  1.0
  C  C105  1  0.85239000  0.89454000  0.35850000  1.0
  C  C106  1  0.20220000  0.15683000  0.60305000  1.0
  C  C107  1  0.05011000  0.09697000  0.64557000  1.0
  C  C108  1  0.24232000  0.08788000  0.58566000  1.0
  C  C109  1  0.00942000  0.16467000  0.66259000  1.0
  C  C110  1  0.12003000  0.09381000  0.62373000  1.0
  C  C111  1  0.13156000  0.15921000  0.62475000  1.0
  C  C112  1  0.84822000  0.34504000  0.84851000  1.0
  C  C113  1  0.90163000  0.40053000  0.90226000  1.0
  C  C114  1  0.83484000  0.32939000  0.89130000  1.0
  C  C115  1  0.91611000  0.41668000  0.85966000  1.0
  C  C116  1  0.86042000  0.35677000  0.91817000  1.0
  C  C117  1  0.88942000  0.38929000  0.83332000  1.0
  C  C118  1  0.47739000  0.32317000  0.88003000  1.0
  C  C119  1  0.27392000  0.42347000  0.87210000  1.0
  C  C120  1  0.49131000  0.33446000  0.83686000  1.0
  C  C121  1  0.25908000  0.41297000  0.91445000  1.0
  C  C122  1  0.35309000  0.39130000  0.85936000  1.0
  C  C123  1  0.39719000  0.35662000  0.89235000  1.0
  C  C124  1  0.87820000  0.91891000  0.82083000  1.0
  C  C125  1  0.87643000  0.82975000  0.92636000  1.0
  C  C126  1  0.84017000  0.99083000  0.83515000  1.0
  C  C127  1  0.91385000  0.75863000  0.91273000  1.0
  C  C128  1  0.86319000  0.88841000  0.89316000  1.0
  C  C129  1  0.89089000  0.86060000  0.85475000  1.0
  C  C130  1  0.14988000  0.65531000  0.15173000  1.0
  C  C131  1  0.09671000  0.60007000  0.09778000  1.0
  C  C132  1  0.07909000  0.69902000  0.13669000  1.0
  C  C133  1  0.16782000  0.55544000  0.11212000  1.0
  C  C134  1  0.05193000  0.67226000  0.11030000  1.0
  C  C135  1  0.19357000  0.58291000  0.13887000  1.0
  C  C136  1  0.54950000  0.59408000  0.14725000  1.0
  C  C137  1  0.70062000  0.65408000  0.10268000  1.0
  C  C138  1  0.50862000  0.66398000  0.16355000  1.0
  C  C139  1  0.74138000  0.58554000  0.08650000  1.0
  C  C140  1  0.63082000  0.65760000  0.12488000  1.0
  C  C141  1  0.61981000  0.59149000  0.12510000  1.0
  C  C142  1  0.20736000  0.05220000  0.15028000  1.0
  C  C143  1  0.04804000  0.19539000  0.09831000  1.0
  C  C144  1  0.16650000  0.00660000  0.16200000  1.0
  C  C145  1  0.08739000  0.24095000  0.08662000  1.0
  C  C146  1  0.09116000  0.12668000  0.12153000  1.0
  C  C147  1  0.16286000  0.12128000  0.12702000  1.0
  S  S148  1  0.67716000  0.69880000  0.60271000  1.0
  S  S149  1  0.57253000  0.55032000  0.64844000  1.0
  S  S150  1  0.36234000  0.34050000  0.43653000  1.0
  S  S151  1  0.38420000  0.40907000  0.31014000  1.0
  S  S152  1  0.84011000  0.86873000  0.43841000  1.0
  S  S153  1  0.90862000  0.88750000  0.31196000  1.0
  S  S154  1  0.19457000  0.02829000  0.59574000  1.0
  S  S155  1  0.05592000  0.22488000  0.65215000  1.0
  S  S156  1  0.40840000  0.38424000  0.81247000  1.0
  S  S157  1  0.34122000  0.36379000  0.93902000  1.0
  S  S158  1  0.82146000  0.98650000  0.88870000  1.0
  S  S159  1  0.93353000  0.76254000  0.85951000  1.0
  S  S160  1  0.55529000  0.72460000  0.15161000  1.0
  S  S161  1  0.69513000  0.52515000  0.09796000  1.0
  S  S162  1  0.07669000  0.04724000  0.14440000  1.0
  S  S163  1  0.17723000  0.20047000  0.10355000  1.0
  N  N164  1  0.47189000  0.21787000  0.60349000  1.0
  N  N165  1  0.33270000  0.84502000  0.46186000  1.0
  N  N166  1  0.79417000  0.28109000  0.91073000  1.0
  N  N167  1  0.02945000  0.77744000  0.14687000  1.0
  N  N168  1  0.47123000  0.71736000  0.59238000  1.0
  N  N169  1  0.45780000  0.21838000  0.34272000  1.0
  N  N170  1  0.71803000  0.96460000  0.34422000  1.0
  N  N171  1  0.22596000  0.21343000  0.59879000  1.0
  N  N172  1  0.53172000  0.28459000  0.90585000  1.0
  N  N173  1  0.90147000  0.90693000  0.78074000  1.0
  N  N174  1  0.52471000  0.53827000  0.15097000  1.0
  N  N175  1  0.27932000  0.03230000  0.15883000  1.0
  O  O176  1  0.50036000  0.00002000  0.49983000  1.0
  O  O177  1  0.68258000  0.92751000  0.47701000  1.0
  O  O178  1  0.46560000  0.97237000  0.41364000  1.0
  O  O179  1  0.49358000  0.84308000  0.55088000  1.0
  O  O180  1  0.62439000  0.97303000  0.41796000  1.0
  O  O181  1  0.60905000  0.84503000  0.55244000  1.0
  O  O182  1  0.42071000  0.91040000  0.46911000  1.0
  O  O183  1  0.34231000  0.99811000  0.54806000  1.0
  O  O184  1  0.50981000  0.11691000  0.55159000  1.0
  O  O185  1  0.35050000  0.10783000  0.55553000  1.0
  O  O186  1  0.60971000  0.00096000  0.56123000  1.0
  O  O187  1  0.47504000  0.12527000  0.41714000  1.0
  O  O188  1  0.41847000  0.18373000  0.47539000  1.0
  O  O189  1  0.75022000  0.24982000  0.74931000  1.0
  O  O190  1  0.64162000  0.40288000  0.69695000  1.0
  O  O191  1  0.84161000  0.33001000  0.78098000  1.0
  O  O192  1  0.62438000  0.27254000  0.83166000  1.0
  O  O193  1  0.75421000  0.40789000  0.70179000  1.0
  O  O194  1  0.56542000  0.32587000  0.77313000  1.0
  O  O195  1  0.77434000  0.28661000  0.83423000  1.0
  O  O196  1  0.78039000  0.12341000  0.82953000  1.0
  O  O197  1  0.74601000  0.13716000  0.69112000  1.0
  O  O198  1  0.82902000  0.06460000  0.77094000  1.0
  O  O199  1  0.63620000  0.24629000  0.69176000  1.0
  O  O200  1  0.90694000  0.25509000  0.69912000  1.0
  O  O201  1  0.90345000  0.14189000  0.69491000  1.0
  O  O202  1  0.24914000  0.75043000  0.25019000  1.0
  O  O203  1  0.27747000  0.62376000  0.33012000  1.0
  O  O204  1  0.24823000  0.64057000  0.18852000  1.0
  O  O205  1  0.06539000  0.83237000  0.27336000  1.0
  O  O206  1  0.32527000  0.56615000  0.27125000  1.0
  O  O207  1  0.12368000  0.77462000  0.33166000  1.0
  O  O208  1  0.13331000  0.74218000  0.19682000  1.0
  O  O209  1  0.14504000  0.90072000  0.19418000  1.0
  O  O210  1  0.33496000  0.83560000  0.28139000  1.0
  O  O211  1  0.25680000  0.90674000  0.20019000  1.0
  O  O212  1  0.27969000  0.78127000  0.33599000  1.0
  O  O213  1  0.40384000  0.64074000  0.19678000  1.0
  O  O214  1  0.40770000  0.75407000  0.20081000  1.0
  O  O215  1  0.99969000  0.49994000  0.99991000  1.0
  O  O216  1  0.84310000  0.49461000  0.04987000  1.0
  O  O217  1  0.00285000  0.61485000  0.05746000  1.0
  O  O218  1  0.10780000  0.34809000  0.05494000  1.0
  O  O219  1  0.84700000  0.60790000  0.05360000  1.0
  O  O220  1  0.99568000  0.34249000  0.04987000  1.0
  O  O221  1  0.11191000  0.50501000  0.05856000  1.0
  O  O222  1  0.18412000  0.42282000  0.97811000  1.0
  O  O223  1  0.96802000  0.46852000  0.91453000  1.0
  O  O224  1  0.12564000  0.47305000  0.91940000  1.0
  O  O225  1  0.91420000  0.41310000  0.96929000  1.0
  O  O226  1  0.92161000  0.68458000  0.97683000  1.0
  O  O227  1  0.97262000  0.62545000  0.91858000  1.0
  O  O228  1  0.42167000  0.19716000  0.62108000  1.0
  O  O229  1  0.46182000  0.27743000  0.58032000  1.0
  O  O230  1  0.27530000  0.89536000  0.47759000  1.0
  O  O231  1  0.37027000  0.78091000  0.47889000  1.0
  O  O232  1  0.83205000  0.21147000  0.91319000  1.0
  O  O233  1  0.72674000  0.31448000  0.92491000  1.0
  O  O234  1  0.04692000  0.82877000  0.12782000  1.0
  O  O235  1  0.97227000  0.78544000  0.17184000  1.0
