# generated using pymatgen
data_Zn2H36C29N2O9
_symmetry_space_group_name_H-M   'P 1'
_cell_length_a   5.40219000
_cell_length_b   13.47950000
_cell_length_c   21.38672197
_cell_angle_alpha   93.91507821
_cell_angle_beta   95.84558400
_cell_angle_gamma   91.75800000
_symmetry_Int_Tables_number   1
_chemical_formula_structural   Zn2H36C29N2O9
_chemical_formula_sum   'Zn4 H72 C58 N4 O18'
_cell_volume   1544.53067180
_cell_formula_units_Z   2
loop_
 _symmetry_equiv_pos_site_id
 _symmetry_equiv_pos_as_xyz
  1  'x, y, z'
loop_
 _atom_site_type_symbol
 _atom_site_label
 _atom_site_symmetry_multiplicity
 _atom_site_fract_x
 _atom_site_fract_y
 _atom_site_fract_z
 _atom_site_occupancy
  Zn  Zn0  1  0.65088000  0.85923000  0.96845000  1.0
  Zn  Zn1  1  0.34911000  0.14077000  0.03154000  1.0
  Zn  Zn2  1  0.21803000  0.12589000  0.51781000  1.0
  Zn  Zn3  1  0.78199000  0.87411000  0.48220000  1.0
  H  H4  1  0.27900000  0.92633000  0.02065000  1.0
  H  H5  1  0.72100000  0.07367000  0.97934000  1.0
  H  H6  1  0.17971000  0.88959000  0.94819000  1.0
  H  H7  1  0.82030000  0.11040000  0.05180000  1.0
  H  H8  1  0.72362000  0.04155000  0.80334000  1.0
  H  H9  1  0.27638000  0.95845000  0.19666000  1.0
  H  H10  1  0.68597000  0.16382000  0.88986000  1.0
  H  H11  1  0.31400000  0.83618000  0.11013000  1.0
  H  H12  1  0.84760000  0.31347000  0.84279000  1.0
  H  H13  1  0.15234000  0.68654000  0.15721000  1.0
  H  H14  1  0.68583000  0.22551000  0.78598000  1.0
  H  H15  1  0.31413000  0.77449000  0.21401000  1.0
  H  H16  1  0.25168000  0.25657000  0.81443000  1.0
  H  H17  1  0.74828000  0.74345000  0.18557000  1.0
  H  H18  1  0.07088000  0.28728000  0.74516000  1.0
  H  H19  1  0.92906000  0.71272000  0.25483000  1.0
  H  H20  1  0.95724000  0.10957000  0.71628000  1.0
  H  H21  1  0.04275000  0.89043000  0.28371000  1.0
  H  H22  1  0.28349000  0.12578000  0.72772000  1.0
  H  H23  1  0.71650000  0.87423000  0.27227000  1.0
  H  H24  1  0.28838000  0.06342000  0.83574000  1.0
  H  H25  1  0.71161000  0.93659000  0.16425000  1.0
  H  H26  1  0.13187000  0.97631000  0.77902000  1.0
  H  H27  1  0.86811000  0.02370000  0.22097000  1.0
  H  H28  1  0.87737000  0.24958000  0.41881000  1.0
  H  H29  1  0.12264000  0.75042000  0.58119000  1.0
  H  H30  1  0.85494000  0.12302000  0.33230000  1.0
  H  H31  1  0.14508000  0.87698000  0.66771000  1.0
  H  H32  1  0.48166000  0.00886000  0.30414000  1.0
  H  H33  1  0.51837000  0.99114000  0.69587000  1.0
  H  H34  1  0.31523000  0.07947000  0.35716000  1.0
  H  H35  1  0.68480000  0.92053000  0.64285000  1.0
  H  H36  1  0.53432000  0.15318000  0.24052000  1.0
  H  H37  1  0.46569000  0.84682000  0.75948000  1.0
  H  H38  1  0.21511000  0.13194000  0.24738000  1.0
  H  H39  1  0.78491000  0.86805000  0.75263000  1.0
  H  H40  1  0.22744000  0.26733000  0.33314000  1.0
  H  H41  1  0.77257000  0.73267000  0.66686000  1.0
  H  H42  1  0.33709000  0.31257000  0.26491000  1.0
  H  H43  1  0.66291000  0.68742000  0.73509000  1.0
  H  H44  1  0.60617000  0.37290000  0.36472000  1.0
  H  H45  1  0.39383000  0.62710000  0.63528000  1.0
  H  H46  1  0.77654000  0.30068000  0.31244000  1.0
  H  H47  1  0.22346000  0.69932000  0.68756000  1.0
  H  H48  1  0.29110000  0.79259000  0.86358000  1.0
  H  H49  1  0.70891000  0.20741000  0.13642000  1.0
  H  H50  1  0.19694000  0.64212000  0.79037000  1.0
  H  H51  1  0.80306000  0.35787000  0.20963000  1.0
  H  H52  1  0.85611000  0.51378000  0.87854000  1.0
  H  H53  1  0.14390000  0.48622000  0.12146000  1.0
  H  H54  1  0.91855000  0.66871000  0.95076000  1.0
  H  H55  1  0.08147000  0.33130000  0.04923000  1.0
  H  H56  1  0.27500000  0.47937000  0.75932000  1.0
  H  H57  1  0.72501000  0.52062000  0.24069000  1.0
  H  H58  1  0.45683000  0.40795000  0.81138000  1.0
  H  H59  1  0.54318000  0.59204000  0.18863000  1.0
  H  H60  1  0.69101000  0.52532000  0.71286000  1.0
  H  H61  1  0.30897000  0.47468000  0.28714000  1.0
  H  H62  1  0.82256000  0.42931000  0.75645000  1.0
  H  H63  1  0.17744000  0.57069000  0.24355000  1.0
  H  H64  1  0.42579000  0.32117000  0.70636000  1.0
  H  H65  1  0.57420000  0.67882000  0.29364000  1.0
  H  H66  1  0.38305000  0.41457000  0.65343000  1.0
  H  H67  1  0.61695000  0.58543000  0.34657000  1.0
  H  H68  1  0.54571000  0.17880000  0.65889000  1.0
  H  H69  1  0.45429000  0.82120000  0.34111000  1.0
  H  H70  1  0.82137000  0.08765000  0.59140000  1.0
  H  H71  1  0.17865000  0.91235000  0.40860000  1.0
  H  H72  1  0.14796000  0.34909000  0.54197000  1.0
  H  H73  1  0.85205000  0.65090000  0.45803000  1.0
  H  H74  1  0.88201000  0.45347000  0.60860000  1.0
  H  H75  1  0.11799000  0.54653000  0.39140000  1.0
  C  C76  1  0.87834000  0.97553000  0.88328000  1.0
  C  C77  1  0.12167000  0.02448000  0.11672000  1.0
  C  C78  1  0.89060000  0.05688000  0.83762000  1.0
  C  C79  1  0.10938000  0.94313000  0.16237000  1.0
  C  C80  1  0.86297000  0.16234000  0.86831000  1.0
  C  C81  1  0.13700000  0.83767000  0.13168000  1.0
  C  C82  1  0.85671000  0.23922000  0.81871000  1.0
  C  C83  1  0.14324000  0.76078000  0.18128000  1.0
  C  C84  1  0.08482000  0.23380000  0.78190000  1.0
  C  C85  1  0.91515000  0.76620000  0.21810000  1.0
  C  C86  1  0.11453000  0.12880000  0.75251000  1.0
  C  C87  1  0.88546000  0.87121000  0.24749000  1.0
  C  C88  1  0.12135000  0.05151000  0.80164000  1.0
  C  C89  1  0.87864000  0.94850000  0.19836000  1.0
  C  C90  1  0.06197000  0.19119000  0.92374000  1.0
  C  C91  1  0.93800000  0.80882000  0.07626000  1.0
  C  C92  1  0.50842000  0.23182000  0.44487000  1.0
  C  C93  1  0.49160000  0.76818000  0.55514000  1.0
  C  C94  1  0.69220000  0.22701000  0.39440000  1.0
  C  C95  1  0.30782000  0.77299000  0.60561000  1.0
  C  C96  1  0.70718000  0.11940000  0.36442000  1.0
  C  C97  1  0.29284000  0.88060000  0.63558000  1.0
  C  C98  1  0.46293000  0.08446000  0.32549000  1.0
  C  C99  1  0.53709000  0.91553000  0.67451000  1.0
  C  C100  1  0.39340000  0.15592000  0.27451000  1.0
  C  C101  1  0.60662000  0.84407000  0.72550000  1.0
  C  C102  1  0.38021000  0.26269000  0.30279000  1.0
  C  C103  1  0.61979000  0.73730000  0.69721000  1.0
  C  C104  1  0.62304000  0.29764000  0.34266000  1.0
  C  C105  1  0.37696000  0.70235000  0.65734000  1.0
  C  C106  1  0.80265000  0.04716000  0.41211000  1.0
  C  C107  1  0.19738000  0.95284000  0.58790000  1.0
  C  C108  1  0.41211000  0.72928000  0.86541000  1.0
  C  C109  1  0.58789000  0.27071000  0.13459000  1.0
  C  C110  1  0.36130000  0.64508000  0.82464000  1.0
  C  C111  1  0.63870000  0.35491000  0.17536000  1.0
  C  C112  1  0.51964000  0.56496000  0.82764000  1.0
  C  C113  1  0.48036000  0.43504000  0.17236000  1.0
  C  C114  1  0.72713000  0.57404000  0.87303000  1.0
  C  C115  1  0.27288000  0.42596000  0.12697000  1.0
  C  C116  1  0.76586000  0.65993000  0.91311000  1.0
  C  C117  1  0.23415000  0.34007000  0.08689000  1.0
  C  C118  1  0.46302000  0.47380000  0.78373000  1.0
  C  C119  1  0.53698000  0.52620000  0.21627000  1.0
  C  C120  1  0.64682000  0.45565000  0.73396000  1.0
  C  C121  1  0.35319000  0.54435000  0.26605000  1.0
  C  C122  1  0.52641000  0.37794000  0.68317000  1.0
  C  C123  1  0.47359000  0.62206000  0.31683000  1.0
  C  C124  1  0.69511000  0.32453000  0.64166000  1.0
  C  C125  1  0.30488000  0.67547000  0.35834000  1.0
  C  C126  1  0.67965000  0.22057000  0.63516000  1.0
  C  C127  1  0.32036000  0.77943000  0.36484000  1.0
  C  C128  1  0.83319000  0.16865000  0.59758000  1.0
  C  C129  1  0.16682000  0.83135000  0.40242000  1.0
  C  C130  1  0.01422000  0.31592000  0.57025000  1.0
  C  C131  1  0.98579000  0.68408000  0.42975000  1.0
  C  C132  1  0.86544000  0.37246000  0.60725000  1.0
  C  C133  1  0.13456000  0.62753000  0.39275000  1.0
  N  N134  1  0.61077000  0.73631000  0.90928000  1.0
  N  N135  1  0.38924000  0.26369000  0.09071000  1.0
  N  N136  1  0.00143000  0.21551000  0.56645000  1.0
  N  N137  1  0.99858000  0.78449000  0.43355000  1.0
  O  O138  1  0.29616000  0.87475000  0.98581000  1.0
  O  O139  1  0.70384000  0.12525000  0.01419000  1.0
  O  O140  1  0.70451000  0.98113000  0.92110000  1.0
  O  O141  1  0.29549000  0.01888000  0.07890000  1.0
  O  O142  1  0.02036000  0.90349000  0.88093000  1.0
  O  O143  1  0.97964000  0.09652000  0.11907000  1.0
  O  O144  1  0.15871000  0.11504000  0.95055000  1.0
  O  O145  1  0.84128000  0.88497000  0.04945000  1.0
  O  O146  1  0.11348000  0.27975000  0.94159000  1.0
  O  O147  1  0.88645000  0.72027000  0.05840000  1.0
  O  O148  1  0.51911000  0.15626000  0.47984000  1.0
  O  O149  1  0.48091000  0.84374000  0.52017000  1.0
  O  O150  1  0.36476000  0.30175000  0.45069000  1.0
  O  O151  1  0.63526000  0.69825000  0.54931000  1.0
  O  O152  1  0.67463000  0.96735000  0.41662000  1.0
  O  O153  1  0.32540000  0.03265000  0.58339000  1.0
  O  O154  1  0.01954000  0.06489000  0.44094000  1.0
  O  O155  1  0.98049000  0.93511000  0.55906000  1.0
