# generated using pymatgen
data_AlH14C22(BrO3)2
_symmetry_space_group_name_H-M   'P 1'
_cell_length_a   6.63743000
_cell_length_b   21.61370000
_cell_length_c   28.04860000
_cell_angle_alpha   101.17100000
_cell_angle_beta   90.98610000
_cell_angle_gamma   90.31650000
_symmetry_Int_Tables_number   1
_chemical_formula_structural   AlH14C22(BrO3)2
_chemical_formula_sum   'Al4 H56 C88 Br8 O24'
_cell_volume   3946.85207658
_cell_formula_units_Z   4
loop_
 _symmetry_equiv_pos_site_id
 _symmetry_equiv_pos_as_xyz
  1  'x, y, z'
loop_
 _atom_site_type_symbol
 _atom_site_label
 _atom_site_symmetry_multiplicity
 _atom_site_fract_x
 _atom_site_fract_y
 _atom_site_fract_z
 _atom_site_occupancy
  Al  Al0  1  0.19539000  0.24983000  0.74881000  1.0
  Al  Al1  1  0.79639000  0.74782000  0.25042000  1.0
  Al  Al2  1  0.69509000  0.24651000  0.75074000  1.0
  Al  Al3  1  0.29669000  0.75298000  0.24990000  1.0
  H  H4  1  0.22547000  0.38630000  0.06500000  1.0
  H  H5  1  0.01501000  0.62305000  0.92958000  1.0
  H  H6  1  0.82713000  0.09856000  0.44491000  1.0
  H  H7  1  0.17310000  0.90089000  0.55482000  1.0
  H  H8  1  0.97630000  0.46070000  0.79043000  1.0
  H  H9  1  0.21945000  0.54948000  0.20409000  1.0
  H  H10  1  0.29248000  0.04306000  0.70266000  1.0
  H  H11  1  0.70642000  0.95602000  0.29716000  1.0
  H  H12  1  0.25585000  0.44729000  0.14539000  1.0
  H  H13  1  0.99080000  0.56375000  0.84883000  1.0
  H  H14  1  0.79159000  0.05074000  0.36106000  1.0
  H  H15  1  0.20740000  0.94855000  0.63857000  1.0
  H  H16  1  0.12831000  0.37364000  0.97950000  1.0
  H  H17  1  0.01991000  0.63121000  0.01752000  1.0
  H  H18  1  0.74409000  0.10589000  0.53016000  1.0
  H  H19  1  0.25833000  0.89332000  0.46964000  1.0
  H  H20  1  0.25069000  0.03576000  0.89443000  1.0
  H  H21  1  0.74286000  0.96395000  0.10737000  1.0
  H  H22  1  0.74101000  0.46299000  0.60780000  1.0
  H  H23  1  0.25355000  0.53483000  0.39218000  1.0
  H  H24  1  0.68315000  0.17612000  0.87446000  1.0
  H  H25  1  0.31539000  0.82415000  0.12468000  1.0
  H  H26  1  0.16877000  0.32100000  0.62218000  1.0
  H  H27  1  0.81802000  0.67967000  0.37823000  1.0
  H  H28  1  0.66574000  0.01164000  0.96085000  1.0
  H  H29  1  0.32810000  0.99127000  0.04135000  1.0
  H  H30  1  0.35446000  0.39134000  0.47925000  1.0
  H  H31  1  0.63832000  0.60841000  0.52142000  1.0
  H  H32  1  0.69395000  0.94764000  0.02468000  1.0
  H  H33  1  0.29996000  0.05517000  0.97747000  1.0
  H  H34  1  0.40358000  0.45263000  0.41507000  1.0
  H  H35  1  0.58970000  0.54698000  0.58557000  1.0
  H  H36  1  0.70762000  0.21646000  0.98124000  1.0
  H  H37  1  0.82968000  0.15970000  0.01021000  1.0
  H  H38  1  0.49923000  0.12693000  0.03903000  1.0
  H  H39  1  0.53219000  0.20985000  0.05782000  1.0
  H  H40  1  0.36984000  0.17933000  0.00740000  1.0
  H  H41  1  0.16765000  0.84222000  0.99007000  1.0
  H  H42  1  0.29120000  0.78597000  0.01931000  1.0
  H  H43  1  0.62812000  0.82377000  0.99323000  1.0
  H  H44  1  0.46678000  0.79298000  0.94269000  1.0
  H  H45  1  0.49781000  0.87597000  0.96159000  1.0
  H  H46  1  0.90166000  0.34221000  0.57724000  1.0
  H  H47  1  0.06472000  0.28693000  0.54133000  1.0
  H  H48  1  0.94879000  0.32537000  0.46620000  1.0
  H  H49  1  0.73849000  0.29986000  0.49636000  1.0
  H  H50  1  0.79108000  0.38174000  0.50209000  1.0
  H  H51  1  0.93036000  0.71346000  0.45744000  1.0
  H  H52  1  0.08749000  0.65622000  0.42153000  1.0
  H  H53  1  0.20094000  0.61844000  0.49728000  1.0
  H  H54  1  0.25926000  0.69963000  0.50106000  1.0
  H  H55  1  0.04987000  0.67701000  0.53303000  1.0
  H  H56  1  0.44925000  0.28957000  0.80942000  1.0
  H  H57  1  0.53916000  0.70933000  0.19036000  1.0
  H  H58  1  0.93123000  0.25967000  0.69041000  1.0
  H  H59  1  0.05506000  0.75687000  0.31373000  1.0
  C  C60  1  0.44375000  0.31600000  0.68941000  1.0
  C  C61  1  0.54337000  0.68355000  0.31104000  1.0
  C  C62  1  0.95707000  0.17990000  0.80807000  1.0
  C  C63  1  0.04143000  0.81759000  0.19079000  1.0
  C  C64  1  0.44266000  0.15238000  0.68996000  1.0
  C  C65  1  0.55724000  0.84691000  0.30978000  1.0
  C  C66  1  0.94683000  0.34569000  0.81058000  1.0
  C  C67  1  0.04007000  0.65269000  0.19017000  1.0
  C  C68  1  0.05805000  0.59360000  0.15229000  1.0
  C  C69  1  0.95852000  0.40637000  0.84733000  1.0
  C  C70  1  0.57526000  0.90541000  0.34847000  1.0
  C  C71  1  0.42602000  0.09351000  0.65151000  1.0
  C  C72  1  0.18572000  0.48780000  0.13414000  1.0
  C  C73  1  0.98608000  0.51939000  0.86185000  1.0
  C  C74  1  0.70980000  0.01078000  0.37011000  1.0
  C  C75  1  0.29021000  0.98842000  0.62968000  1.0
  C  C76  1  0.16307000  0.54348000  0.16672000  1.0
  C  C77  1  0.97646000  0.46277000  0.82957000  1.0
  C  C78  1  0.66475000  0.95867000  0.33495000  1.0
  C  C79  1  0.33531000  0.04040000  0.66494000  1.0
  C  C80  1  0.99012000  0.58847000  0.10448000  1.0
  C  C81  1  0.95823000  0.40753000  0.89703000  1.0
  C  C82  1  0.52396000  0.90666000  0.39647000  1.0
  C  C83  1  0.47921000  0.09225000  0.60364000  1.0
  C  C84  1  0.03762000  0.53513000  0.06780000  1.0
  C  C85  1  0.98993000  0.46445000  0.93190000  1.0
  C  C86  1  0.54505000  0.96248000  0.43317000  1.0
  C  C87  1  0.45776000  0.03654000  0.56684000  1.0
  C  C88  1  0.12458000  0.48260000  0.08501000  1.0
  C  C89  1  0.99251000  0.52134000  0.91249000  1.0
  C  C90  1  0.65601000  0.01305000  0.41894000  1.0
  C  C91  1  0.34530000  0.98613000  0.58093000  1.0
  C  C92  1  0.01342000  0.53008000  0.01551000  1.0
  C  C93  1  0.02539000  0.46994000  0.98391000  1.0
  C  C94  1  0.46998000  0.97242000  0.48247000  1.0
  C  C95  1  0.53317000  0.02654000  0.51756000  1.0
  C  C96  1  0.10043000  0.41826000  0.00359000  1.0
  C  C97  1  0.00819000  0.58495000  0.99424000  1.0
  C  C98  1  0.67523000  0.06884000  0.50312000  1.0
  C  C99  1  0.32719000  0.93027000  0.49676000  1.0
  C  C100  1  0.15523000  0.42522000  0.05148000  1.0
  C  C101  1  0.00599000  0.58053000  0.94505000  1.0
  C  C102  1  0.72519000  0.06406000  0.45557000  1.0
  C  C103  1  0.27604000  0.93520000  0.54423000  1.0
  C  C104  1  0.12796000  0.10025000  0.85269000  1.0
  C  C105  1  0.86758000  0.89789000  0.14744000  1.0
  C  C106  1  0.61529000  0.39732000  0.64766000  1.0
  C  C107  1  0.37630000  0.60078000  0.35221000  1.0
  C  C108  1  0.12716000  0.06763000  0.89091000  1.0
  C  C109  1  0.86732000  0.93221000  0.11025000  1.0
  C  C110  1  0.61299000  0.43232000  0.61085000  1.0
  C  C111  1  0.37973000  0.56629000  0.38935000  1.0
  C  C112  1  0.97055000  0.07368000  0.92447000  1.0
  C  C113  1  0.02427000  0.92773000  0.07684000  1.0
  C  C114  1  0.45620000  0.42714000  0.57621000  1.0
  C  C115  1  0.53528000  0.57257000  0.42438000  1.0
  C  C116  1  0.80973000  0.11400000  0.91790000  1.0
  C  C117  1  0.18607000  0.88739000  0.08257000  1.0
  C  C118  1  0.29450000  0.38526000  0.58003000  1.0
  C  C119  1  0.69526000  0.61507000  0.42058000  1.0
  C  C120  1  0.80935000  0.14578000  0.87930000  1.0
  C  C121  1  0.18785000  0.85423000  0.12040000  1.0
  C  C122  1  0.29442000  0.35180000  0.61790000  1.0
  C  C123  1  0.69400000  0.64831000  0.38259000  1.0
  C  C124  1  0.96758000  0.14033000  0.84614000  1.0
  C  C125  1  0.02938000  0.85812000  0.15332000  1.0
  C  C126  1  0.45426000  0.35654000  0.65195000  1.0
  C  C127  1  0.53487000  0.64265000  0.34827000  1.0
  C  C128  1  0.81075000  0.00767000  0.97869000  1.0
  C  C129  1  0.18313000  0.99524000  0.02350000  1.0
  C  C130  1  0.41538000  0.43905000  0.48881000  1.0
  C  C131  1  0.57725000  0.56073000  0.51187000  1.0
  C  C132  1  0.82695000  0.97185000  0.01476000  1.0
  C  C133  1  0.16698000  0.03101000  0.98741000  1.0
  C  C134  1  0.44268000  0.47392000  0.45265000  1.0
  C  C135  1  0.55014000  0.52583000  0.54802000  1.0
  C  C136  1  0.01309000  0.96477000  0.03781000  1.0
  C  C137  1  0.98107000  0.03780000  0.96420000  1.0
  C  C138  1  0.52298000  0.53555000  0.46328000  1.0
  C  C139  1  0.46939000  0.46428000  0.53741000  1.0
  C  C140  1  0.68797000  0.17057000  0.99246000  1.0
  C  C141  1  0.51166000  0.17155000  0.02605000  1.0
  C  C142  1  0.30961000  0.83183000  0.00797000  1.0
  C  C143  1  0.48619000  0.83128000  0.97451000  1.0
  C  C144  1  0.99068000  0.33301000  0.54384000  1.0
  C  C145  1  0.85997000  0.33521000  0.49946000  1.0
  C  C146  1  0.00160000  0.66701000  0.45537000  1.0
  C  C147  1  0.13535000  0.66533000  0.49934000  1.0
  Br  Br148  1  0.88947000  0.32783000  0.91398000  1.0
  Br  Br149  1  0.81684000  0.65492000  0.09206000  1.0
  Br  Br150  1  0.54212000  0.17445000  0.59027000  1.0
  Br  Br151  1  0.46751000  0.82438000  0.41069000  1.0
  Br  Br152  1  0.35154000  0.08383000  0.81047000  1.0
  Br  Br153  1  0.64404000  0.91097000  0.18982000  1.0
  Br  Br154  1  0.84758000  0.40847000  0.68959000  1.0
  Br  Br155  1  0.14761000  0.58631000  0.30917000  1.0
  O  O156  1  0.61479000  0.16904000  0.70840000  1.0
  O  O157  1  0.38256000  0.82698000  0.29526000  1.0
  O  O158  1  0.11662000  0.32227000  0.79706000  1.0
  O  O159  1  0.86888000  0.66981000  0.20706000  1.0
  O  O160  1  0.26973000  0.30559000  0.70492000  1.0
  O  O161  1  0.71758000  0.69872000  0.29834000  1.0
  O  O162  1  0.78321000  0.19836000  0.79716000  1.0
  O  O163  1  0.21684000  0.80653000  0.20609000  1.0
  O  O164  1  0.27684000  0.17962000  0.70148000  1.0
  O  O165  1  0.72334000  0.82336000  0.29392000  1.0
  O  O166  1  0.77400000  0.32460000  0.79543000  1.0
  O  O167  1  0.20830000  0.67999000  0.20264000  1.0
  O  O168  1  0.12169000  0.19435000  0.79064000  1.0
  O  O169  1  0.87746000  0.79520000  0.20302000  1.0
  O  O170  1  0.60869000  0.29352000  0.70175000  1.0
  O  O171  1  0.37608000  0.70154000  0.29613000  1.0
  O  O172  1  0.44652000  0.25822000  0.77953000  1.0
  O  O173  1  0.54459000  0.74019000  0.22053000  1.0
  O  O174  1  0.94123000  0.24341000  0.72025000  1.0
  O  O175  1  0.04913000  0.75735000  0.27931000  1.0
  O  O176  1  0.64955000  0.12252000  0.94949000  1.0
  O  O177  1  0.34599000  0.88010000  0.05087000  1.0
  O  O178  1  0.14320000  0.38132000  0.54613000  1.0
  O  O179  1  0.84632000  0.61987000  0.45463000  1.0
