# generated using pymatgen
data_SnH12Rh2C13N3(ClO2)2
_symmetry_space_group_name_H-M   'P 1'
_cell_length_a   9.14179000
_cell_length_b   12.82300000
_cell_length_c   19.77500000
_cell_angle_alpha   103.04200000
_cell_angle_beta   92.40400000
_cell_angle_gamma   94.82560000
_symmetry_Int_Tables_number   1
_chemical_formula_structural   SnH12Rh2C13N3(ClO2)2
_chemical_formula_sum   'Sn4 H48 Rh8 C52 N12 Cl8 O16'
_cell_volume   2245.88966065
_cell_formula_units_Z   4
loop_
 _symmetry_equiv_pos_site_id
 _symmetry_equiv_pos_as_xyz
  1  'x, y, z'
loop_
 _atom_site_type_symbol
 _atom_site_label
 _atom_site_symmetry_multiplicity
 _atom_site_fract_x
 _atom_site_fract_y
 _atom_site_fract_z
 _atom_site_occupancy
  Sn  Sn0  1  0.90367000  0.42530000  0.73830000  1.0
  Sn  Sn1  1  0.09633000  0.57470000  0.26171000  1.0
  Sn  Sn2  1  0.72105000  0.23410000  0.69465000  1.0
  Sn  Sn3  1  0.27895000  0.76590000  0.30535000  1.0
  H  H4  1  0.01452000  0.34627000  0.84502000  1.0
  H  H5  1  0.98549000  0.65373000  0.15499000  1.0
  H  H6  1  0.15783000  0.41857000  0.81218000  1.0
  H  H7  1  0.84218000  0.58143000  0.18782000  1.0
  H  H8  1  0.06842000  0.59624000  0.87802000  1.0
  H  H9  1  0.93155000  0.40376000  0.12197000  1.0
  H  H10  1  0.92692000  0.52115000  0.91039000  1.0
  H  H11  1  0.07309000  0.47884000  0.08962000  1.0
  H  H12  1  0.04605000  0.53775000  0.65248000  1.0
  H  H13  1  0.95396000  0.46225000  0.34753000  1.0
  H  H14  1  0.17075000  0.46354000  0.68902000  1.0
  H  H15  1  0.82925000  0.53646000  0.31098000  1.0
  H  H16  1  0.05797000  0.29127000  0.60558000  1.0
  H  H17  1  0.94204000  0.70873000  0.39443000  1.0
  H  H18  1  0.93704000  0.36824000  0.56828000  1.0
  H  H19  1  0.06296000  0.63176000  0.43172000  1.0
  H  H20  1  0.66270000  0.53438000  0.75316000  1.0
  H  H21  1  0.33732000  0.46562000  0.24685000  1.0
  H  H22  1  0.78839000  0.59308000  0.82483000  1.0
  H  H23  1  0.21162000  0.40691000  0.17517000  1.0
  H  H24  1  0.93300000  0.69728000  0.75344000  1.0
  H  H25  1  0.06701000  0.30272000  0.24656000  1.0
  H  H26  1  0.82172000  0.63009000  0.67635000  1.0
  H  H27  1  0.17829000  0.36990000  0.32366000  1.0
  H  H28  1  0.79615000  0.20176000  0.82265000  1.0
  H  H29  1  0.20386000  0.79824000  0.17735000  1.0
  H  H30  1  0.64198000  0.10977000  0.78653000  1.0
  H  H31  1  0.35802000  0.89024000  0.21347000  1.0
  H  H32  1  0.80153000  0.98890000  0.71178000  1.0
  H  H33  1  0.19847000  0.01111000  0.28822000  1.0
  H  H34  1  0.95937000  0.08220000  0.74095000  1.0
  H  H35  1  0.04064000  0.91780000  0.25905000  1.0
  H  H36  1  0.48212000  0.34867000  0.70091000  1.0
  H  H37  1  0.51788000  0.65133000  0.29908000  1.0
  H  H38  1  0.45328000  0.23635000  0.62876000  1.0
  H  H39  1  0.54673000  0.76365000  0.37124000  1.0
  H  H40  1  0.40090000  0.11320000  0.71124000  1.0
  H  H41  1  0.59909000  0.88680000  0.28876000  1.0
  H  H42  1  0.42287000  0.22703000  0.78275000  1.0
  H  H43  1  0.57713000  0.77297000  0.21725000  1.0
  H  H44  1  0.78694000  0.19452000  0.55911000  1.0
  H  H45  1  0.21307000  0.80548000  0.44089000  1.0
  H  H46  1  0.89554000  0.11840000  0.60268000  1.0
  H  H47  1  0.10448000  0.88160000  0.39733000  1.0
  H  H48  1  0.66409000  0.98584000  0.59960000  1.0
  H  H49  1  0.33592000  0.01416000  0.40041000  1.0
  H  H50  1  0.56533000  0.06271000  0.55446000  1.0
  H  H51  1  0.43468000  0.93729000  0.44554000  1.0
  Rh  Rh52  1  0.38641000  0.45621000  0.05062000  1.0
  Rh  Rh53  1  0.61360000  0.54379000  0.94938000  1.0
  Rh  Rh54  1  0.40881000  0.40975000  0.44289000  1.0
  Rh  Rh55  1  0.59120000  0.59025000  0.55711000  1.0
  Rh  Rh56  1  0.46403000  0.89111000  0.79086000  1.0
  Rh  Rh57  1  0.53597000  0.10889000  0.20914000  1.0
  Rh  Rh58  1  0.92796000  0.87816000  0.93518000  1.0
  Rh  Rh59  1  0.07201000  0.12185000  0.06482000  1.0
  C  C60  1  0.52193000  0.42855000  0.11419000  1.0
  C  C61  1  0.47808000  0.57145000  0.88580000  1.0
  C  C62  1  0.39642000  0.32576000  0.98858000  1.0
  C  C63  1  0.60357000  0.67425000  0.01142000  1.0
  C  C64  1  0.53964000  0.40506000  0.37444000  1.0
  C  C65  1  0.46037000  0.59495000  0.62557000  1.0
  C  C66  1  0.47831000  0.29046000  0.46613000  1.0
  C  C67  1  0.52170000  0.70954000  0.53387000  1.0
  C  C68  1  0.31915000  0.98225000  0.81317000  1.0
  C  C69  1  0.68085000  0.01775000  0.18684000  1.0
  C  C70  1  0.46015000  0.85323000  0.87532000  1.0
  C  C71  1  0.53984000  0.14677000  0.12468000  1.0
  C  C72  1  0.78672000  0.94602000  0.98810000  1.0
  C  C73  1  0.21323000  0.05400000  0.01188000  1.0
  C  C74  1  0.96486000  0.79945000  0.99994000  1.0
  C  C75  1  0.03507000  0.20053000  0.00005000  1.0
  C  C76  1  0.04563000  0.42161000  0.82958000  1.0
  C  C77  1  0.95438000  0.57839000  0.17042000  1.0
  C  C78  1  0.03813000  0.51811000  0.89107000  1.0
  C  C79  1  0.96187000  0.48189000  0.10893000  1.0
  C  C80  1  0.13968000  0.50818000  0.94665000  1.0
  C  C81  1  0.86032000  0.49183000  0.05335000  1.0
  C  C82  1  0.06116000  0.45883000  0.66312000  1.0
  C  C83  1  0.93885000  0.54117000  0.33688000  1.0
  C  C84  1  0.04595000  0.37123000  0.59530000  1.0
  C  C85  1  0.95406000  0.62877000  0.40471000  1.0
  C  C86  1  0.15614000  0.38878000  0.54762000  1.0
  C  C87  1  0.84386000  0.61122000  0.45238000  1.0
  C  C88  1  0.77797000  0.56491000  0.76798000  1.0
  C  C89  1  0.22204000  0.43508000  0.23202000  1.0
  C  C90  1  0.82293000  0.65766000  0.73340000  1.0
  C  C91  1  0.17707000  0.34234000  0.26660000  1.0
  C  C92  1  0.71820000  0.73674000  0.74889000  1.0
  C  C93  1  0.28179000  0.26326000  0.25111000  1.0
  C  C94  1  0.75069000  0.14312000  0.77561000  1.0
  C  C95  1  0.24931000  0.85689000  0.22439000  1.0
  C  C96  1  0.85157000  0.05239000  0.75589000  1.0
  C  C97  1  0.14843000  0.94761000  0.24410000  1.0
  C  C98  1  0.87726000  0.00124000  0.81308000  1.0
  C  C99  1  0.12274000  0.99876000  0.18692000  1.0
  C  C100  1  0.48810000  0.26160000  0.68427000  1.0
  C  C101  1  0.51191000  0.73840000  0.31573000  1.0
  C  C102  1  0.39058000  0.20042000  0.72672000  1.0
  C  C103  1  0.60942000  0.79959000  0.27328000  1.0
  C  C104  1  0.23535000  0.21425000  0.71765000  1.0
  C  C105  1  0.76464000  0.78575000  0.28235000  1.0
  C  C106  1  0.78343000  0.14008000  0.59473000  1.0
  C  C107  1  0.21658000  0.85992000  0.40527000  1.0
  C  C108  1  0.67664000  0.04006000  0.56379000  1.0
  C  C109  1  0.32337000  0.95994000  0.43621000  1.0
  C  C110  1  0.72162000  0.97715000  0.49822000  1.0
  C  C111  1  0.27838000  0.02283000  0.50178000  1.0
  N  N112  1  0.22702000  0.49233000  0.98667000  1.0
  N  N113  1  0.77298000  0.50767000  0.01333000  1.0
  N  N114  1  0.24676000  0.40416000  0.51055000  1.0
  N  N115  1  0.75325000  0.59584000  0.48945000  1.0
  N  N116  1  0.62700000  0.79413000  0.76378000  1.0
  N  N117  1  0.37300000  0.20586000  0.23622000  1.0
  N  N118  1  0.89437000  0.96140000  0.85971000  1.0
  N  N119  1  0.10563000  0.03861000  0.14028000  1.0
  N  N120  1  0.11080000  0.22553000  0.71019000  1.0
  N  N121  1  0.88920000  0.77447000  0.28981000  1.0
  N  N122  1  0.75852000  0.92606000  0.44622000  1.0
  N  N123  1  0.24149000  0.07393000  0.55379000  1.0
  Cl  Cl124  1  0.35643000  0.61656000  0.13202000  1.0
  Cl  Cl125  1  0.64357000  0.38344000  0.86798000  1.0
  Cl  Cl126  1  0.31022000  0.55653000  0.40958000  1.0
  Cl  Cl127  1  0.68978000  0.44347000  0.59042000  1.0
  Cl  Cl128  1  0.46884000  0.92675000  0.68005000  1.0
  Cl  Cl129  1  0.53117000  0.07324000  0.31995000  1.0
  Cl  Cl130  1  0.09604000  0.78422000  0.86412000  1.0
  Cl  Cl131  1  0.90394000  0.21578000  0.13589000  1.0
  O  O132  1  0.60681000  0.41699000  0.15647000  1.0
  O  O133  1  0.39322000  0.58302000  0.84351000  1.0
  O  O134  1  0.39422000  0.24381000  0.94895000  1.0
  O  O135  1  0.60577000  0.75619000  0.05105000  1.0
  O  O136  1  0.61868000  0.40181000  0.32985000  1.0
  O  O137  1  0.38133000  0.59819000  0.67015000  1.0
  O  O138  1  0.51781000  0.21513000  0.48170000  1.0
  O  O139  1  0.48219000  0.78486000  0.51830000  1.0
  O  O140  1  0.22968000  0.04155000  0.82537000  1.0
  O  O141  1  0.77033000  0.95845000  0.17463000  1.0
  O  O142  1  0.46113000  0.82325000  0.92642000  1.0
  O  O143  1  0.53885000  0.17675000  0.07358000  1.0
  O  O144  1  0.69352000  0.98513000  0.01963000  1.0
  O  O145  1  0.30645000  0.01491000  0.98035000  1.0
  O  O146  1  0.99167000  0.75002000  0.04054000  1.0
  O  O147  1  0.00822000  0.24994000  0.95944000  1.0
