# generated using pymatgen
data_ZnH14C10(N2Cl)2
_symmetry_space_group_name_H-M   'P 1'
_cell_length_a   7.79185000
_cell_length_b   11.47790000
_cell_length_c   15.67390000
_cell_angle_alpha   89.99990000
_cell_angle_beta   88.19140000
_cell_angle_gamma   89.99990000
_symmetry_Int_Tables_number   1
_chemical_formula_structural   ZnH14C10(N2Cl)2
_chemical_formula_sum   'Zn4 H56 C40 N16 Cl8'
_cell_volume   1401.08243100
_cell_formula_units_Z   4
loop_
 _symmetry_equiv_pos_site_id
 _symmetry_equiv_pos_as_xyz
  1  'x, y, z'
loop_
 _atom_site_type_symbol
 _atom_site_label
 _atom_site_symmetry_multiplicity
 _atom_site_fract_x
 _atom_site_fract_y
 _atom_site_fract_z
 _atom_site_occupancy
  Zn  Zn0  1  0.03436000  0.10821000  0.77666000  1.0
  Zn  Zn1  1  0.96564000  0.60821000  0.72334000  1.0
  Zn  Zn2  1  0.96564000  0.89179000  0.22334000  1.0
  Zn  Zn3  1  0.03436000  0.39179000  0.27666000  1.0
  H  H4  1  0.82628000  0.35581000  0.80430000  1.0
  H  H5  1  0.17372000  0.85581000  0.69570000  1.0
  H  H6  1  0.17372000  0.64419000  0.19570000  1.0
  H  H7  1  0.82628000  0.14419000  0.30429000  1.0
  H  H8  1  0.02831000  0.11731000  0.98040000  1.0
  H  H9  1  0.97170000  0.61731000  0.51960000  1.0
  H  H10  1  0.97170000  0.88269000  0.01960000  1.0
  H  H11  1  0.02831000  0.38269000  0.48040000  1.0
  H  H12  1  0.88198000  0.30683000  0.06966000  1.0
  H  H13  1  0.11802000  0.80683000  0.43034000  1.0
  H  H14  1  0.11802000  0.69317000  0.93034000  1.0
  H  H15  1  0.88198000  0.19317000  0.56966000  1.0
  H  H16  1  0.74446000  0.52429000  0.90388000  1.0
  H  H17  1  0.25554000  0.02429000  0.59612000  1.0
  H  H18  1  0.25554000  0.47571000  0.09612000  1.0
  H  H19  1  0.74446000  0.97571000  0.40388000  1.0
  H  H20  1  0.79954000  0.51320000  0.01275000  1.0
  H  H21  1  0.20046000  0.01320000  0.48724000  1.0
  H  H22  1  0.20046000  0.48680000  0.98724000  1.0
  H  H23  1  0.79954000  0.98680000  0.51275000  1.0
  H  H24  1  0.54358000  0.38201000  0.04022000  1.0
  H  H25  1  0.45642000  0.88201000  0.45978000  1.0
  H  H26  1  0.45642000  0.61799000  0.95978000  1.0
  H  H27  1  0.54358000  0.11799000  0.54022000  1.0
  H  H28  1  0.48264000  0.40274000  0.93308000  1.0
  H  H29  1  0.51737000  0.90274000  0.56692000  1.0
  H  H30  1  0.51736000  0.59726000  0.06692000  1.0
  H  H31  1  0.48264000  0.09727000  0.43308000  1.0
  H  H32  1  0.08042000  0.34030000  0.66066000  1.0
  H  H33  1  0.91958000  0.84030000  0.83934000  1.0
  H  H34  1  0.91958000  0.65970000  0.33934000  1.0
  H  H35  1  0.08042000  0.15970000  0.16067000  1.0
  H  H36  1  0.44999000  0.10122000  0.74735000  1.0
  H  H37  1  0.55001000  0.60122000  0.75265000  1.0
  H  H38  1  0.55000000  0.89878000  0.25265000  1.0
  H  H39  1  0.44999000  0.39878000  0.24735000  1.0
  H  H40  1  0.61748000  0.28621000  0.66666667  1.0
  H  H41  1  0.38252000  0.78621000  0.83336000  1.0
  H  H42  1  0.38252000  0.71379000  0.33333333  1.0
  H  H43  1  0.61748000  0.21379000  0.16664000  1.0
  H  H44  1  0.45532000  0.51088000  0.64659000  1.0
  H  H45  1  0.54468000  0.01088000  0.85341000  1.0
  H  H46  1  0.54468000  0.48912000  0.35341000  1.0
  H  H47  1  0.45532000  0.98912000  0.14659000  1.0
  H  H48  1  0.25612000  0.49277000  0.59721000  1.0
  H  H49  1  0.74388000  0.99277000  0.90279000  1.0
  H  H50  1  0.74388000  0.50723000  0.40279000  1.0
  H  H51  1  0.25612000  0.00723000  0.09721000  1.0
  H  H52  1  0.59795000  0.39101000  0.52759000  1.0
  H  H53  1  0.40205000  0.89101000  0.97242000  1.0
  H  H54  1  0.40205000  0.60899000  0.47241000  1.0
  H  H55  1  0.59795000  0.10899000  0.02759000  1.0
  H  H56  1  0.39934000  0.39042000  0.47481000  1.0
  H  H57  1  0.60065000  0.89042000  0.02519000  1.0
  H  H58  1  0.60065000  0.60958000  0.52519000  1.0
  H  H59  1  0.39935000  0.10958000  0.97481000  1.0
  C  C60  1  0.86061000  0.31425000  0.86369000  1.0
  C  C61  1  0.13939000  0.81425000  0.63631000  1.0
  C  C62  1  0.13939000  0.68575000  0.13631000  1.0
  C  C63  1  0.86061000  0.18575000  0.36369000  1.0
  C  C64  1  0.96449000  0.19451000  0.95741000  1.0
  C  C65  1  0.03552000  0.69451000  0.54259000  1.0
  C  C66  1  0.03551000  0.80549000  0.04259000  1.0
  C  C67  1  0.96448000  0.30549000  0.45741000  1.0
  C  C68  1  0.89310000  0.28616000  0.00214000  1.0
  C  C69  1  0.10690000  0.78616000  0.49786000  1.0
  C  C70  1  0.10690000  0.71384000  0.99786000  1.0
  C  C71  1  0.89310000  0.21384000  0.50214000  1.0
  C  C72  1  0.73451000  0.46868000  0.96078000  1.0
  C  C73  1  0.26549000  0.96868000  0.53922000  1.0
  C  C74  1  0.26549000  0.53132000  0.03922000  1.0
  C  C75  1  0.73451000  0.03132000  0.46078000  1.0
  C  C76  1  0.54720000  0.44427000  0.98676000  1.0
  C  C77  1  0.45280000  0.94427000  0.51324000  1.0
  C  C78  1  0.45280000  0.55573000  0.01324000  1.0
  C  C79  1  0.54720000  0.05573000  0.48676000  1.0
  C  C80  1  0.20174000  0.29726000  0.67245000  1.0
  C  C81  1  0.79826000  0.79725000  0.82755000  1.0
  C  C82  1  0.79826000  0.70274000  0.32755000  1.0
  C  C83  1  0.20174000  0.20275000  0.17245000  1.0
  C  C84  1  0.39733000  0.17786000  0.71758000  1.0
  C  C85  1  0.60267000  0.67786000  0.78242000  1.0
  C  C86  1  0.60267000  0.82214000  0.28242000  1.0
  C  C87  1  0.39733000  0.32214000  0.21758000  1.0
  C  C88  1  0.48205000  0.26787000  0.67690000  1.0
  C  C89  1  0.51795000  0.76787000  0.82310000  1.0
  C  C90  1  0.51795000  0.73213000  0.32310000  1.0
  C  C91  1  0.48205000  0.23213000  0.17690000  1.0
  C  C92  1  0.38310000  0.45338000  0.60477000  1.0
  C  C93  1  0.61690000  0.95338000  0.89523000  1.0
  C  C94  1  0.61690000  0.54662000  0.39523000  1.0
  C  C95  1  0.38310000  0.04662000  0.10477000  1.0
  C  C96  1  0.47854000  0.44025000  0.51897000  1.0
  C  C97  1  0.52145000  0.94025000  0.98103000  1.0
  C  C98  1  0.52145000  0.55975000  0.48103000  1.0
  C  C99  1  0.47855000  0.05975000  0.01897000  1.0
  N  N100  1  0.94322000  0.21298000  0.87117000  1.0
  N  N101  1  0.05678000  0.71298000  0.62883000  1.0
  N  N102  1  0.05678000  0.78702000  0.12883000  1.0
  N  N103  1  0.94322000  0.28702000  0.37117000  1.0
  N  N104  1  0.82902000  0.36114000  0.94187000  1.0
  N  N105  1  0.17098000  0.86114000  0.55813000  1.0
  N  N106  1  0.17098000  0.63886000  0.05813000  1.0
  N  N107  1  0.82902000  0.13886000  0.44187000  1.0
  N  N108  1  0.22234000  0.19713000  0.71430000  1.0
  N  N109  1  0.77766000  0.69713000  0.78570000  1.0
  N  N110  1  0.77766000  0.80287000  0.28570000  1.0
  N  N111  1  0.22234000  0.30287000  0.21430000  1.0
  N  N112  1  0.35615000  0.34237000  0.64883000  1.0
  N  N113  1  0.64385000  0.84237000  0.85117000  1.0
  N  N114  1  0.64385000  0.65763000  0.35117000  1.0
  N  N115  1  0.35615000  0.15763000  0.14884000  1.0
  Cl  Cl116  1  0.16976000  0.96167000  0.84528000  1.0
  Cl  Cl117  1  0.83024000  0.46167000  0.65472000  1.0
  Cl  Cl118  1  0.83024000  0.03833000  0.15472000  1.0
  Cl  Cl119  1  0.16976000  0.53833000  0.34528000  1.0
  Cl  Cl120  1  0.82474000  0.04916000  0.69195000  1.0
  Cl  Cl121  1  0.17526000  0.54917000  0.80805000  1.0
  Cl  Cl122  1  0.17526000  0.95083000  0.30805000  1.0
  Cl  Cl123  1  0.82474000  0.45083000  0.19195000  1.0
