# generated using pymatgen
data_NaBH4C6(N2O)6
_symmetry_space_group_name_H-M   'P 1'
_cell_length_a   9.48674000
_cell_length_b   9.48677000
_cell_length_c   9.48678000
_cell_angle_alpha   65.26580000
_cell_angle_beta   65.26560000
_cell_angle_gamma   65.26560000
_symmetry_Int_Tables_number   1
_chemical_formula_structural   NaBH4C6(N2O)6
_chemical_formula_sum   'Na2 B2 H8 C12 N24 O12'
_cell_volume   672.98240990
_cell_formula_units_Z   2
loop_
 _symmetry_equiv_pos_site_id
 _symmetry_equiv_pos_as_xyz
  1  'x, y, z'
loop_
 _atom_site_type_symbol
 _atom_site_label
 _atom_site_symmetry_multiplicity
 _atom_site_fract_x
 _atom_site_fract_y
 _atom_site_fract_z
 _atom_site_occupancy
  Na  Na0  1  0.31928000  0.31928000  0.31928000  1.0
  Na  Na1  1  0.81928000  0.81928000  0.81928000  1.0
  B  B2  1  0.15547000  0.15547000  0.15547000  1.0
  B  B3  1  0.65547000  0.65547000  0.65547000  1.0
  H  H4  1  0.89906000  0.37425000  0.00808000  1.0
  H  H5  1  0.37426000  0.00808000  0.89905000  1.0
  H  H6  1  0.00809000  0.89905000  0.37426000  1.0
  H  H7  1  0.39906000  0.50808000  0.87425000  1.0
  H  H8  1  0.87426000  0.39905000  0.50808000  1.0
  H  H9  1  0.50808000  0.87426000  0.39905000  1.0
  H  H10  1  0.10135000  0.10134000  0.10134000  1.0
  H  H11  1  0.60135000  0.60134000  0.60134000  1.0
  C  C12  1  0.94131000  0.42569000  0.06051000  1.0
  C  C13  1  0.42569000  0.06050000  0.94131000  1.0
  C  C14  1  0.06051000  0.94131000  0.42568000  1.0
  C  C15  1  0.44131000  0.56051000  0.92569000  1.0
  C  C16  1  0.92569000  0.44131000  0.56050000  1.0
  C  C17  1  0.56051000  0.92569000  0.44131000  1.0
  C  C18  1  0.97534000  0.57565000  0.14482000  1.0
  C  C19  1  0.57565000  0.14482000  0.97534000  1.0
  C  C20  1  0.14483000  0.97533000  0.57565000  1.0
  C  C21  1  0.47534000  0.64482000  0.07565000  1.0
  C  C22  1  0.07565000  0.47534000  0.64482000  1.0
  C  C23  1  0.64483000  0.07565000  0.47533000  1.0
  N  N24  1  0.05614000  0.33585000  0.13956000  1.0
  N  N25  1  0.33586000  0.13955000  0.05614000  1.0
  N  N26  1  0.13956000  0.05614000  0.33585000  1.0
  N  N27  1  0.55614000  0.63955000  0.83585000  1.0
  N  N28  1  0.83586000  0.55613000  0.63955000  1.0
  N  N29  1  0.63956000  0.83585000  0.55614000  1.0
  N  N30  1  0.07926000  0.43226000  0.19545000  1.0
  N  N31  1  0.43226000  0.19545000  0.07926000  1.0
  N  N32  1  0.19546000  0.07925000  0.43226000  1.0
  N  N33  1  0.57926000  0.69545000  0.93226000  1.0
  N  N34  1  0.93226000  0.57926000  0.69545000  1.0
  N  N35  1  0.69546000  0.93226000  0.57926000  1.0
  N  N36  1  0.88851000  0.57936000  0.06069000  1.0
  N  N37  1  0.57937000  0.06069000  0.88851000  1.0
  N  N38  1  0.06069000  0.88851000  0.57936000  1.0
  N  N39  1  0.38851000  0.56069000  0.07936000  1.0
  N  N40  1  0.07937000  0.38851000  0.56069000  1.0
  N  N41  1  0.56069000  0.07936000  0.38851000  1.0
  N  N42  1  0.95027000  0.71838000  0.18390000  1.0
  N  N43  1  0.71839000  0.18389000  0.95027000  1.0
  N  N44  1  0.18390000  0.95027000  0.71838000  1.0
  N  N45  1  0.45027000  0.68389000  0.21838000  1.0
  N  N46  1  0.21839000  0.45027000  0.68390000  1.0
  N  N47  1  0.68390000  0.21838000  0.45027000  1.0
  O  O48  1  0.02820000  0.70413000  0.26903000  1.0
  O  O49  1  0.70414000  0.26902000  0.02819000  1.0
  O  O50  1  0.26903000  0.02820000  0.70413000  1.0
  O  O51  1  0.52820000  0.76903000  0.20413000  1.0
  O  O52  1  0.20414000  0.52819000  0.76902000  1.0
  O  O53  1  0.76903000  0.20413000  0.52820000  1.0
  O  O54  1  0.84947000  0.84472000  0.13206000  1.0
  O  O55  1  0.84473000  0.13206000  0.84946000  1.0
  O  O56  1  0.13206000  0.84947000  0.84472000  1.0
  O  O57  1  0.34947000  0.63206000  0.34472000  1.0
  O  O58  1  0.34473000  0.34945000  0.63206000  1.0
  O  O59  1  0.63206000  0.34472000  0.34947000  1.0
