# generated using pymatgen
data_H16PbC4(BrN2)2
_symmetry_space_group_name_H-M   'P 1'
_cell_length_a   7.54703000
_cell_length_b   7.54869000
_cell_length_c   12.01340000
_cell_angle_alpha   98.20410000
_cell_angle_beta   100.23700000
_cell_angle_gamma   119.21200000
_symmetry_Int_Tables_number   1
_chemical_formula_structural   H16PbC4(BrN2)2
_chemical_formula_sum   'H32 Pb2 C8 Br4 N8'
_cell_volume   566.49308209
_cell_formula_units_Z   2
loop_
 _symmetry_equiv_pos_site_id
 _symmetry_equiv_pos_as_xyz
  1  'x, y, z'
loop_
 _atom_site_type_symbol
 _atom_site_label
 _atom_site_symmetry_multiplicity
 _atom_site_fract_x
 _atom_site_fract_y
 _atom_site_fract_z
 _atom_site_occupancy
  H  H0  1  0.16972000  0.77183000  0.50578000  1.0
  H  H1  1  0.76557000  0.66397000  0.99367000  1.0
  H  H2  1  0.83028000  0.22818000  0.49422000  1.0
  H  H3  1  0.23443000  0.33603000  0.00633000  1.0
  H  H4  1  0.18706000  0.59455000  0.41722000  1.0
  H  H5  1  0.67637000  0.76928000  0.08237000  1.0
  H  H6  1  0.81295000  0.40546000  0.58278000  1.0
  H  H7  1  0.32363000  0.23072000  0.91763000  1.0
  H  H8  1  0.53796000  0.83740000  0.54569000  1.0
  H  H9  1  0.79224000  0.99309000  0.95430000  1.0
  H  H10  1  0.46204000  0.16260000  0.45431000  1.0
  H  H11  1  0.20776000  0.00692000  0.04571000  1.0
  H  H12  1  0.52300000  0.86651000  0.40127000  1.0
  H  H13  1  0.96478000  0.12114000  0.09884000  1.0
  H  H14  1  0.47700000  0.13349000  0.59873000  1.0
  H  H15  1  0.03521000  0.87886000  0.90116000  1.0
  H  H16  1  0.75000000  0.42840000  0.37914000  1.0
  H  H17  1  0.54956000  0.37182000  0.12115000  1.0
  H  H18  1  0.25000000  0.57160000  0.62085000  1.0
  H  H19  1  0.45044000  0.62818000  0.87884000  1.0
  H  H20  1  0.49623000  0.38901000  0.31993000  1.0
  H  H21  1  0.56879000  0.17693000  0.18045000  1.0
  H  H22  1  0.50377000  0.61099000  0.68006000  1.0
  H  H23  1  0.43121000  0.82307000  0.81955000  1.0
  H  H24  1  0.81442000  0.76177000  0.41463000  1.0
  H  H25  1  0.84725000  0.39997000  0.08555000  1.0
  H  H26  1  0.18558000  0.23823000  0.58537000  1.0
  H  H27  1  0.15276000  0.60003000  0.91445000  1.0
  H  H28  1  0.66115000  0.72365000  0.28402000  1.0
  H  H29  1  0.93947000  0.37738000  0.21631000  1.0
  H  H30  1  0.33885000  0.27635000  0.71598000  1.0
  H  H31  1  0.06053000  0.62262000  0.78369000  1.0
  Pb  Pb32  1  0.07973000  0.82987000  0.24973000  1.0
  Pb  Pb33  1  0.92027000  0.17014000  0.75027000  1.0
  C  C34  1  0.46504000  0.88513000  0.47743000  1.0
  C  C35  1  0.90758000  0.98756000  0.02254000  1.0
  C  C36  1  0.53497000  0.11487000  0.52257000  1.0
  C  C37  1  0.09242000  0.01244000  0.97747000  1.0
  C  C38  1  0.65752000  0.45661000  0.31026000  1.0
  C  C39  1  0.64626000  0.34781000  0.19003000  1.0
  C  C40  1  0.34247000  0.54339000  0.68973000  1.0
  C  C41  1  0.35374000  0.65219000  0.80996000  1.0
  Br  Br42  1  0.05630000  0.22342000  0.36703000  1.0
  Br  Br43  1  0.35599000  0.68904000  0.13291000  1.0
  Br  Br44  1  0.94370000  0.77658000  0.63297000  1.0
  Br  Br45  1  0.64401000  0.31096000  0.86709000  1.0
  N  N46  1  0.23300000  0.75094000  0.43934000  1.0
  N  N47  1  0.81076000  0.79318000  0.06023000  1.0
  N  N48  1  0.76700000  0.24906000  0.56066000  1.0
  N  N49  1  0.18924000  0.20682000  0.93977000  1.0
  N  N50  1  0.76355000  0.68584000  0.32687000  1.0
  N  N51  1  0.85889000  0.43690000  0.17330000  1.0
  N  N52  1  0.23645000  0.31416000  0.67312000  1.0
  N  N53  1  0.14111000  0.56310000  0.82669000  1.0
