# generated using pymatgen
data_BaH3C7NO4
_symmetry_space_group_name_H-M   'P 1'
_cell_length_a   6.93775000
_cell_length_b   6.93777000
_cell_length_c   17.56030000
_cell_angle_alpha   87.59610000
_cell_angle_beta   87.59600000
_cell_angle_gamma   63.13340000
_symmetry_Int_Tables_number   1
_chemical_formula_structural   BaH3C7NO4
_chemical_formula_sum   'Ba4 H12 C28 N4 O16'
_cell_volume   753.07493993
_cell_formula_units_Z   4
loop_
 _symmetry_equiv_pos_site_id
 _symmetry_equiv_pos_as_xyz
  1  'x, y, z'
loop_
 _atom_site_type_symbol
 _atom_site_label
 _atom_site_symmetry_multiplicity
 _atom_site_fract_x
 _atom_site_fract_y
 _atom_site_fract_z
 _atom_site_occupancy
  Ba  Ba0  1  0.01248000  0.32190000  0.30640000  1.0
  Ba  Ba1  1  0.67810000  0.98752000  0.19360000  1.0
  Ba  Ba2  1  0.98752000  0.67810000  0.69360000  1.0
  Ba  Ba3  1  0.32190000  0.01248000  0.80640000  1.0
  H  H4  1  0.39649000  0.21271000  0.52344000  1.0
  H  H5  1  0.78730000  0.60350000  0.97656000  1.0
  H  H6  1  0.60350000  0.78730000  0.47656000  1.0
  H  H7  1  0.21270000  0.39649000  0.02344000  1.0
  H  H8  1  0.90335000  0.23801000  0.64977000  1.0
  H  H9  1  0.76200000  0.09665000  0.85023000  1.0
  H  H10  1  0.09666000  0.76199000  0.35023000  1.0
  H  H11  1  0.23801000  0.90334000  0.14977000  1.0
  H  H12  1  0.06573000  0.28686000  0.52414000  1.0
  H  H13  1  0.71314000  0.93427000  0.97586000  1.0
  H  H14  1  0.93427000  0.71314000  0.47585000  1.0
  H  H15  1  0.28686000  0.06572000  0.02415000  1.0
  C  C16  1  0.65333000  0.23963000  0.45909000  1.0
  C  C17  1  0.76037000  0.34667000  0.04091000  1.0
  C  C18  1  0.34667000  0.76037000  0.54091000  1.0
  C  C19  1  0.23963000  0.65333000  0.95909000  1.0
  C  C20  1  0.54634000  0.22545000  0.52639000  1.0
  C  C21  1  0.77455000  0.45366000  0.97361000  1.0
  C  C22  1  0.45366000  0.77455000  0.47361000  1.0
  C  C23  1  0.22545000  0.54634000  0.02639000  1.0
  C  C24  1  0.63597000  0.22256000  0.59639000  1.0
  C  C25  1  0.77744000  0.36402000  0.90361000  1.0
  C  C26  1  0.36403000  0.77744000  0.40361000  1.0
  C  C27  1  0.22256000  0.63597000  0.09639000  1.0
  C  C28  1  0.82820000  0.24092000  0.59618000  1.0
  C  C29  1  0.75908000  0.17179000  0.90382000  1.0
  C  C30  1  0.17180000  0.75908000  0.40382000  1.0
  C  C31  1  0.24092000  0.82820000  0.09618000  1.0
  C  C32  1  0.91857000  0.26609000  0.52621000  1.0
  C  C33  1  0.73391000  0.08143000  0.97379000  1.0
  C  C34  1  0.08143000  0.73391000  0.47379000  1.0
  C  C35  1  0.26609000  0.91857000  0.02621000  1.0
  C  C36  1  0.56510000  0.22485000  0.38308000  1.0
  C  C37  1  0.77515000  0.43490000  0.11692000  1.0
  C  C38  1  0.43489000  0.77515000  0.61692000  1.0
  C  C39  1  0.22485000  0.56510000  0.88308000  1.0
  C  C40  1  0.52923000  0.19540000  0.66974000  1.0
  C  C41  1  0.80461000  0.47076000  0.83026000  1.0
  C  C42  1  0.47078000  0.80461000  0.33026000  1.0
  C  C43  1  0.19540000  0.52922000  0.16974000  1.0
  N  N44  1  0.83695000  0.26232000  0.45873000  1.0
  N  N45  1  0.73768000  0.16305000  0.04127000  1.0
  N  N46  1  0.16305000  0.73768000  0.54127000  1.0
  N  N47  1  0.26232000  0.83695000  0.95873000  1.0
  O  O48  1  0.69217000  0.18749000  0.32482000  1.0
  O  O49  1  0.81251000  0.30784000  0.17519000  1.0
  O  O50  1  0.30783000  0.81252000  0.67518000  1.0
  O  O51  1  0.18748000  0.69217000  0.82481000  1.0
  O  O52  1  0.37386000  0.24744000  0.38314000  1.0
  O  O53  1  0.75256000  0.62614000  0.11686000  1.0
  O  O54  1  0.62613000  0.75256000  0.61686000  1.0
  O  O55  1  0.24744000  0.37386000  0.88314000  1.0
  O  O56  1  0.32383000  0.27988000  0.67307000  1.0
  O  O57  1  0.72012000  0.67617000  0.82693000  1.0
  O  O58  1  0.67618000  0.72013000  0.32693000  1.0
  O  O59  1  0.27988000  0.32382000  0.17307000  1.0
  O  O60  1  0.65080000  0.08433000  0.72368000  1.0
  O  O61  1  0.91567000  0.34919000  0.77632000  1.0
  O  O62  1  0.34920000  0.91567000  0.27632000  1.0
  O  O63  1  0.08433000  0.65079000  0.22368000  1.0
