# generated using pymatgen
data_ZnH13C27NO10F
_symmetry_space_group_name_H-M   'P 1'
_cell_length_a   15.98330000
_cell_length_b   16.52740000
_cell_length_c   17.96810000
_cell_angle_alpha   89.62490000
_cell_angle_beta   89.44280000
_cell_angle_gamma   89.82000000
_symmetry_Int_Tables_number   1
_chemical_formula_structural   ZnH13C27NO10F
_chemical_formula_sum   'Zn2 H26 C54 N2 O20 F2'
_cell_volume   4746.14763848
_cell_formula_units_Z   2
loop_
 _symmetry_equiv_pos_site_id
 _symmetry_equiv_pos_as_xyz
  1  'x, y, z'
loop_
 _atom_site_type_symbol
 _atom_site_label
 _atom_site_symmetry_multiplicity
 _atom_site_fract_x
 _atom_site_fract_y
 _atom_site_fract_z
 _atom_site_occupancy
  Zn  Zn0  1  0.50090000  0.41753000  0.50300000  1.0
  Zn  Zn1  1  0.50351000  0.58700000  0.50261000  1.0
  H  H2  1  0.38341000  0.29361000  0.44515000  1.0
  H  H3  1  0.94246000  0.56606000  0.59771000  1.0
  H  H4  1  0.61503000  0.45500000  0.88295000  1.0
  H  H5  1  0.35086000  0.50635000  0.87774000  1.0
  H  H6  1  0.34914000  0.50411000  0.13102000  1.0
  H  H7  1  0.61416000  0.45589000  0.12284000  1.0
  H  H8  1  0.27784000  0.53055000  0.23571000  1.0
  H  H9  1  0.69558000  0.45152000  0.22424000  1.0
  H  H10  1  0.35223000  0.06602000  0.43376000  1.0
  H  H11  1  0.40617000  0.93903000  0.37935000  1.0
  H  H12  1  0.00910000  0.42300000  0.32717000  1.0
  H  H13  1  0.42807000  0.71124000  0.40532000  1.0
  H  H14  1  0.16279000  0.57988000  0.38190000  1.0
  H  H15  1  0.13208000  0.64441000  0.53581000  1.0
  H  H16  1  0.04168000  0.28902000  0.47566000  1.0
  H  H17  1  0.14106000  0.39118000  0.60774000  1.0
  H  H18  1  0.16610000  0.54079000  0.62840000  1.0
  H  H19  1  0.69656000  0.44919000  0.78131000  1.0
  H  H20  1  0.28143000  0.53541000  0.77527000  1.0
  H  H21  1  0.61166000  0.28465000  0.55268000  1.0
  H  H22  1  0.57754000  0.72020000  0.59232000  1.0
  H  H23  1  0.61269000  0.13223000  0.55283000  1.0
  H  H24  1  0.57699000  0.87247000  0.59151000  1.0
  H  H25  1  0.92316000  0.62520000  0.46124000  1.0
  H  H26  1  0.94235000  0.37025000  0.51116000  1.0
  H  H27  1  0.92342000  0.46184000  0.61226000  1.0
  C  C28  1  0.49517000  0.50524000  0.35725000  1.0
  C  C29  1  0.41464000  0.50643000  0.77166000  1.0
  C  C30  1  0.49151000  0.49763000  0.73296000  1.0
  C  C31  1  0.48234000  0.47976000  0.89123000  1.0
  C  C32  1  0.47906000  0.47431000  0.96978000  1.0
  C  C33  1  0.34107000  0.50329000  0.50289000  1.0
  C  C34  1  0.47862000  0.47412000  0.03767000  1.0
  C  C35  1  0.40931000  0.49731000  0.15871000  1.0
  C  C36  1  0.55723000  0.47039000  0.15414000  1.0
  C  C37  1  0.41281000  0.50724000  0.23593000  1.0
  C  C38  1  0.56197000  0.48051000  0.23112000  1.0
  C  C39  1  0.95557000  0.50549000  0.57569000  1.0
  C  C40  1  0.48968000  0.49933000  0.27348000  1.0
  C  C41  1  0.48122000  0.47947000  0.11617000  1.0
  C  C42  1  0.42860000  0.17147000  0.46376000  1.0
  C  C43  1  0.45519000  0.83337000  0.44055000  1.0
  C  C44  1  0.43334000  0.25578000  0.46774000  1.0
  C  C45  1  0.45979000  0.74907000  0.44576000  1.0
  C  C46  1  0.56066000  0.24981000  0.52898000  1.0
  C  C47  1  0.54387000  0.75486000  0.55026000  1.0
  C  C48  1  0.56100000  0.16595000  0.52851000  1.0
  C  C49  1  0.54321000  0.83877000  0.54956000  1.0
  C  C50  1  0.04985000  0.48867000  0.57605000  1.0
  C  C51  1  0.49384000  0.12486000  0.49559000  1.0
  C  C52  1  0.49785000  0.87997000  0.49408000  1.0
  C  C53  1  0.49713000  0.50353000  0.64903000  1.0
  C  C54  1  0.49355000  0.03930000  0.49424000  1.0
  C  C55  1  0.49554000  0.96553000  0.49316000  1.0
  C  C56  1  0.66326000  0.49740000  0.50290000  1.0
  C  C57  1  0.04737000  0.42109000  0.44781000  1.0
  C  C58  1  0.04942000  0.57581000  0.45866000  1.0
  C  C59  1  0.95440000  0.56797000  0.44729000  1.0
  C  C60  1  0.95326000  0.41563000  0.46695000  1.0
  C  C61  1  0.82940000  0.49819000  0.49841000  1.0
  C  C62  1  0.75361000  0.49731000  0.50140000  1.0
  C  C63  1  0.08570000  0.49503000  0.49285000  1.0
  C  C64  1  0.92003000  0.49771000  0.49587000  1.0
  C  C65  1  0.33243000  0.52674000  0.27402000  1.0
  C  C66  1  0.64609000  0.47156000  0.26472000  1.0
  C  C67  1  0.35606000  0.13315000  0.42704000  1.0
  C  C68  1  0.40678000  0.87148000  0.37948000  1.0
  C  C69  1  0.06405000  0.43169000  0.36305000  1.0
  C  C70  1  0.09833000  0.60465000  0.38706000  1.0
  C  C71  1  0.06874000  0.64729000  0.51043000  1.0
  C  C72  1  0.17582000  0.49642000  0.49330000  1.0
  C  C73  1  0.08841000  0.33819000  0.46589000  1.0
  C  C74  1  0.07289000  0.40484000  0.60807000  1.0
  C  C75  1  0.09658000  0.54411000  0.63129000  1.0
  C  C76  1  0.64808000  0.47051000  0.74101000  1.0
  C  C77  1  0.33358000  0.52262000  0.73495000  1.0
  C  C78  1  0.25095000  0.50340000  0.49920000  1.0
  C  C79  1  0.55833000  0.46972000  0.85220000  1.0
  C  C80  1  0.41097000  0.49832000  0.84928000  1.0
  C  C81  1  0.56352000  0.47940000  0.77494000  1.0
  N  N82  1  0.49753000  0.29360000  0.49968000  1.0
  N  N83  1  0.50274000  0.71106000  0.49927000  1.0
  O  O84  1  0.49252000  0.43699000  0.38986000  1.0
  O  O85  1  0.66301000  0.48461000  0.32956000  1.0
  O  O86  1  0.30383000  0.17080000  0.39164000  1.0
  O  O87  1  0.36998000  0.83315000  0.33208000  1.0
  O  O88  1  0.13347000  0.44644000  0.33822000  1.0
  O  O89  1  0.06908000  0.65373000  0.34419000  1.0
  O  O90  1  0.02203000  0.70437000  0.52049000  1.0
  O  O91  1  0.16308000  0.32561000  0.46764000  1.0
  O  O92  1  0.02182000  0.35705000  0.63320000  1.0
  O  O93  1  0.05973000  0.58406000  0.67801000  1.0
  O  O94  1  0.66666667  0.48499000  0.67624000  1.0
  O  O95  1  0.50214000  0.57441000  0.38593000  1.0
  O  O96  1  0.32056000  0.52181000  0.66800000  1.0
  O  O97  1  0.37413000  0.43343000  0.50508000  1.0
  O  O98  1  0.37727000  0.57153000  0.50347000  1.0
  O  O99  1  0.49707000  0.43546000  0.61701000  1.0
  O  O100  1  0.50119000  0.57332000  0.62009000  1.0
  O  O101  1  0.62748000  0.42865000  0.50294000  1.0
  O  O102  1  0.62806000  0.56654000  0.50373000  1.0
  O  O103  1  0.32350000  0.53854000  0.34063000  1.0
  F  F104  1  0.90857000  0.38735000  0.40531000  1.0
  F  F105  1  0.93617000  0.55120000  0.37234000  1.0
