# generated using pymatgen
data_K2FeH20(C6S)4
_symmetry_space_group_name_H-M   'P 1'
_cell_length_a   12.00620000
_cell_length_b   12.04180000
_cell_length_c   12.05310000
_cell_angle_alpha   95.74720000
_cell_angle_beta   116.69950000
_cell_angle_gamma   116.72600000
_symmetry_Int_Tables_number   1
_chemical_formula_structural   K2FeH20(C6S)4
_chemical_formula_sum   'K4 Fe2 H40 C48 S8'
_cell_volume   1286.88976641
_cell_formula_units_Z   2
loop_
 _symmetry_equiv_pos_site_id
 _symmetry_equiv_pos_as_xyz
  1  'x, y, z'
loop_
 _atom_site_type_symbol
 _atom_site_label
 _atom_site_symmetry_multiplicity
 _atom_site_fract_x
 _atom_site_fract_y
 _atom_site_fract_z
 _atom_site_occupancy
  K  K0  1  0.32936000  0.20442000  0.37498000  1.0
  K  K1  1  0.67028000  0.04546000  0.87494000  1.0
  K  K2  1  0.82935000  0.62500000  0.95450000  1.0
  K  K3  1  0.17040000  0.12509000  0.79558000  1.0
  Fe  Fe4  1  0.50011000  0.24997000  0.75007000  1.0
  Fe  Fe5  1  0.00005000  0.00005000  0.99991000  1.0
  H  H6  1  0.21780000  0.89192000  0.73230000  1.0
  H  H7  1  0.78199000  0.51406000  0.67359000  1.0
  H  H8  1  0.16004000  0.26812000  0.48620000  1.0
  H  H9  1  0.84087000  0.32634000  0.10845000  1.0
  H  H10  1  0.34138000  0.35876000  0.07678000  1.0
  H  H11  1  0.65950000  0.73589000  0.01779000  1.0
  H  H12  1  0.71789000  0.98260000  0.64167000  1.0
  H  H13  1  0.28182000  0.92338000  0.26400000  1.0
  H  H14  1  0.24778000  0.70502000  0.76474000  1.0
  H  H15  1  0.75218000  0.51688000  0.45710000  1.0
  H  H16  1  0.93982000  0.23532000  0.48332000  1.0
  H  H17  1  0.06046000  0.54289000  0.29532000  1.0
  H  H18  1  0.56088000  0.54559000  0.29333000  1.0
  H  H19  1  0.43939000  0.73320000  0.98511000  1.0
  H  H20  1  0.74788000  0.01487000  0.45487000  1.0
  H  H21  1  0.25189000  0.70662000  0.26654000  1.0
  H  H22  1  0.35373000  0.63128000  0.66059000  1.0
  H  H23  1  0.64646000  0.30718000  0.27794000  1.0
  H  H24  1  0.96975000  0.33908000  0.69280000  1.0
  H  H25  1  0.02950000  0.72212000  0.36863000  1.0
  H  H26  1  0.52954000  0.61874000  0.47223000  1.0
  H  H27  1  0.46974000  0.94298000  0.08922000  1.0
  H  H28  1  0.85373000  0.91045000  0.38125000  1.0
  H  H29  1  0.14635000  0.52751000  0.05693000  1.0
  H  H30  1  0.42411000  0.74495000  0.51810000  1.0
  H  H31  1  0.57613000  0.09442000  0.32138000  1.0
  H  H32  1  0.22637000  0.48148000  0.90536000  1.0
  H  H33  1  0.77263000  0.67868000  0.25466000  1.0
  H  H34  1  0.27244000  0.50468000  0.42848000  1.0
  H  H35  1  0.72661000  0.15558000  0.23185000  1.0
  H  H36  1  0.92393000  0.76777000  0.49488000  1.0
  H  H37  1  0.07637000  0.57135000  0.84455000  1.0
  H  H38  1  0.38555000  0.92658000  0.47912000  1.0
  H  H39  1  0.61448000  0.09366000  0.54116000  1.0
  H  H40  1  0.44787000  0.52082000  0.90618000  1.0
  H  H41  1  0.55175000  0.45882000  0.07303000  1.0
  H  H42  1  0.05178000  0.32299000  0.20869000  1.0
  H  H43  1  0.94786000  0.15614000  0.27083000  1.0
  H  H44  1  0.88552000  0.72916000  0.67654000  1.0
  H  H45  1  0.11469000  0.79136000  0.84409000  1.0
  C  C46  1  0.29864000  0.92294000  0.60252000  1.0
  C  C47  1  0.70134000  0.30370000  0.62406000  1.0
  C  C48  1  0.32087000  0.39771000  0.69635000  1.0
  C  C49  1  0.67948000  0.37594000  0.07703000  1.0
  C  C50  1  0.17979000  0.32723000  0.12610000  1.0
  C  C51  1  0.82054000  0.94612000  0.14752000  1.0
  C  C52  1  0.79870000  0.85273000  0.67280000  1.0
  C  C53  1  0.20143000  0.87413000  0.05393000  1.0
  C  C54  1  0.26007000  0.85802000  0.68282000  1.0
  C  C55  1  0.73982000  0.42251000  0.59763000  1.0
  C  C56  1  0.17541000  0.31742000  0.57766000  1.0
  C  C57  1  0.82510000  0.40235000  0.14218000  1.0
  C  C58  1  0.32555000  0.39245000  0.15270000  1.0
  C  C59  1  0.67494000  0.82742000  0.06717000  1.0
  C  C60  1  0.76017000  0.93306000  0.60784000  1.0
  C  C61  1  0.23970000  0.84744000  0.17249000  1.0
  C  C62  1  0.27803000  0.75314000  0.70185000  1.0
  C  C63  1  0.72195000  0.42377000  0.47501000  1.0
  C  C64  1  0.05098000  0.29816000  0.57636000  1.0
  C  C65  1  0.94913000  0.52498000  0.24703000  1.0
  C  C66  1  0.44946000  0.49725000  0.27533000  1.0
  C  C67  1  0.55064000  0.82630000  0.04801000  1.0
  C  C68  1  0.77812000  0.95195000  0.50300000  1.0
  C  C69  1  0.22173000  0.72465000  0.17356000  1.0
  C  C70  1  0.33687000  0.71112000  0.64297000  1.0
  C  C71  1  0.66323000  0.30629000  0.37446000  1.0
  C  C72  1  0.06759000  0.35680000  0.69372000  1.0
  C  C73  1  0.93196000  0.62556000  0.28880000  1.0
  C  C74  1  0.43206000  0.53893000  0.37570000  1.0
  C  C75  1  0.56750000  0.94380000  0.10688000  1.0
  C  C76  1  0.83687000  0.89288000  0.46104000  1.0
  C  C77  1  0.16318000  0.62416000  0.05615000  1.0
  C  C78  1  0.37571000  0.77462000  0.56301000  1.0
  C  C79  1  0.62440000  0.18753000  0.39920000  1.0
  C  C80  1  0.21131000  0.43674000  0.81234000  1.0
  C  C81  1  0.78808000  0.60081000  0.22511000  1.0
  C  C82  1  0.28804000  0.47520000  0.35074000  1.0
  C  C83  1  0.71137000  0.06242000  0.18696000  1.0
  C  C84  1  0.87558000  0.81282000  0.52452000  1.0
  C  C85  1  0.12459000  0.64915000  0.93764000  1.0
  C  C86  1  0.35540000  0.87796000  0.54178000  1.0
  C  C87  1  0.64459000  0.18641000  0.52259000  1.0
  C  C88  1  0.33640000  0.45821000  0.81349000  1.0
  C  C89  1  0.66338000  0.47738000  0.12179000  1.0
  C  C90  1  0.16348000  0.37185000  0.22734000  1.0
  C  C91  1  0.83631000  0.06340000  0.20824000  1.0
  C  C92  1  0.85536000  0.79181000  0.62787000  1.0
  C  C93  1  0.14478000  0.77270000  0.93670000  1.0
  S  S94  1  0.27891000  0.05733000  0.57976000  1.0
  S  S95  1  0.72146000  0.30053000  0.77806000  1.0
  S  S96  1  0.47848000  0.42058000  0.69945000  1.0
  S  S97  1  0.52227000  0.22202000  0.94271000  1.0
  S  S98  1  0.02266000  0.19300000  0.97216000  1.0
  S  S99  1  0.97801000  0.94907000  0.17016000  1.0
  S  S100  1  0.77892000  0.83003000  0.80710000  1.0
  S  S101  1  0.22165000  0.02835000  0.05096000  1.0
