# generated using pymatgen
data_MnH3C2O3
_symmetry_space_group_name_H-M   'P 1'
_cell_length_a   5.89777000
_cell_length_b   7.41115000
_cell_length_c   7.94645000
_cell_angle_alpha   89.99950000
_cell_angle_beta   92.07610000
_cell_angle_gamma   89.99940000
_symmetry_Int_Tables_number   1
_chemical_formula_structural   MnH3C2O3
_chemical_formula_sum   'Mn4 H12 C8 O12'
_cell_volume   347.10544189
_cell_formula_units_Z   4
loop_
 _symmetry_equiv_pos_site_id
 _symmetry_equiv_pos_as_xyz
  1  'x, y, z'
loop_
 _atom_site_type_symbol
 _atom_site_label
 _atom_site_symmetry_multiplicity
 _atom_site_fract_x
 _atom_site_fract_y
 _atom_site_fract_z
 _atom_site_occupancy
  Mn  Mn0  1  0.75770000  0.10154000  0.52746000  1.0
  Mn  Mn1  1  0.74230000  0.60154000  0.47254000  1.0
  Mn  Mn2  1  0.24230000  0.89846000  0.47254000  1.0
  Mn  Mn3  1  0.25770000  0.39846000  0.52746000  1.0
  H  H4  1  0.07271000  0.18787000  0.30689000  1.0
  H  H5  1  0.42729000  0.68787000  0.69311000  1.0
  H  H6  1  0.92729000  0.81213000  0.69311000  1.0
  H  H7  1  0.57271000  0.31213000  0.30689000  1.0
  H  H8  1  0.92859000  0.31228000  0.06400000  1.0
  H  H9  1  0.57142000  0.81228000  0.93601000  1.0
  H  H10  1  0.07142000  0.68771000  0.93600000  1.0
  H  H11  1  0.42858000  0.18772000  0.06399000  1.0
  H  H12  1  0.74077000  0.48778000  0.00402000  1.0
  H  H13  1  0.75923000  0.98778000  0.99598000  1.0
  H  H14  1  0.25924000  0.51221000  0.99598000  1.0
  H  H15  1  0.24076000  0.01222000  0.00402000  1.0
  C  C16  1  0.90864000  0.42931000  0.98020000  1.0
  C  C17  1  0.59136000  0.92932000  0.01980000  1.0
  C  C18  1  0.09136000  0.57069000  0.01980000  1.0
  C  C19  1  0.40864000  0.07068000  0.98020000  1.0
  C  C20  1  0.90449000  0.36366000  0.80013000  1.0
  C  C21  1  0.59552000  0.86363000  0.19987000  1.0
  C  C22  1  0.09551000  0.63634000  0.19988000  1.0
  C  C23  1  0.40448000  0.13636000  0.80013000  1.0
  O  O24  1  0.08938000  0.15900000  0.42625000  1.0
  O  O25  1  0.41061000  0.65900000  0.57375000  1.0
  O  O26  1  0.91061000  0.84100000  0.57375000  1.0
  O  O27  1  0.58938000  0.34100000  0.42625000  1.0
  O  O28  1  0.86170000  0.19844000  0.77250000  1.0
  O  O29  1  0.63829000  0.69846000  0.22750000  1.0
  O  O30  1  0.13830000  0.80156000  0.22750000  1.0
  O  O31  1  0.36170000  0.30153000  0.77250000  1.0
  O  O32  1  0.94237000  0.47893000  0.68288000  1.0
  O  O33  1  0.55763000  0.97893000  0.31713000  1.0
  O  O34  1  0.05764000  0.52107000  0.31713000  1.0
  O  O35  1  0.44237000  0.02106000  0.68287000  1.0
