# generated using pymatgen
data_CoH22C24(N2O3)2
_symmetry_space_group_name_H-M   'P 1'
_cell_length_a   5.51368000
_cell_length_b   9.68504000
_cell_length_c   13.24370000
_cell_angle_alpha   87.79400000
_cell_angle_beta   85.58040000
_cell_angle_gamma   77.76700000
_symmetry_Int_Tables_number   1
_chemical_formula_structural   CoH22C24(N2O3)2
_chemical_formula_sum   'Co1 H22 C24 N4 O6'
_cell_volume   688.92483994
_cell_formula_units_Z   1
loop_
 _symmetry_equiv_pos_site_id
 _symmetry_equiv_pos_as_xyz
  1  'x, y, z'
loop_
 _atom_site_type_symbol
 _atom_site_label
 _atom_site_symmetry_multiplicity
 _atom_site_fract_x
 _atom_site_fract_y
 _atom_site_fract_z
 _atom_site_occupancy
  Co  Co0  1  0.99999000  0.00000000  0.00000000  1.0
  H  H1  1  0.99771000  0.88767000  0.69960000  1.0
  H  H2  1  0.00230000  0.11233000  0.30040000  1.0
  H  H3  1  0.85736000  0.74326000  0.57285000  1.0
  H  H4  1  0.14267000  0.25674000  0.42715000  1.0
  H  H5  1  0.50211000  0.41354000  0.61197000  1.0
  H  H6  1  0.49791000  0.58647000  0.38802000  1.0
  H  H7  1  0.64849000  0.56103000  0.73760000  1.0
  H  H8  1  0.35154000  0.43896000  0.26240000  1.0
  H  H9  1  0.38084000  0.12370000  0.89274000  1.0
  H  H10  1  0.61914000  0.87629000  0.10725000  1.0
  H  H11  1  0.40284000  0.35813000  0.81379000  1.0
  H  H12  1  0.59715000  0.64185000  0.18620000  1.0
  H  H13  1  0.02357000  0.55778000  0.83075000  1.0
  H  H14  1  0.97645000  0.44221000  0.16926000  1.0
  H  H15  1  0.64204000  0.50965000  0.92593000  1.0
  H  H16  1  0.35797000  0.49035000  0.07408000  1.0
  H  H17  1  0.64404000  0.26550000  0.99832000  1.0
  H  H18  1  0.35597000  0.73449000  0.00169000  1.0
  H  H19  1  0.29722000  0.10260000  0.10816000  1.0
  H  H20  1  0.70273000  0.89742000  0.89185000  1.0
  H  H21  1  0.07228000  0.03730000  0.15615000  1.0
  H  H22  1  0.92768000  0.96270000  0.84384000  1.0
  C  C23  1  0.39753000  0.81218000  0.81392000  1.0
  C  C24  1  0.60246000  0.18783000  0.18609000  1.0
  C  C25  1  0.32789000  0.73114000  0.72978000  1.0
  C  C26  1  0.67212000  0.26887000  0.27022000  1.0
  C  C27  1  0.10804000  0.78353000  0.68077000  1.0
  C  C28  1  0.89195000  0.21647000  0.31922000  1.0
  C  C29  1  0.02892000  0.70430000  0.60996000  1.0
  C  C30  1  0.97112000  0.29571000  0.39003000  1.0
  C  C31  1  0.16945000  0.56847000  0.58735000  1.0
  C  C32  1  0.83057000  0.43154000  0.41265000  1.0
  C  C33  1  0.39455000  0.51787000  0.63253000  1.0
  C  C34  1  0.60545000  0.48215000  0.36746000  1.0
  C  C35  1  0.47426000  0.59934000  0.70228000  1.0
  C  C36  1  0.52576000  0.40067000  0.29772000  1.0
  C  C37  1  0.22135000  0.21178000  0.89864000  1.0
  C  C38  1  0.77864000  0.78821000  0.10136000  1.0
  C  C39  1  0.23123000  0.34329000  0.85474000  1.0
  C  C40  1  0.76875000  0.65670000  0.14527000  1.0
  C  C41  1  0.02222000  0.45301000  0.86375000  1.0
  C  C42  1  0.97777000  0.54699000  0.13626000  1.0
  C  C43  1  0.80811000  0.42604000  0.91689000  1.0
  C  C44  1  0.19188000  0.57394000  0.08311000  1.0
  C  C45  1  0.80832000  0.29155000  0.95752000  1.0
  C  C46  1  0.19167000  0.70844000  0.04249000  1.0
  N  N47  1  0.09913000  0.47479000  0.52169000  1.0
  N  N48  1  0.90090000  0.52523000  0.47831000  1.0
  N  N49  1  0.01198000  0.18562000  0.94860000  1.0
  N  N50  1  0.98800000  0.81437000  0.05139000  1.0
  O  O51  1  0.24045000  0.92240000  0.84393000  1.0
  O  O52  1  0.75952000  0.07762000  0.15606000  1.0
  O  O53  1  0.60448000  0.76605000  0.85266000  1.0
  O  O54  1  0.39552000  0.23395000  0.14734000  1.0
  O  O55  1  0.22202000  0.01453000  0.10676000  1.0
  O  O56  1  0.77797000  0.98547000  0.89324000  1.0
