# generated using pymatgen
data_Zn2H12C41N5(O7F3)2
_symmetry_space_group_name_H-M   'P 1'
_cell_length_a   13.24630000
_cell_length_b   13.87750000
_cell_length_c   28.53190000
_cell_angle_alpha   89.83950000
_cell_angle_beta   89.77880000
_cell_angle_gamma   89.84070000
_symmetry_Int_Tables_number   1
_chemical_formula_structural   Zn2H12C41N5(O7F3)2
_chemical_formula_sum   'Zn4 H24 C82 N10 O28 F12'
_cell_volume   5244.81180974
_cell_formula_units_Z   2
loop_
 _symmetry_equiv_pos_site_id
 _symmetry_equiv_pos_as_xyz
  1  'x, y, z'
loop_
 _atom_site_type_symbol
 _atom_site_label
 _atom_site_symmetry_multiplicity
 _atom_site_fract_x
 _atom_site_fract_y
 _atom_site_fract_z
 _atom_site_occupancy
  Zn  Zn0  1  0.50947000  0.40291000  0.49661000  1.0
  Zn  Zn1  1  0.48760000  0.60550000  0.50151000  1.0
  Zn  Zn2  1  0.50963000  0.59772000  0.03727000  1.0
  Zn  Zn3  1  0.48899000  0.39526000  0.03244000  1.0
  H  H4  1  0.39949000  0.25815000  0.54730000  1.0
  H  H5  1  0.62210000  0.24458000  0.44488000  1.0
  H  H6  1  0.59976000  0.74977000  0.45056000  1.0
  H  H7  1  0.37664000  0.76365000  0.55269000  1.0
  H  H8  1  0.50690000  0.62456000  0.18961000  1.0
  H  H9  1  0.49755000  0.31703000  0.17719000  1.0
  H  H10  1  0.50712000  0.37483000  0.34426000  1.0
  H  H11  1  0.49764000  0.68239000  0.35669000  1.0
  H  H12  1  0.49876000  0.65379000  0.64752000  1.0
  H  H13  1  0.49991000  0.34422000  0.64810000  1.0
  H  H14  1  0.49731000  0.34570000  0.88638000  1.0
  H  H15  1  0.50404000  0.65520000  0.88579000  1.0
  H  H16  1  0.83432000  0.37354000  0.49984000  1.0
  H  H17  1  0.80257000  0.68088000  0.49878000  1.0
  H  H18  1  0.16335000  0.62606000  0.50178000  1.0
  H  H19  1  0.19550000  0.31887000  0.49793000  1.0
  H  H20  1  0.39979000  0.74329000  0.98686000  1.0
  H  H21  1  0.62232000  0.75528000  0.08854000  1.0
  H  H22  1  0.60091000  0.25024000  0.08298000  1.0
  H  H23  1  0.37879000  0.23801000  0.98116000  1.0
  H  H24  1  0.83440000  0.62812000  0.03446000  1.0
  H  H25  1  0.80444000  0.32080000  0.03562000  1.0
  H  H26  1  0.16503000  0.37569000  0.03312000  1.0
  H  H27  1  0.19516000  0.68291000  0.03683000  1.0
  C  C28  1  0.49810000  0.50037000  0.59065000  1.0
  C  C29  1  0.30209000  0.48638000  0.49928000  1.0
  C  C30  1  0.50014000  0.51739000  0.40761000  1.0
  C  C31  1  0.69583000  0.51442000  0.49801000  1.0
  C  C32  1  0.49936000  0.49921000  0.94325000  1.0
  C  C33  1  0.30287000  0.51543000  0.03517000  1.0
  C  C34  1  0.50021000  0.48201000  0.12628000  1.0
  C  C35  1  0.69670000  0.48726000  0.03576000  1.0
  C  C36  1  0.44600000  0.21125000  0.52556000  1.0
  C  C37  1  0.43836000  0.11075000  0.52790000  1.0
  C  C38  1  0.37024000  0.06155000  0.55863000  1.0
  C  C39  1  0.57173000  0.20381000  0.46771000  1.0
  C  C40  1  0.57013000  0.10273000  0.46738000  1.0
  C  C41  1  0.63340000  0.04520000  0.43781000  1.0
  C  C42  1  0.55313000  0.79682000  0.47218000  1.0
  C  C43  1  0.56059000  0.89734000  0.46965000  1.0
  C  C44  1  0.62873000  0.94652000  0.43892000  1.0
  C  C45  1  0.42715000  0.80443000  0.52991000  1.0
  C  C46  1  0.42872000  0.90545000  0.53013000  1.0
  C  C47  1  0.36560000  0.96294000  0.55975000  1.0
  C  C48  1  0.50178000  0.05489000  0.49815000  1.0
  C  C49  1  0.49696000  0.95324000  0.49929000  1.0
  C  C50  1  0.50570000  0.55437000  0.20653000  1.0
  C  C51  1  0.50130000  0.38062000  0.19929000  1.0
  C  C52  1  0.50543000  0.37130000  0.24721000  1.0
  C  C53  1  0.50785000  0.45259000  0.27785000  1.0
  C  C54  1  0.50587000  0.44501000  0.32733000  1.0
  C  C55  1  0.50145000  0.61879000  0.33457000  1.0
  C  C56  1  0.50554000  0.62808000  0.28664000  1.0
  C  C57  1  0.50783000  0.54677000  0.25600000  1.0
  C  C58  1  0.50242000  0.47309000  0.17874000  1.0
  C  C59  1  0.50260000  0.52632000  0.35513000  1.0
  C  C60  1  0.49914000  0.58677000  0.66736000  1.0
  C  C61  1  0.50017000  0.58810000  0.71642000  1.0
  C  C62  1  0.50128000  0.67579000  0.74261000  1.0
  C  C63  1  0.49951000  0.41150000  0.66760000  1.0
  C  C64  1  0.49940000  0.41077000  0.71673000  1.0
  C  C65  1  0.49865000  0.32337000  0.74340000  1.0
  C  C66  1  0.49864000  0.41272000  0.86654000  1.0
  C  C67  1  0.49914000  0.41138000  0.81749000  1.0
  C  C68  1  0.49835000  0.32369000  0.79128000  1.0
  C  C69  1  0.50219000  0.58796000  0.86629000  1.0
  C  C70  1  0.50164000  0.58869000  0.81715000  1.0
  C  C71  1  0.50217000  0.67608000  0.79049000  1.0
  C  C72  1  0.49896000  0.49909000  0.64326000  1.0
  C  C73  1  0.49995000  0.49955000  0.74208000  1.0
  C  C74  1  0.50019000  0.50041000  0.89063000  1.0
  C  C75  1  0.50024000  0.49992000  0.79181000  1.0
  C  C76  1  0.86978000  0.44400000  0.49986000  1.0
  C  C77  1  0.85132000  0.61771000  0.49943000  1.0
  C  C78  1  0.95441000  0.62780000  0.50131000  1.0
  C  C79  1  0.02161000  0.54701000  0.50194000  1.0
  C  C80  1  0.12798000  0.55559000  0.50114000  1.0
  C  C81  1  0.14679000  0.38203000  0.49927000  1.0
  C  C82  1  0.04359000  0.37174000  0.50064000  1.0
  C  C83  1  0.97617000  0.45240000  0.50145000  1.0
  C  C84  1  0.80864000  0.52484000  0.49890000  1.0
  C  C85  1  0.18935000  0.47496000  0.49983000  1.0
  C  C86  1  0.44654000  0.78985000  0.00838000  1.0
  C  C87  1  0.43948000  0.89041000  0.00591000  1.0
  C  C88  1  0.37177000  0.94011000  0.97528000  1.0
  C  C89  1  0.57211000  0.79641000  0.06585000  1.0
  C  C90  1  0.57095000  0.89751000  0.06610000  1.0
  C  C91  1  0.63424000  0.95458000  0.09549000  1.0
  C  C92  1  0.55461000  0.20353000  0.06133000  1.0
  C  C93  1  0.56201000  0.10295000  0.06377000  1.0
  C  C94  1  0.62982000  0.05329000  0.09438000  1.0
  C  C95  1  0.42910000  0.19684000  0.00381000  1.0
  C  C96  1  0.43060000  0.09582000  0.00352000  1.0
  C  C97  1  0.36750000  0.03875000  0.97407000  1.0
  C  C98  1  0.50300000  0.94584000  0.03542000  1.0
  C  C99  1  0.49852000  0.04753000  0.03423000  1.0
  C  C100  1  0.87027000  0.55767000  0.03452000  1.0
  C  C101  1  0.85282000  0.38397000  0.03500000  1.0
  C  C102  1  0.95605000  0.37387000  0.03355000  1.0
  C  C103  1  0.02279000  0.45466000  0.03294000  1.0
  C  C104  1  0.12919000  0.44614000  0.03374000  1.0
  C  C105  1  0.14688000  0.61972000  0.03552000  1.0
  C  C106  1  0.04364000  0.62996000  0.03419000  1.0
  C  C107  1  0.97674000  0.54927000  0.03328000  1.0
  C  C108  1  0.80959000  0.47682000  0.03524000  1.0
  C  C109  1  0.19005000  0.52681000  0.03490000  1.0
  N  N110  1  0.51099000  0.25481000  0.49616000  1.0
  N  N111  1  0.48801000  0.75342000  0.50155000  1.0
  N  N112  1  0.51121000  0.74584000  0.03765000  1.0
  N  N113  1  0.48974000  0.24737000  0.03212000  1.0
  N  N114  1  0.50730000  0.72805000  0.26849000  1.0
  N  N115  1  0.50709000  0.27133000  0.26536000  1.0
  N  N116  1  0.00602000  0.27143000  0.50131000  1.0
  N  N117  1  0.99204000  0.72799000  0.50295000  1.0
  N  N118  1  0.00540000  0.73025000  0.03356000  1.0
  N  N119  1  0.99430000  0.27365000  0.03241000  1.0
  O  O120  1  0.50558000  0.42032000  0.56924000  1.0
  O  O121  1  0.48992000  0.58312000  0.57144000  1.0
  O  O122  1  0.33625000  0.57183000  0.50002000  1.0
  O  O123  1  0.35373000  0.40895000  0.49815000  1.0
  O  O124  1  0.49297000  0.59633000  0.42999000  1.0
  O  O125  1  0.50534000  0.43335000  0.42521000  1.0
  O  O126  1  0.66097000  0.42916000  0.49591000  1.0
  O  O127  1  0.64481000  0.59199000  0.49968000  1.0
  O  O128  1  0.50776000  0.57910000  0.96464000  1.0
  O  O129  1  0.49010000  0.41659000  0.96248000  1.0
  O  O130  1  0.33758000  0.43000000  0.03493000  1.0
  O  O131  1  0.35403000  0.59291000  0.03553000  1.0
  O  O132  1  0.49474000  0.40297000  0.10392000  1.0
  O  O133  1  0.50402000  0.56607000  0.10864000  1.0
  O  O134  1  0.66138000  0.57250000  0.03834000  1.0
  O  O135  1  0.64610000  0.40981000  0.03344000  1.0
  O  O136  1  0.55782000  0.74502000  0.23265000  1.0
  O  O137  1  0.45959000  0.78942000  0.29103000  1.0
  O  O138  1  0.55776000  0.25405000  0.30096000  1.0
  O  O139  1  0.45913000  0.21027000  0.24307000  1.0
  O  O140  1  0.92787000  0.25371000  0.52390000  1.0
  O  O141  1  0.05670000  0.21047000  0.47990000  1.0
  O  O142  1  0.06836000  0.74491000  0.52667000  1.0
  O  O143  1  0.94309000  0.78965000  0.48115000  1.0
  O  O144  1  0.92800000  0.74807000  0.01065000  1.0
  O  O145  1  0.05484000  0.79107000  0.05532000  1.0
  O  O146  1  0.07164000  0.25635000  0.00913000  1.0
  O  O147  1  0.94485000  0.21233000  0.05420000  1.0
  F  F148  1  0.30117000  0.91829000  0.58917000  1.0
  F  F149  1  0.31011000  0.11428000  0.58690000  1.0
  F  F150  1  0.68893000  0.89375000  0.41076000  1.0
  F  F151  1  0.69832000  0.08974000  0.40865000  1.0
  F  F152  1  0.50327000  0.76103000  0.81386000  1.0
  F  F153  1  0.50152000  0.76047000  0.71878000  1.0
  F  F154  1  0.49734000  0.23902000  0.81513000  1.0
  F  F155  1  0.49794000  0.23841000  0.72004000  1.0
  F  F156  1  0.30333000  0.08382000  0.94479000  1.0
  F  F157  1  0.31149000  0.88778000  0.94725000  1.0
  F  F158  1  0.68988000  0.10566000  0.12241000  1.0
  F  F159  1  0.69882000  0.90952000  0.12452000  1.0
