# generated using pymatgen
data_CdH28C26(NO2)4
_symmetry_space_group_name_H-M   'P 1'
_cell_length_a   7.48869000
_cell_length_b   8.68015000
_cell_length_c   11.12270000
_cell_angle_alpha   95.28070000
_cell_angle_beta   102.52600000
_cell_angle_gamma   111.50500000
_symmetry_Int_Tables_number   1
_chemical_formula_structural   CdH28C26(NO2)4
_chemical_formula_sum   'Cd1 H28 C26 N4 O8'
_cell_volume   644.84651632
_cell_formula_units_Z   1
loop_
 _symmetry_equiv_pos_site_id
 _symmetry_equiv_pos_as_xyz
  1  'x, y, z'
loop_
 _atom_site_type_symbol
 _atom_site_label
 _atom_site_symmetry_multiplicity
 _atom_site_fract_x
 _atom_site_fract_y
 _atom_site_fract_z
 _atom_site_occupancy
  Cd  Cd0  1  0.00000000  0.00000000  0.00000000  1.0
  H  H1  1  0.66889000  0.32125000  0.88674000  1.0
  H  H2  1  0.33111000  0.67875000  0.11327000  1.0
  H  H3  1  0.54027000  0.23155000  0.11096000  1.0
  H  H4  1  0.45973000  0.76845000  0.88904000  1.0
  H  H5  1  0.78823000  0.68317000  0.74273000  1.0
  H  H6  1  0.21178000  0.31683000  0.25728000  1.0
  H  H7  1  0.01876000  0.66386000  0.79861000  1.0
  H  H8  1  0.98125000  0.33614000  0.20139000  1.0
  H  H9  1  0.89885000  0.86176000  0.25374000  1.0
  H  H10  1  0.10115000  0.13823000  0.74626000  1.0
  H  H11  1  0.20993000  0.07382000  0.42327000  1.0
  H  H12  1  0.79008000  0.92619000  0.57673000  1.0
  H  H13  1  0.56828000  0.36828000  0.32418000  1.0
  H  H14  1  0.43172000  0.63171000  0.67582000  1.0
  H  H15  1  0.74357000  0.67728000  0.39520000  1.0
  H  H16  1  0.25643000  0.32272000  0.60480000  1.0
  H  H17  1  0.73685000  0.31356000  0.53816000  1.0
  H  H18  1  0.26315000  0.68644000  0.46184000  1.0
  H  H19  1  0.95389000  0.50734000  0.59067000  1.0
  H  H20  1  0.04611000  0.49266000  0.40933000  1.0
  H  H21  1  0.71123000  0.51166000  0.54141000  1.0
  H  H22  1  0.28877000  0.48834000  0.45859000  1.0
  H  H23  1  0.65552000  0.90989000  0.34640000  1.0
  H  H24  1  0.34449000  0.09012000  0.65360000  1.0
  H  H25  1  0.68316000  0.06906000  0.99416000  1.0
  H  H26  1  0.31684000  0.93093000  0.00584000  1.0
  H  H27  1  0.64901000  0.99104000  0.11610000  1.0
  H  H28  1  0.35099000  0.00896000  0.88390000  1.0
  C  C29  1  0.81745000  0.58770000  0.91140000  1.0
  C  C30  1  0.18255000  0.41229000  0.08860000  1.0
  C  C31  1  0.70702000  0.47110000  0.06434000  1.0
  C  C32  1  0.29297000  0.52890000  0.93566000  1.0
  C  C33  1  0.61924000  0.36708000  0.14187000  1.0
  C  C34  1  0.38075000  0.63292000  0.85813000  1.0
  C  C35  1  0.42537000  0.99163000  0.37095000  1.0
  C  C36  1  0.57464000  0.00837000  0.62905000  1.0
  C  C37  1  0.85644000  0.60116000  0.78641000  1.0
  C  C38  1  0.14356000  0.39884000  0.21359000  1.0
  C  C39  1  0.34268000  0.98139000  0.23316000  1.0
  C  C40  1  0.65732000  0.01860000  0.76684000  1.0
  C  C41  1  0.80464000  0.64870000  0.10301000  1.0
  C  C42  1  0.19535000  0.35130000  0.89699000  1.0
  C  C43  1  0.82025000  0.72561000  0.22315000  1.0
  C  C44  1  0.17975000  0.27438000  0.77685000  1.0
  C  C45  1  0.33693000  0.04141000  0.45791000  1.0
  C  C46  1  0.66308000  0.95860000  0.54209000  1.0
  C  C47  1  0.63573000  0.44552000  0.26120000  1.0
  C  C48  1  0.36426000  0.55448000  0.73880000  1.0
  C  C49  1  0.73509000  0.62145000  0.30120000  1.0
  C  C50  1  0.26491000  0.37855000  0.69880000  1.0
  C  C51  1  0.79598000  0.44358000  0.58924000  1.0
  C  C52  1  0.20402000  0.55642000  0.41076000  1.0
  C  C53  1  0.58930000  0.95048000  0.41441000  1.0
  C  C54  1  0.41070000  0.04952000  0.58559000  1.0
  N  N55  1  0.87065000  0.71753000  0.00469000  1.0
  N  N56  1  0.12934000  0.28247000  0.99531000  1.0
  N  N57  1  0.72027000  0.43814000  0.94303000  1.0
  N  N58  1  0.27973000  0.56186000  0.05697000  1.0
  O  O59  1  0.21239000  0.04183000  0.20284000  1.0
  O  O60  1  0.78762000  0.95817000  0.79716000  1.0
  O  O61  1  0.75324000  0.05510000  0.07759000  1.0
  O  O62  1  0.24676000  0.94490000  0.92241000  1.0
  O  O63  1  0.40895000  0.91372000  0.15482000  1.0
  O  O64  1  0.59105000  0.08628000  0.84518000  1.0
  O  O65  1  0.77505000  0.43664000  0.71273000  1.0
  O  O66  1  0.22495000  0.56336000  0.28727000  1.0
