# generated using pymatgen
data_ZnH42C36(NO3)2
_symmetry_space_group_name_H-M   'P 1'
_cell_length_a   10.10470000
_cell_length_b   12.88130506
_cell_length_c   16.75250727
_cell_angle_alpha   77.61573509
_cell_angle_beta   72.47135271
_cell_angle_gamma   66.91629492
_symmetry_Int_Tables_number   1
_chemical_formula_structural   ZnH42C36(NO3)2
_chemical_formula_sum   'Zn2 H84 C72 N4 O12'
_cell_volume   1901.22284875
_cell_formula_units_Z   2
loop_
 _symmetry_equiv_pos_site_id
 _symmetry_equiv_pos_as_xyz
  1  'x, y, z'
loop_
 _atom_site_type_symbol
 _atom_site_label
 _atom_site_symmetry_multiplicity
 _atom_site_fract_x
 _atom_site_fract_y
 _atom_site_fract_z
 _atom_site_occupancy
  Zn  Zn0  1  0.19335000  0.75014000  0.24999000  1.0
  Zn  Zn1  1  0.80664000  0.24987000  0.75000000  1.0
  H  H2  1  0.01249000  0.42090000  0.28865000  1.0
  H  H3  1  0.72164000  0.07947000  0.21133000  1.0
  H  H4  1  0.98752000  0.57909000  0.71135000  1.0
  H  H5  1  0.27835000  0.92054000  0.78867000  1.0
  H  H6  1  0.26755000  0.53804000  0.06091000  1.0
  H  H7  1  0.86654000  0.96217000  0.43901000  1.0
  H  H8  1  0.73246000  0.46196000  0.93908000  1.0
  H  H9  1  0.13347000  0.03782000  0.56099000  1.0
  H  H10  1  0.94740000  0.21765000  0.19148000  1.0
  H  H11  1  0.35646000  0.28255000  0.30849000  1.0
  H  H12  1  0.05261000  0.78235000  0.80852000  1.0
  H  H13  1  0.64354000  0.71745000  0.69151000  1.0
  H  H14  1  0.81015000  0.22826000  0.33618000  1.0
  H  H15  1  0.37443000  0.27203000  0.16380000  1.0
  H  H16  1  0.18987000  0.77173000  0.66382000  1.0
  H  H17  1  0.62558000  0.72798000  0.83620000  1.0
  H  H18  1  0.90915000  0.30252000  0.35664000  1.0
  H  H19  1  0.56806000  0.19780000  0.14331000  1.0
  H  H20  1  0.09083000  0.69749000  0.64337000  1.0
  H  H21  1  0.43194000  0.80221000  0.85669000  1.0
  H  H22  1  0.78849000  0.36905000  0.28725000  1.0
  H  H23  1  0.44467000  0.13126000  0.21267000  1.0
  H  H24  1  0.21152000  0.63094000  0.71275000  1.0
  H  H25  1  0.55534000  0.86874000  0.78733000  1.0
  H  H26  1  0.06100000  0.06697000  0.29667000  1.0
  H  H27  1  0.42431000  0.43334000  0.20340000  1.0
  H  H28  1  0.93900000  0.93303000  0.70334000  1.0
  H  H29  1  0.57567000  0.56666000  0.79661000  1.0
  H  H30  1  0.20363000  0.09275000  0.21112000  1.0
  H  H31  1  0.50726000  0.40759000  0.28897000  1.0
  H  H32  1  0.79637000  0.90725000  0.78889000  1.0
  H  H33  1  0.49271000  0.59242000  0.71104000  1.0
  H  H34  1  0.15989000  0.14926000  0.30717000  1.0
  H  H35  1  0.61600000  0.35118000  0.19284000  1.0
  H  H36  1  0.84011000  0.85074000  0.69283000  1.0
  H  H37  1  0.38399000  0.64883000  0.80716000  1.0
  H  H38  1  0.33161000  0.29198000  0.95039000  1.0
  H  H39  1  0.57441000  0.20816000  0.54968000  1.0
  H  H40  1  0.66839000  0.70801000  0.04962000  1.0
  H  H41  1  0.42560000  0.79183000  0.45032000  1.0
  H  H42  1  0.26307000  0.44996000  0.83637000  1.0
  H  H43  1  0.54987000  0.05004000  0.66365000  1.0
  H  H44  1  0.73694000  0.55002000  0.16362000  1.0
  H  H45  1  0.45012000  0.94995000  0.33635000  1.0
  H  H46  1  0.10278000  0.44049000  0.91449000  1.0
  H  H47  1  0.45825000  0.05959000  0.58547000  1.0
  H  H48  1  0.89722000  0.55949000  0.08551000  1.0
  H  H49  1  0.54174000  0.94041000  0.41452000  1.0
  H  H50  1  0.17265000  0.54788000  0.91284000  1.0
  H  H51  1  0.63385000  0.95226000  0.58709000  1.0
  H  H52  1  0.82735000  0.45211000  0.08715000  1.0
  H  H53  1  0.36615000  0.04774000  0.41290000  1.0
  H  H54  1  0.51351000  0.38631000  0.87719000  1.0
  H  H55  1  0.77784000  0.11373000  0.62272000  1.0
  H  H56  1  0.48649000  0.61368000  0.12280000  1.0
  H  H57  1  0.22216000  0.88625000  0.37728000  1.0
  H  H58  1  0.42814000  0.49238000  0.94619000  1.0
  H  H59  1  0.86715000  0.00773000  0.55366000  1.0
  H  H60  1  0.57185000  0.50761000  0.05381000  1.0
  H  H61  1  0.13285000  0.99225000  0.44634000  1.0
  H  H62  1  0.51876000  0.35000000  0.98457000  1.0
  H  H63  1  0.85378000  0.15012000  0.51532000  1.0
  H  H64  1  0.48124000  0.64999000  0.01543000  1.0
  H  H65  1  0.14622000  0.84987000  0.48469000  1.0
  H  H66  1  0.19374000  0.84858000  0.08110000  1.0
  H  H67  1  0.12330000  0.65177000  0.41896000  1.0
  H  H68  1  0.80629000  0.15141000  0.91889000  1.0
  H  H69  1  0.87670000  0.34827000  0.58103000  1.0
  H  H70  1  0.31649000  0.95885000  0.96360000  1.0
  H  H71  1  0.23897000  0.54143000  0.53645000  1.0
  H  H72  1  0.68359000  0.04112000  0.03639000  1.0
  H  H73  1  0.76103000  0.45863000  0.46355000  1.0
  H  H74  1  0.57813000  0.95514000  0.12821000  1.0
  H  H75  1  0.66138000  0.54463000  0.37166000  1.0
  H  H76  1  0.42192000  0.04481000  0.87181000  1.0
  H  H77  1  0.33863000  0.45538000  0.62832000  1.0
  H  H78  1  0.44135000  0.84892000  0.23786000  1.0
  H  H79  1  0.52786000  0.65096000  0.26206000  1.0
  H  H80  1  0.55865000  0.15106000  0.76215000  1.0
  H  H81  1  0.47213000  0.34904000  0.73792000  1.0
  H  H82  1  0.09773000  0.18737000  0.09499000  1.0
  H  H83  1  0.38011000  0.31279000  0.40501000  1.0
  H  H84  1  0.90226000  0.81263000  0.90501000  1.0
  H  H85  1  0.61988000  0.68720000  0.59499000  1.0
  C  C86  1  0.13815000  0.57654000  0.22348000  1.0
  C  C87  1  0.93789000  0.92374000  0.27642000  1.0
  C  C88  1  0.86185000  0.42346000  0.77651000  1.0
  C  C89  1  0.06211000  0.07627000  0.72357000  1.0
  C  C90  1  0.13836000  0.48825000  0.17859000  1.0
  C  C91  1  0.80492000  0.01191000  0.32138000  1.0
  C  C92  1  0.86162000  0.51176000  0.82140000  1.0
  C  C93  1  0.19509000  0.98810000  0.67861000  1.0
  C  C94  1  0.06820000  0.41129000  0.22258000  1.0
  C  C95  1  0.70175000  0.08893000  0.27743000  1.0
  C  C96  1  0.93178000  0.58872000  0.77742000  1.0
  C  C97  1  0.29825000  0.91108000  0.72257000  1.0
  C  C98  1  0.06961000  0.32502000  0.18408000  1.0
  C  C99  1  0.57855000  0.17521000  0.31595000  1.0
  C  C100  1  0.93039000  0.67498000  0.81592000  1.0
  C  C101  1  0.42143000  0.82480000  0.68406000  1.0
  C  C102  1  0.14669000  0.31616000  0.09867000  1.0
  C  C103  1  0.56146000  0.18401000  0.40138000  1.0
  C  C104  1  0.85330000  0.68384000  0.90133000  1.0
  C  C105  1  0.43853000  0.81599000  0.59863000  1.0
  C  C106  1  0.21990000  0.39168000  0.05273000  1.0
  C  C107  1  0.66435000  0.10851000  0.44729000  1.0
  C  C108  1  0.78010000  0.60832000  0.94726000  1.0
  C  C109  1  0.33564000  0.89150000  0.55272000  1.0
  C  C110  1  0.21249000  0.47786000  0.09392000  1.0
  C  C111  1  0.78417000  0.02231000  0.40605000  1.0
  C  C112  1  0.78750000  0.52214000  0.90608000  1.0
  C  C113  1  0.21584000  0.97769000  0.59394000  1.0
  C  C114  1  0.99663000  0.24003000  0.23330000  1.0
  C  C115  1  0.46983000  0.26018000  0.26669000  1.0
  C  C116  1  0.00337000  0.75997000  0.76670000  1.0
  C  C117  1  0.53016000  0.73982000  0.73332000  1.0
  C  C118  1  0.86839000  0.28814000  0.30753000  1.0
  C  C119  1  0.46391000  0.21215000  0.19240000  1.0
  C  C120  1  0.13161000  0.71186000  0.69247000  1.0
  C  C121  1  0.53609000  0.78786000  0.80760000  1.0
  C  C122  1  0.11188000  0.13042000  0.26358000  1.0
  C  C123  1  0.50561000  0.36991000  0.23647000  1.0
  C  C124  1  0.88813000  0.86958000  0.73642000  1.0
  C  C125  1  0.49438000  0.63009000  0.76354000  1.0
  C  C126  1  0.30395000  0.38014000  0.96139000  1.0
  C  C127  1  0.64581000  0.12001000  0.53865000  1.0
  C  C128  1  0.69603000  0.61985000  0.03862000  1.0
  C  C129  1  0.35417000  0.87998000  0.46135000  1.0
  C  C130  1  0.20473000  0.45869000  0.90295000  1.0
  C  C131  1  0.56684000  0.04141000  0.59705000  1.0
  C  C132  1  0.79526000  0.54130000  0.09705000  1.0
  C  C133  1  0.43316000  0.95858000  0.40295000  1.0
  C  C134  1  0.44868000  0.40335000  0.94153000  1.0
  C  C135  1  0.79403000  0.09676000  0.55839000  1.0
  C  C136  1  0.55132000  0.59664000  0.05847000  1.0
  C  C137  1  0.20596000  0.90323000  0.44162000  1.0
  C  C138  1  0.28056000  0.87394000  0.08767000  1.0
  C  C139  1  0.24204000  0.62636000  0.41237000  1.0
  C  C140  1  0.71947000  0.12605000  0.91233000  1.0
  C  C141  1  0.75795000  0.37368000  0.58762000  1.0
  C  C142  1  0.35033000  0.93594000  0.02269000  1.0
  C  C143  1  0.30892000  0.56431000  0.47735000  1.0
  C  C144  1  0.64972000  0.06405000  0.97731000  1.0
  C  C145  1  0.69107000  0.43574000  0.52265000  1.0
  C  C146  1  0.46112000  0.96750000  0.03408000  1.0
  C  C147  1  0.46264000  0.53257000  0.46593000  1.0
  C  C148  1  0.53892000  0.03248000  0.96594000  1.0
  C  C149  1  0.53734000  0.46748000  0.53408000  1.0
  C  C150  1  0.49422000  0.93445000  0.11343000  1.0
  C  C151  1  0.54198000  0.56551000  0.38655000  1.0
  C  C152  1  0.50582000  0.06552000  0.88659000  1.0
  C  C153  1  0.45800000  0.43452000  0.61345000  1.0
  C  C154  1  0.41856000  0.87343000  0.17554000  1.0
  C  C155  1  0.46733000  0.62660000  0.32445000  1.0
  C  C156  1  0.58145000  0.12656000  0.82447000  1.0
  C  C157  1  0.53266000  0.37341000  0.67554000  1.0
  N  N158  1  0.31428000  0.84249000  0.16325000  1.0
  N  N159  1  0.31981000  0.65771000  0.33677000  1.0
  N  N160  1  0.68571000  0.15751000  0.83676000  1.0
  N  N161  1  0.68018000  0.34231000  0.66322000  1.0
  O  O162  1  0.20118000  0.64771000  0.17677000  1.0
  O  O163  1  0.02543000  0.85247000  0.32311000  1.0
  O  O164  1  0.79881000  0.35229000  0.82322000  1.0
  O  O165  1  0.97456000  0.14753000  0.67689000  1.0
  O  O166  1  0.08373000  0.57882000  0.30126000  1.0
  O  O167  1  0.96350000  0.92168000  0.19860000  1.0
  O  O168  1  0.91628000  0.42118000  0.69873000  1.0
  O  O169  1  0.03651000  0.07833000  0.80139000  1.0
  O  O170  1  0.15500000  0.23187000  0.05687000  1.0
  O  O171  1  0.44375000  0.26831000  0.44316000  1.0
  O  O172  1  0.84501000  0.76812000  0.94313000  1.0
  O  O173  1  0.55624000  0.73168000  0.55684000  1.0
