# generated using pymatgen
data_CdH16C25N2O5
_symmetry_space_group_name_H-M   'P 1'
_cell_length_a   9.56974000
_cell_length_b   9.57198000
_cell_length_c   30.58330000
_cell_angle_alpha   97.46660000
_cell_angle_beta   96.09050000
_cell_angle_gamma   104.22300000
_symmetry_Int_Tables_number   1
_chemical_formula_structural   CdH16C25N2O5
_chemical_formula_sum   'Cd4 H64 C100 N8 O20'
_cell_volume   2664.66161713
_cell_formula_units_Z   4
loop_
 _symmetry_equiv_pos_site_id
 _symmetry_equiv_pos_as_xyz
  1  'x, y, z'
loop_
 _atom_site_type_symbol
 _atom_site_label
 _atom_site_symmetry_multiplicity
 _atom_site_fract_x
 _atom_site_fract_y
 _atom_site_fract_z
 _atom_site_occupancy
  Cd  Cd0  1  0.79889000  0.33443000  0.28931000  1.0
  Cd  Cd1  1  0.54540000  0.51013000  0.21070000  1.0
  Cd  Cd2  1  0.20111000  0.66557000  0.71069000  1.0
  Cd  Cd3  1  0.45460000  0.48986000  0.78930000  1.0
  H  H4  1  0.36560000  0.01143000  0.35841000  1.0
  H  H5  1  0.15328000  0.00727000  0.14159000  1.0
  H  H6  1  0.63440000  0.98858000  0.64159000  1.0
  H  H7  1  0.84672000  0.99272000  0.85841000  1.0
  H  H8  1  0.37308000  0.84553000  0.22019000  1.0
  H  H9  1  0.12576000  0.15349000  0.27980000  1.0
  H  H10  1  0.62691000  0.15447000  0.77981000  1.0
  H  H11  1  0.87424000  0.84651000  0.72020000  1.0
  H  H12  1  0.58589000  0.05654000  0.22138000  1.0
  H  H13  1  0.33560000  0.36499000  0.27849000  1.0
  H  H14  1  0.41411000  0.94346000  0.77862000  1.0
  H  H15  1  0.66440000  0.63500000  0.72151000  1.0
  H  H16  1  0.58458000  0.21184000  0.35391000  1.0
  H  H17  1  0.35808000  0.23083000  0.14596000  1.0
  H  H18  1  0.41543000  0.78817000  0.64609000  1.0
  H  H19  1  0.64192000  0.76917000  0.85404000  1.0
  H  H20  1  0.30509000  0.98542000  0.58722000  1.0
  H  H21  1  0.89819000  0.71776000  0.91284000  1.0
  H  H22  1  0.69491000  0.01458000  0.41277000  1.0
  H  H23  1  0.10181000  0.28224000  0.08716000  1.0
  H  H24  1  0.37511000  0.12507000  0.66514000  1.0
  H  H25  1  0.95968000  0.70973000  0.83491000  1.0
  H  H26  1  0.62490000  0.87492000  0.33486000  1.0
  H  H27  1  0.04032000  0.29027000  0.16510000  1.0
  H  H28  1  0.88228000  0.28029000  0.44779000  1.0
  H  H29  1  0.33222000  0.43496000  0.05255000  1.0
  H  H30  1  0.11772000  0.71971000  0.55221000  1.0
  H  H31  1  0.66778000  0.56505000  0.94745000  1.0
  H  H32  1  0.30377000  0.07062000  0.42976000  1.0
  H  H33  1  0.14179000  0.87525000  0.07010000  1.0
  H  H34  1  0.69623000  0.92938000  0.57023000  1.0
  H  H35  1  0.85821000  0.12476000  0.92990000  1.0
  H  H36  1  0.17511000  0.14865000  0.36426000  1.0
  H  H37  1  0.28535000  0.81263000  0.13570000  1.0
  H  H38  1  0.82488000  0.85135000  0.63574000  1.0
  H  H39  1  0.71465000  0.18737000  0.86430000  1.0
  H  H40  1  0.31467000  0.51165000  0.61710000  1.0
  H  H41  1  0.39433000  0.69700000  0.88278000  1.0
  H  H42  1  0.68534000  0.48836000  0.38289000  1.0
  H  H43  1  0.60567000  0.30300000  0.11722000  1.0
  H  H44  1  0.25151000  0.37600000  0.53979000  1.0
  H  H45  1  0.33628000  0.71139000  0.96013000  1.0
  H  H46  1  0.74850000  0.62401000  0.46021000  1.0
  H  H47  1  0.66371000  0.28861000  0.03987000  1.0
  H  H48  1  0.01095000  0.20902000  0.51289000  1.0
  H  H49  1  0.19596000  0.49806000  0.98733000  1.0
  H  H50  1  0.98906000  0.79099000  0.48711000  1.0
  H  H51  1  0.80404000  0.50194000  0.01266000  1.0
  H  H52  1  0.28799000  0.63673000  0.24257000  1.0
  H  H53  1  0.89495000  0.04579000  0.25758000  1.0
  H  H54  1  0.71201000  0.36327000  0.75743000  1.0
  H  H55  1  0.10504000  0.95420000  0.74242000  1.0
  H  H56  1  0.11694000  0.90252000  0.33778000  1.0
  H  H57  1  0.06501000  0.77941000  0.16223000  1.0
  H  H58  1  0.88306000  0.09749000  0.66222000  1.0
  H  H59  1  0.93499000  0.22059000  0.83777000  1.0
  H  H60  1  0.07276000  0.43091000  0.24530000  1.0
  H  H61  1  0.68630000  0.82800000  0.25492000  1.0
  H  H62  1  0.92725000  0.56909000  0.75471000  1.0
  H  H63  1  0.31369000  0.17199000  0.74508000  1.0
  H  H64  1  0.91167000  0.68554000  0.33662000  1.0
  H  H65  1  0.84904000  0.57550000  0.16346000  1.0
  H  H66  1  0.08833000  0.31446000  0.66338000  1.0
  H  H67  1  0.15096000  0.42450000  0.83654000  1.0
  C  C68  1  0.94177000  0.25848000  0.36271000  1.0
  C  C69  1  0.39612000  0.58036000  0.13747000  1.0
  C  C70  1  0.05822000  0.74152000  0.63729000  1.0
  C  C71  1  0.60388000  0.41964000  0.86253000  1.0
  C  C72  1  0.40867000  0.01853000  0.32697000  1.0
  C  C73  1  0.19191000  0.08196000  0.17299000  1.0
  C  C74  1  0.59134000  0.98147000  0.67303000  1.0
  C  C75  1  0.80808000  0.91804000  0.82701000  1.0
  C  C76  1  0.34783000  0.91230000  0.28924000  1.0
  C  C77  1  0.12351000  0.05890000  0.21075000  1.0
  C  C78  1  0.65217000  0.08771000  0.71076000  1.0
  C  C79  1  0.87649000  0.94110000  0.78925000  1.0
  C  C80  1  0.41296000  0.92577000  0.25046000  1.0
  C  C81  1  0.17565000  0.16295000  0.24950000  1.0
  C  C82  1  0.58704000  0.07423000  0.74954000  1.0
  C  C83  1  0.82435000  0.83705000  0.75050000  1.0
  C  C84  1  0.53355000  0.04189000  0.25104000  1.0
  C  C85  1  0.29121000  0.28290000  0.24886000  1.0
  C  C86  1  0.46645000  0.95810000  0.74897000  1.0
  C  C87  1  0.70879000  0.71709000  0.75114000  1.0
  C  C88  1  0.02105000  0.21817000  0.40220000  1.0
  C  C89  1  0.31643000  0.62006000  0.09794000  1.0
  C  C90  1  0.97895000  0.78183000  0.59780000  1.0
  C  C91  1  0.68358000  0.37994000  0.90206000  1.0
  C  C92  1  0.53088000  0.13012000  0.32490000  1.0
  C  C93  1  0.30545000  0.20625000  0.17499000  1.0
  C  C94  1  0.46913000  0.86988000  0.67510000  1.0
  C  C95  1  0.69454000  0.79375000  0.82500000  1.0
  C  C96  1  0.30829000  0.10075000  0.59426000  1.0
  C  C97  1  0.00645000  0.71378000  0.90576000  1.0
  C  C98  1  0.69172000  0.89925000  0.40573000  1.0
  C  C99  1  0.99355000  0.28622000  0.09424000  1.0
  C  C100  1  0.16764000  0.13738000  0.47533000  1.0
  C  C101  1  0.16251000  0.69291000  0.02471000  1.0
  C  C102  1  0.83235000  0.86262000  0.52467000  1.0
  C  C103  1  0.83749000  0.30709000  0.97529000  1.0
  C  C104  1  0.34722000  0.17795000  0.63727000  1.0
  C  C105  1  0.04047000  0.70959000  0.86274000  1.0
  C  C106  1  0.65279000  0.82205000  0.36273000  1.0
  C  C107  1  0.95953000  0.29040000  0.13726000  1.0
  C  C108  1  0.27386000  0.17111000  0.55859000  1.0
  C  C109  1  0.11257000  0.71502000  0.94141000  1.0
  C  C110  1  0.72615000  0.82889000  0.44141000  1.0
  C  C111  1  0.88743000  0.28498000  0.05859000  1.0
  C  C112  1  0.24591000  0.08639000  0.51250000  1.0
  C  C113  1  0.07398000  0.73332000  0.98749000  1.0
  C  C114  1  0.75409000  0.91361000  0.48750000  1.0
  C  C115  1  0.92602000  0.26668000  0.01251000  1.0
  C  C116  1  0.97596000  0.23631000  0.44419000  1.0
  C  C117  1  0.29214000  0.53241000  0.05604000  1.0
  C  C118  1  0.02404000  0.76371000  0.55581000  1.0
  C  C119  1  0.70787000  0.46760000  0.94396000  1.0
  C  C120  1  0.21194000  0.11805000  0.43308000  1.0
  C  C121  1  0.18577000  0.78002000  0.06687000  1.0
  C  C122  1  0.78805000  0.88195000  0.56692000  1.0
  C  C123  1  0.81423000  0.21999000  0.93313000  1.0
  C  C124  1  0.14036000  0.15965000  0.39707000  1.0
  C  C125  1  0.26337000  0.74474000  0.10294000  1.0
  C  C126  1  0.85963000  0.84035000  0.60294000  1.0
  C  C127  1  0.73662000  0.25526000  0.89706000  1.0
  C  C128  1  0.31500000  0.39716000  0.61042000  1.0
  C  C129  1  0.28653000  0.70401000  0.88949000  1.0
  C  C130  1  0.68501000  0.60284000  0.38958000  1.0
  C  C131  1  0.71347000  0.29598000  0.11051000  1.0
  C  C132  1  0.35256000  0.32704000  0.64564000  1.0
  C  C133  1  0.18111000  0.70645000  0.85431000  1.0
  C  C134  1  0.64744000  0.67296000  0.35436000  1.0
  C  C135  1  0.81889000  0.29355000  0.14569000  1.0
  C  C136  1  0.27677000  0.31974000  0.56715000  1.0
  C  C137  1  0.25255000  0.70909000  0.93278000  1.0
  C  C138  1  0.72324000  0.68026000  0.43285000  1.0
  C  C139  1  0.74745000  0.29089000  0.06722000  1.0
  C  C140  1  0.04914000  0.19709000  0.48061000  1.0
  C  C141  1  0.21662000  0.56893000  0.01955000  1.0
  C  C142  1  0.95086000  0.80291000  0.51939000  1.0
  C  C143  1  0.78339000  0.43107000  0.98045000  1.0
  C  C144  1  0.39807000  0.40848000  0.69227000  1.0
  C  C145  1  0.21590000  0.70544000  0.80768000  1.0
  C  C146  1  0.60193000  0.59151000  0.30772000  1.0
  C  C147  1  0.78410000  0.29456000  0.19232000  1.0
  C  C148  1  0.22198000  0.78835000  0.29020000  1.0
  C  C149  1  0.99863000  0.93209000  0.20984000  1.0
  C  C150  1  0.77802000  0.21165000  0.70980000  1.0
  C  C151  1  0.00137000  0.06791000  0.79016000  1.0
  C  C152  1  0.20701000  0.65290000  0.26378000  1.0
  C  C153  1  0.88982000  0.94365000  0.23636000  1.0
  C  C154  1  0.79299000  0.34711000  0.73622000  1.0
  C  C155  1  0.11017000  0.05635000  0.76364000  1.0
  C  C156  1  0.11380000  0.79996000  0.31701000  1.0
  C  C157  1  0.98329000  0.79714000  0.18302000  1.0
  C  C158  1  0.88620000  0.20004000  0.68299000  1.0
  C  C159  1  0.01671000  0.20286000  0.81697000  1.0
  C  C160  1  0.08808000  0.53765000  0.26529000  1.0
  C  C161  1  0.77299000  0.82333000  0.23488000  1.0
  C  C162  1  0.91192000  0.46234000  0.73472000  1.0
  C  C163  1  0.22701000  0.17666000  0.76512000  1.0
  C  C164  1  0.99749000  0.67897000  0.31630000  1.0
  C  C165  1  0.86297000  0.68162000  0.18380000  1.0
  C  C166  1  0.00251000  0.32104000  0.68370000  1.0
  C  C167  1  0.13703000  0.31838000  0.81620000  1.0
  N  N168  1  0.59301000  0.14156000  0.28763000  1.0
  N  N169  1  0.35423000  0.30570000  0.21225000  1.0
  N  N170  1  0.40699000  0.85844000  0.71237000  1.0
  N  N171  1  0.64577000  0.69429000  0.78775000  1.0
  N  N172  1  0.98398000  0.54948000  0.29086000  1.0
  N  N173  1  0.75903000  0.69369000  0.20929000  1.0
  N  N174  1  0.01602000  0.45053000  0.70914000  1.0
  N  N175  1  0.24096000  0.30630000  0.79071000  1.0
  O  O176  1  0.84506000  0.32699000  0.36894000  1.0
  O  O177  1  0.45816000  0.47721000  0.13127000  1.0
  O  O178  1  0.15493000  0.67301000  0.63106000  1.0
  O  O179  1  0.54185000  0.52279000  0.86873000  1.0
  O  O180  1  0.97402000  0.22158000  0.32410000  1.0
  O  O181  1  0.39799000  0.65143000  0.17604000  1.0
  O  O182  1  0.02597000  0.77842000  0.67590000  1.0
  O  O183  1  0.60201000  0.34857000  0.82395000  1.0
  O  O184  1  0.28993000  0.97581000  0.50474000  1.0
  O  O185  1  0.97077000  0.78458000  0.99520000  1.0
  O  O186  1  0.71007000  0.02420000  0.49525000  1.0
  O  O187  1  0.02923000  0.21543000  0.00480000  1.0
  O  O188  1  0.46213000  0.34971000  0.72064000  1.0
  O  O189  1  0.12903000  0.74167000  0.77937000  1.0
  O  O190  1  0.53787000  0.65028000  0.27936000  1.0
  O  O191  1  0.87097000  0.25833000  0.22063000  1.0
  O  O192  1  0.37290000  0.53240000  0.70230000  1.0
  O  O193  1  0.32952000  0.66974000  0.79759000  1.0
  O  O194  1  0.62709000  0.46760000  0.29770000  1.0
  O  O195  1  0.67048000  0.33025000  0.20241000  1.0
