# generated using pymatgen
data_ZnH16C25(NO2)3
_symmetry_space_group_name_H-M   'P 1'
_cell_length_a   8.12379000
_cell_length_b   10.68460000
_cell_length_c   13.52930000
_cell_angle_alpha   93.83690000
_cell_angle_beta   97.91810000
_cell_angle_gamma   96.15500000
_symmetry_Int_Tables_number   1
_chemical_formula_structural   ZnH16C25(NO2)3
_chemical_formula_sum   'Zn2 H32 C50 N6 O12'
_cell_volume   1152.44917140
_cell_formula_units_Z   2
loop_
 _symmetry_equiv_pos_site_id
 _symmetry_equiv_pos_as_xyz
  1  'x, y, z'
loop_
 _atom_site_type_symbol
 _atom_site_label
 _atom_site_symmetry_multiplicity
 _atom_site_fract_x
 _atom_site_fract_y
 _atom_site_fract_z
 _atom_site_occupancy
  Zn  Zn0  1  0.55462000  0.85688000  0.44857000  1.0
  Zn  Zn1  1  0.44537000  0.14312000  0.55143000  1.0
  H  H2  1  0.94310000  0.61208000  0.02549000  1.0
  H  H3  1  0.05690000  0.38793000  0.97451000  1.0
  H  H4  1  0.11224000  0.61674000  0.19154000  1.0
  H  H5  1  0.88776000  0.38326000  0.80846000  1.0
  H  H6  1  0.36130000  0.98171000  0.15142000  1.0
  H  H7  1  0.63870000  0.01829000  0.84858000  1.0
  H  H8  1  0.18438000  0.98084000  0.98489000  1.0
  H  H9  1  0.81562000  0.01916000  0.01511000  1.0
  H  H10  1  0.83307000  0.62858000  0.73929000  1.0
  H  H11  1  0.16693000  0.37142000  0.26071000  1.0
  H  H12  1  0.56383000  0.48797000  0.71921000  1.0
  H  H13  1  0.43617000  0.51203000  0.28079000  1.0
  H  H14  1  0.44824000  0.66293000  0.99373000  1.0
  H  H15  1  0.55176000  0.33707000  0.00627000  1.0
  H  H16  1  0.72291000  0.79647000  0.01875000  1.0
  H  H17  1  0.27709000  0.20353000  0.98125000  1.0
  H  H18  1  0.83843000  0.90676000  0.73463000  1.0
  H  H19  1  0.16157000  0.09324000  0.26537000  1.0
  H  H20  1  0.99182000  0.95106000  0.59213000  1.0
  H  H21  1  0.00819000  0.04894000  0.40787000  1.0
  H  H22  1  0.41135000  0.78169000  0.73399000  1.0
  H  H23  1  0.58865000  0.21830000  0.26601000  1.0
  H  H24  1  0.25986000  0.74204000  0.87909000  1.0
  H  H25  1  0.74013000  0.25795000  0.12091000  1.0
  H  H26  1  0.88715000  0.82326000  0.38570000  1.0
  H  H27  1  0.11285000  0.17674000  0.61430000  1.0
  H  H28  1  0.09206000  0.66920000  0.40620000  1.0
  H  H29  1  0.90794000  0.33080000  0.59380000  1.0
  H  H30  1  0.75064000  0.45595000  0.57225000  1.0
  H  H31  1  0.24936000  0.54405000  0.42775000  1.0
  H  H32  1  0.56309000  0.62324000  0.54541000  1.0
  H  H33  1  0.43691000  0.37676000  0.45459000  1.0
  C  C34  1  0.05110000  0.79698000  0.99469000  1.0
  C  C35  1  0.94890000  0.20302000  0.00531000  1.0
  C  C36  1  0.03249000  0.69418000  0.05288000  1.0
  C  C37  1  0.96751000  0.30583000  0.94712000  1.0
  C  C38  1  0.12826000  0.69635000  0.14622000  1.0
  C  C39  1  0.87174000  0.30365000  0.85378000  1.0
  C  C40  1  0.24794000  0.79928000  0.18248000  1.0
  C  C41  1  0.75206000  0.20072000  0.81752000  1.0
  C  C42  1  0.26812000  0.90159000  0.12329000  1.0
  C  C43  1  0.73188000  0.09841000  0.87671000  1.0
  C  C44  1  0.16963000  0.90131000  0.03053000  1.0
  C  C45  1  0.83036000  0.09869000  0.96947000  1.0
  C  C46  1  0.79642000  0.72233000  0.88024000  1.0
  C  C47  1  0.20358000  0.27768000  0.11976000  1.0
  C  C48  1  0.74801000  0.63708000  0.79429000  1.0
  C  C49  1  0.25199000  0.36292000  0.20571000  1.0
  C  C50  1  0.59736000  0.55955000  0.78205000  1.0
  C  C51  1  0.40263000  0.44045000  0.21795000  1.0
  C  C52  1  0.49086000  0.56981000  0.85437000  1.0
  C  C53  1  0.50914000  0.43019000  0.14564000  1.0
  C  C54  1  0.53405000  0.65647000  0.93892000  1.0
  C  C55  1  0.46595000  0.34353000  0.06108000  1.0
  C  C56  1  0.68618000  0.73158000  0.95185000  1.0
  C  C57  1  0.31382000  0.26842000  0.04815000  1.0
  C  C58  1  0.04040000  0.82084000  0.81574000  1.0
  C  C59  1  0.95960000  0.17916000  0.18426000  1.0
  C  C60  1  0.96398000  0.87956000  0.73459000  1.0
  C  C61  1  0.03602000  0.12044000  0.26541000  1.0
  C  C62  1  0.05039000  0.90413000  0.65462000  1.0
  C  C63  1  0.94961000  0.09587000  0.34538000  1.0
  C  C64  1  0.21127000  0.86783000  0.65377000  1.0
  C  C65  1  0.78873000  0.13217000  0.34623000  1.0
  C  C66  1  0.28634000  0.80927000  0.73510000  1.0
  C  C67  1  0.71366000  0.19073000  0.26490000  1.0
  C  C68  1  0.20262000  0.78760000  0.81589000  1.0
  C  C69  1  0.79737000  0.21240000  0.18411000  1.0
  C  C70  1  0.30887000  0.89437000  0.57109000  1.0
  C  C71  1  0.69113000  0.10563000  0.42891000  1.0
  C  C72  1  0.86304000  0.74056000  0.42679000  1.0
  C  C73  1  0.13696000  0.25944000  0.57321000  1.0
  C  C74  1  0.97706000  0.65312000  0.43906000  1.0
  C  C75  1  0.02294000  0.34688000  0.56094000  1.0
  C  C76  1  0.94090000  0.54757000  0.49227000  1.0
  C  C77  1  0.05910000  0.45243000  0.50773000  1.0
  C  C78  1  0.78803000  0.53554000  0.53062000  1.0
  C  C79  1  0.21197000  0.46446000  0.46938000  1.0
  C  C80  1  0.68147000  0.62762000  0.51563000  1.0
  C  C81  1  0.31853000  0.37238000  0.48436000  1.0
  C  C82  1  0.34916000  0.79812000  0.28302000  1.0
  C  C83  1  0.65084000  0.20188000  0.71698000  1.0
  N  N84  1  0.33201000  0.49084000  0.84114000  1.0
  N  N85  1  0.66798000  0.50916000  0.15886000  1.0
  N  N86  1  0.95501000  0.79232000  0.89782000  1.0
  N  N87  1  0.04499000  0.20769000  0.10218000  1.0
  N  N88  1  0.71803000  0.72852000  0.46463000  1.0
  N  N89  1  0.28197000  0.27148000  0.53537000  1.0
  O  O90  1  0.32505000  0.70723000  0.33647000  1.0
  O  O91  1  0.67495000  0.29277000  0.66353000  1.0
  O  O92  1  0.46073000  0.89429000  0.31276000  1.0
  O  O93  1  0.53927000  0.10571000  0.68724000  1.0
  O  O94  1  0.30447000  0.40231000  0.77391000  1.0
  O  O95  1  0.69553000  0.59769000  0.22609000  1.0
  O  O96  1  0.22908000  0.51643000  0.89801000  1.0
  O  O97  1  0.77092000  0.48357000  0.10199000  1.0
  O  O98  1  0.27561000  0.98452000  0.51658000  1.0
  O  O99  1  0.72439000  0.01548000  0.48342000  1.0
  O  O100  1  0.42668000  0.82629000  0.56036000  1.0
  O  O101  1  0.57332000  0.17370000  0.43964000  1.0
