# generated using pymatgen
data_CdH14C22S2(NO)4
_symmetry_space_group_name_H-M   'P 1'
_cell_length_a   9.49750000
_cell_length_b   10.46240000
_cell_length_c   10.92110000
_cell_angle_alpha   79.73900000
_cell_angle_beta   85.20350000
_cell_angle_gamma   72.05320000
_symmetry_Int_Tables_number   1
_chemical_formula_structural   CdH14C22S2(NO)4
_chemical_formula_sum   'Cd2 H28 C44 S4 N8 O8'
_cell_volume   1015.40084600
_cell_formula_units_Z   2
loop_
 _symmetry_equiv_pos_site_id
 _symmetry_equiv_pos_as_xyz
  1  'x, y, z'
loop_
 _atom_site_type_symbol
 _atom_site_label
 _atom_site_symmetry_multiplicity
 _atom_site_fract_x
 _atom_site_fract_y
 _atom_site_fract_z
 _atom_site_occupancy
  Cd  Cd0  1  0.99605000  0.79861000  0.11973000  1.0
  Cd  Cd1  1  0.00395000  0.20139000  0.88027000  1.0
  H  H2  1  0.07619000  0.31738000  0.10491000  1.0
  H  H3  1  0.92381000  0.68262000  0.89510000  1.0
  H  H4  1  0.96910000  0.42873000  0.47069000  1.0
  H  H5  1  0.03090000  0.57126000  0.52932000  1.0
  H  H6  1  0.98774000  0.19152000  0.56071000  1.0
  H  H7  1  0.01226000  0.80848000  0.43929000  1.0
  H  H8  1  0.05387000  0.01303000  0.41959000  1.0
  H  H9  1  0.94614000  0.98696000  0.58041000  1.0
  H  H10  1  0.82811000  0.00432000  0.33105000  1.0
  H  H11  1  0.17189000  0.99567000  0.66895000  1.0
  H  H12  1  0.61201000  0.84180000  0.10462000  1.0
  H  H13  1  0.38799000  0.15821000  0.89537000  1.0
  H  H14  1  0.39870000  0.01318000  0.24013000  1.0
  H  H15  1  0.60129000  0.98682000  0.75987000  1.0
  H  H16  1  0.29399000  0.17489000  0.36842000  1.0
  H  H17  1  0.70601000  0.82510000  0.63158000  1.0
  H  H18  1  0.24795000  0.34168000  0.53011000  1.0
  H  H19  1  0.75206000  0.65832000  0.46989000  1.0
  H  H20  1  0.73940000  0.35315000  0.63063000  1.0
  H  H21  1  0.26060000  0.64685000  0.36937000  1.0
  H  H22  1  0.68313000  0.51229000  0.79781000  1.0
  H  H23  1  0.31687000  0.48772000  0.20219000  1.0
  H  H24  1  0.18042000  0.55320000  0.93495000  1.0
  H  H25  1  0.81958000  0.44680000  0.06505000  1.0
  H  H26  1  0.53880000  0.72249000  0.87312000  1.0
  H  H27  1  0.46120000  0.27752000  0.12688000  1.0
  H  H28  1  0.32182000  0.86843000  0.02756000  1.0
  H  H29  1  0.67818000  0.13157000  0.97245000  1.0
  C  C30  1  0.09302000  0.04571000  0.17379000  1.0
  C  C31  1  0.90698000  0.95429000  0.82620000  1.0
  C  C32  1  0.06731000  0.15345000  0.25511000  1.0
  C  C33  1  0.93269000  0.84655000  0.74489000  1.0
  C  C34  1  0.05831000  0.28851000  0.20463000  1.0
  C  C35  1  0.94169000  0.71150000  0.79537000  1.0
  C  C36  1  0.02336000  0.38807000  0.28204000  1.0
  C  C37  1  0.97664000  0.61193000  0.71796000  1.0
  C  C38  1  0.99819000  0.35190000  0.41004000  1.0
  C  C39  1  0.00180000  0.64810000  0.58996000  1.0
  C  C40  1  0.00819000  0.21764000  0.46092000  1.0
  C  C41  1  0.99181000  0.78236000  0.53908000  1.0
  C  C42  1  0.04324000  0.11910000  0.38343000  1.0
  C  C43  1  0.95676000  0.88090000  0.61657000  1.0
  C  C44  1  0.00794000  0.53401000  0.22803000  1.0
  C  C45  1  0.99206000  0.46599000  0.77198000  1.0
  C  C46  1  0.74187000  0.98111000  0.28840000  1.0
  C  C47  1  0.25813000  0.01889000  0.71161000  1.0
  C  C48  1  0.62526000  0.90145000  0.17197000  1.0
  C  C49  1  0.37473000  0.09856000  0.82803000  1.0
  C  C50  1  0.51831000  0.98614000  0.23783000  1.0
  C  C51  1  0.48169000  0.01385000  0.76217000  1.0
  C  C52  1  0.53046000  0.13083000  0.39289000  1.0
  C  C53  1  0.46954000  0.86917000  0.60712000  1.0
  C  C54  1  0.38207000  0.19295000  0.41372000  1.0
  C  C55  1  0.61793000  0.80705000  0.58628000  1.0
  C  C56  1  0.35774000  0.28273000  0.50134000  1.0
  C  C57  1  0.64226000  0.71727000  0.49866000  1.0
  C  C58  1  0.48681000  0.28938000  0.54644000  1.0
  C  C59  1  0.51320000  0.71062000  0.45355000  1.0
  C  C60  1  0.50370000  0.36904000  0.63582000  1.0
  C  C61  1  0.49631000  0.63096000  0.36418000  1.0
  C  C62  1  0.62872000  0.39440000  0.66963000  1.0
  C  C63  1  0.37129000  0.60560000  0.33037000  1.0
  C  C64  1  0.59881000  0.48101000  0.76050000  1.0
  C  C65  1  0.40119000  0.51900000  0.23950000  1.0
  C  C66  1  0.45123000  0.51991000  0.79623000  1.0
  C  C67  1  0.54877000  0.48010000  0.20377000  1.0
  C  C68  1  0.24680000  0.62035000  0.94028000  1.0
  C  C69  1  0.75320000  0.37965000  0.05972000  1.0
  C  C70  1  0.43419000  0.70954000  0.91089000  1.0
  C  C71  1  0.56580000  0.29046000  0.08911000  1.0
  C  C72  1  0.32718000  0.77965000  0.98702000  1.0
  C  C73  1  0.67282000  0.22034000  0.01298000  1.0
  S  S74  1  0.64112000  0.18251000  0.47974000  1.0
  S  S75  1  0.35888000  0.81749000  0.52026000  1.0
  S  S76  1  0.34789000  0.45198000  0.71814000  1.0
  S  S77  1  0.65212000  0.54802000  0.28186000  1.0
  N  N78  1  0.76350000  0.89906000  0.20459000  1.0
  N  N79  1  0.23650000  0.10094000  0.79541000  1.0
  N  N80  1  0.59388000  0.03664000  0.31216000  1.0
  N  N81  1  0.40612000  0.96335000  0.68784000  1.0
  N  N82  1  0.38186000  0.60896000  0.88055000  1.0
  N  N83  1  0.61814000  0.39104000  0.11944000  1.0
  N  N84  1  0.21158000  0.72356000  0.00413000  1.0
  N  N85  1  0.78842000  0.27643000  0.99588000  1.0
  O  O86  1  0.07762000  0.93133000  0.22722000  1.0
  O  O87  1  0.92238000  0.06867000  0.77278000  1.0
  O  O88  1  0.12735000  0.07275000  0.05945000  1.0
  O  O89  1  0.87266000  0.92726000  0.94055000  1.0
  O  O90  1  0.96545000  0.57635000  0.11608000  1.0
  O  O91  1  0.03457000  0.42365000  0.88392000  1.0
  O  O92  1  0.03747000  0.60907000  0.29594000  1.0
  O  O93  1  0.96253000  0.39093000  0.70407000  1.0
