# generated using pymatgen
data_Cu2H37C35(N5O4)2
_symmetry_space_group_name_H-M   'P 1'
_cell_length_a   10.60490000
_cell_length_b   10.97070000
_cell_length_c   22.41610000
_cell_angle_alpha   87.50730000
_cell_angle_beta   89.59030000
_cell_angle_gamma   63.30100000
_symmetry_Int_Tables_number   1
_chemical_formula_structural   Cu2H37C35(N5O4)2
_chemical_formula_sum   'Cu4 H74 C70 N20 O16'
_cell_volume   2327.46861687
_cell_formula_units_Z   2
loop_
 _symmetry_equiv_pos_site_id
 _symmetry_equiv_pos_as_xyz
  1  'x, y, z'
loop_
 _atom_site_type_symbol
 _atom_site_label
 _atom_site_symmetry_multiplicity
 _atom_site_fract_x
 _atom_site_fract_y
 _atom_site_fract_z
 _atom_site_occupancy
  Cu  Cu0  1  0.80056000  0.51050000  0.27386000  1.0
  Cu  Cu1  1  0.19943000  0.48948000  0.72615000  1.0
  Cu  Cu2  1  0.49999000  0.50001000  0.50001000  1.0
  Cu  Cu3  1  0.00001000  0.00000000  0.99999000  1.0
  H  H4  1  0.33880000  0.32607000  0.47902000  1.0
  H  H5  1  0.70315000  0.31425000  0.39633000  1.0
  H  H6  1  0.65881000  0.09718000  0.35826000  1.0
  H  H7  1  0.31498000  0.13382000  0.42882000  1.0
  H  H8  1  0.44231000  0.03641000  0.37616000  1.0
  H  H9  1  0.46468000  0.89719000  0.46799000  1.0
  H  H10  1  0.61973000  0.91761000  0.45724000  1.0
  H  H11  1  0.60635000  0.62202000  0.14696000  1.0
  H  H12  1  0.86556000  0.22991000  0.22458000  1.0
  H  H13  1  0.72295000  0.20280000  0.12617000  1.0
  H  H14  1  0.60435000  0.42414000  0.03270000  1.0
  H  H15  1  0.47547000  0.56909000  0.06921000  1.0
  H  H16  1  0.50352000  0.27689000  0.07403000  1.0
  H  H17  1  0.37270000  0.42070000  0.03572000  1.0
  H  H18  1  0.41257000  0.39044000  0.17221000  1.0
  H  H19  1  0.27891000  0.53243000  0.13163000  1.0
  H  H20  1  0.17803000  0.38768000  0.09363000  1.0
  H  H21  1  0.32085000  0.23746000  0.12372000  1.0
  H  H22  1  0.98143000  0.53708000  0.16326000  1.0
  H  H23  1  0.10398000  0.27758000  0.31959000  1.0
  H  H24  1  0.32973000  0.18802000  0.23975000  1.0
  H  H25  1  0.52988000  0.45809000  0.25635000  1.0
  H  H26  1  0.59954000  0.71764000  0.37031000  1.0
  H  H27  1  0.34143000  0.71586000  0.39914000  1.0
  H  H28  1  0.27571000  0.50096000  0.36749000  1.0
  H  H29  1  0.30791000  0.46940000  0.29053000  1.0
  H  H30  1  0.06020000  0.64011000  0.30648000  1.0
  H  H31  1  0.11830000  0.74364000  0.34475000  1.0
  H  H32  1  0.16755000  0.67571000  0.21185000  1.0
  H  H33  1  0.24084000  0.76812000  0.24947000  1.0
  H  H34  1  0.92617000  0.85283000  0.22941000  1.0
  H  H35  1  0.99250000  0.94362000  0.27357000  1.0
  H  H36  1  0.93249000  0.86976000  0.11923000  1.0
  H  H37  1  0.14372000  0.05297000  0.21381000  1.0
  H  H38  1  0.13687000  0.12248000  0.09185000  1.0
  H  H39  1  0.94491000  0.40985000  0.59439000  1.0
  H  H40  1  0.80322000  0.47951000  0.05053000  1.0
  H  H41  1  0.66119000  0.67395000  0.52100000  1.0
  H  H42  1  0.29686000  0.68575000  0.60369000  1.0
  H  H43  1  0.34120000  0.90281000  0.64177000  1.0
  H  H44  1  0.68503000  0.86618000  0.57121000  1.0
  H  H45  1  0.55772000  0.96358000  0.62387000  1.0
  H  H46  1  0.53532000  0.10283000  0.53205000  1.0
  H  H47  1  0.38027000  0.08239000  0.54280000  1.0
  H  H48  1  0.39363000  0.37799000  0.85304000  1.0
  H  H49  1  0.13444000  0.77010000  0.77542000  1.0
  H  H50  1  0.27706000  0.79721000  0.87381000  1.0
  H  H51  1  0.39565000  0.57585000  0.96730000  1.0
  H  H52  1  0.52453000  0.43092000  0.93078000  1.0
  H  H53  1  0.49646000  0.72313000  0.92597000  1.0
  H  H54  1  0.62729000  0.57933000  0.96427000  1.0
  H  H55  1  0.58741000  0.60959000  0.82778000  1.0
  H  H56  1  0.72107000  0.46759000  0.86836000  1.0
  H  H57  1  0.82194000  0.61234000  0.90637000  1.0
  H  H58  1  0.67913000  0.76256000  0.87627000  1.0
  H  H59  1  0.01853000  0.46293000  0.83674000  1.0
  H  H60  1  0.89602000  0.72242000  0.68040000  1.0
  H  H61  1  0.67026000  0.81200000  0.76024000  1.0
  H  H62  1  0.47009000  0.54191000  0.74365000  1.0
  H  H63  1  0.40049000  0.28229000  0.62971000  1.0
  H  H64  1  0.65858000  0.28410000  0.60088000  1.0
  H  H65  1  0.72425000  0.49906000  0.63252000  1.0
  H  H66  1  0.69205000  0.53060000  0.70948000  1.0
  H  H67  1  0.93977000  0.35993000  0.69353000  1.0
  H  H68  1  0.88169000  0.25639000  0.65525000  1.0
  H  H69  1  0.83247000  0.32428000  0.78816000  1.0
  H  H70  1  0.75917000  0.23188000  0.75053000  1.0
  H  H71  1  0.07384000  0.14717000  0.77058000  1.0
  H  H72  1  0.00750000  0.05639000  0.72641000  1.0
  H  H73  1  0.06755000  0.13021000  0.88075000  1.0
  H  H74  1  0.85628000  0.94704000  0.78617000  1.0
  H  H75  1  0.86313000  0.87752000  0.90814000  1.0
  H  H76  1  0.05508000  0.59015000  0.40562000  1.0
  H  H77  1  0.19681000  0.52049000  0.94942000  1.0
  C  C78  1  0.43069000  0.29524000  0.45095000  1.0
  C  C79  1  0.62046000  0.28459000  0.40734000  1.0
  C  C80  1  0.59965000  0.17745000  0.38835000  1.0
  C  C81  1  0.42873000  0.08197000  0.41985000  1.0
  C  C82  1  0.50726000  0.97194000  0.46881000  1.0
  C  C83  1  0.65211000  0.51271000  0.15776000  1.0
  C  C84  1  0.78751000  0.30727000  0.19506000  1.0
  C  C85  1  0.71683000  0.29254000  0.14696000  1.0
  C  C86  1  0.53698000  0.45745000  0.07207000  1.0
  C  C87  1  0.44022000  0.38829000  0.07603000  1.0
  C  C88  1  0.34704000  0.42157000  0.13111000  1.0
  C  C89  1  0.25555000  0.34676000  0.13048000  1.0
  C  C90  1  0.04243000  0.45082000  0.19458000  1.0
  C  C91  1  0.11343000  0.31710000  0.27548000  1.0
  C  C92  1  0.22443000  0.27230000  0.23651000  1.0
  C  C93  1  0.51495000  0.53059000  0.29023000  1.0
  C  C94  1  0.54412000  0.66771000  0.34982000  1.0
  C  C95  1  0.41789000  0.66800000  0.36445000  1.0
  C  C96  1  0.28270000  0.54713000  0.32393000  1.0
  C  C97  1  0.14424000  0.67282000  0.30811000  1.0
  C  C98  1  0.15085000  0.74364000  0.24897000  1.0
  C  C99  1  0.01596000  0.87537000  0.23612000  1.0
  C  C100  1  0.98513000  0.93384000  0.12701000  1.0
  C  C101  1  0.09994000  0.02640000  0.17583000  1.0
  C  C102  1  0.09580000  0.06064000  0.11599000  1.0
  C  C103  1  0.79313000  0.39621000  0.50423000  1.0
  C  C104  1  0.90950000  0.43825000  0.49951000  1.0
  C  C105  1  0.96979000  0.44908000  0.55293000  1.0
  C  C106  1  0.94097000  0.48858000  0.44565000  1.0
  C  C107  1  0.88864000  0.47026000  0.38631000  1.0
  C  C108  1  0.93980000  0.26947000  0.98585000  1.0
  C  C109  1  0.97368000  0.38801000  0.98954000  1.0
  C  C110  1  0.08722000  0.39792000  0.96032000  1.0
  C  C111  1  0.88978000  0.48938000  0.02810000  1.0
  C  C112  1  0.18034000  0.30309000  0.91331000  1.0
  C  C113  1  0.56931000  0.70478000  0.54907000  1.0
  C  C114  1  0.37955000  0.71542000  0.59268000  1.0
  C  C115  1  0.40037000  0.82255000  0.61167000  1.0
  C  C116  1  0.57128000  0.91804000  0.58018000  1.0
  C  C117  1  0.49274000  0.02807000  0.53123000  1.0
  C  C118  1  0.34787000  0.48730000  0.84224000  1.0
  C  C119  1  0.21249000  0.69273000  0.80494000  1.0
  C  C120  1  0.28318000  0.70747000  0.85304000  1.0
  C  C121  1  0.46302000  0.54255000  0.92792000  1.0
  C  C122  1  0.55977000  0.61172000  0.92396000  1.0
  C  C123  1  0.65294000  0.57845000  0.86888000  1.0
  C  C124  1  0.74442000  0.65326000  0.86951000  1.0
  C  C125  1  0.95754000  0.54918000  0.80542000  1.0
  C  C126  1  0.88656000  0.68291000  0.72452000  1.0
  C  C127  1  0.77556000  0.72772000  0.76349000  1.0
  C  C128  1  0.48504000  0.46939000  0.70978000  1.0
  C  C129  1  0.45590000  0.33224000  0.65020000  1.0
  C  C130  1  0.58212000  0.33196000  0.63557000  1.0
  C  C131  1  0.71727000  0.45288000  0.67608000  1.0
  C  C132  1  0.85574000  0.32720000  0.69189000  1.0
  C  C133  1  0.84916000  0.25635000  0.75103000  1.0
  C  C134  1  0.98406000  0.12463000  0.76387000  1.0
  C  C135  1  0.01489000  0.06614000  0.87298000  1.0
  C  C136  1  0.90007000  0.97359000  0.82415000  1.0
  C  C137  1  0.90421000  0.93936000  0.88399000  1.0
  C  C138  1  0.20685000  0.60381000  0.49577000  1.0
  C  C139  1  0.09049000  0.56175000  0.50050000  1.0
  C  C140  1  0.03020000  0.55091000  0.44708000  1.0
  C  C141  1  0.05903000  0.51141000  0.55435000  1.0
  C  C142  1  0.11138000  0.52970000  0.61370000  1.0
  C  C143  1  0.06022000  0.73053000  0.01412000  1.0
  C  C144  1  0.02634000  0.61199000  0.01042000  1.0
  C  C145  1  0.91281000  0.60208000  0.03963000  1.0
  C  C146  1  0.11024000  0.51063000  0.97186000  1.0
  C  C147  1  0.81970000  0.69689000  0.08666000  1.0
  N  N148  1  0.47883000  0.18603000  0.41613000  1.0
  N  N149  1  0.51405000  0.35667000  0.44648000  1.0
  N  N150  1  0.60354000  0.58200000  0.30341000  1.0
  N  N151  1  0.40194000  0.57982000  0.32632000  1.0
  N  N152  1  0.02823000  0.94770000  0.18199000  1.0
  N  N153  1  0.02445000  0.00209000  0.08641000  1.0
  N  N154  1  0.74647000  0.44458000  0.20125000  1.0
  N  N155  1  0.63145000  0.42306000  0.12428000  1.0
  N  N156  1  0.17730000  0.35742000  0.18568000  1.0
  N  N157  1  0.00101000  0.42819000  0.24855000  1.0
  N  N158  1  0.52117000  0.81397000  0.58389000  1.0
  N  N159  1  0.48595000  0.64335000  0.55354000  1.0
  N  N160  1  0.39647000  0.41796000  0.69660000  1.0
  N  N161  1  0.59805000  0.42016000  0.67369000  1.0
  N  N162  1  0.97179000  0.05229000  0.81799000  1.0
  N  N163  1  0.97557000  0.99789000  0.91358000  1.0
  N  N164  1  0.25352000  0.55543000  0.79876000  1.0
  N  N165  1  0.36855000  0.57695000  0.87572000  1.0
  N  N166  1  0.82268000  0.64260000  0.81431000  1.0
  N  N167  1  0.99897000  0.57181000  0.75145000  1.0
  O  O168  1  0.80160000  0.30028000  0.53840000  1.0
  O  O169  1  0.68212000  0.48212000  0.47383000  1.0
  O  O170  1  0.88745000  0.35961000  0.37532000  1.0
  O  O171  1  0.85349000  0.57288000  0.34812000  1.0
  O  O172  1  0.05025000  0.15116000  0.98912000  1.0
  O  O173  1  0.81443000  0.28796000  0.98404000  1.0
  O  O174  1  0.11370000  0.28064000  0.87091000  1.0
  O  O175  1  0.31080000  0.26544000  0.91728000  1.0
  O  O176  1  0.19835000  0.69975000  0.46160000  1.0
  O  O177  1  0.31786000  0.51791000  0.52617000  1.0
  O  O178  1  0.11258000  0.64035000  0.62469000  1.0
  O  O179  1  0.14652000  0.42708000  0.65189000  1.0
  O  O180  1  0.94976000  0.84883000  0.01087000  1.0
  O  O181  1  0.18559000  0.71204000  0.01594000  1.0
  O  O182  1  0.88634000  0.71931000  0.12906000  1.0
  O  O183  1  0.68924000  0.73452000  0.08269000  1.0
