# generated using pymatgen
data_ZnH14C24Br2(NO)2
_symmetry_space_group_name_H-M   'P 1'
_cell_length_a   7.92247000
_cell_length_b   9.83271000
_cell_length_c   13.69510000
_cell_angle_alpha   104.51400000
_cell_angle_beta   90.00000000
_cell_angle_gamma   90.00000000
_symmetry_Int_Tables_number   1
_chemical_formula_structural   ZnH14C24Br2(NO)2
_chemical_formula_sum   'Zn2 H28 C48 Br4 N4 O4'
_cell_volume   1032.79273685
_cell_formula_units_Z   2
loop_
 _symmetry_equiv_pos_site_id
 _symmetry_equiv_pos_as_xyz
  1  'x, y, z'
loop_
 _atom_site_type_symbol
 _atom_site_label
 _atom_site_symmetry_multiplicity
 _atom_site_fract_x
 _atom_site_fract_y
 _atom_site_fract_z
 _atom_site_occupancy
  Zn  Zn0  1  0.55005000  0.25000000  0.25000000  1.0
  Zn  Zn1  1  0.44995000  0.75000000  0.75000000  1.0
  H  H2  1  0.80373000  0.46114000  0.23853000  1.0
  H  H3  1  0.80373000  0.03886000  0.26147000  1.0
  H  H4  1  0.19627000  0.53886000  0.76147000  1.0
  H  H5  1  0.19627000  0.96115000  0.73853000  1.0
  H  H6  1  0.05860000  0.48515000  0.13682000  1.0
  H  H7  1  0.05860000  0.01485000  0.36318000  1.0
  H  H8  1  0.94140000  0.51485000  0.86318000  1.0
  H  H9  1  0.94140000  0.98516000  0.63682000  1.0
  H  H10  1  0.91847000  0.08997000  0.93139000  1.0
  H  H11  1  0.91847000  0.41003000  0.56861000  1.0
  H  H12  1  0.08153000  0.91003000  0.06861000  1.0
  H  H13  1  0.08153000  0.58997000  0.43139000  1.0
  H  H14  1  0.67277000  0.08071000  0.04272000  1.0
  H  H15  1  0.67277000  0.41929000  0.45728000  1.0
  H  H16  1  0.32723000  0.91929000  0.95728000  1.0
  H  H17  1  0.32723000  0.58071000  0.54272000  1.0
  H  H18  1  0.31869000  0.36828000  0.10097000  1.0
  H  H19  1  0.31869000  0.13173000  0.39903000  1.0
  H  H20  1  0.68131000  0.63172000  0.89903000  1.0
  H  H21  1  0.68131000  0.86828000  0.60097000  1.0
  H  H22  1  0.58453000  0.36839000  0.00296000  1.0
  H  H23  1  0.58453000  0.13161000  0.49704000  1.0
  H  H24  1  0.41547000  0.63160000  0.99705000  1.0
  H  H25  1  0.41547000  0.86839000  0.50296000  1.0
  H  H26  1  0.04288000  0.23167000  0.82229000  1.0
  H  H27  1  0.04288000  0.26833000  0.67771000  1.0
  H  H28  1  0.95712000  0.76833000  0.17771000  1.0
  H  H29  1  0.95711000  0.73167000  0.32229000  1.0
  C  C30  1  0.83576000  0.38074000  0.17034000  1.0
  C  C31  1  0.83576000  0.11926000  0.32966000  1.0
  C  C32  1  0.16424000  0.61926000  0.82966000  1.0
  C  C33  1  0.16424000  0.88074000  0.67034000  1.0
  C  C34  1  0.97725000  0.39320000  0.11377000  1.0
  C  C35  1  0.97725000  0.10680000  0.38623000  1.0
  C  C36  1  0.02275000  0.60680000  0.88623000  1.0
  C  C37  1  0.02275000  0.89321000  0.61377000  1.0
  C  C38  1  0.01223000  0.28749000  0.02602000  1.0
  C  C39  1  0.01223000  0.21251000  0.47398000  1.0
  C  C40  1  0.98777000  0.71251000  0.97398000  1.0
  C  C41  1  0.98777000  0.78750000  0.52602000  1.0
  C  C42  1  0.89939000  0.17432000  0.99919000  1.0
  C  C43  1  0.89939000  0.32569000  0.50081000  1.0
  C  C44  1  0.10061000  0.82568000  0.00081000  1.0
  C  C45  1  0.10061000  0.67432000  0.49919000  1.0
  C  C46  1  0.76178000  0.16815000  0.06074000  1.0
  C  C47  1  0.76178000  0.33185000  0.43926000  1.0
  C  C48  1  0.23822000  0.83185000  0.93926000  1.0
  C  C49  1  0.23822000  0.66815000  0.56074000  1.0
  C  C50  1  0.16565000  0.29548000  0.96681000  1.0
  C  C51  1  0.16565000  0.20452000  0.53319000  1.0
  C  C52  1  0.83435000  0.70452000  0.03319000  1.0
  C  C53  1  0.83435000  0.79548000  0.46681000  1.0
  C  C54  1  0.31698000  0.33931000  0.01870000  1.0
  C  C55  1  0.31698000  0.16069000  0.48130000  1.0
  C  C56  1  0.68302000  0.66069000  0.98130000  1.0
  C  C57  1  0.68302000  0.83931000  0.51870000  1.0
  C  C58  1  0.46468000  0.33994000  0.96468000  1.0
  C  C59  1  0.46468000  0.16006000  0.53532000  1.0
  C  C60  1  0.53532000  0.66005000  0.03532000  1.0
  C  C61  1  0.53532000  0.83995000  0.46468000  1.0
  C  C62  1  0.46431000  0.30090000  0.85914000  1.0
  C  C63  1  0.46431000  0.19910000  0.64086000  1.0
  C  C64  1  0.53569000  0.69910000  0.14087000  1.0
  C  C65  1  0.53569000  0.80090000  0.35914000  1.0
  C  C66  1  0.31096000  0.26543000  0.80552000  1.0
  C  C67  1  0.31096000  0.23457000  0.69448000  1.0
  C  C68  1  0.68904000  0.73457000  0.19448000  1.0
  C  C69  1  0.68904000  0.76543000  0.30552000  1.0
  C  C70  1  0.16329000  0.25985000  0.86081000  1.0
  C  C71  1  0.16329000  0.24015000  0.63919000  1.0
  C  C72  1  0.83671000  0.74015000  0.13919000  1.0
  C  C73  1  0.83671000  0.75985000  0.36081000  1.0
  C  C74  1  0.62756000  0.28826000  0.80631000  1.0
  C  C75  1  0.62756000  0.21174000  0.69368000  1.0
  C  C76  1  0.37244000  0.71174000  0.19368000  1.0
  C  C77  1  0.37244000  0.78826000  0.30631000  1.0
  Br  Br78  1  0.39245000  0.45625000  0.31707000  1.0
  Br  Br79  1  0.39246000  0.04374000  0.18294000  1.0
  Br  Br80  1  0.60755000  0.54375000  0.68293000  1.0
  Br  Br81  1  0.60754000  0.95626000  0.81706000  1.0
  N  N82  1  0.73046000  0.26959000  0.14533000  1.0
  N  N83  1  0.73046000  0.23041000  0.35467000  1.0
  N  N84  1  0.26954000  0.73041000  0.85467000  1.0
  N  N85  1  0.26954000  0.76959000  0.64533000  1.0
  O  O86  1  0.76201000  0.32983000  0.84870000  1.0
  O  O87  1  0.76201000  0.17017000  0.65130000  1.0
  O  O88  1  0.23799000  0.67017000  0.15130000  1.0
  O  O89  1  0.23799000  0.82983000  0.34870000  1.0
