# generated using pymatgen
data_CdH8C12(NCl)2
_symmetry_space_group_name_H-M   'P 1'
_cell_length_a   7.13102000
_cell_length_b   9.66995000
_cell_length_c   9.66968000
_cell_angle_alpha   62.52970000
_cell_angle_beta   84.38360000
_cell_angle_gamma   84.38580000
_symmetry_Int_Tables_number   1
_chemical_formula_structural   CdH8C12(NCl)2
_chemical_formula_sum   'Cd2 H16 C24 N4 Cl4'
_cell_volume   587.71898711
_cell_formula_units_Z   2
loop_
 _symmetry_equiv_pos_site_id
 _symmetry_equiv_pos_as_xyz
  1  'x, y, z'
loop_
 _atom_site_type_symbol
 _atom_site_label
 _atom_site_symmetry_multiplicity
 _atom_site_fract_x
 _atom_site_fract_y
 _atom_site_fract_z
 _atom_site_occupancy
  Cd  Cd0  1  0.75001000  0.06330000  0.93669000  1.0
  Cd  Cd1  1  0.25000000  0.93670000  0.06331000  1.0
  H  H2  1  0.81710000  0.33113000  0.95228000  1.0
  H  H3  1  0.68294000  0.04772000  0.66885000  1.0
  H  H4  1  0.18293000  0.66888000  0.04772000  1.0
  H  H5  1  0.31705000  0.95228000  0.33115000  1.0
  H  H6  1  0.87223000  0.58325000  0.94436000  1.0
  H  H7  1  0.62777000  0.05564000  0.41673000  1.0
  H  H8  1  0.12777000  0.41677000  0.05563000  1.0
  H  H9  1  0.37222000  0.94436000  0.58328000  1.0
  H  H10  1  0.83120000  0.82104000  0.44418000  1.0
  H  H11  1  0.66881000  0.55581000  0.17894000  1.0
  H  H12  1  0.16881000  0.17896000  0.55580000  1.0
  H  H13  1  0.33118000  0.44419000  0.82106000  1.0
  H  H14  1  0.88922000  0.82506000  0.69508000  1.0
  H  H15  1  0.61079000  0.30492000  0.17492000  1.0
  H  H16  1  0.11078000  0.17496000  0.30490000  1.0
  H  H17  1  0.38921000  0.69508000  0.82508000  1.0
  C  C18  1  0.78354000  0.43196000  0.70255000  1.0
  C  C19  1  0.71647000  0.29744000  0.56802000  1.0
  C  C20  1  0.21646000  0.56804000  0.29745000  1.0
  C  C21  1  0.28352000  0.70255000  0.43199000  1.0
  C  C22  1  0.81686000  0.43819000  0.84199000  1.0
  C  C23  1  0.68316000  0.15801000  0.56178000  1.0
  C  C24  1  0.18316000  0.56182000  0.15801000  1.0
  C  C25  1  0.31684000  0.84199000  0.43822000  1.0
  C  C26  1  0.84990000  0.57810000  0.83701000  1.0
  C  C27  1  0.65010000  0.16300000  0.42186000  1.0
  C  C28  1  0.15010000  0.42190000  0.16298000  1.0
  C  C29  1  0.34989000  0.83700000  0.57814000  1.0
  C  C30  1  0.82556000  0.71683000  0.55665000  1.0
  C  C31  1  0.67445000  0.44336000  0.28315000  1.0
  C  C32  1  0.17444000  0.28317000  0.44335000  1.0
  C  C33  1  0.32554000  0.55664000  0.71685000  1.0
  C  C34  1  0.78536000  0.57521000  0.55689000  1.0
  C  C35  1  0.71463000  0.44311000  0.42477000  1.0
  C  C36  1  0.21464000  0.42478000  0.44312000  1.0
  C  C37  1  0.28536000  0.55688000  0.57523000  1.0
  C  C38  1  0.85685000  0.71795000  0.69372000  1.0
  C  C39  1  0.64315000  0.30629000  0.28202000  1.0
  C  C40  1  0.14315000  0.28204000  0.30628000  1.0
  C  C41  1  0.35685000  0.69370000  0.71798000  1.0
  N  N42  1  0.75001000  0.29593000  0.70406000  1.0
  N  N43  1  0.25000000  0.70407000  0.29594000  1.0
  N  N44  1  0.75000000  0.57844000  0.42155000  1.0
  N  N45  1  0.25000000  0.42155000  0.57846000  1.0
  Cl  Cl46  1  0.92944000  0.03759000  0.16225000  1.0
  Cl  Cl47  1  0.57056000  0.83775000  0.96242000  1.0
  Cl  Cl48  1  0.07057000  0.96241000  0.83775000  1.0
  Cl  Cl49  1  0.42945000  0.16225000  0.03759000  1.0
