# generated using pymatgen
data_Gd2CoH28(C8O9)2
_symmetry_space_group_name_H-M   'P 1'
_cell_length_a   8.84397000
_cell_length_b   9.10466000
_cell_length_c   10.52250000
_cell_angle_alpha   81.69500000
_cell_angle_beta   71.42200000
_cell_angle_gamma   78.40710000
_symmetry_Int_Tables_number   1
_chemical_formula_structural   Gd2CoH28(C8O9)2
_chemical_formula_sum   'Gd2 Co1 H28 C16 O18'
_cell_volume   783.79447711
_cell_formula_units_Z   1
loop_
 _symmetry_equiv_pos_site_id
 _symmetry_equiv_pos_as_xyz
  1  'x, y, z'
loop_
 _atom_site_type_symbol
 _atom_site_label
 _atom_site_symmetry_multiplicity
 _atom_site_fract_x
 _atom_site_fract_y
 _atom_site_fract_z
 _atom_site_occupancy
  Gd  Gd0  1  0.91027000  0.07046000  0.68969000  1.0
  Gd  Gd1  1  0.08972000  0.92955000  0.31031000  1.0
  Co  Co2  1  0.00000000  0.99999000  0.99999000  1.0
  H  H3  1  0.82561000  0.35282000  0.06681000  1.0
  H  H4  1  0.17441000  0.64718000  0.93320000  1.0
  H  H5  1  0.63782000  0.42423000  0.02846000  1.0
  H  H6  1  0.36218000  0.57579000  0.97152000  1.0
  H  H7  1  0.81606000  0.49894000  0.93648000  1.0
  H  H8  1  0.18393000  0.50106000  0.06353000  1.0
  H  H9  1  0.73955000  0.74235000  0.10118000  1.0
  H  H10  1  0.26046000  0.25764000  0.89882000  1.0
  H  H11  1  0.59975000  0.72107000  0.01485000  1.0
  H  H12  1  0.40026000  0.27892000  0.98516000  1.0
  H  H13  1  0.56201000  0.88065000  0.10280000  1.0
  H  H14  1  0.43800000  0.11934000  0.89720000  1.0
  H  H15  1  0.49174000  0.86948000  0.57784000  1.0
  H  H16  1  0.50826000  0.13051000  0.42217000  1.0
  H  H17  1  0.45399000  0.72581000  0.71351000  1.0
  H  H18  1  0.54601000  0.27418000  0.28650000  1.0
  H  H19  1  0.52494000  0.88661000  0.73486000  1.0
  H  H20  1  0.47506000  0.11340000  0.26514000  1.0
  H  H21  1  0.19410000  0.32163000  0.25428000  1.0
  H  H22  1  0.80584000  0.67838000  0.74570000  1.0
  H  H23  1  0.27056000  0.38723000  0.36984000  1.0
  H  H24  1  0.72941000  0.61280000  0.63013000  1.0
  H  H25  1  0.07940000  0.47426000  0.35601000  1.0
  H  H26  1  0.92058000  0.52575000  0.64400000  1.0
  H  H27  1  0.66039000  0.25934000  0.56940000  1.0
  H  H28  1  0.33961000  0.74066000  0.43061000  1.0
  H  H29  1  0.74366000  0.11958000  0.47711000  1.0
  H  H30  1  0.25635000  0.88040000  0.52288000  1.0
  C  C31  1  0.27429000  0.92172000  0.74434000  1.0
  C  C32  1  0.72571000  0.07827000  0.25566000  1.0
  C  C33  1  0.76953000  0.39555000  0.98689000  1.0
  C  C34  1  0.23047000  0.60445000  0.01311000  1.0
  C  C35  1  0.65952000  0.80087000  0.04250000  1.0
  C  C36  1  0.34050000  0.19912000  0.95750000  1.0
  C  C37  1  0.81312000  0.28300000  0.88449000  1.0
  C  C38  1  0.18688000  0.71701000  0.11552000  1.0
  C  C39  1  0.74968000  0.88640000  0.91861000  1.0
  C  C40  1  0.25033000  0.11360000  0.08139000  1.0
  C  C41  1  0.44765000  0.84804000  0.68754000  1.0
  C  C42  1  0.55235000  0.15195000  0.31247000  1.0
  C  C43  1  0.16127000  0.36566000  0.35247000  1.0
  C  C44  1  0.83870000  0.63435000  0.64752000  1.0
  C  C45  1  0.08339000  0.25732000  0.46374000  1.0
  C  C46  1  0.91660000  0.74269000  0.53626000  1.0
  O  O47  1  0.18506000  0.95602000  0.66444000  1.0
  O  O48  1  0.81495000  0.04398000  0.33556000  1.0
  O  O49  1  0.03263000  0.29191000  0.58422000  1.0
  O  O50  1  0.96736000  0.70810000  0.41578000  1.0
  O  O51  1  0.90373000  0.88669000  0.89318000  1.0
  O  O52  1  0.09628000  0.11331000  0.10682000  1.0
  O  O53  1  0.94430000  0.18405000  0.87260000  1.0
  O  O54  1  0.05571000  0.81596000  0.12740000  1.0
  O  O55  1  0.67918000  0.95888000  0.83528000  1.0
  O  O56  1  0.32083000  0.04111000  0.16472000  1.0
  O  O57  1  0.72949000  0.28604000  0.80623000  1.0
  O  O58  1  0.27052000  0.71397000  0.19377000  1.0
  O  O59  1  0.06475000  0.12845000  0.43827000  1.0
  O  O60  1  0.93526000  0.87154000  0.56174000  1.0
  O  O61  1  0.71282000  0.15505000  0.57053000  1.0
  O  O62  1  0.28719000  0.84495000  0.42947000  1.0
  O  O63  1  0.22558000  0.94242000  0.86773000  1.0
  O  O64  1  0.77441000  0.05758000  0.13228000  1.0
