# generated using pymatgen
data_AgPH17C18BrN2
_symmetry_space_group_name_H-M   'P 1'
_cell_length_a   8.42635000
_cell_length_b   14.02310000
_cell_length_c   19.05340000
_cell_angle_alpha   90.00020000
_cell_angle_beta   90.00040000
_cell_angle_gamma   74.68500000
_symmetry_Int_Tables_number   1
_chemical_formula_structural   AgPH17C18BrN2
_chemical_formula_sum   'Ag4 P4 H68 C72 Br4 N8'
_cell_volume   2171.46570876
_cell_formula_units_Z   4
loop_
 _symmetry_equiv_pos_site_id
 _symmetry_equiv_pos_as_xyz
  1  'x, y, z'
loop_
 _atom_site_type_symbol
 _atom_site_label
 _atom_site_symmetry_multiplicity
 _atom_site_fract_x
 _atom_site_fract_y
 _atom_site_fract_z
 _atom_site_occupancy
  Ag  Ag0  1  0.21634000  0.42330000  0.99420000  1.0
  Ag  Ag1  1  0.28366000  0.57670000  0.49421000  1.0
  Ag  Ag2  1  0.78367000  0.57670000  0.00579000  1.0
  Ag  Ag3  1  0.71634000  0.42330000  0.50579000  1.0
  P  P4  1  0.35251000  0.30201000  0.07475000  1.0
  P  P5  1  0.14749000  0.69799000  0.57475000  1.0
  P  P6  1  0.64749000  0.69799000  0.92525000  1.0
  P  P7  1  0.85251000  0.30201000  0.42525000  1.0
  H  H8  1  0.07060000  0.58197000  0.23123000  1.0
  H  H9  1  0.42941000  0.41803000  0.73123000  1.0
  H  H10  1  0.92941000  0.41803000  0.76877000  1.0
  H  H11  1  0.57060000  0.58197000  0.26877000  1.0
  H  H12  1  0.23192000  0.48556000  0.14450000  1.0
  H  H13  1  0.26808000  0.51444000  0.64449000  1.0
  H  H14  1  0.76808000  0.51443000  0.85551000  1.0
  H  H15  1  0.73192000  0.48556000  0.35551000  1.0
  H  H16  1  0.03578000  0.62431000  0.35790000  1.0
  H  H17  1  0.46422000  0.37569000  0.85790000  1.0
  H  H18  1  0.96422000  0.37569000  0.64210000  1.0
  H  H19  1  0.53578000  0.62431000  0.14210000  1.0
  H  H20  1  0.42604000  0.38801000  0.41286000  1.0
  H  H21  1  0.07396000  0.61199000  0.91287000  1.0
  H  H22  1  0.57395000  0.61198000  0.58714000  1.0
  H  H23  1  0.92604000  0.38802000  0.08714000  1.0
  H  H24  1  0.48250000  0.33620000  0.29039000  1.0
  H  H25  1  0.01751000  0.66380000  0.79039000  1.0
  H  H26  1  0.51750000  0.66379000  0.70961000  1.0
  H  H27  1  0.98249000  0.33620000  0.20961000  1.0
  H  H28  1  0.49950000  0.30658000  0.18650000  1.0
  H  H29  1  0.00050000  0.69342000  0.68650000  1.0
  H  H30  1  0.50050000  0.69342000  0.81350000  1.0
  H  H31  1  0.99950000  0.30658000  0.31350000  1.0
  H  H32  1  0.53339000  0.39257000  0.12421000  1.0
  H  H33  1  0.96661000  0.60743000  0.62421000  1.0
  H  H34  1  0.46661000  0.60743000  0.87579000  1.0
  H  H35  1  0.03339000  0.39257000  0.37579000  1.0
  H  H36  1  0.37869000  0.20563000  0.21672000  1.0
  H  H37  1  0.12131000  0.79438000  0.71672000  1.0
  H  H38  1  0.62131000  0.79437000  0.78328000  1.0
  H  H39  1  0.87869000  0.20563000  0.28327000  1.0
  H  H40  1  0.22496000  0.09756000  0.27088000  1.0
  H  H41  1  0.27506000  0.90244000  0.77088000  1.0
  H  H42  1  0.77504000  0.90244000  0.72912000  1.0
  H  H43  1  0.72496000  0.09756000  0.22912000  1.0
  H  H44  1  0.00022000  0.05276000  0.20516000  1.0
  H  H45  1  0.49978000  0.94724000  0.70516000  1.0
  H  H46  1  0.99978000  0.94724000  0.79484000  1.0
  H  H47  1  0.50022000  0.05275000  0.29484000  1.0
  H  H48  1  0.91975000  0.12505000  0.08651000  1.0
  H  H49  1  0.58024000  0.87494000  0.58651000  1.0
  H  H50  1  0.08025000  0.87495000  0.91349000  1.0
  H  H51  1  0.41976000  0.12505000  0.41349000  1.0
  H  H52  1  0.07279000  0.23434000  0.03170000  1.0
  H  H53  1  0.42719000  0.76565000  0.53170000  1.0
  H  H54  1  0.92720000  0.76566000  0.96830000  1.0
  H  H55  1  0.57280000  0.23434000  0.46830000  1.0
  H  H56  1  0.48550000  0.08046000  0.08132000  1.0
  H  H57  1  0.01449000  0.91954000  0.58132000  1.0
  H  H58  1  0.51449000  0.91954000  0.91868000  1.0
  H  H59  1  0.98551000  0.08046000  0.41868000  1.0
  H  H60  1  0.71870000  0.96725000  0.01881000  1.0
  H  H61  1  0.78130000  0.03275000  0.51881000  1.0
  H  H62  1  0.28130000  0.03275000  0.98120000  1.0
  H  H63  1  0.21871000  0.96725000  0.48120000  1.0
  H  H64  1  0.89747000  0.03528000  0.94016000  1.0
  H  H65  1  0.60253000  0.96472000  0.44016000  1.0
  H  H66  1  0.10253000  0.96472000  0.05985000  1.0
  H  H67  1  0.39747000  0.03528000  0.55985000  1.0
  H  H68  1  0.84504000  0.21889000  0.92625000  1.0
  H  H69  1  0.65495000  0.78111000  0.42625000  1.0
  H  H70  1  0.15496000  0.78111000  0.07375000  1.0
  H  H71  1  0.34505000  0.21889000  0.57375000  1.0
  H  H72  1  0.61154000  0.33104000  0.98607000  1.0
  H  H73  1  0.88846000  0.66896000  0.48607000  1.0
  H  H74  1  0.38846000  0.66896000  0.01393000  1.0
  H  H75  1  0.11154000  0.33104000  0.51393000  1.0
  C  C76  1  0.15270000  0.53745000  0.27010000  1.0
  C  C77  1  0.34729000  0.46256000  0.77010000  1.0
  C  C78  1  0.84729000  0.46256000  0.72990000  1.0
  C  C79  1  0.65271000  0.53745000  0.22990000  1.0
  C  C80  1  0.13346000  0.56084000  0.34055000  1.0
  C  C81  1  0.36655000  0.43916000  0.84054000  1.0
  C  C82  1  0.86655000  0.43916000  0.65945000  1.0
  C  C83  1  0.63345000  0.56084000  0.15946000  1.0
  C  C84  1  0.34989000  0.42922000  0.37090000  1.0
  C  C85  1  0.15012000  0.57077000  0.87090000  1.0
  C  C86  1  0.65011000  0.57077000  0.62910000  1.0
  C  C87  1  0.84988000  0.42923000  0.12910000  1.0
  C  C88  1  0.38033000  0.40010000  0.30174000  1.0
  C  C89  1  0.11966000  0.59990000  0.80174000  1.0
  C  C90  1  0.61966000  0.59990000  0.69826000  1.0
  C  C91  1  0.88034000  0.40010000  0.19826000  1.0
  C  C92  1  0.28253000  0.45604000  0.24810000  1.0
  C  C93  1  0.21748000  0.54395000  0.74810000  1.0
  C  C94  1  0.71748000  0.54395000  0.75190000  1.0
  C  C95  1  0.78252000  0.45605000  0.25190000  1.0
  C  C96  1  0.43817000  0.36142000  0.14749000  1.0
  C  C97  1  0.06183000  0.63858000  0.64749000  1.0
  C  C98  1  0.56183000  0.63858000  0.85251000  1.0
  C  C99  1  0.93817000  0.36142000  0.35251000  1.0
  C  C100  1  0.23927000  0.22557000  0.11949000  1.0
  C  C101  1  0.26073000  0.77443000  0.61949000  1.0
  C  C102  1  0.76072000  0.77443000  0.88051000  1.0
  C  C103  1  0.73927000  0.22557000  0.38051000  1.0
  C  C104  1  0.27933000  0.18791000  0.18735000  1.0
  C  C105  1  0.22067000  0.81209000  0.68735000  1.0
  C  C106  1  0.72067000  0.81209000  0.81265000  1.0
  C  C107  1  0.77933000  0.18791000  0.31265000  1.0
  C  C108  1  0.19293000  0.12646000  0.21810000  1.0
  C  C109  1  0.30707000  0.87354000  0.71810000  1.0
  C  C110  1  0.80706000  0.87354000  0.78190000  1.0
  C  C111  1  0.69293000  0.12646000  0.28190000  1.0
  C  C112  1  0.06549000  0.10217000  0.18142000  1.0
  C  C113  1  0.43451000  0.89783000  0.68142000  1.0
  C  C114  1  0.93451000  0.89783000  0.81858000  1.0
  C  C115  1  0.56550000  0.10217000  0.31858000  1.0
  C  C116  1  0.02172000  0.14162000  0.11474000  1.0
  C  C117  1  0.47827000  0.85838000  0.61474000  1.0
  C  C118  1  0.97827000  0.85838000  0.88526000  1.0
  C  C119  1  0.52172000  0.14162000  0.38526000  1.0
  C  C120  1  0.10849000  0.20266000  0.08362000  1.0
  C  C121  1  0.39151000  0.79734000  0.58362000  1.0
  C  C122  1  0.89151000  0.79734000  0.91638000  1.0
  C  C123  1  0.60849000  0.20266000  0.41638000  1.0
  C  C124  1  0.53222000  0.21354000  0.03815000  1.0
  C  C125  1  0.96778000  0.78646000  0.53815000  1.0
  C  C126  1  0.46778000  0.78646000  0.96185000  1.0
  C  C127  1  0.03222000  0.21354000  0.46185000  1.0
  C  C128  1  0.56454000  0.11084000  0.04757000  1.0
  C  C129  1  0.93545000  0.88916000  0.54757000  1.0
  C  C130  1  0.43546000  0.88916000  0.95243000  1.0
  C  C131  1  0.06454000  0.11084000  0.45243000  1.0
  C  C132  1  0.69580000  0.04705000  0.01222000  1.0
  C  C133  1  0.80420000  0.95295000  0.51221000  1.0
  C  C134  1  0.30419000  0.95295000  0.98779000  1.0
  C  C135  1  0.19581000  0.04705000  0.48779000  1.0
  C  C136  1  0.79607000  0.08522000  0.96797000  1.0
  C  C137  1  0.70393000  0.91478000  0.46797000  1.0
  C  C138  1  0.20393000  0.91478000  0.03203000  1.0
  C  C139  1  0.29607000  0.08523000  0.53203000  1.0
  C  C140  1  0.76645000  0.18745000  0.95950000  1.0
  C  C141  1  0.73355000  0.81255000  0.45950000  1.0
  C  C142  1  0.23355000  0.81255000  0.04050000  1.0
  C  C143  1  0.26645000  0.18745000  0.54050000  1.0
  C  C144  1  0.63487000  0.25133000  0.99407000  1.0
  C  C145  1  0.86512000  0.74868000  0.49407000  1.0
  C  C146  1  0.36513000  0.74867000  0.00593000  1.0
  C  C147  1  0.13487000  0.25132000  0.50593000  1.0
  Br  Br148  1  0.92389000  0.39753000  0.93574000  1.0
  Br  Br149  1  0.57611000  0.60247000  0.43574000  1.0
  Br  Br150  1  0.07611000  0.60247000  0.06426000  1.0
  Br  Br151  1  0.42389000  0.39753000  0.56426000  1.0
  N  N152  1  0.23080000  0.50895000  0.39167000  1.0
  N  N153  1  0.26920000  0.49105000  0.89167000  1.0
  N  N154  1  0.76920000  0.49105000  0.60833000  1.0
  N  N155  1  0.73080000  0.50895000  0.10833000  1.0
  N  N156  1  0.30577000  0.43629000  0.17858000  1.0
  N  N157  1  0.19422000  0.56372000  0.67859000  1.0
  N  N158  1  0.69423000  0.56371000  0.82142000  1.0
  N  N159  1  0.80578000  0.43629000  0.32141000  1.0
