# generated using pymatgen
data_ReAgH4C4(NO2)2
_symmetry_space_group_name_H-M   'P 1'
_cell_length_a   7.10392000
_cell_length_b   7.52758000
_cell_length_c   15.61550000
_cell_angle_alpha   89.99980000
_cell_angle_beta   86.51570000
_cell_angle_gamma   89.99990000
_symmetry_Int_Tables_number   1
_chemical_formula_structural   ReAgH4C4(NO2)2
_chemical_formula_sum   'Re4 Ag4 H16 C16 N8 O16'
_cell_volume   833.50036721
_cell_formula_units_Z   4
loop_
 _symmetry_equiv_pos_site_id
 _symmetry_equiv_pos_as_xyz
  1  'x, y, z'
loop_
 _atom_site_type_symbol
 _atom_site_label
 _atom_site_symmetry_multiplicity
 _atom_site_fract_x
 _atom_site_fract_y
 _atom_site_fract_z
 _atom_site_occupancy
  Re  Re0  1  0.51873000  0.15530000  0.62324000  1.0
  Re  Re1  1  0.48127000  0.65530000  0.87677000  1.0
  Re  Re2  1  0.48126000  0.84469000  0.37675000  1.0
  Re  Re3  1  0.51873000  0.34470000  0.12323000  1.0
  Ag  Ag4  1  0.52223000  0.36089000  0.36576000  1.0
  Ag  Ag5  1  0.47776000  0.86089000  0.13423000  1.0
  Ag  Ag6  1  0.47777000  0.63911000  0.63424000  1.0
  Ag  Ag7  1  0.52224000  0.13910000  0.86577000  1.0
  H  H8  1  0.21552000  0.54506000  0.25916000  1.0
  H  H9  1  0.78447000  0.04507000  0.24084000  1.0
  H  H10  1  0.78448000  0.45493000  0.74084000  1.0
  H  H11  1  0.21553000  0.95493000  0.75917000  1.0
  H  H12  1  0.85973000  0.54807000  0.25940000  1.0
  H  H13  1  0.14025000  0.04807000  0.24059000  1.0
  H  H14  1  0.14027000  0.45193000  0.74060000  1.0
  H  H15  1  0.85975000  0.95193000  0.75941000  1.0
  H  H16  1  0.82822000  0.24129000  0.48180000  1.0
  H  H17  1  0.17178000  0.74127000  0.01821000  1.0
  H  H18  1  0.17179000  0.75873000  0.51821000  1.0
  H  H19  1  0.82822000  0.25874000  0.98179000  1.0
  H  H20  1  0.18317000  0.24411000  0.48318000  1.0
  H  H21  1  0.81683000  0.74410000  0.01682000  1.0
  H  H22  1  0.81683000  0.75590000  0.51682000  1.0
  H  H23  1  0.18318000  0.25590000  0.98318000  1.0
  C  C24  1  0.12858000  0.47847000  0.30937000  1.0
  C  C25  1  0.87141000  0.97847000  0.19063000  1.0
  C  C26  1  0.87142000  0.52152000  0.69063000  1.0
  C  C27  1  0.12858000  0.02152000  0.80938000  1.0
  C  C28  1  0.93258000  0.47985000  0.30925000  1.0
  C  C29  1  0.06741000  0.97985000  0.19075000  1.0
  C  C30  1  0.06742000  0.52015000  0.69075000  1.0
  C  C31  1  0.93260000  0.02015000  0.80926000  1.0
  C  C32  1  0.91445000  0.31034000  0.43232000  1.0
  C  C33  1  0.08554000  0.81033000  0.06769000  1.0
  C  C34  1  0.08555000  0.68967000  0.56769000  1.0
  C  C35  1  0.91446000  0.18968000  0.93232000  1.0
  C  C36  1  0.11011000  0.31041000  0.43288000  1.0
  C  C37  1  0.88989000  0.81040000  0.06712000  1.0
  C  C38  1  0.88990000  0.68960000  0.56712000  1.0
  C  C39  1  0.11011000  0.18960000  0.93289000  1.0
  N  N40  1  0.21741000  0.39438000  0.37146000  1.0
  N  N41  1  0.78258000  0.89438000  0.12853000  1.0
  N  N42  1  0.78259000  0.60561000  0.62854000  1.0
  N  N43  1  0.21742000  0.10561000  0.87147000  1.0
  N  N44  1  0.82548000  0.39564000  0.37069000  1.0
  N  N45  1  0.17451000  0.89563000  0.12932000  1.0
  N  N46  1  0.17452000  0.60437000  0.62932000  1.0
  N  N47  1  0.82549000  0.10437000  0.87069000  1.0
  O  O48  1  0.75701000  0.09287000  0.62156000  1.0
  O  O49  1  0.24298000  0.59287000  0.87844000  1.0
  O  O50  1  0.24298000  0.90710000  0.37842000  1.0
  O  O51  1  0.75702000  0.40712000  0.12156000  1.0
  O  O52  1  0.37211000  0.96725000  0.62314000  1.0
  O  O53  1  0.62790000  0.46725000  0.87687000  1.0
  O  O54  1  0.62788000  0.03275000  0.37686000  1.0
  O  O55  1  0.37210000  0.53275000  0.12313000  1.0
  O  O56  1  0.48164000  0.28396000  0.53202000  1.0
  O  O57  1  0.51835000  0.78395000  0.96800000  1.0
  O  O58  1  0.51834000  0.71606000  0.46798000  1.0
  O  O59  1  0.48165000  0.21604000  0.03200000  1.0
  O  O60  1  0.45927000  0.28389000  0.71541000  1.0
  O  O61  1  0.54072000  0.78390000  0.78460000  1.0
  O  O62  1  0.54074000  0.71608000  0.28459000  1.0
  O  O63  1  0.45926000  0.21611000  0.21540000  1.0
