# generated using pymatgen
data_CdH16C14(SN2)2
_symmetry_space_group_name_H-M   'P 1'
_cell_length_a   8.93088000
_cell_length_b   10.26640000
_cell_length_c   11.00354338
_cell_angle_alpha   113.48732039
_cell_angle_beta   109.86263175
_cell_angle_gamma   98.73420000
_symmetry_Int_Tables_number   1
_chemical_formula_structural   CdH16C14(SN2)2
_chemical_formula_sum   'Cd2 H32 C28 S4 N8'
_cell_volume   820.58167275
_cell_formula_units_Z   2
loop_
 _symmetry_equiv_pos_site_id
 _symmetry_equiv_pos_as_xyz
  1  'x, y, z'
loop_
 _atom_site_type_symbol
 _atom_site_label
 _atom_site_symmetry_multiplicity
 _atom_site_fract_x
 _atom_site_fract_y
 _atom_site_fract_z
 _atom_site_occupancy
  Cd  Cd0  1  0.83077000  0.70660000  0.95760000  1.0
  Cd  Cd1  1  0.16924000  0.29342000  0.04240000  1.0
  H  H2  1  0.68985000  0.39801000  0.62805000  1.0
  H  H3  1  0.31015000  0.60199000  0.37195000  1.0
  H  H4  1  0.41474000  0.22611000  0.40383000  1.0
  H  H5  1  0.58526000  0.77388000  0.59617000  1.0
  H  H6  1  0.14683000  0.26797000  0.40690000  1.0
  H  H7  1  0.85318000  0.73202000  0.59310000  1.0
  H  H8  1  0.16396000  0.47970000  0.63574000  1.0
  H  H9  1  0.83605000  0.52030000  0.36426000  1.0
  H  H10  1  0.33235000  0.69007000  0.88395000  1.0
  H  H11  1  0.66765000  0.30992000  0.11605000  1.0
  H  H12  1  0.47125000  0.88213000  0.10717000  1.0
  H  H13  1  0.52875000  0.11787000  0.89283000  1.0
  H  H14  1  0.67193000  0.05305000  0.07832000  1.0
  H  H15  1  0.32807000  0.94695000  0.92168000  1.0
  H  H16  1  0.84316000  0.01817000  0.18400000  1.0
  H  H17  1  0.15684000  0.98183000  0.81600000  1.0
  H  H18  1  0.82049000  0.26036000  0.34135000  1.0
  H  H19  1  0.17952000  0.73964000  0.65866000  1.0
  H  H20  1  0.60925000  0.16914000  0.29452000  1.0
  H  H21  1  0.39076000  0.83086000  0.70549000  1.0
  H  H22  1  0.79885000  0.20613000  0.54066000  1.0
  H  H23  1  0.20114000  0.79387000  0.45934000  1.0
  H  H24  1  0.92171000  0.11287000  0.46549000  1.0
  H  H25  1  0.07829000  0.88712000  0.53451000  1.0
  H  H26  1  0.54887000  0.97066000  0.38264000  1.0
  H  H27  1  0.45113000  0.02934000  0.61736000  1.0
  H  H28  1  0.72297000  0.93792000  0.48759000  1.0
  H  H29  1  0.27703000  0.06208000  0.51241000  1.0
  H  H30  1  0.78515000  0.82399000  0.27100000  1.0
  H  H31  1  0.21485000  0.17601000  0.72900000  1.0
  H  H32  1  0.57340000  0.73039000  0.22288000  1.0
  H  H33  1  0.42659000  0.26961000  0.77711000  1.0
  C  C34  1  0.43567000  0.54821000  0.74834000  1.0
  C  C35  1  0.56433000  0.45179000  0.25166000  1.0
  C  C36  1  0.56951000  0.41099000  0.62424000  1.0
  C  C37  1  0.43049000  0.58901000  0.37576000  1.0
  C  C38  1  0.41669000  0.31615000  0.50024000  1.0
  C  C39  1  0.58332000  0.68385000  0.49977000  1.0
  C  C40  1  0.26801000  0.34030000  0.50237000  1.0
  C  C41  1  0.73200000  0.65969000  0.49763000  1.0
  C  C42  1  0.27717000  0.45760000  0.62845000  1.0
  C  C43  1  0.72283000  0.54240000  0.37155000  1.0
  C  C44  1  0.45081000  0.67273000  0.88389000  1.0
  C  C45  1  0.54921000  0.32728000  0.11612000  1.0
  C  C46  1  0.59969000  0.87576000  0.12809000  1.0
  C  C47  1  0.40031000  0.12424000  0.87191000  1.0
  C  C48  1  0.71774000  0.02773000  0.16976000  1.0
  C  C49  1  0.28226000  0.97227000  0.83024000  1.0
  C  C50  1  0.73313000  0.15343000  0.31284000  1.0
  C  C51  1  0.26687000  0.84656000  0.68716000  1.0
  C  C52  1  0.79213000  0.11663000  0.43940000  1.0
  C  C53  1  0.20787000  0.88336000  0.56060000  1.0
  C  C54  1  0.67574000  0.96446000  0.39730000  1.0
  C  C55  1  0.32425000  0.03553000  0.60269000  1.0
  C  C56  1  0.66124000  0.83856000  0.25490000  1.0
  C  C57  1  0.33875000  0.16143000  0.74509000  1.0
  C  C58  1  0.15867000  0.02262000  0.15832000  1.0
  C  C59  1  0.84134000  0.97739000  0.84168000  1.0
  C  C60  1  0.08736000  0.51201000  0.87772000  1.0
  C  C61  1  0.91263000  0.48801000  0.12228000  1.0
  S  S62  1  0.99887000  0.59825000  0.79190000  1.0
  S  S63  1  0.00114000  0.40178000  0.20810000  1.0
  S  S64  1  0.12379000  0.88523000  0.19571000  1.0
  S  S65  1  0.87622000  0.11479000  0.80429000  1.0
  N  N66  1  0.57893000  0.52449000  0.74460000  1.0
  N  N67  1  0.42107000  0.47551000  0.25540000  1.0
  N  N68  1  0.59358000  0.75662000  0.99593000  1.0
  N  N69  1  0.40641000  0.24338000  0.00406000  1.0
  N  N70  1  0.15752000  0.45236000  0.94000000  1.0
  N  N71  1  0.84249000  0.54768000  0.06002000  1.0
  N  N72  1  0.18816000  0.12532000  0.13666000  1.0
  N  N73  1  0.81185000  0.87470000  0.86335000  1.0
