# generated using pymatgen
data_MnH7C5N(ClO)2
_symmetry_space_group_name_H-M   'P 1'
_cell_length_a   6.70856000
_cell_length_b   6.83212000
_cell_length_c   9.87198477
_cell_angle_alpha   109.61635946
_cell_angle_beta   102.51805188
_cell_angle_gamma   84.91210000
_symmetry_Int_Tables_number   1
_chemical_formula_structural   MnH7C5N(ClO)2
_chemical_formula_sum   'Mn2 H14 C10 N2 Cl4 O4'
_cell_volume   416.01459637
_cell_formula_units_Z   2
loop_
 _symmetry_equiv_pos_site_id
 _symmetry_equiv_pos_as_xyz
  1  'x, y, z'
loop_
 _atom_site_type_symbol
 _atom_site_label
 _atom_site_symmetry_multiplicity
 _atom_site_fract_x
 _atom_site_fract_y
 _atom_site_fract_z
 _atom_site_occupancy
  Mn  Mn0  1  0.51082000  0.25296000  0.49652000  1.0
  Mn  Mn1  1  0.48917000  0.74704000  0.50347000  1.0
  H  H2  1  0.42261000  0.10241000  0.82454000  1.0
  H  H3  1  0.57740000  0.89754000  0.17547000  1.0
  H  H4  1  0.21419000  0.49263000  0.61034000  1.0
  H  H5  1  0.78580000  0.50737000  0.38965000  1.0
  H  H6  1  0.11107000  0.27561000  0.53311000  1.0
  H  H7  1  0.88892000  0.72439000  0.46689000  1.0
  H  H8  1  0.57084000  0.24343000  0.10044000  1.0
  H  H9  1  0.42920000  0.75654000  0.89958000  1.0
  H  H10  1  0.94381000  0.33061000  0.18051000  1.0
  H  H11  1  0.05620000  0.66939000  0.81946000  1.0
  H  H12  1  0.14869000  0.29037000  0.98915000  1.0
  H  H13  1  0.85129000  0.70966000  0.01084000  1.0
  H  H14  1  0.97467000  0.15336000  0.72007000  1.0
  H  H15  1  0.02533000  0.84664000  0.27992000  1.0
  C  C16  1  0.58034000  0.14890000  0.87176000  1.0
  C  C17  1  0.41964000  0.85110000  0.12825000  1.0
  C  C18  1  0.66603000  0.22414000  0.01999000  1.0
  C  C19  1  0.33396000  0.77588000  0.98002000  1.0
  C  C20  1  0.87271000  0.27442000  0.06469000  1.0
  C  C21  1  0.12733000  0.72560000  0.93533000  1.0
  C  C22  1  0.98793000  0.25042000  0.95810000  1.0
  C  C23  1  0.01211000  0.74958000  0.04189000  1.0
  C  C24  1  0.89788000  0.17761000  0.81082000  1.0
  C  C25  1  0.10208000  0.82240000  0.18916000  1.0
  N  N26  1  0.69798000  0.12606000  0.77122000  1.0
  N  N27  1  0.30199000  0.87392000  0.22875000  1.0
  Cl  Cl28  1  0.82256000  0.18832000  0.39153000  1.0
  Cl  Cl29  1  0.17744000  0.81167000  0.60846000  1.0
  Cl  Cl30  1  0.65639000  0.58132000  0.69149000  1.0
  Cl  Cl31  1  0.34360000  0.41869000  0.30851000  1.0
  O  O32  1  0.61495000  0.05301000  0.62796000  1.0
  O  O33  1  0.38508000  0.94698000  0.37206000  1.0
  O  O34  1  0.23837000  0.34282000  0.59835000  1.0
  O  O35  1  0.76162000  0.65719000  0.40166000  1.0
