# generated using pymatgen
data_CuH7C3SNO6
_symmetry_space_group_name_H-M   'P 1'
_cell_length_a   7.47353000
_cell_length_b   9.68313000
_cell_length_c   9.74152000
_cell_angle_alpha   90.00020000
_cell_angle_beta   89.99990000
_cell_angle_gamma   90.00010000
_symmetry_Int_Tables_number   1
_chemical_formula_structural   CuH7C3SNO6
_chemical_formula_sum   'Cu4 H28 C12 S4 N4 O24'
_cell_volume   704.96616131
_cell_formula_units_Z   4
loop_
 _symmetry_equiv_pos_site_id
 _symmetry_equiv_pos_as_xyz
  1  'x, y, z'
loop_
 _atom_site_type_symbol
 _atom_site_label
 _atom_site_symmetry_multiplicity
 _atom_site_fract_x
 _atom_site_fract_y
 _atom_site_fract_z
 _atom_site_occupancy
  Cu  Cu0  1  0.06908000  0.33746000  0.94843000  1.0
  Cu  Cu1  1  0.43092000  0.83745000  0.05157000  1.0
  Cu  Cu2  1  0.93092000  0.16254000  0.44843000  1.0
  Cu  Cu3  1  0.56908000  0.66254000  0.55156000  1.0
  H  H4  1  0.14620000  0.11071000  0.06004000  1.0
  H  H5  1  0.35381000  0.61070000  0.93995000  1.0
  H  H6  1  0.85380000  0.38930000  0.56004000  1.0
  H  H7  1  0.64620000  0.88929000  0.43996000  1.0
  H  H8  1  0.92447000  0.13237000  0.04859000  1.0
  H  H9  1  0.57554000  0.63237000  0.95141000  1.0
  H  H10  1  0.07554000  0.36764000  0.54859000  1.0
  H  H11  1  0.42446000  0.86763000  0.45141000  1.0
  H  H12  1  0.18161000  0.01402000  0.85924000  1.0
  H  H13  1  0.31839000  0.51401000  0.14076000  1.0
  H  H14  1  0.81839000  0.48599000  0.35924000  1.0
  H  H15  1  0.68161000  0.98598000  0.64076000  1.0
  H  H16  1  0.93817000  0.86171000  0.78898000  1.0
  H  H17  1  0.56181000  0.36169000  0.21101000  1.0
  H  H18  1  0.06182000  0.63831000  0.28898000  1.0
  H  H19  1  0.43817000  0.13829000  0.71102000  1.0
  H  H20  1  0.77599000  0.96709000  0.87484000  1.0
  H  H21  1  0.72400000  0.46708000  0.12516000  1.0
  H  H22  1  0.22400000  0.53292000  0.37484000  1.0
  H  H23  1  0.27599000  0.03291000  0.62516000  1.0
  H  H24  1  0.11542000  0.54871000  0.78780000  1.0
  H  H25  1  0.38459000  0.04870000  0.21220000  1.0
  H  H26  1  0.88459000  0.95130000  0.28780000  1.0
  H  H27  1  0.61541000  0.45130000  0.71220000  1.0
  H  H28  1  0.00119000  0.59062000  0.92329000  1.0
  H  H29  1  0.49882000  0.09061000  0.07672000  1.0
  H  H30  1  0.99882000  0.90939000  0.42328000  1.0
  H  H31  1  0.50119000  0.40938000  0.57672000  1.0
  C  C32  1  0.00720000  0.14365000  0.74663000  1.0
  C  C33  1  0.49280000  0.64363000  0.25338000  1.0
  C  C34  1  0.99280000  0.35637000  0.24662000  1.0
  C  C35  1  0.50720000  0.85636000  0.75338000  1.0
  C  C36  1  0.04385000  0.05248000  0.87215000  1.0
  C  C37  1  0.45615000  0.55248000  0.12785000  1.0
  C  C38  1  0.95615000  0.44752000  0.37215000  1.0
  C  C39  1  0.54385000  0.94752000  0.62785000  1.0
  C  C40  1  0.91483000  0.93056000  0.87667000  1.0
  C  C41  1  0.58516000  0.43055000  0.12333000  1.0
  C  C42  1  0.08516000  0.56945000  0.37666000  1.0
  C  C43  1  0.41483000  0.06944000  0.62334000  1.0
  S  S44  1  0.92792000  0.82722000  0.03023000  1.0
  S  S45  1  0.57208000  0.32721000  0.96976000  1.0
  S  S46  1  0.07208000  0.67279000  0.53023000  1.0
  S  S47  1  0.42792000  0.17278000  0.46977000  1.0
  N  N48  1  0.04324000  0.13947000  0.99613000  1.0
  N  N49  1  0.45677000  0.63946000  0.00387000  1.0
  N  N50  1  0.95677000  0.36054000  0.49613000  1.0
  N  N51  1  0.54324000  0.86053000  0.50388000  1.0
  O  O52  1  0.03355000  0.27257000  0.75850000  1.0
  O  O53  1  0.46644000  0.77256000  0.24150000  1.0
  O  O54  1  0.96644000  0.22744000  0.25850000  1.0
  O  O55  1  0.53355000  0.72743000  0.74150000  1.0
  O  O56  1  0.95889000  0.08387000  0.63635000  1.0
  O  O57  1  0.54111000  0.58386000  0.36364000  1.0
  O  O58  1  0.04110000  0.41613000  0.13636000  1.0
  O  O59  1  0.45890000  0.91613000  0.86364000  1.0
  O  O60  1  0.11629000  0.81383000  0.06962000  1.0
  O  O61  1  0.38371000  0.31382000  0.93037000  1.0
  O  O62  1  0.88371000  0.68618000  0.56963000  1.0
  O  O63  1  0.61629000  0.18617000  0.43038000  1.0
  O  O64  1  0.84620000  0.69330000  0.99213000  1.0
  O  O65  1  0.65381000  0.19330000  0.00787000  1.0
  O  O66  1  0.15381000  0.80670000  0.49213000  1.0
  O  O67  1  0.34619000  0.30670000  0.50788000  1.0
  O  O68  1  0.81899000  0.90196000  0.13234000  1.0
  O  O69  1  0.68100000  0.40196000  0.86765000  1.0
  O  O70  1  0.18100000  0.59804000  0.63235000  1.0
  O  O71  1  0.31899000  0.09804000  0.36766000  1.0
  O  O72  1  0.10192000  0.53142000  0.88869000  1.0
  O  O73  1  0.39809000  0.03141000  0.11132000  1.0
  O  O74  1  0.89809000  0.96859000  0.38868000  1.0
  O  O75  1  0.60192000  0.46858000  0.61131000  1.0
