# generated using pymatgen
data_CdH10C12N2(ClO3)2
_symmetry_space_group_name_H-M   'P 1'
_cell_length_a   8.14550000
_cell_length_b   10.48770000
_cell_length_c   19.61383289
_cell_angle_alpha   105.23935119
_cell_angle_beta   90.00000000
_cell_angle_gamma   90.00000000
_symmetry_Int_Tables_number   1
_chemical_formula_structural   CdH10C12N2(ClO3)2
_chemical_formula_sum   'Cd4 H40 C48 N8 Cl8 O24'
_cell_volume   1616.64275851
_cell_formula_units_Z   4
loop_
 _symmetry_equiv_pos_site_id
 _symmetry_equiv_pos_as_xyz
  1  'x, y, z'
loop_
 _atom_site_type_symbol
 _atom_site_label
 _atom_site_symmetry_multiplicity
 _atom_site_fract_x
 _atom_site_fract_y
 _atom_site_fract_z
 _atom_site_occupancy
  Cd  Cd0  1  0.56766000  0.01684000  0.35790000  1.0
  Cd  Cd1  1  0.93234000  0.01684000  0.85790000  1.0
  Cd  Cd2  1  0.43234000  0.98316000  0.64210000  1.0
  Cd  Cd3  1  0.06766000  0.98316000  0.14210000  1.0
  H  H4  1  0.59090000  0.85154000  0.44804000  1.0
  H  H5  1  0.90910000  0.85154000  0.94804000  1.0
  H  H6  1  0.40910000  0.14846000  0.55196000  1.0
  H  H7  1  0.09090000  0.14846000  0.05196000  1.0
  H  H8  1  0.61642000  0.75206000  0.37113000  1.0
  H  H9  1  0.88357000  0.75206000  0.87113000  1.0
  H  H10  1  0.38357000  0.24794000  0.62887000  1.0
  H  H11  1  0.11642000  0.24793000  0.12887000  1.0
  H  H12  1  0.48157000  0.86206000  0.22643000  1.0
  H  H13  1  0.01843000  0.86205000  0.72642000  1.0
  H  H14  1  0.51843000  0.13794000  0.77357000  1.0
  H  H15  1  0.98157000  0.13794000  0.27357000  1.0
  H  H16  1  0.65628000  0.92342000  0.21336000  1.0
  H  H17  1  0.84372000  0.92342000  0.71335000  1.0
  H  H18  1  0.34372000  0.07658000  0.78664000  1.0
  H  H19  1  0.15628000  0.07658000  0.28664000  1.0
  H  H20  1  0.79594000  0.26621000  0.18870000  1.0
  H  H21  1  0.70406000  0.26621000  0.68870000  1.0
  H  H22  1  0.20406000  0.73379000  0.81130000  1.0
  H  H23  1  0.29594000  0.73379000  0.31130000  1.0
  H  H24  1  0.83216000  0.47747000  0.15158000  1.0
  H  H25  1  0.66784000  0.47746000  0.65158000  1.0
  H  H26  1  0.16784000  0.52254000  0.84842000  1.0
  H  H27  1  0.33216000  0.52254000  0.34842000  1.0
  H  H28  1  0.76480000  0.69305000  0.23922000  1.0
  H  H29  1  0.73520000  0.69305000  0.73922000  1.0
  H  H30  1  0.23520000  0.30695000  0.76078000  1.0
  H  H31  1  0.26480000  0.30695000  0.26078000  1.0
  H  H32  1  0.16928000  0.28681000  0.52636000  1.0
  H  H33  1  0.33072000  0.28681000  0.02636000  1.0
  H  H34  1  0.83072000  0.71319000  0.47364000  1.0
  H  H35  1  0.66928000  0.71319000  0.97364000  1.0
  H  H36  1  0.88537000  0.36248000  0.56916000  1.0
  H  H37  1  0.61464000  0.36248000  0.06916000  1.0
  H  H38  1  0.11463000  0.63752000  0.43084000  1.0
  H  H39  1  0.38537000  0.63752000  0.93084000  1.0
  H  H40  1  0.64392000  0.23129000  0.50673000  1.0
  H  H41  1  0.85608000  0.23129000  0.00673000  1.0
  H  H42  1  0.35608000  0.76870000  0.49327000  1.0
  H  H43  1  0.14392000  0.76871000  0.99327000  1.0
  C  C44  1  0.68680000  0.49396000  0.33832000  1.0
  C  C45  1  0.81320000  0.49396000  0.83832000  1.0
  C  C46  1  0.31320000  0.50604000  0.66168000  1.0
  C  C47  1  0.18680000  0.50604000  0.16168000  1.0
  C  C48  1  0.71388000  0.36774000  0.29326000  1.0
  C  C49  1  0.78612000  0.36774000  0.79326000  1.0
  C  C50  1  0.28612000  0.63226000  0.70674000  1.0
  C  C51  1  0.21388000  0.63226000  0.20674000  1.0
  C  C52  1  0.76970000  0.36237000  0.22501000  1.0
  C  C53  1  0.73030000  0.36237000  0.72501000  1.0
  C  C54  1  0.23030000  0.63763000  0.77499000  1.0
  C  C55  1  0.26970000  0.63763000  0.27499000  1.0
  C  C56  1  0.78962000  0.47889000  0.20442000  1.0
  C  C57  1  0.71038000  0.47889000  0.70442000  1.0
  C  C58  1  0.21038000  0.52111000  0.79558000  1.0
  C  C59  1  0.28962000  0.52111000  0.29558000  1.0
  C  C60  1  0.75554000  0.59895000  0.25296000  1.0
  C  C61  1  0.74446000  0.59895000  0.75295000  1.0
  C  C62  1  0.24446000  0.40106000  0.74705000  1.0
  C  C63  1  0.25554000  0.40106000  0.24705000  1.0
  C  C64  1  0.68187000  0.24146000  0.31359000  1.0
  C  C65  1  0.81813000  0.24146000  0.81359000  1.0
  C  C66  1  0.31813000  0.75854000  0.68641000  1.0
  C  C67  1  0.18187000  0.75854000  0.18641000  1.0
  C  C68  1  0.94032000  0.05121000  0.41737000  1.0
  C  C69  1  0.55968000  0.05121000  0.91737000  1.0
  C  C70  1  0.05967000  0.94879000  0.58263000  1.0
  C  C71  1  0.44033000  0.94879000  0.08263000  1.0
  C  C72  1  0.08337000  0.11901000  0.44644000  1.0
  C  C73  1  0.41663000  0.11901000  0.94644000  1.0
  C  C74  1  0.91663000  0.88099000  0.55356000  1.0
  C  C75  1  0.58337000  0.88099000  0.05356000  1.0
  C  C76  1  0.06096000  0.23224000  0.50233000  1.0
  C  C77  1  0.43904000  0.23223000  0.00232000  1.0
  C  C78  1  0.93904000  0.76777000  0.49768000  1.0
  C  C79  1  0.56096000  0.76777000  0.99768000  1.0
  C  C80  1  0.90401000  0.27466000  0.52570000  1.0
  C  C81  1  0.59600000  0.27466000  0.02570000  1.0
  C  C82  1  0.09599000  0.72534000  0.47430000  1.0
  C  C83  1  0.40401000  0.72534000  0.97430000  1.0
  C  C84  1  0.77025000  0.20262000  0.49192000  1.0
  C  C85  1  0.72975000  0.20262000  0.99192000  1.0
  C  C86  1  0.22975000  0.79738000  0.50808000  1.0
  C  C87  1  0.27025000  0.79737000  0.00808000  1.0
  C  C88  1  0.25431000  0.08157000  0.41960000  1.0
  C  C89  1  0.24569000  0.08156000  0.91960000  1.0
  C  C90  1  0.74569000  0.91844000  0.58040000  1.0
  C  C91  1  0.75431000  0.91844000  0.08040000  1.0
  N  N92  1  0.70670000  0.60579000  0.31944000  1.0
  N  N93  1  0.79330000  0.60579000  0.81944000  1.0
  N  N94  1  0.29330000  0.39421000  0.68056000  1.0
  N  N95  1  0.20670000  0.39421000  0.18056000  1.0
  N  N96  1  0.78919000  0.09260000  0.43881000  1.0
  N  N97  1  0.71081000  0.09260000  0.93881000  1.0
  N  N98  1  0.21081000  0.90740000  0.56119000  1.0
  N  N99  1  0.28919000  0.90740000  0.06119000  1.0
  Cl  Cl100  1  0.62682000  0.51259000  0.42573000  1.0
  Cl  Cl101  1  0.87318000  0.51259000  0.92573000  1.0
  Cl  Cl102  1  0.37318000  0.48741000  0.57427000  1.0
  Cl  Cl103  1  0.12682000  0.48741000  0.07427000  1.0
  Cl  Cl104  1  0.94803000  0.90539000  0.35154000  1.0
  Cl  Cl105  1  0.55197000  0.90539000  0.85154000  1.0
  Cl  Cl106  1  0.05197000  0.09462000  0.64846000  1.0
  Cl  Cl107  1  0.44803000  0.09461000  0.14846000  1.0
  O  O108  1  0.54380000  0.22944000  0.34142000  1.0
  O  O109  1  0.95621000  0.22944000  0.84142000  1.0
  O  O110  1  0.45621000  0.77056000  0.65858000  1.0
  O  O111  1  0.04379000  0.77056000  0.15858000  1.0
  O  O112  1  0.79098000  0.15225000  0.30005000  1.0
  O  O113  1  0.70902000  0.15225000  0.80005000  1.0
  O  O114  1  0.20902000  0.84775000  0.69994000  1.0
  O  O115  1  0.29097000  0.84775000  0.19994000  1.0
  O  O116  1  0.27431000  0.02993000  0.35367000  1.0
  O  O117  1  0.22569000  0.02993000  0.85367000  1.0
  O  O118  1  0.72569000  0.97007000  0.64633000  1.0
  O  O119  1  0.77431000  0.97007000  0.14633000  1.0
  O  O120  1  0.37281000  0.10665000  0.46313000  1.0
  O  O121  1  0.12719000  0.10664000  0.96313000  1.0
  O  O122  1  0.62719000  0.89336000  0.53687000  1.0
  O  O123  1  0.87281000  0.89335000  0.03687000  1.0
  O  O124  1  0.54931000  0.82873000  0.39850000  1.0
  O  O125  1  0.95069000  0.82873000  0.89850000  1.0
  O  O126  1  0.45069000  0.17127000  0.60150000  1.0
  O  O127  1  0.04931000  0.17127000  0.10150000  1.0
  O  O128  1  0.59519000  0.88274000  0.24616000  1.0
  O  O129  1  0.90481000  0.88274000  0.74616000  1.0
  O  O130  1  0.40481000  0.11725000  0.75383000  1.0
  O  O131  1  0.09519000  0.11726000  0.25384000  1.0
