# generated using pymatgen
data_ZnH14C18N4(ClO)2
_symmetry_space_group_name_H-M   'P 1'
_cell_length_a   7.84733000
_cell_length_b   11.59160000
_cell_length_c   11.66920000
_cell_angle_alpha   75.92120000
_cell_angle_beta   87.57680000
_cell_angle_gamma   77.87580000
_symmetry_Int_Tables_number   1
_chemical_formula_structural   ZnH14C18N4(ClO)2
_chemical_formula_sum   'Zn2 H28 C36 N8 Cl4 O4'
_cell_volume   1006.57379789
_cell_formula_units_Z   2
loop_
 _symmetry_equiv_pos_site_id
 _symmetry_equiv_pos_as_xyz
  1  'x, y, z'
loop_
 _atom_site_type_symbol
 _atom_site_label
 _atom_site_symmetry_multiplicity
 _atom_site_fract_x
 _atom_site_fract_y
 _atom_site_fract_z
 _atom_site_occupancy
  Zn  Zn0  1  0.38811000  0.53059000  0.25511000  1.0
  Zn  Zn1  1  0.61189000  0.46941000  0.74489000  1.0
  H  H2  1  0.81337000  0.63184000  0.52352000  1.0
  H  H3  1  0.18663000  0.36817000  0.47648000  1.0
  H  H4  1  0.82762000  0.95220000  0.43458000  1.0
  H  H5  1  0.17238000  0.04780000  0.56542000  1.0
  H  H6  1  0.64543000  0.56200000  0.07524000  1.0
  H  H7  1  0.35458000  0.43798000  0.92477000  1.0
  H  H8  1  0.91003000  0.65422000  0.03024000  1.0
  H  H9  1  0.08997000  0.34577000  0.96976000  1.0
  H  H10  1  0.00949000  0.75069000  0.17965000  1.0
  H  H11  1  0.99050000  0.24932000  0.82034000  1.0
  H  H12  1  0.57591000  0.65670000  0.39635000  1.0
  H  H13  1  0.42408000  0.34331000  0.60365000  1.0
  H  H14  1  0.99554000  0.56728000  0.68865000  1.0
  H  H15  1  0.00445000  0.43273000  0.31134000  1.0
  H  H16  1  0.08662000  0.61545000  0.87069000  1.0
  H  H17  1  0.91337000  0.38454000  0.12931000  1.0
  H  H18  1  0.03492000  0.83047000  0.88577000  1.0
  H  H19  1  0.96507000  0.16952000  0.11423000  1.0
  H  H20  1  0.89025000  0.99659000  0.71907000  1.0
  H  H21  1  0.10975000  0.00340000  0.28094000  1.0
  H  H22  1  0.61902000  0.99959000  0.31480000  1.0
  H  H23  1  0.38098000  0.00041000  0.68521000  1.0
  H  H24  1  0.49008000  0.13372000  0.12465000  1.0
  H  H25  1  0.50993000  0.86628000  0.87536000  1.0
  H  H26  1  0.40263000  0.35875000  0.10767000  1.0
  H  H27  1  0.59738000  0.64126000  0.89233000  1.0
  H  H28  1  0.58024000  0.32099000  0.44709000  1.0
  H  H29  1  0.41976000  0.67901000  0.55292000  1.0
  C  C30  1  0.69365000  0.60574000  0.13644000  1.0
  C  C31  1  0.30635000  0.39426000  0.86356000  1.0
  C  C32  1  0.83950000  0.65726000  0.11198000  1.0
  C  C33  1  0.16049000  0.34274000  0.88802000  1.0
  C  C34  1  0.89494000  0.71004000  0.19492000  1.0
  C  C35  1  0.10505000  0.28997000  0.80508000  1.0
  C  C36  1  0.80403000  0.70797000  0.30092000  1.0
  C  C37  1  0.19596000  0.29204000  0.69908000  1.0
  C  C38  1  0.65681000  0.65604000  0.31838000  1.0
  C  C39  1  0.34318000  0.34397000  0.68161000  1.0
  C  C40  1  0.86329000  0.76755000  0.38719000  1.0
  C  C41  1  0.13670000  0.23246000  0.61280000  1.0
  C  C42  1  0.89406000  0.75398000  0.60153000  1.0
  C  C43  1  0.10594000  0.24602000  0.39847000  1.0
  C  C44  1  0.97313000  0.66118000  0.69648000  1.0
  C  C45  1  0.02688000  0.33882000  0.30351000  1.0
  C  C46  1  0.02261000  0.68818000  0.79843000  1.0
  C  C47  1  0.97739000  0.31181000  0.20157000  1.0
  C  C48  1  0.99297000  0.80897000  0.80693000  1.0
  C  C49  1  0.00703000  0.19103000  0.19306000  1.0
  C  C50  1  0.91289000  0.90217000  0.71425000  1.0
  C  C51  1  0.08711000  0.09783000  0.28575000  1.0
  C  C52  1  0.86232000  0.87630000  0.61093000  1.0
  C  C53  1  0.13769000  0.12371000  0.38907000  1.0
  C  C54  1  0.67572000  0.07683000  0.51699000  1.0
  C  C55  1  0.32428000  0.92318000  0.48301000  1.0
  C  C56  1  0.61103000  0.15018000  0.39625000  1.0
  C  C57  1  0.38897000  0.84982000  0.60375000  1.0
  C  C58  1  0.58650000  0.09764000  0.30365000  1.0
  C  C59  1  0.41351000  0.90236000  0.69635000  1.0
  C  C60  1  0.51268000  0.17182000  0.19778000  1.0
  C  C61  1  0.48733000  0.82819000  0.80222000  1.0
  C  C62  1  0.46375000  0.29607000  0.18723000  1.0
  C  C63  1  0.53626000  0.70393000  0.81277000  1.0
  C  C64  1  0.56057000  0.27621000  0.37794000  1.0
  C  C65  1  0.43944000  0.72379000  0.62207000  1.0
  N  N66  1  0.60368000  0.60618000  0.23737000  1.0
  N  N67  1  0.39631000  0.39382000  0.76263000  1.0
  N  N68  1  0.84079000  0.71774000  0.50335000  1.0
  N  N69  1  0.15921000  0.28227000  0.49664000  1.0
  N  N70  1  0.78426000  0.96878000  0.51528000  1.0
  N  N71  1  0.21574000  0.03123000  0.48472000  1.0
  N  N72  1  0.48713000  0.34722000  0.27596000  1.0
  N  N73  1  0.51287000  0.65278000  0.72405000  1.0
  Cl  Cl74  1  0.27413000  0.59638000  0.07175000  1.0
  Cl  Cl75  1  0.72586000  0.40361000  0.92825000  1.0
  Cl  Cl76  1  0.24530000  0.55690000  0.41982000  1.0
  Cl  Cl77  1  0.75469000  0.44311000  0.58018000  1.0
  O  O78  1  0.92772000  0.85938000  0.34957000  1.0
  O  O79  1  0.07227000  0.14063000  0.65042000  1.0
  O  O80  1  0.62472000  0.11327000  0.60654000  1.0
  O  O81  1  0.37528000  0.88673000  0.39347000  1.0
