# generated using pymatgen
data_Zn2BH19C23(N5O2)2
_symmetry_space_group_name_H-M   'P 1'
_cell_length_a   12.98270000
_cell_length_b   12.98270000
_cell_length_c   53.72470000
_cell_angle_alpha   90.00000000
_cell_angle_beta   90.00000000
_cell_angle_gamma   89.99960000
_symmetry_Int_Tables_number   1
_chemical_formula_structural   Zn2BH19C23(N5O2)2
_chemical_formula_sum   'Zn16 B8 H152 C184 N80 O32'
_cell_volume   9055.32500898
_cell_formula_units_Z   8
loop_
 _symmetry_equiv_pos_site_id
 _symmetry_equiv_pos_as_xyz
  1  'x, y, z'
loop_
 _atom_site_type_symbol
 _atom_site_label
 _atom_site_symmetry_multiplicity
 _atom_site_fract_x
 _atom_site_fract_y
 _atom_site_fract_z
 _atom_site_occupancy
  Zn  Zn0  1  0.87350000  0.85076000  0.11413000  1.0
  Zn  Zn1  1  0.93035000  0.67071000  0.31343000  1.0
  Zn  Zn2  1  0.12650000  0.14924000  0.61413000  1.0
  Zn  Zn3  1  0.06965000  0.32929000  0.81343000  1.0
  Zn  Zn4  1  0.35074000  0.62648000  0.86414000  1.0
  Zn  Zn5  1  0.17074000  0.56963000  0.06345000  1.0
  Zn  Zn6  1  0.64926000  0.37352000  0.36414000  1.0
  Zn  Zn7  1  0.82925000  0.43037000  0.56345000  1.0
  Zn  Zn8  1  0.37352000  0.64926000  0.63586000  1.0
  Zn  Zn9  1  0.43037000  0.82925000  0.43655000  1.0
  Zn  Zn10  1  0.62648000  0.35074000  0.13586000  1.0
  Zn  Zn11  1  0.56963000  0.17075000  0.93655000  1.0
  Zn  Zn12  1  0.85076000  0.87350000  0.88587000  1.0
  Zn  Zn13  1  0.67071000  0.93035000  0.68657000  1.0
  Zn  Zn14  1  0.14924000  0.12650000  0.38587000  1.0
  Zn  Zn15  1  0.32929000  0.06965000  0.18657000  1.0
  B  B16  1  0.46617000  0.74569000  0.12750000  1.0
  B  B17  1  0.53383000  0.25431000  0.62750000  1.0
  B  B18  1  0.24568000  0.03384000  0.87748000  1.0
  B  B19  1  0.75432000  0.96616000  0.37748000  1.0
  B  B20  1  0.96616000  0.75432000  0.62252000  1.0
  B  B21  1  0.03384000  0.24568000  0.12252000  1.0
  B  B22  1  0.74569000  0.46617000  0.87250000  1.0
  B  B23  1  0.25431000  0.53383000  0.37250000  1.0
  H  H24  1  0.46850000  0.95467000  0.14671000  1.0
  H  H25  1  0.29031000  0.68574000  0.15792000  1.0
  H  H26  1  0.21711000  0.84386000  0.18830000  1.0
  H  H27  1  0.68826000  0.72525000  0.13413000  1.0
  H  H28  1  0.68431000  0.00704000  0.09497000  1.0
  H  H29  1  0.48402000  0.93893000  0.10020000  1.0
  H  H30  1  0.51679000  0.53878000  0.11034000  1.0
  H  H31  1  0.52554000  0.70244000  0.17859000  1.0
  H  H32  1  0.60938000  0.50758000  0.18507000  1.0
  H  H33  1  0.04776000  0.68568000  0.11093000  1.0
  H  H34  1  0.98385000  0.65297000  0.03445000  1.0
  H  H35  1  0.83823000  0.78334000  0.05605000  1.0
  H  H36  1  0.25291000  0.68726000  0.11453000  1.0
  H  H37  1  0.39979000  0.61454000  0.04687000  1.0
  H  H38  1  0.54113000  0.71050000  0.07836000  1.0
  H  H39  1  0.81474000  0.62485000  0.19200000  1.0
  H  H40  1  0.84591000  0.61576000  0.23817000  1.0
  H  H41  1  0.06094000  0.86700000  0.23224000  1.0
  H  H42  1  0.02820000  0.87639000  0.18670000  1.0
  H  H43  1  0.53150000  0.04533000  0.64671000  1.0
  H  H44  1  0.70969000  0.31426000  0.65792000  1.0
  H  H45  1  0.78289000  0.15614000  0.68830000  1.0
  H  H46  1  0.31174000  0.27475000  0.63413000  1.0
  H  H47  1  0.31569000  0.99296000  0.59497000  1.0
  H  H48  1  0.51598000  0.06107000  0.60020000  1.0
  H  H49  1  0.48321000  0.46122000  0.61034000  1.0
  H  H50  1  0.47446000  0.29756000  0.67859000  1.0
  H  H51  1  0.39062000  0.49242000  0.68508000  1.0
  H  H52  1  0.95223000  0.31432000  0.61093000  1.0
  H  H53  1  0.01614000  0.34703000  0.53445000  1.0
  H  H54  1  0.16177000  0.21666000  0.55605000  1.0
  H  H55  1  0.74709000  0.31274000  0.61453000  1.0
  H  H56  1  0.60021000  0.38547000  0.54687000  1.0
  H  H57  1  0.45887000  0.28950000  0.57836000  1.0
  H  H58  1  0.18526000  0.37516000  0.69200000  1.0
  H  H59  1  0.15409000  0.38424000  0.73817000  1.0
  H  H60  1  0.93906000  0.13300000  0.73224000  1.0
  H  H61  1  0.97180000  0.12361000  0.68670000  1.0
  H  H62  1  0.45468000  0.03153000  0.89668000  1.0
  H  H63  1  0.18575000  0.20970000  0.90788000  1.0
  H  H64  1  0.34385000  0.28291000  0.93827000  1.0
  H  H65  1  0.22525000  0.81177000  0.88413000  1.0
  H  H66  1  0.50701000  0.81561000  0.84496000  1.0
  H  H67  1  0.43887000  0.01592000  0.85016000  1.0
  H  H68  1  0.03875000  0.98318000  0.86034000  1.0
  H  H69  1  0.20248000  0.97454000  0.92857000  1.0
  H  H70  1  0.00764000  0.89068000  0.93508000  1.0
  H  H71  1  0.18561000  0.45226000  0.86092000  1.0
  H  H72  1  0.15308000  0.51620000  0.78444000  1.0
  H  H73  1  0.28341000  0.66180000  0.80606000  1.0
  H  H74  1  0.18729000  0.24711000  0.86450000  1.0
  H  H75  1  0.11453000  0.10023000  0.79685000  1.0
  H  H76  1  0.21044000  0.95887000  0.82834000  1.0
  H  H77  1  0.12485000  0.68531000  0.94201000  1.0
  H  H78  1  0.11578000  0.65414000  0.98819000  1.0
  H  H79  1  0.36701000  0.43908000  0.98225000  1.0
  H  H80  1  0.37638000  0.47181000  0.93671000  1.0
  H  H81  1  0.54532000  0.96847000  0.39668000  1.0
  H  H82  1  0.81425000  0.79030000  0.40788000  1.0
  H  H83  1  0.65615000  0.71709000  0.43827000  1.0
  H  H84  1  0.77475000  0.18823000  0.38413000  1.0
  H  H85  1  0.49300000  0.18439000  0.34496000  1.0
  H  H86  1  0.56113000  0.98408000  0.35016000  1.0
  H  H87  1  0.96125000  0.01682000  0.36034000  1.0
  H  H88  1  0.79751000  0.02545000  0.42857000  1.0
  H  H89  1  0.99235000  0.10932000  0.43508000  1.0
  H  H90  1  0.81439000  0.54774000  0.36092000  1.0
  H  H91  1  0.84692000  0.48380000  0.28444000  1.0
  H  H92  1  0.71659000  0.33820000  0.30606000  1.0
  H  H93  1  0.81271000  0.75289000  0.36450000  1.0
  H  H94  1  0.88547000  0.89977000  0.29685000  1.0
  H  H95  1  0.78956000  0.04113000  0.32834000  1.0
  H  H96  1  0.87515000  0.31469000  0.44201000  1.0
  H  H97  1  0.88422000  0.34586000  0.48819000  1.0
  H  H98  1  0.63300000  0.56092000  0.48225000  1.0
  H  H99  1  0.62362000  0.52819000  0.43671000  1.0
  H  H100  1  0.96847000  0.54532000  0.60332000  1.0
  H  H101  1  0.79030000  0.81425000  0.59212000  1.0
  H  H102  1  0.71709000  0.65614000  0.56173000  1.0
  H  H103  1  0.18823000  0.77475000  0.61587000  1.0
  H  H104  1  0.18439000  0.49299000  0.65504000  1.0
  H  H105  1  0.98408000  0.56113000  0.64984000  1.0
  H  H106  1  0.01682000  0.96125000  0.63966000  1.0
  H  H107  1  0.02546000  0.79751000  0.57143000  1.0
  H  H108  1  0.10932000  0.99235000  0.56492000  1.0
  H  H109  1  0.54774000  0.81439000  0.63908000  1.0
  H  H110  1  0.48380000  0.84692000  0.71556000  1.0
  H  H111  1  0.33820000  0.71659000  0.69394000  1.0
  H  H112  1  0.75289000  0.81271000  0.63550000  1.0
  H  H113  1  0.89977000  0.88547000  0.70315000  1.0
  H  H114  1  0.04113000  0.78956000  0.67166000  1.0
  H  H115  1  0.31469000  0.87515000  0.55799000  1.0
  H  H116  1  0.34586000  0.88422000  0.51181000  1.0
  H  H117  1  0.56092000  0.63300000  0.51775000  1.0
  H  H118  1  0.52819000  0.62362000  0.56329000  1.0
  H  H119  1  0.03153000  0.45468000  0.10332000  1.0
  H  H120  1  0.20970000  0.18575000  0.09212000  1.0
  H  H121  1  0.28291000  0.34386000  0.06173000  1.0
  H  H122  1  0.81177000  0.22525000  0.11587000  1.0
  H  H123  1  0.81561000  0.50701000  0.15504000  1.0
  H  H124  1  0.01592000  0.43887000  0.14984000  1.0
  H  H125  1  0.98318000  0.03875000  0.13966000  1.0
  H  H126  1  0.97454000  0.20249000  0.07143000  1.0
  H  H127  1  0.89068000  0.00765000  0.06492000  1.0
  H  H128  1  0.45226000  0.18561000  0.13908000  1.0
  H  H129  1  0.51620000  0.15308000  0.21556000  1.0
  H  H130  1  0.66180000  0.28341000  0.19394000  1.0
  H  H131  1  0.24711000  0.18729000  0.13550000  1.0
  H  H132  1  0.10023000  0.11453000  0.20315000  1.0
  H  H133  1  0.95887000  0.21044000  0.17166000  1.0
  H  H134  1  0.68531000  0.12485000  0.05799000  1.0
  H  H135  1  0.65414000  0.11578000  0.01181000  1.0
  H  H136  1  0.43908000  0.36701000  0.01775000  1.0
  H  H137  1  0.47181000  0.37638000  0.06329000  1.0
  H  H138  1  0.95466000  0.46849000  0.85329000  1.0
  H  H139  1  0.68574000  0.29031000  0.84208000  1.0
  H  H140  1  0.84386000  0.21711000  0.81169000  1.0
  H  H141  1  0.72525000  0.68826000  0.86587000  1.0
  H  H142  1  0.00704000  0.68431000  0.90503000  1.0
  H  H143  1  0.93893000  0.48402000  0.89980000  1.0
  H  H144  1  0.53878000  0.51679000  0.88966000  1.0
  H  H145  1  0.70244000  0.52554000  0.82141000  1.0
  H  H146  1  0.50758000  0.60938000  0.81492000  1.0
  H  H147  1  0.68568000  0.04776000  0.88907000  1.0
  H  H148  1  0.65297000  0.98386000  0.96555000  1.0
  H  H149  1  0.78334000  0.83823000  0.94395000  1.0
  H  H150  1  0.68726000  0.25291000  0.88547000  1.0
  H  H151  1  0.61453000  0.39979000  0.95313000  1.0
  H  H152  1  0.71050000  0.54113000  0.92164000  1.0
  H  H153  1  0.62485000  0.81474000  0.80800000  1.0
  H  H154  1  0.61576000  0.84591000  0.76183000  1.0
  H  H155  1  0.86700000  0.06094000  0.76776000  1.0
  H  H156  1  0.87639000  0.02820000  0.81330000  1.0
  H  H157  1  0.04534000  0.53151000  0.35329000  1.0
  H  H158  1  0.31426000  0.70969000  0.34208000  1.0
  H  H159  1  0.15614000  0.78289000  0.31169000  1.0
  H  H160  1  0.27475000  0.31174000  0.36587000  1.0
  H  H161  1  0.99296000  0.31569000  0.40503000  1.0
  H  H162  1  0.06107000  0.51598000  0.39980000  1.0
  H  H163  1  0.46122000  0.48321000  0.38966000  1.0
  H  H164  1  0.29756000  0.47446000  0.32141000  1.0
  H  H165  1  0.49242000  0.39062000  0.31493000  1.0
  H  H166  1  0.31432000  0.95223000  0.38907000  1.0
  H  H167  1  0.34703000  0.01615000  0.46555000  1.0
  H  H168  1  0.21666000  0.16177000  0.44395000  1.0
  H  H169  1  0.31274000  0.74709000  0.38547000  1.0
  H  H170  1  0.38547000  0.60021000  0.45313000  1.0
  H  H171  1  0.28950000  0.45887000  0.42164000  1.0
  H  H172  1  0.37516000  0.18526000  0.30800000  1.0
  H  H173  1  0.38424000  0.15409000  0.26183000  1.0
  H  H174  1  0.13300000  0.93906000  0.26776000  1.0
  H  H175  1  0.12361000  0.97180000  0.31330000  1.0
  C  C176  1  0.40828000  0.90395000  0.15344000  1.0
  C  C177  1  0.31385000  0.76556000  0.15947000  1.0
  C  C178  1  0.27863000  0.84308000  0.17464000  1.0
  C  C179  1  0.65903000  0.79161000  0.12407000  1.0
  C  C180  1  0.65574000  0.93645000  0.10334000  1.0
  C  C181  1  0.55571000  0.90497000  0.10646000  1.0
  C  C182  1  0.53070000  0.55683000  0.12977000  1.0
  C  C183  1  0.53632000  0.63983000  0.16551000  1.0
  C  C184  1  0.57809000  0.54351000  0.16849000  1.0
  C  C185  1  0.01108000  0.69416000  0.09287000  1.0
  C  C186  1  0.97477000  0.67893000  0.05351000  1.0
  C  C187  1  0.90362000  0.74380000  0.06426000  1.0
  C  C188  1  0.31168000  0.67969000  0.10032000  1.0
  C  C189  1  0.39075000  0.64529000  0.06551000  1.0
  C  C190  1  0.46068000  0.69140000  0.08105000  1.0
  C  C191  1  0.89570000  0.75818000  0.15935000  1.0
  C  C192  1  0.91993000  0.75067000  0.18657000  1.0
  C  C193  1  0.86907000  0.67663000  0.20109000  1.0
  C  C194  1  0.88614000  0.67175000  0.22662000  1.0
  C  C195  1  0.95468000  0.74065000  0.23809000  1.0
  C  C196  1  0.00694000  0.81366000  0.22358000  1.0
  C  C197  1  0.98931000  0.81863000  0.19802000  1.0
  C  C198  1  0.96881000  0.73847000  0.26583000  1.0
  C  C199  1  0.59172000  0.09605000  0.65344000  1.0
  C  C200  1  0.68615000  0.23444000  0.65947000  1.0
  C  C201  1  0.72137000  0.15692000  0.67464000  1.0
  C  C202  1  0.34097000  0.20839000  0.62407000  1.0
  C  C203  1  0.34426000  0.06355000  0.60334000  1.0
  C  C204  1  0.44429000  0.09503000  0.60646000  1.0
  C  C205  1  0.46930000  0.44317000  0.62977000  1.0
  C  C206  1  0.46368000  0.36017000  0.66551000  1.0
  C  C207  1  0.42191000  0.45649000  0.66849000  1.0
  C  C208  1  0.98892000  0.30583000  0.59287000  1.0
  C  C209  1  0.02522000  0.32107000  0.55351000  1.0
  C  C210  1  0.09638000  0.25620000  0.56426000  1.0
  C  C211  1  0.68832000  0.32032000  0.60032000  1.0
  C  C212  1  0.60925000  0.35471000  0.56551000  1.0
  C  C213  1  0.53932000  0.30860000  0.58105000  1.0
  C  C214  1  0.10430000  0.24182000  0.65935000  1.0
  C  C215  1  0.08007000  0.24933000  0.68657000  1.0
  C  C216  1  0.13093000  0.32337000  0.70109000  1.0
  C  C217  1  0.11385000  0.32825000  0.72662000  1.0
  C  C218  1  0.04532000  0.25935000  0.73809000  1.0
  C  C219  1  0.99306000  0.18633000  0.72358000  1.0
  C  C220  1  0.01069000  0.18137000  0.69802000  1.0
  C  C221  1  0.03119000  0.26153000  0.76583000  1.0
  C  C222  1  0.40396000  0.09174000  0.90341000  1.0
  C  C223  1  0.26557000  0.18617000  0.90944000  1.0
  C  C224  1  0.34308000  0.22140000  0.92461000  1.0
  C  C225  1  0.29160000  0.84097000  0.87407000  1.0
  C  C226  1  0.43642000  0.84420000  0.85333000  1.0
  C  C227  1  0.40492000  0.94425000  0.85644000  1.0
  C  C228  1  0.05682000  0.96929000  0.87977000  1.0
  C  C229  1  0.13988000  0.96374000  0.91550000  1.0
  C  C230  1  0.04355000  0.92195000  0.91849000  1.0
  C  C231  1  0.19414000  0.48895000  0.84286000  1.0
  C  C232  1  0.17899000  0.52526000  0.80350000  1.0
  C  C233  1  0.24386000  0.59642000  0.81426000  1.0
  C  C234  1  0.17970000  0.18833000  0.85029000  1.0
  C  C235  1  0.14527000  0.10927000  0.81549000  1.0
  C  C236  1  0.19135000  0.03932000  0.83103000  1.0
  C  C237  1  0.25818000  0.60429000  0.90936000  1.0
  C  C238  1  0.25067000  0.58009000  0.93658000  1.0
  C  C239  1  0.17664000  0.63096000  0.95110000  1.0
  C  C240  1  0.17176000  0.61388000  0.97663000  1.0
  C  C241  1  0.24066000  0.54534000  0.98810000  1.0
  C  C242  1  0.31367000  0.49308000  0.97359000  1.0
  C  C243  1  0.31863000  0.51070000  0.94803000  1.0
  C  C244  1  0.23849000  0.53121000  0.01584000  1.0
  C  C245  1  0.59604000  0.90826000  0.40341000  1.0
  C  C246  1  0.73443000  0.81383000  0.40944000  1.0
  C  C247  1  0.65692000  0.77860000  0.42461000  1.0
  C  C248  1  0.70840000  0.15903000  0.37407000  1.0
  C  C249  1  0.56358000  0.15580000  0.35333000  1.0
  C  C250  1  0.59508000  0.05575000  0.35644000  1.0
  C  C251  1  0.94318000  0.03071000  0.37977000  1.0
  C  C252  1  0.86012000  0.03626000  0.41550000  1.0
  C  C253  1  0.95645000  0.07805000  0.41849000  1.0
  C  C254  1  0.80586000  0.51105000  0.34286000  1.0
  C  C255  1  0.82101000  0.47474000  0.30350000  1.0
  C  C256  1  0.75614000  0.40358000  0.31426000  1.0
  C  C257  1  0.82030000  0.81167000  0.35029000  1.0
  C  C258  1  0.85473000  0.89073000  0.31549000  1.0
  C  C259  1  0.80865000  0.96068000  0.33103000  1.0
  C  C260  1  0.74182000  0.39571000  0.40936000  1.0
  C  C261  1  0.74933000  0.41991000  0.43658000  1.0
  C  C262  1  0.82336000  0.36904000  0.45110000  1.0
  C  C263  1  0.82824000  0.38612000  0.47663000  1.0
  C  C264  1  0.75934000  0.45466000  0.48810000  1.0
  C  C265  1  0.68633000  0.50692000  0.47359000  1.0
  C  C266  1  0.68137000  0.48930000  0.44803000  1.0
  C  C267  1  0.76151000  0.46879000  0.51584000  1.0
  C  C268  1  0.90827000  0.59603000  0.59659000  1.0
  C  C269  1  0.81383000  0.73443000  0.59056000  1.0
  C  C270  1  0.77861000  0.65691000  0.57539000  1.0
  C  C271  1  0.15903000  0.70840000  0.62593000  1.0
  C  C272  1  0.15580000  0.56358000  0.64667000  1.0
  C  C273  1  0.05575000  0.59508000  0.64356000  1.0
  C  C274  1  0.03070000  0.94318000  0.62023000  1.0
  C  C275  1  0.03626000  0.86012000  0.58450000  1.0
  C  C276  1  0.07805000  0.95645000  0.58151000  1.0
  C  C277  1  0.51105000  0.80586000  0.65714000  1.0
  C  C278  1  0.47474000  0.82101000  0.69650000  1.0
  C  C279  1  0.40358000  0.75614000  0.68574000  1.0
  C  C280  1  0.81167000  0.82030000  0.64971000  1.0
  C  C281  1  0.89073000  0.85473000  0.68451000  1.0
  C  C282  1  0.96068000  0.80864000  0.66897000  1.0
  C  C283  1  0.39571000  0.74182000  0.59064000  1.0
  C  C284  1  0.41991000  0.74933000  0.56342000  1.0
  C  C285  1  0.36904000  0.82336000  0.54890000  1.0
  C  C286  1  0.38612000  0.82824000  0.52337000  1.0
  C  C287  1  0.45466000  0.75934000  0.51190000  1.0
  C  C288  1  0.50692000  0.68633000  0.52641000  1.0
  C  C289  1  0.48930000  0.68137000  0.55197000  1.0
  C  C290  1  0.46879000  0.76151000  0.48416000  1.0
  C  C291  1  0.09174000  0.40397000  0.09659000  1.0
  C  C292  1  0.18617000  0.26557000  0.09056000  1.0
  C  C293  1  0.22140000  0.34309000  0.07539000  1.0
  C  C294  1  0.84097000  0.29160000  0.12593000  1.0
  C  C295  1  0.84420000  0.43642000  0.14667000  1.0
  C  C296  1  0.94425000  0.40492000  0.14356000  1.0
  C  C297  1  0.96930000  0.05682000  0.12023000  1.0
  C  C298  1  0.96374000  0.13988000  0.08450000  1.0
  C  C299  1  0.92195000  0.04355000  0.08151000  1.0
  C  C300  1  0.48894000  0.19414000  0.15714000  1.0
  C  C301  1  0.52526000  0.17899000  0.19650000  1.0
  C  C302  1  0.59641000  0.24386000  0.18574000  1.0
  C  C303  1  0.18833000  0.17970000  0.14971000  1.0
  C  C304  1  0.10926000  0.14527000  0.18451000  1.0
  C  C305  1  0.03932000  0.19135000  0.16897000  1.0
  C  C306  1  0.60429000  0.25818000  0.09064000  1.0
  C  C307  1  0.58009000  0.25067000  0.06342000  1.0
  C  C308  1  0.63096000  0.17664000  0.04889000  1.0
  C  C309  1  0.61388000  0.17176000  0.02337000  1.0
  C  C310  1  0.54534000  0.24066000  0.01190000  1.0
  C  C311  1  0.49308000  0.31367000  0.02641000  1.0
  C  C312  1  0.51070000  0.31863000  0.05196000  1.0
  C  C313  1  0.53121000  0.23850000  0.98416000  1.0
  C  C314  1  0.90395000  0.40828000  0.84655000  1.0
  C  C315  1  0.76556000  0.31385000  0.84053000  1.0
  C  C316  1  0.84308000  0.27863000  0.82536000  1.0
  C  C317  1  0.79161000  0.65903000  0.87593000  1.0
  C  C318  1  0.93645000  0.65574000  0.89666000  1.0
  C  C319  1  0.90497000  0.55571000  0.89354000  1.0
  C  C320  1  0.55683000  0.53070000  0.87023000  1.0
  C  C321  1  0.63984000  0.53632000  0.83449000  1.0
  C  C322  1  0.54351000  0.57809000  0.83151000  1.0
  C  C323  1  0.69416000  0.01108000  0.90713000  1.0
  C  C324  1  0.67893000  0.97478000  0.94649000  1.0
  C  C325  1  0.74380000  0.90362000  0.93574000  1.0
  C  C326  1  0.67969000  0.31168000  0.89968000  1.0
  C  C327  1  0.64529000  0.39075000  0.93449000  1.0
  C  C328  1  0.69140000  0.46068000  0.91895000  1.0
  C  C329  1  0.75818000  0.89571000  0.84065000  1.0
  C  C330  1  0.75067000  0.91993000  0.81343000  1.0
  C  C331  1  0.67663000  0.86907000  0.79891000  1.0
  C  C332  1  0.67174000  0.88615000  0.77339000  1.0
  C  C333  1  0.74065000  0.95468000  0.76191000  1.0
  C  C334  1  0.81366000  0.00694000  0.77642000  1.0
  C  C335  1  0.81863000  0.98932000  0.80198000  1.0
  C  C336  1  0.73847000  0.96881000  0.73417000  1.0
  C  C337  1  0.09605000  0.59172000  0.34655000  1.0
  C  C338  1  0.23444000  0.68615000  0.34053000  1.0
  C  C339  1  0.15692000  0.72137000  0.32536000  1.0
  C  C340  1  0.20839000  0.34097000  0.37593000  1.0
  C  C341  1  0.06355000  0.34426000  0.39666000  1.0
  C  C342  1  0.09503000  0.44429000  0.39354000  1.0
  C  C343  1  0.44317000  0.46930000  0.37023000  1.0
  C  C344  1  0.36017000  0.46368000  0.33449000  1.0
  C  C345  1  0.45649000  0.42191000  0.33151000  1.0
  C  C346  1  0.30583000  0.98892000  0.40713000  1.0
  C  C347  1  0.32107000  0.02522000  0.44649000  1.0
  C  C348  1  0.25620000  0.09638000  0.43574000  1.0
  C  C349  1  0.32032000  0.68832000  0.39968000  1.0
  C  C350  1  0.35471000  0.60925000  0.43448000  1.0
  C  C351  1  0.30860000  0.53932000  0.41895000  1.0
  C  C352  1  0.24182000  0.10430000  0.34065000  1.0
  C  C353  1  0.24933000  0.08007000  0.31343000  1.0
  C  C354  1  0.32337000  0.13093000  0.29891000  1.0
  C  C355  1  0.32826000  0.11385000  0.27338000  1.0
  C  C356  1  0.25935000  0.04532000  0.26191000  1.0
  C  C357  1  0.18633000  0.99306000  0.27642000  1.0
  C  C358  1  0.18137000  0.01069000  0.30198000  1.0
  C  C359  1  0.26153000  0.03119000  0.23417000  1.0
  N  N360  1  0.39607000  0.80489000  0.14585000  1.0
  N  N361  1  0.33875000  0.92930000  0.17063000  1.0
  N  N362  1  0.55836000  0.81331000  0.11985000  1.0
  N  N363  1  0.71958000  0.86411000  0.11431000  1.0
  N  N364  1  0.50591000  0.64768000  0.14082000  1.0
  N  N365  1  0.57418000  0.49246000  0.14595000  1.0
  N  N366  1  0.04282000  0.64780000  0.07181000  1.0
  N  N367  1  0.92721000  0.75298000  0.08922000  1.0
  N  N368  1  0.41006000  0.71312000  0.10324000  1.0
  N  N369  1  0.29742000  0.63866000  0.07780000  1.0
  N  N370  1  0.60393000  0.19511000  0.64586000  1.0
  N  N371  1  0.66125000  0.07071000  0.67063000  1.0
  N  N372  1  0.44164000  0.18669000  0.61986000  1.0
  N  N373  1  0.28042000  0.13590000  0.61431000  1.0
  N  N374  1  0.49409000  0.35232000  0.64082000  1.0
  N  N375  1  0.42582000  0.50754000  0.64595000  1.0
  N  N376  1  0.95717000  0.35219000  0.57181000  1.0
  N  N377  1  0.07279000  0.24701000  0.58922000  1.0
  N  N378  1  0.58994000  0.28688000  0.60324000  1.0
  N  N379  1  0.70258000  0.36134000  0.57780000  1.0
  N  N380  1  0.30490000  0.10394000  0.89582000  1.0
  N  N381  1  0.42930000  0.16128000  0.92060000  1.0
  N  N382  1  0.31328000  0.94163000  0.86984000  1.0
  N  N383  1  0.36409000  0.78040000  0.86432000  1.0
  N  N384  1  0.14768000  0.99411000  0.89081000  1.0
  N  N385  1  0.99248000  0.92582000  0.89595000  1.0
  N  N386  1  0.14782000  0.45721000  0.82180000  1.0
  N  N387  1  0.25297000  0.57282000  0.83922000  1.0
  N  N388  1  0.21310000  0.08995000  0.85322000  1.0
  N  N389  1  0.13867000  0.20260000  0.82778000  1.0
  N  N390  1  0.69510000  0.89606000  0.39582000  1.0
  N  N391  1  0.57070000  0.83873000  0.42060000  1.0
  N  N392  1  0.68672000  0.05837000  0.36983000  1.0
  N  N393  1  0.63591000  0.21960000  0.36432000  1.0
  N  N394  1  0.85232000  0.00589000  0.39081000  1.0
  N  N395  1  0.00752000  0.07418000  0.39595000  1.0
  N  N396  1  0.85218000  0.54279000  0.32180000  1.0
  N  N397  1  0.74703000  0.42718000  0.33922000  1.0
  N  N398  1  0.78690000  0.91005000  0.35322000  1.0
  N  N399  1  0.86133000  0.79740000  0.32778000  1.0
  N  N400  1  0.89606000  0.69510000  0.60418000  1.0
  N  N401  1  0.83873000  0.57070000  0.57940000  1.0
  N  N402  1  0.05837000  0.68672000  0.63017000  1.0
  N  N403  1  0.21960000  0.63591000  0.63568000  1.0
  N  N404  1  0.00589000  0.85232000  0.60919000  1.0
  N  N405  1  0.07418000  0.00752000  0.60405000  1.0
  N  N406  1  0.54279000  0.85218000  0.67820000  1.0
  N  N407  1  0.42719000  0.74703000  0.66077000  1.0
  N  N408  1  0.91005000  0.78690000  0.64678000  1.0
  N  N409  1  0.79740000  0.86132000  0.67222000  1.0
  N  N410  1  0.10394000  0.30490000  0.10418000  1.0
  N  N411  1  0.16128000  0.42930000  0.07940000  1.0
  N  N412  1  0.94163000  0.31328000  0.13016000  1.0
  N  N413  1  0.78040000  0.36409000  0.13568000  1.0
  N  N414  1  0.99411000  0.14768000  0.10919000  1.0
  N  N415  1  0.92583000  0.99248000  0.10405000  1.0
  N  N416  1  0.45721000  0.14782000  0.17820000  1.0
  N  N417  1  0.57281000  0.25297000  0.16078000  1.0
  N  N418  1  0.08995000  0.21310000  0.14678000  1.0
  N  N419  1  0.20260000  0.13867000  0.17222000  1.0
  N  N420  1  0.80488000  0.39607000  0.85414000  1.0
  N  N421  1  0.92929000  0.33875000  0.82937000  1.0
  N  N422  1  0.81331000  0.55836000  0.88015000  1.0
  N  N423  1  0.86411000  0.71958000  0.88569000  1.0
  N  N424  1  0.64768000  0.50591000  0.85918000  1.0
  N  N425  1  0.49246000  0.57418000  0.85405000  1.0
  N  N426  1  0.64780000  0.04282000  0.92819000  1.0
  N  N427  1  0.75298000  0.92721000  0.91078000  1.0
  N  N428  1  0.71312000  0.41006000  0.89676000  1.0
  N  N429  1  0.63866000  0.29742000  0.92220000  1.0
  N  N430  1  0.19512000  0.60393000  0.35414000  1.0
  N  N431  1  0.07071000  0.66125000  0.32937000  1.0
  N  N432  1  0.18669000  0.44164000  0.38014000  1.0
  N  N433  1  0.13589000  0.28042000  0.38569000  1.0
  N  N434  1  0.35232000  0.49409000  0.35918000  1.0
  N  N435  1  0.50754000  0.42582000  0.35405000  1.0
  N  N436  1  0.35220000  0.95718000  0.42819000  1.0
  N  N437  1  0.24702000  0.07279000  0.41078000  1.0
  N  N438  1  0.28688000  0.58994000  0.39676000  1.0
  N  N439  1  0.36135000  0.70258000  0.42220000  1.0
  O  O440  1  0.92149000  0.66348000  0.27720000  1.0
  O  O441  1  0.02048000  0.80604000  0.27682000  1.0
  O  O442  1  0.93327000  0.83809000  0.14776000  1.0
  O  O443  1  0.84051000  0.69123000  0.14904000  1.0
  O  O444  1  0.07851000  0.33652000  0.77720000  1.0
  O  O445  1  0.97952000  0.19396000  0.77682000  1.0
  O  O446  1  0.06674000  0.16191000  0.64776000  1.0
  O  O447  1  0.15950000  0.30878000  0.64904000  1.0
  O  O448  1  0.16350000  0.57850000  0.02721000  1.0
  O  O449  1  0.30609000  0.47956000  0.02683000  1.0
  O  O450  1  0.33806000  0.56668000  0.89777000  1.0
  O  O451  1  0.19125000  0.65952000  0.89905000  1.0
  O  O452  1  0.83650000  0.42150000  0.52721000  1.0
  O  O453  1  0.69391000  0.52045000  0.52683000  1.0
  O  O454  1  0.66194000  0.43332000  0.39777000  1.0
  O  O455  1  0.80875000  0.34048000  0.39905000  1.0
  O  O456  1  0.42150000  0.83650000  0.47279000  1.0
  O  O457  1  0.52045000  0.69391000  0.47317000  1.0
  O  O458  1  0.43332000  0.66193000  0.60223000  1.0
  O  O459  1  0.34049000  0.80874000  0.60095000  1.0
  O  O460  1  0.57850000  0.16350000  0.97279000  1.0
  O  O461  1  0.47955000  0.30609000  0.97317000  1.0
  O  O462  1  0.56668000  0.33806000  0.10223000  1.0
  O  O463  1  0.65951000  0.19125000  0.10095000  1.0
  O  O464  1  0.66348000  0.92149000  0.72280000  1.0
  O  O465  1  0.80604000  0.02048000  0.72318000  1.0
  O  O466  1  0.83809000  0.93327000  0.85224000  1.0
  O  O467  1  0.69123000  0.84051000  0.85096000  1.0
  O  O468  1  0.33652000  0.07851000  0.22280000  1.0
  O  O469  1  0.19396000  0.97952000  0.22318000  1.0
  O  O470  1  0.16191000  0.06674000  0.35224000  1.0
  O  O471  1  0.30878000  0.15949000  0.35096000  1.0
