# generated using pymatgen
data_AlH12C27NO18
_symmetry_space_group_name_H-M   'P 1'
_cell_length_a   4.35108000
_cell_length_b   13.43580000
_cell_length_c   13.54353121
_cell_angle_alpha   60.40805444
_cell_angle_beta   84.35969104
_cell_angle_gamma   85.66500000
_symmetry_Int_Tables_number   1
_chemical_formula_structural   AlH12C27NO18
_chemical_formula_sum   'Al1 H12 C27 N1 O18'
_cell_volume   684.81641000
_cell_formula_units_Z   1
loop_
 _symmetry_equiv_pos_site_id
 _symmetry_equiv_pos_as_xyz
  1  'x, y, z'
loop_
 _atom_site_type_symbol
 _atom_site_label
 _atom_site_symmetry_multiplicity
 _atom_site_fract_x
 _atom_site_fract_y
 _atom_site_fract_z
 _atom_site_occupancy
  Al  Al0  1  0.98314000  0.99951000  0.49797000  1.0
  H  H1  1  0.76869000  0.87059000  0.01523000  1.0
  H  H2  1  0.30246000  0.58699000  0.03615000  1.0
  H  H3  1  0.22240000  0.87029000  0.11019000  1.0
  H  H4  1  0.78899000  0.60052000  0.35631000  1.0
  H  H5  1  0.20626000  0.54004000  0.36410000  1.0
  H  H6  1  0.84379000  0.51575000  0.11074000  1.0
  H  H7  1  0.98655000  0.78800000  0.71454000  1.0
  H  H8  1  0.69337000  0.14857000  0.65549000  1.0
  H  H9  1  0.25551000  0.16184000  0.17297000  1.0
  H  H10  1  0.88968000  0.67725000  0.62984000  1.0
  H  H11  1  0.13139000  0.20173000  0.65703000  1.0
  H  H12  1  0.80098000  0.15739000  0.18429000  1.0
  C  C13  1  0.52186000  0.91410000  0.40920000  1.0
  C  C14  1  0.47245000  0.17401000  0.41700000  1.0
  C  C15  1  0.46243000  0.90818000  0.67690000  1.0
  C  C16  1  0.62587000  0.89077000  0.86028000  1.0
  C  C17  1  0.64999000  0.83053000  0.97733000  1.0
  C  C18  1  0.51823000  0.72289000  0.04439000  1.0
  C  C19  1  0.38573000  0.67388000  0.98893000  1.0
  C  C20  1  0.36439000  0.73258000  0.87102000  1.0
  C  C21  1  0.47291000  0.84465000  0.80485000  1.0
  C  C22  1  0.35251000  0.83308000  0.18589000  1.0
  C  C23  1  0.36019000  0.89470000  0.24358000  1.0
  C  C24  1  0.52326000  0.85092000  0.34293000  1.0
  C  C25  1  0.67492000  0.74315000  0.38221000  1.0
  C  C26  1  0.67239000  0.68423000  0.32176000  1.0
  C  C27  1  0.51568000  0.72829000  0.22291000  1.0
  C  C28  1  0.33286000  0.49050000  0.32858000  1.0
  C  C29  1  0.31951000  0.37150000  0.39068000  1.0
  C  C30  1  0.48879000  0.30294000  0.35120000  1.0
  C  C31  1  0.67975000  0.35808000  0.24951000  1.0
  C  C32  1  0.69607000  0.47698000  0.18933000  1.0
  C  C33  1  0.51749000  0.54446000  0.22690000  1.0
  C  C34  1  0.25434000  0.66075000  0.82471000  1.0
  C  C35  1  0.75996000  0.00717000  0.79755000  1.0
  C  C36  1  0.20029000  0.00994000  0.19091000  1.0
  C  C37  1  0.85206000  0.68314000  0.48696000  1.0
  C  C38  1  0.12243000  0.32552000  0.50008000  1.0
  C  C39  1  0.85811000  0.29382000  0.19750000  1.0
  N  N40  1  0.52244000  0.66572000  0.16364000  1.0
  O  O41  1  0.21555000  0.96136000  0.63413000  1.0
  O  O42  1  0.27637000  0.90481000  0.47219000  1.0
  O  O43  1  0.23560000  0.13022000  0.40831000  1.0
  O  O44  1  0.71132000  0.89752000  0.62333000  1.0
  O  O45  1  0.69673000  0.12047000  0.47773000  1.0
  O  O46  1  0.75925000  0.96865000  0.39877000  1.0
  O  O47  1  0.07318000  0.71013000  0.73560000  1.0
  O  O48  1  0.32845000  0.55977000  0.86599000  1.0
  O  O49  1  0.62250000  0.06992000  0.70015000  1.0
  O  O50  1  0.95927000  0.04235000  0.82952000  1.0
  O  O51  1  0.33645000  0.08145000  0.21365000  1.0
  O  O52  1  0.97765000  0.03810000  0.13240000  1.0
  O  O53  1  0.75152000  0.71229000  0.56642000  1.0
  O  O54  1  0.06406000  0.61394000  0.49781000  1.0
  O  O55  1  0.24844000  0.22824000  0.58264000  1.0
  O  O56  1  0.88118000  0.37052000  0.51484000  1.0
  O  O57  1  0.71103000  0.19947000  0.22366000  1.0
  O  O58  1  0.10139000  0.32255000  0.13781000  1.0
