# generated using pymatgen
data_AlH4C10BrNO7
_symmetry_space_group_name_H-M   'P 1'
_cell_length_a   6.80536000
_cell_length_b   11.03917983
_cell_length_c   11.11538215
_cell_angle_alpha   85.95334926
_cell_angle_beta   72.33274827
_cell_angle_gamma   74.18012623
_symmetry_Int_Tables_number   1
_chemical_formula_structural   AlH4C10BrNO7
_chemical_formula_sum   'Al2 H8 C20 Br2 N2 O14'
_cell_volume   765.46022126
_cell_formula_units_Z   2
loop_
 _symmetry_equiv_pos_site_id
 _symmetry_equiv_pos_as_xyz
  1  'x, y, z'
loop_
 _atom_site_type_symbol
 _atom_site_label
 _atom_site_symmetry_multiplicity
 _atom_site_fract_x
 _atom_site_fract_y
 _atom_site_fract_z
 _atom_site_occupancy
  Al  Al0  1  0.49628000  0.50447000  0.50463000  1.0
  Al  Al1  1  0.99769000  0.50273000  0.50352000  1.0
  H  H2  1  0.77666000  0.58876000  0.36300000  1.0
  H  H3  1  0.27371000  0.35983000  0.58342000  1.0
  H  H4  1  0.61475000  0.11484000  0.53991000  1.0
  H  H5  1  0.37975000  0.88815000  0.46379000  1.0
  H  H6  1  0.23888000  0.31657000  0.23191000  1.0
  H  H7  1  0.14461000  0.17472000  0.11093000  1.0
  H  H8  1  0.42509000  0.34372000  0.76384000  1.0
  H  H9  1  0.23644000  0.18948000  0.87563000  1.0
  C  C10  1  0.37411000  0.49557000  0.27812000  1.0
  C  C11  1  0.13364000  0.72711000  0.50860000  1.0
  C  C12  1  0.62304000  0.51450000  0.72798000  1.0
  C  C13  1  0.85965000  0.27677000  0.49938000  1.0
  C  C14  1  0.06421000  0.86794000  0.50123000  1.0
  C  C15  1  0.92928000  0.13565000  0.50449000  1.0
  C  C16  1  0.85063000  0.93437000  0.51926000  1.0
  C  C17  1  0.14339000  0.06895000  0.48497000  1.0
  C  C18  1  0.78198000  0.06482000  0.52318000  1.0
  C  C19  1  0.21236000  0.93861000  0.48117000  1.0
  C  C20  1  0.44177000  0.49915000  0.13638000  1.0
  C  C21  1  0.38611000  0.41547000  0.06788000  1.0
  C  C22  1  0.55198000  0.58471000  0.07291000  1.0
  C  C23  1  0.27962000  0.32376000  0.12967000  1.0
  C  C24  1  0.22691000  0.24418000  0.06182000  1.0
  C  C25  1  0.55703000  0.51136000  0.86991000  1.0
  C  C26  1  0.61129000  0.59035000  0.93891000  1.0
  C  C27  1  0.44243000  0.42248000  0.93274000  1.0
  C  C28  1  0.38575000  0.33854000  0.86605000  1.0
  C  C29  1  0.27942000  0.25212000  0.92902000  1.0
  Br  Br30  1  0.75516000  0.71121000  0.85570000  1.0
  Br  Br31  1  0.61328000  0.70211000  0.16452000  1.0
  N  N32  1  0.68828000  0.86861000  0.52244000  1.0
  N  N33  1  0.30414000  0.13665000  0.47900000  1.0
  O  O34  1  0.52087000  0.47297000  0.33156000  1.0
  O  O35  1  0.98448000  0.67232000  0.53311000  1.0
  O  O36  1  0.82271000  0.48880000  0.67179000  1.0
  O  O37  1  0.66129000  0.32907000  0.52199000  1.0
  O  O38  1  0.47516000  0.53682000  0.67536000  1.0
  O  O39  1  0.01059000  0.33090000  0.47139000  1.0
  O  O40  1  0.17366000  0.51651000  0.33238000  1.0
  O  O41  1  0.33071000  0.67552000  0.49134000  1.0
  O  O42  1  0.75196000  0.55417000  0.44759000  1.0
  O  O43  1  0.24659000  0.44731000  0.55646000  1.0
  O  O44  1  0.55142000  0.86302000  0.62345000  1.0
  O  O45  1  0.69449000  0.83280000  0.41761000  1.0
  O  O46  1  0.29797000  0.17615000  0.58288000  1.0
  O  O47  1  0.43841000  0.14324000  0.37740000  1.0
