# generated using pymatgen
data_Zn4H5C24S4N2O17F
_symmetry_space_group_name_H-M   'P 1'
_cell_length_a   19.61950000
_cell_length_b   19.62690000
_cell_length_c   33.34890000
_cell_angle_alpha   79.16780000
_cell_angle_beta   79.14340000
_cell_angle_gamma   63.86600000
_symmetry_Int_Tables_number   1
_chemical_formula_structural   Zn4H5C24S4N2O17F
_chemical_formula_sum   'Zn16 H20 C96 S16 N8 O68 F4'
_cell_volume   11241.93556773
_cell_formula_units_Z   4
loop_
 _symmetry_equiv_pos_site_id
 _symmetry_equiv_pos_as_xyz
  1  'x, y, z'
loop_
 _atom_site_type_symbol
 _atom_site_label
 _atom_site_symmetry_multiplicity
 _atom_site_fract_x
 _atom_site_fract_y
 _atom_site_fract_z
 _atom_site_occupancy
  Zn  Zn0  1  0.59882000  0.94557000  0.52253000  1.0
  Zn  Zn1  1  0.51669000  0.01235000  0.43977000  1.0
  Zn  Zn2  1  0.43700000  0.94217000  0.51811000  1.0
  Zn  Zn3  1  0.44578000  0.10002000  0.52041000  1.0
  Zn  Zn4  1  0.65030000  0.30656000  0.72859000  1.0
  Zn  Zn5  1  0.80977000  0.31139000  0.73459000  1.0
  Zn  Zn6  1  0.73531000  0.22900000  0.81020000  1.0
  Zn  Zn7  1  0.80427000  0.15283000  0.72651000  1.0
  Zn  Zn8  1  0.23395000  0.73112000  0.31109000  1.0
  Zn  Zn9  1  0.30410000  0.64948000  0.22922000  1.0
  Zn  Zn10  1  0.15167000  0.80574000  0.22922000  1.0
  Zn  Zn11  1  0.31304000  0.80788000  0.23497000  1.0
  Zn  Zn12  1  0.94047000  0.43845000  0.01797000  1.0
  Zn  Zn13  1  0.94514000  0.59878000  0.02201000  1.0
  Zn  Zn14  1  0.09975000  0.44402000  0.02245000  1.0
  Zn  Zn15  1  0.01687000  0.51500000  0.94021000  1.0
  H  H16  1  0.75183000  0.05110000  0.64638000  1.0
  H  H17  1  0.53973000  0.25408000  0.65090000  1.0
  H  H18  1  0.70211000  0.00339000  0.59873000  1.0
  H  H19  1  0.40897000  0.89621000  0.30172000  1.0
  H  H20  1  0.29751000  0.79704000  0.40368000  1.0
  H  H21  1  0.45061000  0.94749000  0.35144000  1.0
  H  H22  1  0.76179000  0.53718000  0.65768000  1.0
  H  H23  1  0.29688000  0.51603000  0.39945000  1.0
  H  H24  1  0.02078000  0.79667000  0.39937000  1.0
  H  H25  1  0.03561000  0.04807000  0.65645000  1.0
  H  H26  1  0.94631000  0.45087000  0.84851000  1.0
  H  H27  1  0.84501000  0.34678000  0.95317000  1.0
  H  H28  1  0.89491000  0.40325000  0.80176000  1.0
  H  H29  1  0.23072000  0.45395000  0.85157000  1.0
  H  H30  1  0.85806000  0.83844000  0.95807000  1.0
  H  H31  1  0.20809000  0.49945000  0.10018000  1.0
  H  H32  1  0.99843000  0.70523000  0.09976000  1.0
  H  H33  1  0.25329000  0.55034000  0.14838000  1.0
  H  H34  1  0.71684000  0.70196000  0.09682000  1.0
  H  H35  1  0.99048000  0.21257000  0.09362000  1.0
  C  C36  1  0.68256000  0.93566000  0.44015000  1.0
  C  C37  1  0.42802000  0.92985000  0.43317000  1.0
  C  C38  1  0.55920000  0.81998000  0.56231000  1.0
  C  C39  1  0.31748000  0.06469000  0.56140000  1.0
  C  C40  1  0.56906000  0.07181000  0.56782000  1.0
  C  C41  1  0.44052000  0.17811000  0.43748000  1.0
  C  C42  1  0.69015000  0.43435000  0.68825000  1.0
  C  C43  1  0.81276000  0.32189000  0.82107000  1.0
  C  C44  1  0.56878000  0.30590000  0.81131000  1.0
  C  C45  1  0.81554000  0.06459000  0.80843000  1.0
  C  C46  1  0.67833000  0.18446000  0.67968000  1.0
  C  C47  1  0.93573000  0.18748000  0.69110000  1.0
  C  C48  1  0.30803000  0.56402000  0.31241000  1.0
  C  C49  1  0.18113000  0.68149000  0.18109000  1.0
  C  C50  1  0.06644000  0.81373000  0.31247000  1.0
  C  C51  1  0.19080000  0.93233000  0.19126000  1.0
  C  C52  1  0.32486000  0.81275000  0.32059000  1.0
  C  C53  1  0.43104000  0.68930000  0.18873000  1.0
  C  C54  1  0.81598000  0.56238000  0.06201000  1.0
  C  C55  1  0.07189000  0.56980000  0.06851000  1.0
  C  C56  1  0.06192000  0.31524000  0.06287000  1.0
  C  C57  1  0.18432000  0.43706000  0.93857000  1.0
  C  C58  1  0.92956000  0.42946000  0.93198000  1.0
  C  C59  1  0.93720000  0.68338000  0.93860000  1.0
  C  C60  1  0.59481000  0.10177000  0.59727000  1.0
  C  C61  1  0.64922000  0.15556000  0.65129000  1.0
  C  C62  1  0.54997000  0.17231000  0.61269000  1.0
  C  C63  1  0.69514000  0.08465000  0.63670000  1.0
  C  C64  1  0.57606000  0.19934000  0.63945000  1.0
  C  C65  1  0.66765000  0.05839000  0.61030000  1.0
  C  C66  1  0.39956000  0.89993000  0.40507000  1.0
  C  C67  1  0.35131000  0.84302000  0.34961000  1.0
  C  C68  1  0.35587000  0.85747000  0.41897000  1.0
  C  C69  1  0.39447000  0.88555000  0.33474000  1.0
  C  C70  1  0.33160000  0.82933000  0.39191000  1.0
  C  C71  1  0.41762000  0.91377000  0.36230000  1.0
  C  C72  1  0.54566000  0.69494000  0.59771000  1.0
  C  C73  1  0.70450000  0.55410000  0.65016000  1.0
  C  C74  1  0.58399000  0.74193000  0.58470000  1.0
  C  C75  1  0.66452000  0.50924000  0.66296000  1.0
  C  C76  1  0.66035000  0.62238000  0.62675000  1.0
  C  C77  1  0.58808000  0.62748000  0.62237000  1.0
  C  C78  1  0.42090000  0.27019000  0.36850000  1.0
  C  C79  1  0.32549000  0.47199000  0.37890000  1.0
  C  C80  1  0.41269000  0.25208000  0.41106000  1.0
  C  C81  1  0.33432000  0.48812000  0.33654000  1.0
  C  C82  1  0.35811000  0.39219000  0.39042000  1.0
  C  C83  1  0.39112000  0.34996000  0.35649000  1.0
  C  C84  1  0.77345000  0.92830000  0.37139000  1.0
  C  C85  1  0.97596000  0.82684000  0.37938000  1.0
  C  C86  1  0.75667000  0.91698000  0.41391000  1.0
  C  C87  1  0.99082000  0.83882000  0.33705000  1.0
  C  C88  1  0.89635000  0.85904000  0.39167000  1.0
  C  C89  1  0.85285000  0.89436000  0.35835000  1.0
  C  C90  1  0.19645000  0.16235000  0.60149000  1.0
  C  C91  1  0.05393000  0.09421000  0.65095000  1.0
  C  C92  1  0.24087000  0.09326000  0.58543000  1.0
  C  C93  1  0.01104000  0.16354000  0.66631000  1.0
  C  C94  1  0.12236000  0.09366000  0.62789000  1.0
  C  C95  1  0.12953000  0.16253000  0.62638000  1.0
  C  C96  1  0.84126000  0.34903000  0.85062000  1.0
  C  C97  1  0.89897000  0.40184000  0.90364000  1.0
  C  C98  1  0.82815000  0.33387000  0.89365000  1.0
  C  C99  1  0.91304000  0.41791000  0.86087000  1.0
  C  C100  1  0.85630000  0.35963000  0.92004000  1.0
  C  C101  1  0.88445000  0.39163000  0.83505000  1.0
  C  C102  1  0.47764000  0.32448000  0.88063000  1.0
  C  C103  1  0.27528000  0.42331000  0.87168000  1.0
  C  C104  1  0.49510000  0.33426000  0.83806000  1.0
  C  C105  1  0.25998000  0.41172000  0.91401000  1.0
  C  C106  1  0.35499000  0.39021000  0.85962000  1.0
  C  C107  1  0.39798000  0.35469000  0.89312000  1.0
  C  C108  1  0.88347000  0.91508000  0.82025000  1.0
  C  C109  1  0.87524000  0.82948000  0.92584000  1.0
  C  C110  1  0.84483000  0.98812000  0.83250000  1.0
  C  C111  1  0.91330000  0.75772000  0.91277000  1.0
  C  C112  1  0.86321000  0.88673000  0.89180000  1.0
  C  C113  1  0.89270000  0.85693000  0.85376000  1.0
  C  C114  1  0.15196000  0.65496000  0.15158000  1.0
  C  C115  1  0.10049000  0.59897000  0.09705000  1.0
  C  C116  1  0.08024000  0.69768000  0.13708000  1.0
  C  C117  1  0.17256000  0.55517000  0.11069000  1.0
  C  C118  1  0.05434000  0.67069000  0.11024000  1.0
  C  C119  1  0.19749000  0.58331000  0.13746000  1.0
  C  C120  1  0.54701000  0.59569000  0.14407000  1.0
  C  C121  1  0.69726000  0.65685000  0.10134000  1.0
  C  C122  1  0.50360000  0.66429000  0.16082000  1.0
  C  C123  1  0.73979000  0.58744000  0.08597000  1.0
  C  C124  1  0.62733000  0.65906000  0.12311000  1.0
  C  C125  1  0.61840000  0.59146000  0.12342000  1.0
  C  C126  1  0.20941000  0.05141000  0.15009000  1.0
  C  C127  1  0.04791000  0.19557000  0.10094000  1.0
  C  C128  1  0.17008000  0.00556000  0.16407000  1.0
  C  C129  1  0.08812000  0.24015000  0.08787000  1.0
  C  C130  1  0.09203000  0.12731000  0.12435000  1.0
  C  C131  1  0.16474000  0.12170000  0.12826000  1.0
  S  S132  1  0.67329000  0.70176000  0.60162000  1.0
  S  S133  1  0.57359000  0.54933000  0.64721000  1.0
  S  S134  1  0.36624000  0.33307000  0.43623000  1.0
  S  S135  1  0.38286000  0.40756000  0.31050000  1.0
  S  S136  1  0.83865000  0.86665000  0.43800000  1.0
  S  S137  1  0.90919000  0.88779000  0.31193000  1.0
  S  S138  1  0.19917000  0.02951000  0.59987000  1.0
  S  S139  1  0.05338000  0.22765000  0.65363000  1.0
  S  S140  1  0.41342000  0.38317000  0.81356000  1.0
  S  S141  1  0.34117000  0.36045000  0.93933000  1.0
  S  S142  1  0.82221000  0.98523000  0.88533000  1.0
  S  S143  1  0.93388000  0.75895000  0.85951000  1.0
  S  S144  1  0.54924000  0.72483000  0.14966000  1.0
  S  S145  1  0.69596000  0.52458000  0.09785000  1.0
  S  S146  1  0.07917000  0.04768000  0.14908000  1.0
  S  S147  1  0.17865000  0.20054000  0.10409000  1.0
  N  N148  1  0.47259000  0.70652000  0.58656000  1.0
  N  N149  1  0.45057000  0.21737000  0.33747000  1.0
  N  N150  1  0.71927000  0.97342000  0.34174000  1.0
  N  N151  1  0.20974000  0.23134000  0.59281000  1.0
  N  N152  1  0.53126000  0.29208000  0.91128000  1.0
  N  N153  1  0.91702000  0.89558000  0.77884000  1.0
  N  N154  1  0.52444000  0.53418000  0.14394000  1.0
  N  N155  1  0.28914000  0.03160000  0.15355000  1.0
  O  O156  1  0.50041000  0.99933000  0.50035000  1.0
  O  O157  1  0.68458000  0.93546000  0.47836000  1.0
  O  O158  1  0.45455000  0.97875000  0.41627000  1.0
  O  O159  1  0.48806000  0.85947000  0.56080000  1.0
  O  O160  1  0.62503000  0.94759000  0.42312000  1.0
  O  O161  1  0.61315000  0.84094000  0.54763000  1.0
  O  O162  1  0.42468000  0.90415000  0.47119000  1.0
  O  O163  1  0.33422000  0.00611000  0.54345000  1.0
  O  O164  1  0.51310000  0.11928000  0.54869000  1.0
  O  O165  1  0.35996000  0.09805000  0.56171000  1.0
  O  O166  1  0.60650000  0.00061000  0.56389000  1.0
  O  O167  1  0.49414000  0.12072000  0.42204000  1.0
  O  O168  1  0.40826000  0.18042000  0.47473000  1.0
  O  O169  1  0.74981000  0.25053000  0.74978000  1.0
  O  O170  1  0.64398000  0.40235000  0.69492000  1.0
  O  O171  1  0.83558000  0.33425000  0.78301000  1.0
  O  O172  1  0.62618000  0.25200000  0.82664000  1.0
  O  O173  1  0.75535000  0.40849000  0.70105000  1.0
  O  O174  1  0.56644000  0.33780000  0.77407000  1.0
  O  O175  1  0.76851000  0.28907000  0.83574000  1.0
  O  O176  1  0.79595000  0.12056000  0.82906000  1.0
  O  O177  1  0.74765000  0.14478000  0.68654000  1.0
  O  O178  1  0.80996000  0.06850000  0.77069000  1.0
  O  O179  1  0.63173000  0.24623000  0.69462000  1.0
  O  O180  1  0.90684000  0.25494000  0.70165000  1.0
  O  O181  1  0.90622000  0.13926000  0.69949000  1.0
  O  O182  1  0.25078000  0.74901000  0.25091000  1.0
  O  O183  1  0.27660000  0.62198000  0.33240000  1.0
  O  O184  1  0.25064000  0.64074000  0.18784000  1.0
  O  O185  1  0.06660000  0.83437000  0.27371000  1.0
  O  O186  1  0.31912000  0.56445000  0.27332000  1.0
  O  O187  1  0.12435000  0.77410000  0.33195000  1.0
  O  O188  1  0.13487000  0.74150000  0.19737000  1.0
  O  O189  1  0.14853000  0.89759000  0.19181000  1.0
  O  O190  1  0.34877000  0.82190000  0.28248000  1.0
  O  O191  1  0.24577000  0.91186000  0.21222000  1.0
  O  O192  1  0.28047000  0.78038000  0.33636000  1.0
  O  O193  1  0.40848000  0.63863000  0.20673000  1.0
  O  O194  1  0.39919000  0.76062000  0.19308000  1.0
  O  O195  1  0.00050000  0.49930000  0.00057000  1.0
  O  O196  1  0.84446000  0.49487000  0.05153000  1.0
  O  O197  1  0.00551000  0.61297000  0.05780000  1.0
  O  O198  1  0.10796000  0.34745000  0.05568000  1.0
  O  O199  1  0.84646000  0.60977000  0.05387000  1.0
  O  O200  1  0.99621000  0.34110000  0.05063000  1.0
  O  O201  1  0.11615000  0.50417000  0.05726000  1.0
  O  O202  1  0.18436000  0.41924000  0.97748000  1.0
  O  O203  1  0.96972000  0.46600000  0.91523000  1.0
  O  O204  1  0.12614000  0.47425000  0.91898000  1.0
  O  O205  1  0.91302000  0.41412000  0.97048000  1.0
  O  O206  1  0.92218000  0.68458000  0.97745000  1.0
  O  O207  1  0.97131000  0.62436000  0.91932000  1.0
  O  O208  1  0.43595000  0.67647000  0.61239000  1.0
  O  O209  1  0.45348000  0.74114000  0.55273000  1.0
  O  O210  1  0.47787000  0.24073000  0.30383000  1.0
  O  O211  1  0.44393000  0.15642000  0.34544000  1.0
  O  O212  1  0.73828000  0.95220000  0.30681000  1.0
  O  O213  1  0.66148000  0.02978000  0.35222000  1.0
  O  O214  1  0.18140000  0.27485000  0.62020000  1.0
  O  O215  1  0.24410000  0.24405000  0.55932000  1.0
  O  O216  1  0.50883000  0.26193000  0.94422000  1.0
  O  O217  1  0.59209000  0.29901000  0.90377000  1.0
  O  O218  1  0.92179000  0.83356000  0.77146000  1.0
  O  O219  1  0.94103000  0.93847000  0.75484000  1.0
  O  O220  1  0.57806000  0.46932000  0.14263000  1.0
  O  O221  1  0.45642000  0.54982000  0.14323000  1.0
  O  O222  1  0.30406000  0.08647000  0.15504000  1.0
  O  O223  1  0.33615000  0.96433000  0.15288000  1.0
  F  F224  1  0.47842000  0.21640000  0.60255000  1.0
  F  F225  1  0.33446000  0.84339000  0.45955000  1.0
  F  F226  1  0.78794000  0.29271000  0.91121000  1.0
  F  F227  1  0.03327000  0.76783000  0.14844000  1.0
