# generated using pymatgen
data_ZnH17C21(NO)5
_symmetry_space_group_name_H-M   'P 1'
_cell_length_a   8.39345000
_cell_length_b   11.00350000
_cell_length_c   11.09230000
_cell_angle_alpha   89.99990000
_cell_angle_beta   75.57800000
_cell_angle_gamma   89.99980000
_symmetry_Int_Tables_number   1
_chemical_formula_structural   ZnH17C21(NO)5
_chemical_formula_sum   'Zn2 H34 C42 N10 O10'
_cell_volume   992.17213738
_cell_formula_units_Z   2
loop_
 _symmetry_equiv_pos_site_id
 _symmetry_equiv_pos_as_xyz
  1  'x, y, z'
loop_
 _atom_site_type_symbol
 _atom_site_label
 _atom_site_symmetry_multiplicity
 _atom_site_fract_x
 _atom_site_fract_y
 _atom_site_fract_z
 _atom_site_occupancy
  Zn  Zn0  1  0.79028000  0.65387000  0.76906000  1.0
  Zn  Zn1  1  0.20972000  0.15387000  0.23094000  1.0
  H  H2  1  0.57116000  0.93142000  0.99264000  1.0
  H  H3  1  0.42884000  0.43143000  0.00737000  1.0
  H  H4  1  0.32673000  0.05467000  0.97252000  1.0
  H  H5  1  0.67326000  0.55467000  0.02749000  1.0
  H  H6  1  0.10694000  0.95156000  0.88678000  1.0
  H  H7  1  0.89305000  0.45156000  0.11323000  1.0
  H  H8  1  0.65049000  0.38661000  0.73212000  1.0
  H  H9  1  0.34950000  0.88660000  0.26788000  1.0
  H  H10  1  0.81031000  0.17939000  0.79110000  1.0
  H  H11  1  0.18969000  0.67939000  0.20890000  1.0
  H  H12  1  0.09104000  0.49120000  0.82288000  1.0
  H  H13  1  0.90895000  0.99120000  0.17712000  1.0
  H  H14  1  0.04360000  0.17326000  0.91965000  1.0
  H  H15  1  0.95640000  0.67326000  0.08035000  1.0
  H  H16  1  0.17490000  0.29982000  0.90409000  1.0
  H  H17  1  0.82510000  0.79982000  0.09591000  1.0
  H  H18  1  0.05101000  0.09382000  0.66397000  1.0
  H  H19  1  0.94900000  0.59383000  0.33603000  1.0
  H  H20  1  0.25707000  0.98263000  0.50436000  1.0
  H  H21  1  0.74294000  0.48264000  0.49564000  1.0
  H  H22  1  0.64641000  0.14000000  0.64129000  1.0
  H  H23  1  0.35360000  0.63999000  0.35871000  1.0
  H  H24  1  0.43865000  0.25205000  0.80335000  1.0
  H  H25  1  0.56135000  0.75205000  0.19665000  1.0
  H  H26  1  0.66374000  0.04253000  0.39898000  1.0
  H  H27  1  0.33626000  0.54253000  0.60102000  1.0
  H  H28  1  0.52699000  0.91718000  0.41783000  1.0
  H  H29  1  0.47302000  0.41718000  0.58217000  1.0
  H  H30  1  0.54537000  0.76789000  0.61657000  1.0
  H  H31  1  0.45464000  0.26790000  0.38342000  1.0
  H  H32  1  0.92284000  0.01686000  0.45681000  1.0
  H  H33  1  0.07717000  0.51686000  0.54320000  1.0
  H  H34  1  0.04501000  0.84102000  0.59553000  1.0
  H  H35  1  0.95500000  0.34102000  0.40447000  1.0
  C  C36  1  0.47485000  0.89625000  0.95193000  1.0
  C  C37  1  0.52514000  0.39625000  0.04807000  1.0
  C  C38  1  0.33743000  0.96052000  0.94141000  1.0
  C  C39  1  0.66257000  0.46053000  0.05859000  1.0
  C  C40  1  0.21812000  0.90391000  0.89324000  1.0
  C  C41  1  0.78188000  0.40391000  0.10676000  1.0
  C  C42  1  0.24264000  0.78414000  0.85143000  1.0
  C  C43  1  0.75736000  0.28414000  0.14857000  1.0
  C  C44  1  0.38294000  0.72137000  0.86292000  1.0
  C  C45  1  0.61706000  0.22137000  0.13707000  1.0
  C  C46  1  0.12488000  0.72545000  0.78510000  1.0
  C  C47  1  0.87512000  0.22545000  0.21489000  1.0
  C  C48  1  0.42018000  0.59151000  0.81994000  1.0
  C  C49  1  0.57980000  0.09151000  0.18006000  1.0
  C  C50  1  0.76656000  0.37621000  0.75685000  1.0
  C  C51  1  0.23344000  0.87621000  0.24316000  1.0
  C  C52  1  0.84432000  0.27456000  0.78571000  1.0
  C  C53  1  0.15567000  0.77456000  0.21430000  1.0
  C  C54  1  0.99140000  0.43744000  0.80393000  1.0
  C  C55  1  0.00859000  0.93744000  0.19607000  1.0
  C  C56  1  0.11003000  0.24081000  0.85259000  1.0
  C  C57  1  0.88998000  0.74081000  0.14741000  1.0
  C  C58  1  0.23129000  0.18022000  0.74583000  1.0
  C  C59  1  0.76871000  0.68021000  0.25417000  1.0
  C  C60  1  0.18123000  0.10489000  0.66040000  1.0
  C  C61  1  0.81877000  0.60489000  0.33960000  1.0
  C  C62  1  0.29692000  0.04114000  0.57066000  1.0
  C  C63  1  0.70308000  0.54114000  0.42934000  1.0
  C  C64  1  0.46496000  0.05112000  0.56403000  1.0
  C  C65  1  0.53505000  0.55111000  0.43597000  1.0
  C  C66  1  0.51543000  0.12929000  0.64706000  1.0
  C  C67  1  0.48457000  0.62929000  0.35293000  1.0
  C  C68  1  0.39984000  0.19295000  0.73699000  1.0
  C  C69  1  0.60016000  0.69295000  0.26301000  1.0
  C  C70  1  0.58873000  0.98037000  0.46755000  1.0
  C  C71  1  0.41127000  0.48037000  0.53245000  1.0
  C  C72  1  0.66486000  0.81167000  0.59467000  1.0
  C  C73  1  0.33514000  0.31167000  0.40533000  1.0
  C  C74  1  0.86573000  0.94016000  0.51242000  1.0
  C  C75  1  0.13427000  0.44016000  0.48758000  1.0
  C  C76  1  0.92327000  0.85429000  0.58098000  1.0
  C  C77  1  0.07673000  0.35429000  0.41901000  1.0
  N  N78  1  0.79655000  0.77488000  0.63217000  1.0
  N  N79  1  0.20346000  0.27489000  0.36783000  1.0
  N  N80  1  0.85925000  0.47742000  0.76902000  1.0
  N  N81  1  0.14074000  0.97742000  0.23098000  1.0
  N  N82  1  0.98604000  0.31503000  0.81489000  1.0
  N  N83  1  0.01395000  0.81503000  0.18511000  1.0
  N  N84  1  0.70269000  0.91146000  0.52212000  1.0
  N  N85  1  0.29731000  0.41146000  0.47788000  1.0
  N  N86  1  0.49520000  0.77862000  0.91370000  1.0
  N  N87  1  0.50480000  0.27863000  0.08630000  1.0
  O  O88  1  0.62734000  0.71952000  0.92959000  1.0
  O  O89  1  0.37266000  0.21952000  0.07040000  1.0
  O  O90  1  0.55442000  0.57601000  0.73775000  1.0
  O  O91  1  0.44558000  0.07602000  0.26224000  1.0
  O  O92  1  0.31561000  0.51243000  0.86752000  1.0
  O  O93  1  0.68439000  0.01242000  0.13248000  1.0
  O  O94  1  0.18320000  0.68810000  0.67608000  1.0
  O  O95  1  0.81679000  0.18810000  0.32392000  1.0
  O  O96  1  0.97369000  0.72377000  0.84636000  1.0
  O  O97  1  0.02631000  0.22377000  0.15364000  1.0
