# generated using pymatgen
data_CdH15C18N5O6
_symmetry_space_group_name_H-M   'P 1'
_cell_length_a   13.12340000
_cell_length_b   14.25450000
_cell_length_c   14.25440000
_cell_angle_alpha   110.58100000
_cell_angle_beta   105.61600000
_cell_angle_gamma   105.61600000
_symmetry_Int_Tables_number   1
_chemical_formula_structural   CdH15C18N5O6
_chemical_formula_sum   'Cd4 H60 C72 N20 O24'
_cell_volume   2199.77808682
_cell_formula_units_Z   4
loop_
 _symmetry_equiv_pos_site_id
 _symmetry_equiv_pos_as_xyz
  1  'x, y, z'
loop_
 _atom_site_type_symbol
 _atom_site_label
 _atom_site_symmetry_multiplicity
 _atom_site_fract_x
 _atom_site_fract_y
 _atom_site_fract_z
 _atom_site_occupancy
  Cd  Cd0  1  0.14321000  0.04272000  0.07693000  1.0
  Cd  Cd1  1  0.35678000  0.92307000  0.95728000  1.0
  Cd  Cd2  1  0.85678000  0.95723000  0.92303000  1.0
  Cd  Cd3  1  0.64321000  0.07697000  0.04275000  1.0
  H  H4  1  0.02720000  0.92338000  0.21491000  1.0
  H  H5  1  0.47280000  0.78508000  0.07662000  1.0
  H  H6  1  0.97284000  0.07666000  0.78511000  1.0
  H  H7  1  0.52716000  0.21491000  0.92335000  1.0
  H  H8  1  0.16437000  0.89609000  0.38351000  1.0
  H  H9  1  0.33564000  0.61649000  0.10391000  1.0
  H  H10  1  0.83564000  0.10404000  0.61658000  1.0
  H  H11  1  0.66437000  0.38344000  0.89597000  1.0
  H  H12  1  0.37196000  0.03401000  0.24314000  1.0
  H  H13  1  0.12804000  0.75685000  0.96599000  1.0
  H  H14  1  0.62808000  0.96609000  0.75689000  1.0
  H  H15  1  0.87192000  0.24312000  0.03391000  1.0
  H  H16  1  0.56895000  0.30163000  0.18052000  1.0
  H  H17  1  0.93106000  0.81948000  0.69836000  1.0
  H  H18  1  0.43104000  0.69836000  0.81948000  1.0
  H  H19  1  0.06896000  0.18051000  0.30163000  1.0
  H  H20  1  0.44190000  0.30621000  0.10067000  1.0
  H  H21  1  0.05811000  0.89932000  0.69378000  1.0
  H  H22  1  0.55810000  0.69382000  0.89936000  1.0
  H  H23  1  0.94189000  0.10064000  0.30618000  1.0
  H  H24  1  0.29767000  0.28862000  0.34138000  1.0
  H  H25  1  0.20233000  0.65863000  0.71138000  1.0
  H  H26  1  0.70231000  0.71136000  0.65866000  1.0
  H  H27  1  0.79769000  0.34134000  0.28864000  1.0
  H  H28  1  0.24658000  0.33337000  0.49982000  1.0
  H  H29  1  0.25343000  0.50019000  0.66666667  1.0
  H  H30  1  0.75342000  0.66666667  0.50023000  1.0
  H  H31  1  0.74658000  0.49977000  0.33337000  1.0
  H  H32  1  0.40183000  0.42370000  0.69122000  1.0
  H  H33  1  0.09818000  0.30878000  0.57630000  1.0
  H  H34  1  0.59822000  0.57630000  0.30883000  1.0
  H  H35  1  0.90178000  0.69117000  0.42369000  1.0
  H  H36  1  0.65775000  0.42580000  0.55492000  1.0
  H  H37  1  0.84226000  0.44508000  0.57420000  1.0
  H  H38  1  0.34222000  0.57415000  0.44508000  1.0
  H  H39  1  0.15777000  0.55492000  0.42586000  1.0
  H  H40  1  0.79979000  0.60815000  0.93485000  1.0
  H  H41  1  0.70022000  0.06515000  0.39185000  1.0
  H  H42  1  0.20019000  0.39182000  0.06512000  1.0
  H  H43  1  0.29980000  0.93488000  0.60818000  1.0
  H  H44  1  0.90398000  0.59863000  0.87841000  1.0
  H  H45  1  0.59604000  0.12160000  0.40137000  1.0
  H  H46  1  0.09605000  0.40140000  0.12159000  1.0
  H  H47  1  0.40394000  0.87840000  0.59860000  1.0
  H  H48  1  0.32843000  0.12895000  0.48719000  1.0
  H  H49  1  0.17158000  0.51279000  0.87105000  1.0
  H  H50  1  0.67164000  0.87120000  0.51296000  1.0
  H  H51  1  0.82837000  0.48705000  0.12881000  1.0
  H  H52  1  0.44803000  0.21574000  0.61105000  1.0
  H  H53  1  0.05197000  0.38894000  0.78426000  1.0
  H  H54  1  0.55194000  0.78441000  0.38909000  1.0
  H  H55  1  0.94807000  0.61092000  0.21559000  1.0
  H  H56  1  0.36302000  0.29458000  0.23254000  1.0
  H  H57  1  0.13698000  0.76746000  0.70543000  1.0
  H  H58  1  0.63698000  0.70541000  0.76749000  1.0
  H  H59  1  0.86302000  0.23252000  0.29458000  1.0
  H  H60  1  0.75426000  0.55820000  0.70379000  1.0
  H  H61  1  0.74575000  0.29621000  0.44181000  1.0
  H  H62  1  0.24571000  0.44176000  0.29616000  1.0
  H  H63  1  0.25429000  0.70384000  0.55825000  1.0
  C  C64  1  0.11913000  0.94346000  0.24745000  1.0
  C  C65  1  0.38086000  0.75254000  0.05654000  1.0
  C  C66  1  0.88093000  0.05666000  0.75264000  1.0
  C  C67  1  0.61908000  0.24738000  0.94334000  1.0
  C  C68  1  0.18532000  0.92922000  0.32976000  1.0
  C  C69  1  0.31468000  0.67024000  0.07078000  1.0
  C  C70  1  0.81474000  0.07088000  0.67031000  1.0
  C  C71  1  0.68527000  0.32970000  0.92913000  1.0
  C  C72  1  0.29613000  0.00377000  0.25887000  1.0
  C  C73  1  0.20387000  0.74112000  0.99624000  1.0
  C  C74  1  0.70394000  0.99633000  0.74120000  1.0
  C  C75  1  0.79606000  0.25880000  0.00368000  1.0
  C  C76  1  0.40167000  0.97760000  0.41070000  1.0
  C  C77  1  0.09834000  0.58930000  0.02240000  1.0
  C  C78  1  0.59843000  0.02258000  0.58941000  1.0
  C  C79  1  0.90158000  0.41059000  0.97743000  1.0
  C  C80  1  0.42610000  0.89178000  0.41057000  1.0
  C  C81  1  0.07391000  0.58944000  0.10823000  1.0
  C  C82  1  0.57407000  0.10844000  0.58947000  1.0
  C  C83  1  0.92594000  0.41053000  0.89157000  1.0
  C  C84  1  0.46706000  0.08423000  0.51091000  1.0
  C  C85  1  0.03294000  0.48908000  0.91577000  1.0
  C  C86  1  0.53306000  0.91597000  0.48919000  1.0
  C  C87  1  0.96695000  0.51082000  0.08403000  1.0
  C  C88  1  0.42270000  0.14721000  0.08724000  1.0
  C  C89  1  0.07730000  0.91275000  0.85279000  1.0
  C  C90  1  0.57730000  0.85280000  0.91272000  1.0
  C  C91  1  0.92269000  0.08728000  0.14720000  1.0
  C  C92  1  0.47480000  0.27144000  0.15396000  1.0
  C  C93  1  0.02520000  0.84604000  0.72855000  1.0
  C  C94  1  0.52518000  0.72856000  0.84605000  1.0
  C  C95  1  0.97481000  0.15396000  0.27143000  1.0
  C  C96  1  0.52365000  0.33114000  0.34823000  1.0
  C  C97  1  0.97636000  0.65177000  0.66886000  1.0
  C  C98  1  0.47635000  0.66881000  0.65178000  1.0
  C  C99  1  0.02365000  0.34823000  0.33120000  1.0
  C  C100  1  0.48294000  0.35420000  0.43922000  1.0
  C  C101  1  0.01707000  0.56078000  0.64580000  1.0
  C  C102  1  0.51705000  0.64571000  0.56079000  1.0
  C  C103  1  0.98295000  0.43921000  0.35428000  1.0
  C  C104  1  0.36654000  0.32760000  0.42317000  1.0
  C  C105  1  0.13346000  0.57683000  0.67239000  1.0
  C  C106  1  0.63344000  0.67232000  0.57685000  1.0
  C  C107  1  0.86655000  0.42315000  0.32767000  1.0
  C  C108  1  0.33712000  0.35223000  0.51350000  1.0
  C  C109  1  0.16289000  0.48651000  0.64778000  1.0
  C  C110  1  0.66289000  0.64775000  0.48654000  1.0
  C  C111  1  0.83711000  0.51346000  0.35225000  1.0
  C  C112  1  0.42275000  0.40334000  0.61947000  1.0
  C  C113  1  0.07726000  0.38054000  0.59667000  1.0
  C  C114  1  0.57726000  0.59666000  0.38057000  1.0
  C  C115  1  0.92273000  0.61943000  0.40333000  1.0
  C  C116  1  0.53958000  0.43186000  0.63636000  1.0
  C  C117  1  0.96042000  0.36364000  0.56813000  1.0
  C  C118  1  0.46042000  0.56811000  0.36365000  1.0
  C  C119  1  0.03957000  0.63634000  0.43189000  1.0
  C  C120  1  0.56835000  0.40622000  0.54576000  1.0
  C  C121  1  0.93166000  0.45424000  0.59377000  1.0
  C  C122  1  0.43164000  0.59372000  0.45424000  1.0
  C  C123  1  0.06836000  0.54575000  0.40628000  1.0
  C  C124  1  0.62871000  0.49155000  0.75217000  1.0
  C  C125  1  0.87130000  0.24783000  0.50844000  1.0
  C  C126  1  0.37132000  0.50842000  0.24784000  1.0
  C  C127  1  0.12868000  0.75216000  0.49158000  1.0
  C  C128  1  0.82984000  0.62126000  0.87372000  1.0
  C  C129  1  0.67017000  0.12628000  0.37873000  1.0
  C  C130  1  0.17017000  0.37873000  0.12627000  1.0
  C  C131  1  0.32982000  0.87372000  0.62126000  1.0
  C  C132  1  0.87220000  0.74387000  0.90525000  1.0
  C  C133  1  0.62779000  0.09475000  0.25612000  1.0
  C  C134  1  0.12778000  0.25611000  0.09473000  1.0
  C  C135  1  0.37221000  0.90527000  0.74389000  1.0
  N  N136  1  0.18910000  0.98944000  0.20433000  1.0
  N  N137  1  0.31090000  0.79566000  0.01056000  1.0
  N  N138  1  0.81097000  0.01069000  0.79576000  1.0
  N  N139  1  0.68903000  0.20425000  0.98931000  1.0
  N  N140  1  0.29724000  0.96811000  0.33574000  1.0
  N  N141  1  0.20276000  0.66427000  0.03190000  1.0
  N  N142  1  0.70282000  0.03199000  0.66434000  1.0
  N  N143  1  0.79718000  0.33567000  0.96802000  1.0
  N  N144  1  0.40995000  0.14794000  0.53754000  1.0
  N  N145  1  0.09005000  0.46245000  0.85206000  1.0
  N  N146  1  0.59013000  0.85223000  0.46257000  1.0
  N  N147  1  0.90987000  0.53744000  0.14777000  1.0
  N  N148  1  0.44792000  0.30639000  0.24874000  1.0
  N  N149  1  0.05208000  0.75126000  0.69361000  1.0
  N  N150  1  0.55207000  0.69357000  0.75127000  1.0
  N  N151  1  0.94793000  0.24873000  0.30643000  1.0
  N  N152  1  0.73623000  0.55195000  0.76725000  1.0
  N  N153  1  0.76378000  0.23275000  0.44804000  1.0
  N  N154  1  0.26376000  0.44805000  0.23273000  1.0
  N  N155  1  0.23623000  0.76727000  0.55195000  1.0
  O  O156  1  0.34300000  0.08768000  0.10014000  1.0
  O  O157  1  0.15701000  0.89986000  0.91232000  1.0
  O  O158  1  0.65699000  0.91229000  0.89979000  1.0
  O  O159  1  0.84300000  0.10020000  0.08769000  1.0
  O  O160  1  0.62454000  0.33728000  0.36543000  1.0
  O  O161  1  0.87546000  0.63457000  0.66272000  1.0
  O  O162  1  0.37546000  0.66269000  0.63457000  1.0
  O  O163  1  0.12454000  0.36544000  0.33733000  1.0
  O  O164  1  0.60234000  0.48630000  0.82867000  1.0
  O  O165  1  0.89767000  0.17133000  0.51369000  1.0
  O  O166  1  0.39771000  0.51364000  0.17134000  1.0
  O  O167  1  0.10227000  0.82864000  0.48635000  1.0
  O  O168  1  0.79830000  0.77509000  0.85797000  1.0
  O  O169  1  0.70169000  0.14203000  0.22490000  1.0
  O  O170  1  0.20167000  0.22486000  0.14200000  1.0
  O  O171  1  0.29833000  0.85800000  0.77514000  1.0
  O  O172  1  0.97281000  0.80491000  0.97482000  1.0
  O  O173  1  0.52718000  0.02519000  0.19509000  1.0
  O  O174  1  0.02719000  0.19510000  0.02515000  1.0
  O  O175  1  0.47281000  0.97485000  0.80490000  1.0
  O  O176  1  0.46306000  0.10650000  0.01744000  1.0
  O  O177  1  0.03693000  0.98254000  0.89350000  1.0
  O  O178  1  0.53696000  0.89351000  0.98253000  1.0
  O  O179  1  0.96302000  0.01746000  0.10649000  1.0
