# generated using pymatgen
data_FeAg2H8(C3N)6
_symmetry_space_group_name_H-M   'P 1'
_cell_length_a   10.23095217
_cell_length_b   10.23100000
_cell_length_c   10.23100000
_cell_angle_alpha   104.40220000
_cell_angle_beta   112.06341953
_cell_angle_gamma   112.06381953
_symmetry_Int_Tables_number   1
_chemical_formula_structural   FeAg2H8(C3N)6
_chemical_formula_sum   'Fe2 Ag4 H16 C36 N12'
_cell_volume   819.60392079
_cell_formula_units_Z   2
loop_
 _symmetry_equiv_pos_site_id
 _symmetry_equiv_pos_as_xyz
  1  'x, y, z'
loop_
 _atom_site_type_symbol
 _atom_site_label
 _atom_site_symmetry_multiplicity
 _atom_site_fract_x
 _atom_site_fract_y
 _atom_site_fract_z
 _atom_site_occupancy
  Fe  Fe0  1  0.00000000  0.00000000  0.00000000  1.0
  Fe  Fe1  1  0.50000000  0.25000000  0.75000000  1.0
  Ag  Ag2  1  0.50000000  0.97453000  0.02547000  1.0
  Ag  Ag3  1  0.50000000  0.52547000  0.47453000  1.0
  Ag  Ag4  1  0.44909000  0.72455000  0.72455000  1.0
  Ag  Ag5  1  0.55092000  0.27546000  0.27546000  1.0
  H  H6  1  0.74362000  0.00681000  0.74934000  1.0
  H  H7  1  0.25638000  0.00572000  0.26319000  1.0
  H  H8  1  0.75746000  0.24429000  0.00067000  1.0
  H  H9  1  0.24253000  0.24320000  0.48682000  1.0
  H  H10  1  0.74362000  0.73681000  0.99428000  1.0
  H  H11  1  0.25638000  0.25066000  0.99319000  1.0
  H  H12  1  0.75747000  0.51318000  0.75680000  1.0
  H  H13  1  0.24253000  0.99933000  0.75571000  1.0
  H  H14  1  0.73231000  0.15342000  0.59055000  1.0
  H  H15  1  0.26769000  0.85823000  0.42110000  1.0
  H  H16  1  0.06286000  0.39177000  0.15947000  1.0
  H  H17  1  0.93713000  0.09660000  0.32891000  1.0
  H  H18  1  0.73231000  0.57890000  0.14177000  1.0
  H  H19  1  0.26770000  0.40946000  0.84659000  1.0
  H  H20  1  0.06286000  0.67108000  0.90339000  1.0
  H  H21  1  0.93713000  0.84053000  0.60822000  1.0
  C  C22  1  0.85686000  0.09608000  0.76673000  1.0
  C  C23  1  0.14314000  0.90987000  0.23921000  1.0
  C  C24  1  0.82935000  0.34014000  0.98328000  1.0
  C  C25  1  0.17064000  0.15393000  0.51078000  1.0
  C  C26  1  0.85686000  0.76078000  0.09013000  1.0
  C  C27  1  0.14314000  0.23327000  0.90392000  1.0
  C  C28  1  0.82935000  0.48921000  0.84607000  1.0
  C  C29  1  0.17064000  0.01671000  0.65985000  1.0
  C  C30  1  0.85122000  0.17831000  0.67806000  1.0
  C  C31  1  0.14879000  0.82685000  0.32709000  1.0
  C  C32  1  0.00024000  0.42316000  0.07195000  1.0
  C  C33  1  0.99976000  0.07171000  0.42292000  1.0
  C  C34  1  0.85122000  0.67291000  0.17316000  1.0
  C  C35  1  0.14879000  0.32195000  0.82170000  1.0
  C  C36  1  0.00024000  0.57708000  0.92829000  1.0
  C  C37  1  0.99976000  0.92806000  0.57684000  1.0
  C  C38  1  0.00000000  0.29547000  0.70453000  1.0
  C  C39  1  0.00000000  0.70453000  0.29547000  1.0
  C  C40  1  0.09094000  0.54547000  0.04547000  1.0
  C  C41  1  0.90905000  0.95452000  0.45452000  1.0
  C  C42  1  0.00000000  0.38249000  0.61751000  1.0
  C  C43  1  0.00000000  0.61751000  0.38249000  1.0
  C  C44  1  0.26497000  0.63248000  0.13248000  1.0
  C  C45  1  0.73502000  0.86751000  0.36751000  1.0
  C  C46  1  0.00000000  0.45843000  0.54157000  1.0
  C  C47  1  0.00000000  0.54157000  0.45843000  1.0
  C  C48  1  0.41686000  0.70843000  0.20843000  1.0
  C  C49  1  0.58313000  0.79156000  0.29157000  1.0
  C  C50  1  0.72022000  0.00561000  0.04416000  1.0
  C  C51  1  0.27978000  0.32393000  0.28539000  1.0
  C  C52  1  0.46147000  0.92607000  0.70584000  1.0
  C  C53  1  0.53853000  0.24437000  0.46460000  1.0
  C  C54  1  0.72022000  0.71461000  0.67606000  1.0
  C  C55  1  0.27978000  0.95585000  0.99439000  1.0
  C  C56  1  0.46147000  0.53540000  0.75562000  1.0
  C  C57  1  0.53853000  0.29416000  0.07393000  1.0
  N  N58  1  0.00000000  0.12165000  0.87836000  1.0
  N  N59  1  0.00000000  0.87836000  0.12164000  1.0
  N  N60  1  0.74329000  0.37165000  0.87165000  1.0
  N  N61  1  0.25671000  0.12835000  0.62835000  1.0
  N  N62  1  0.83138000  0.01606000  0.02841000  1.0
  N  N63  1  0.16862000  0.19702000  0.18467000  1.0
  N  N64  1  0.48766000  0.05298000  0.72160000  1.0
  N  N65  1  0.51234000  0.23394000  0.56531000  1.0
  N  N66  1  0.83138000  0.81533000  0.80298000  1.0
  N  N67  1  0.16862000  0.97159000  0.98394000  1.0
  N  N68  1  0.48766000  0.43469000  0.76606000  1.0
  N  N69  1  0.51234000  0.27840000  0.94702000  1.0
