# generated using pymatgen
data_CoH6C4N6(ClO)2
_symmetry_space_group_name_H-M   'P 1'
_cell_length_a   3.46637000
_cell_length_b   11.52742554
_cell_length_c   11.85015968
_cell_angle_alpha   70.55271428
_cell_angle_beta   81.59051841
_cell_angle_gamma   81.39063484
_symmetry_Int_Tables_number   1
_chemical_formula_structural   CoH6C4N6(ClO)2
_chemical_formula_sum   'Co2 H12 C8 N12 Cl4 O4'
_cell_volume   439.10004283
_cell_formula_units_Z   2
loop_
 _symmetry_equiv_pos_site_id
 _symmetry_equiv_pos_as_xyz
  1  'x, y, z'
loop_
 _atom_site_type_symbol
 _atom_site_label
 _atom_site_symmetry_multiplicity
 _atom_site_fract_x
 _atom_site_fract_y
 _atom_site_fract_z
 _atom_site_occupancy
  Co  Co0  1  0.95338000  0.24995000  0.75006000  1.0
  Co  Co1  1  0.04661000  0.75005000  0.24994000  1.0
  H  H2  1  0.13879000  0.08139000  0.02851000  1.0
  H  H3  1  0.25247000  0.41825000  0.47190000  1.0
  H  H4  1  0.86120000  0.91861000  0.97149000  1.0
  H  H5  1  0.74753000  0.58175000  0.52809000  1.0
  H  H6  1  0.59800000  0.43939000  0.90504000  1.0
  H  H7  1  0.93962000  0.06088000  0.59494000  1.0
  H  H8  1  0.40201000  0.56061000  0.09496000  1.0
  H  H9  1  0.06037000  0.93912000  0.40507000  1.0
  H  H10  1  0.94444000  0.16274000  0.21140000  1.0
  H  H11  1  0.32230000  0.33694000  0.28886000  1.0
  H  H12  1  0.05556000  0.83726000  0.78861000  1.0
  H  H13  1  0.67771000  0.66306000  0.71114000  1.0
  C  C14  1  0.68784000  0.32840000  0.08535000  1.0
  C  C15  1  0.10238000  0.17159000  0.41476000  1.0
  C  C16  1  0.31219000  0.67160000  0.91465000  1.0
  C  C17  1  0.89761000  0.82841000  0.58524000  1.0
  C  C18  1  0.98195000  0.17088000  0.02539000  1.0
  C  C19  1  0.18049000  0.32895000  0.47488000  1.0
  C  C20  1  0.01804000  0.82912000  0.97461000  1.0
  C  C21  1  0.81952000  0.67105000  0.52511000  1.0
  N  N22  1  0.69296000  0.35444000  0.96423000  1.0
  N  N23  1  0.01015000  0.14573000  0.53578000  1.0
  N  N24  1  0.30705000  0.64555000  0.03577000  1.0
  N  N25  1  0.98985000  0.85427000  0.46421000  1.0
  N  N26  1  0.87606000  0.25729000  0.92714000  1.0
  N  N27  1  0.05989000  0.24278000  0.57298000  1.0
  N  N28  1  0.12393000  0.74271000  0.07286000  1.0
  N  N29  1  0.94011000  0.75722000  0.42702000  1.0
  N  N30  1  0.87471000  0.20956000  0.12341000  1.0
  N  N31  1  0.21102000  0.29020000  0.37690000  1.0
  N  N32  1  0.12529000  0.79045000  0.87659000  1.0
  N  N33  1  0.78898000  0.70980000  0.62310000  1.0
  Cl  Cl34  1  0.40158000  0.40754000  0.69947000  1.0
  Cl  Cl35  1  0.50821000  0.09231000  0.80080000  1.0
  Cl  Cl36  1  0.59842000  0.59246000  0.30053000  1.0
  Cl  Cl37  1  0.49179000  0.90769000  0.19920000  1.0
  O  O38  1  0.54191000  0.39602000  0.14854000  1.0
  O  O39  1  0.08730000  0.10411000  0.35143000  1.0
  O  O40  1  0.45812000  0.60398000  0.85146000  1.0
  O  O41  1  0.91270000  0.89589000  0.64857000  1.0
