# generated using pymatgen
data_AgH7C8O3
_symmetry_space_group_name_H-M   'P 1'
_cell_length_a   4.72707000
_cell_length_b   10.17720000
_cell_length_c   16.33840000
_cell_angle_alpha   83.43680000
_cell_angle_beta   89.99940000
_cell_angle_gamma   89.99920000
_symmetry_Int_Tables_number   1
_chemical_formula_structural   AgH7C8O3
_chemical_formula_sum   'Ag4 H28 C32 O12'
_cell_volume   780.86201987
_cell_formula_units_Z   4
loop_
 _symmetry_equiv_pos_site_id
 _symmetry_equiv_pos_as_xyz
  1  'x, y, z'
loop_
 _atom_site_type_symbol
 _atom_site_label
 _atom_site_symmetry_multiplicity
 _atom_site_fract_x
 _atom_site_fract_y
 _atom_site_fract_z
 _atom_site_occupancy
  Ag  Ag0  1  0.98791000  0.38238000  0.46571000  1.0
  Ag  Ag1  1  0.48792000  0.11763000  0.53429000  1.0
  Ag  Ag2  1  0.01209000  0.61763000  0.53429000  1.0
  Ag  Ag3  1  0.51210000  0.88237000  0.46571000  1.0
  H  H4  1  0.92853000  0.20695000  0.64092000  1.0
  H  H5  1  0.42854000  0.29305000  0.35908000  1.0
  H  H6  1  0.07147000  0.79305000  0.35908000  1.0
  H  H7  1  0.57146000  0.70695000  0.64092000  1.0
  H  H8  1  0.83047000  0.50908000  0.78033000  1.0
  H  H9  1  0.33051000  0.99093000  0.21967000  1.0
  H  H10  1  0.16950000  0.49093000  0.21966000  1.0
  H  H11  1  0.66951000  0.00908000  0.78033000  1.0
  H  H12  1  0.69992000  0.49513000  0.92823000  1.0
  H  H13  1  0.19995000  0.00486000  0.07178000  1.0
  H  H14  1  0.30006000  0.50486000  0.07177000  1.0
  H  H15  1  0.80006000  0.99514000  0.92822000  1.0
  H  H16  1  0.35033000  0.32474000  0.98717000  1.0
  H  H17  1  0.85033000  0.17526000  0.01284000  1.0
  H  H18  1  0.64968000  0.67526000  0.01283000  1.0
  H  H19  1  0.14967000  0.82475000  0.98716000  1.0
  H  H20  1  0.14935000  0.16585000  0.89801000  1.0
  H  H21  1  0.64935000  0.33415000  0.10199000  1.0
  H  H22  1  0.85066000  0.83414000  0.10199000  1.0
  H  H23  1  0.35065000  0.66585000  0.89801000  1.0
  H  H24  1  0.29130000  0.17584000  0.75174000  1.0
  H  H25  1  0.79131000  0.32416000  0.24826000  1.0
  H  H26  1  0.70869000  0.82415000  0.24826000  1.0
  H  H27  1  0.20869000  0.67584000  0.75174000  1.0
  H  H28  1  0.83870000  0.41377000  0.65510000  1.0
  H  H29  1  0.33872000  0.08623000  0.34490000  1.0
  H  H30  1  0.16129000  0.58623000  0.34490000  1.0
  H  H31  1  0.66129000  0.91378000  0.65510000  1.0
  C  C32  1  0.56905000  0.34371000  0.75674000  1.0
  C  C33  1  0.06907000  0.15629000  0.24326000  1.0
  C  C34  1  0.43094000  0.65629000  0.24326000  1.0
  C  C35  1  0.93094000  0.84371000  0.75674000  1.0
  C  C36  1  0.68129000  0.43396000  0.80640000  1.0
  C  C37  1  0.18132000  0.06604000  0.19359000  1.0
  C  C38  1  0.31869000  0.56604000  0.19359000  1.0
  C  C39  1  0.81868000  0.93396000  0.80641000  1.0
  C  C40  1  0.60474000  0.42675000  0.88937000  1.0
  C  C41  1  0.10475000  0.07325000  0.11063000  1.0
  C  C42  1  0.39525000  0.57325000  0.11063000  1.0
  C  C43  1  0.89525000  0.92675000  0.88937000  1.0
  C  C44  1  0.41248000  0.33083000  0.92257000  1.0
  C  C45  1  0.91249000  0.16916000  0.07743000  1.0
  C  C46  1  0.58751000  0.66916000  0.07743000  1.0
  C  C47  1  0.08751000  0.83084000  0.92257000  1.0
  C  C48  1  0.29901000  0.24116000  0.87276000  1.0
  C  C49  1  0.79902000  0.25883000  0.12724000  1.0
  C  C50  1  0.70098000  0.75883000  0.12724000  1.0
  C  C51  1  0.20098000  0.74117000  0.87276000  1.0
  C  C52  1  0.37699000  0.24726000  0.79019000  1.0
  C  C53  1  0.87701000  0.25274000  0.20981000  1.0
  C  C54  1  0.62300000  0.75273000  0.20981000  1.0
  C  C55  1  0.12300000  0.74726000  0.79019000  1.0
  C  C56  1  0.65654000  0.34702000  0.66731000  1.0
  C  C57  1  0.15655000  0.15298000  0.33269000  1.0
  C  C58  1  0.34345000  0.65298000  0.33269000  1.0
  C  C59  1  0.84345000  0.84703000  0.66731000  1.0
  C  C60  1  0.41497000  0.40533000  0.61127000  1.0
  C  C61  1  0.91498000  0.09467000  0.38874000  1.0
  C  C62  1  0.58503000  0.59467000  0.38873000  1.0
  C  C63  1  0.08503000  0.90533000  0.61126000  1.0
  O  O64  1  0.27302000  0.32601000  0.57204000  1.0
  O  O65  1  0.77304000  0.17399000  0.42796000  1.0
  O  O66  1  0.72698000  0.67399000  0.42796000  1.0
  O  O67  1  0.22698000  0.82601000  0.57204000  1.0
  O  O68  1  0.37040000  0.52802000  0.61006000  1.0
  O  O69  1  0.87041000  0.97199000  0.38994000  1.0
  O  O70  1  0.62960000  0.47198000  0.38993000  1.0
  O  O71  1  0.12960000  0.02802000  0.61006000  1.0
  O  O72  1  0.72463000  0.21665000  0.64853000  1.0
  O  O73  1  0.22464000  0.28335000  0.35147000  1.0
  O  O74  1  0.27537000  0.78335000  0.35148000  1.0
  O  O75  1  0.77537000  0.71665000  0.64852000  1.0
