# generated using pymatgen
data_CoH20C27Br4(NO)4
_symmetry_space_group_name_H-M   'P 1'
_cell_length_a   9.84376000
_cell_length_b   11.73650000
_cell_length_c   12.67950000
_cell_angle_alpha   93.54040000
_cell_angle_beta   90.00000000
_cell_angle_gamma   90.00000000
_symmetry_Int_Tables_number   1
_chemical_formula_structural   CoH20C27Br4(NO)4
_chemical_formula_sum   'Co2 H40 C54 Br8 N8 O8'
_cell_volume   1462.08326650
_cell_formula_units_Z   2
loop_
 _symmetry_equiv_pos_site_id
 _symmetry_equiv_pos_as_xyz
  1  'x, y, z'
loop_
 _atom_site_type_symbol
 _atom_site_label
 _atom_site_symmetry_multiplicity
 _atom_site_fract_x
 _atom_site_fract_y
 _atom_site_fract_z
 _atom_site_occupancy
  Co  Co0  1  0.82735000  0.75000000  0.75000000  1.0
  Co  Co1  1  0.17266000  0.25000000  0.25000000  1.0
  H  H2  1  0.62559000  0.02323000  0.07482000  1.0
  H  H3  1  0.62559000  0.47677000  0.42518000  1.0
  H  H4  1  0.37441000  0.97677000  0.92518000  1.0
  H  H5  1  0.37441000  0.52323000  0.57482000  1.0
  H  H6  1  0.06315000  0.83651000  0.63507000  1.0
  H  H7  1  0.06315000  0.66349000  0.86493000  1.0
  H  H8  1  0.93685000  0.16348000  0.36493000  1.0
  H  H9  1  0.93684000  0.33651000  0.13507000  1.0
  H  H10  1  0.21014000  0.89883000  0.69881000  1.0
  H  H11  1  0.21014000  0.60117000  0.80119000  1.0
  H  H12  1  0.78986000  0.10117000  0.30119000  1.0
  H  H13  1  0.78986000  0.39883000  0.19881000  1.0
  H  H14  1  0.11097000  0.97886000  0.61215000  1.0
  H  H15  1  0.11097000  0.52114000  0.88785000  1.0
  H  H16  1  0.88903000  0.02114000  0.38785000  1.0
  H  H17  1  0.88903000  0.47886000  0.11215000  1.0
  H  H18  1  0.68865000  0.86782000  0.94053000  1.0
  H  H19  1  0.68865000  0.63219000  0.55947000  1.0
  H  H20  1  0.31135000  0.13218000  0.05947000  1.0
  H  H21  1  0.31135000  0.36781000  0.44053000  1.0
  H  H22  1  0.75928000  0.20126000  0.09457000  1.0
  H  H23  1  0.75928000  0.29874000  0.40543000  1.0
  H  H24  1  0.24072000  0.79874000  0.90543000  1.0
  H  H25  1  0.24072000  0.70126000  0.59457000  1.0
  H  H26  1  0.19407000  0.11959000  0.73016000  1.0
  H  H27  1  0.19407000  0.38041000  0.76984000  1.0
  H  H28  1  0.80593000  0.88041000  0.26984000  1.0
  H  H29  1  0.80593000  0.61959000  0.23016000  1.0
  H  H30  1  0.17833000  0.18064000  0.86162000  1.0
  H  H31  1  0.17833000  0.31936000  0.63838000  1.0
  H  H32  1  0.82167000  0.81936000  0.13838000  1.0
  H  H33  1  0.82167000  0.68064000  0.36162000  1.0
  H  H34  1  0.96137000  0.23189000  0.97995000  1.0
  H  H35  1  0.96137000  0.26811000  0.52005000  1.0
  H  H36  1  0.03863000  0.76811000  0.02005000  1.0
  H  H37  1  0.03863000  0.73189000  0.47995000  1.0
  H  H38  1  0.97091000  0.21534000  0.68604000  1.0
  H  H39  1  0.97091000  0.28466000  0.81396000  1.0
  H  H40  1  0.02909000  0.78466000  0.31396000  1.0
  H  H41  1  0.02909000  0.71534000  0.18604000  1.0
  C  C42  1  0.85979000  0.96339000  0.88466000  1.0
  C  C43  1  0.85979000  0.53661000  0.61534000  1.0
  C  C44  1  0.14021000  0.03661000  0.11534000  1.0
  C  C45  1  0.14021000  0.46339000  0.38466000  1.0
  C  C46  1  0.48555000  0.11176000  0.54245000  1.0
  C  C47  1  0.48555000  0.38824000  0.95755000  1.0
  C  C48  1  0.51445000  0.88823000  0.45755000  1.0
  C  C49  1  0.51445000  0.61177000  0.04245000  1.0
  C  C50  1  0.01856000  0.95442000  0.76251000  1.0
  C  C51  1  0.01856000  0.54558000  0.73749000  1.0
  C  C52  1  0.98145000  0.04558000  0.23749000  1.0
  C  C53  1  0.98144000  0.45442000  0.26251000  1.0
  C  C54  1  0.93282000  0.06699000  0.89446000  1.0
  C  C55  1  0.93282000  0.43301000  0.60554000  1.0
  C  C56  1  0.06718000  0.93300000  0.10554000  1.0
  C  C57  1  0.06718000  0.56699000  0.39446000  1.0
  C  C58  1  0.60973000  0.93203000  0.53124000  1.0
  C  C59  1  0.60973000  0.56797000  0.96876000  1.0
  C  C60  1  0.39027000  0.06796000  0.46876000  1.0
  C  C61  1  0.39027000  0.43204000  0.03124000  1.0
  C  C62  1  0.72648000  0.85947000  0.56770000  1.0
  C  C63  1  0.72648000  0.64053000  0.93230000  1.0
  C  C64  1  0.27352000  0.14053000  0.43229000  1.0
  C  C65  1  0.27351000  0.35947000  0.06770000  1.0
  C  C66  1  0.71370000  0.03340000  0.02408000  1.0
  C  C67  1  0.71370000  0.46660000  0.47592000  1.0
  C  C68  1  0.28630000  0.96660000  0.97592000  1.0
  C  C69  1  0.28629000  0.53340000  0.52408000  1.0
  C  C70  1  0.59400000  0.04433000  0.57364000  1.0
  C  C71  1  0.59400000  0.45567000  0.92636000  1.0
  C  C72  1  0.40601000  0.95566000  0.42636000  1.0
  C  C73  1  0.40600000  0.54434000  0.07364000  1.0
  C  C74  1  0.10579000  0.91521000  0.67223000  1.0
  C  C75  1  0.10579000  0.58480000  0.82777000  1.0
  C  C76  1  0.89421000  0.08479000  0.32777000  1.0
  C  C77  1  0.89421000  0.41521000  0.17223000  1.0
  C  C78  1  0.74768000  0.94610000  0.94942000  1.0
  C  C79  1  0.74768000  0.55390000  0.55058000  1.0
  C  C80  1  0.25232000  0.05390000  0.05058000  1.0
  C  C81  1  0.25232000  0.44610000  0.44942000  1.0
  C  C82  1  0.78946000  0.13518000  0.03502000  1.0
  C  C83  1  0.78946000  0.36482000  0.46498000  1.0
  C  C84  1  0.21054000  0.86482000  0.96498000  1.0
  C  C85  1  0.21053000  0.63518000  0.53502000  1.0
  C  C86  1  0.12138000  0.15226000  0.79020000  1.0
  C  C87  1  0.12138000  0.34774000  0.70980000  1.0
  C  C88  1  0.87862000  0.84774000  0.20980000  1.0
  C  C89  1  0.87862000  0.65226000  0.29020000  1.0
  C  C90  1  0.90086000  0.15407000  0.97058000  1.0
  C  C91  1  0.90086000  0.34593000  0.52942000  1.0
  C  C92  1  0.09914000  0.84593000  0.02942000  1.0
  C  C93  1  0.09914000  0.65407000  0.47058000  1.0
  C  C94  1  0.03705000  0.25000000  0.75000000  1.0
  C  C95  1  0.96294000  0.75000000  0.25000000  1.0
  Br  Br96  1  0.46798000  0.26475000  0.59832000  1.0
  Br  Br97  1  0.46798000  0.23525000  0.90168000  1.0
  Br  Br98  1  0.53202000  0.73525000  0.40168000  1.0
  Br  Br99  1  0.53202000  0.76475000  0.09832000  1.0
  Br  Br100  1  0.71972000  0.10278000  0.67622000  1.0
  Br  Br101  1  0.71972000  0.39722000  0.82378000  1.0
  Br  Br102  1  0.28028000  0.89721000  0.32378000  1.0
  Br  Br103  1  0.28028000  0.60279000  0.17622000  1.0
  N  N104  1  0.91720000  0.89409000  0.80275000  1.0
  N  N105  1  0.91720000  0.60591000  0.69725000  1.0
  N  N106  1  0.08280000  0.10591000  0.19725000  1.0
  N  N107  1  0.08280000  0.39409000  0.30275000  1.0
  N  N108  1  0.03196000  0.05860000  0.81614000  1.0
  N  N109  1  0.03196000  0.44140000  0.68386000  1.0
  N  N110  1  0.96804000  0.94140000  0.18386000  1.0
  N  N111  1  0.96804000  0.55860000  0.31614000  1.0
  O  O112  1  0.69653000  0.80931000  0.65257000  1.0
  O  O113  1  0.69653000  0.69069000  0.84743000  1.0
  O  O114  1  0.30348000  0.19069000  0.34742000  1.0
  O  O115  1  0.30348000  0.30931000  0.15258000  1.0
  O  O116  1  0.83475000  0.85423000  0.51711000  1.0
  O  O117  1  0.83474000  0.64577000  0.98289000  1.0
  O  O118  1  0.16525000  0.14576000  0.48289000  1.0
  O  O119  1  0.16526000  0.35424000  0.01711000  1.0
