# generated using pymatgen
data_Ag2H15C16(NO2)3
_symmetry_space_group_name_H-M   'P 1'
_cell_length_a   12.35340000
_cell_length_b   16.49970000
_cell_length_c   16.49970000
_cell_angle_alpha   60.00000000
_cell_angle_beta   90.00000000
_cell_angle_gamma   89.99990000
_symmetry_Int_Tables_number   1
_chemical_formula_structural   Ag2H15C16(NO2)3
_chemical_formula_sum   'Ag12 H90 C96 N18 O36'
_cell_volume   2912.52211345
_cell_formula_units_Z   6
loop_
 _symmetry_equiv_pos_site_id
 _symmetry_equiv_pos_as_xyz
  1  'x, y, z'
loop_
 _atom_site_type_symbol
 _atom_site_label
 _atom_site_symmetry_multiplicity
 _atom_site_fract_x
 _atom_site_fract_y
 _atom_site_fract_z
 _atom_site_occupancy
  Ag  Ag0  1  0.41666000  0.65153000  0.65154000  1.0
  Ag  Ag1  1  0.58332000  0.34846000  0.30307000  1.0
  Ag  Ag2  1  0.74999000  0.69694000  0.65152000  1.0
  Ag  Ag3  1  0.91666000  0.34847000  0.34846000  1.0
  Ag  Ag4  1  0.08333000  0.65153000  0.69694000  1.0
  Ag  Ag5  1  0.24999000  0.30306000  0.34847000  1.0
  Ag  Ag6  1  0.41667000  0.39344000  0.39344000  1.0
  Ag  Ag7  1  0.58333000  0.60656000  0.78688000  1.0
  Ag  Ag8  1  0.75000000  0.21312000  0.39344000  1.0
  Ag  Ag9  1  0.91667000  0.60655000  0.60656000  1.0
  Ag  Ag10  1  0.08334000  0.39344000  0.21311000  1.0
  Ag  Ag11  1  0.25000000  0.78689000  0.60655000  1.0
  H  H12  1  0.33333333  0.50281000  1.00000000  1.0
  H  H13  1  0.50000000  0.00001000  0.50281000  1.0
  H  H14  1  0.66666667  0.49719000  0.50280000  1.0
  H  H15  1  0.83334000  0.49719000  0.00000000  1.0
  H  H16  1  0.00000000  0.00000000  0.49719000  1.0
  H  H17  1  0.16667000  0.50281000  0.49718000  1.0
  H  H18  1  0.35024000  0.65422000  0.14979000  1.0
  H  H19  1  0.51692000  0.85020000  0.80401000  1.0
  H  H20  1  0.68356000  0.19599000  0.65422000  1.0
  H  H21  1  0.85024000  0.34579000  0.85021000  1.0
  H  H22  1  0.01690000  0.14977000  0.19600000  1.0
  H  H23  1  0.18358000  0.80400000  0.34579000  1.0
  H  H24  1  0.64976000  0.34579000  0.80400000  1.0
  H  H25  1  0.31643000  0.80401000  0.85021000  1.0
  H  H26  1  0.98310000  0.85020000  0.34579000  1.0
  H  H27  1  0.48311000  0.14978000  0.65423000  1.0
  H  H28  1  0.14976000  0.65422000  0.19600000  1.0
  H  H29  1  0.81644000  0.19600000  0.14978000  1.0
  H  H30  1  0.56321000  0.61819000  0.32390000  1.0
  H  H31  1  0.72988000  0.67610000  0.94208000  1.0
  H  H32  1  0.89655000  0.05791000  0.61819000  1.0
  H  H33  1  0.06321000  0.38182000  0.67609000  1.0
  H  H34  1  0.22988000  0.32391000  0.05791000  1.0
  H  H35  1  0.39655000  0.94209000  0.38182000  1.0
  H  H36  1  0.43679000  0.38182000  0.94209000  1.0
  H  H37  1  0.10345000  0.94209000  0.67609000  1.0
  H  H38  1  0.77012000  0.67610000  0.38181000  1.0
  H  H39  1  0.27012000  0.32391000  0.61818000  1.0
  H  H40  1  0.93679000  0.61818000  0.05792000  1.0
  H  H41  1  0.60345000  0.05791000  0.32391000  1.0
  H  H42  1  0.44375000  0.68697000  0.29259000  1.0
  H  H43  1  0.61041000  0.70741000  0.97956000  1.0
  H  H44  1  0.77708000  0.02045000  0.68696000  1.0
  H  H45  1  0.94374000  0.31303000  0.70741000  1.0
  H  H46  1  0.11042000  0.29259000  0.02044000  1.0
  H  H47  1  0.27708000  0.97956000  0.31303000  1.0
  H  H48  1  0.55625000  0.31303000  0.97956000  1.0
  H  H49  1  0.22292000  0.97956000  0.70741000  1.0
  H  H50  1  0.88959000  0.70741000  0.31303000  1.0
  H  H51  1  0.38959000  0.29259000  0.68697000  1.0
  H  H52  1  0.05625000  0.68697000  0.02044000  1.0
  H  H53  1  0.72292000  0.02044000  0.29259000  1.0
  H  H54  1  0.44347000  0.57596000  0.29857000  1.0
  H  H55  1  0.61014000  0.70143000  0.87453000  1.0
  H  H56  1  0.77681000  0.12548000  0.57595000  1.0
  H  H57  1  0.94347000  0.42404000  0.70143000  1.0
  H  H58  1  0.11014000  0.29857000  0.12547000  1.0
  H  H59  1  0.27681000  0.87453000  0.42404000  1.0
  H  H60  1  0.55653000  0.42405000  0.87452000  1.0
  H  H61  1  0.22319000  0.87453000  0.70143000  1.0
  H  H62  1  0.88986000  0.70143000  0.42405000  1.0
  H  H63  1  0.38986000  0.29857000  0.57596000  1.0
  H  H64  1  0.05653000  0.57596000  0.12547000  1.0
  H  H65  1  0.72319000  0.12548000  0.29856000  1.0
  H  H66  1  0.40349000  0.76080000  0.38865000  1.0
  H  H67  1  0.57015000  0.61135000  0.14945000  1.0
  H  H68  1  0.73682000  0.85056000  0.76079000  1.0
  H  H69  1  0.90348000  0.23920000  0.61135000  1.0
  H  H70  1  0.07015000  0.38865000  0.85055000  1.0
  H  H71  1  0.23682000  0.14945000  0.23920000  1.0
  H  H72  1  0.59652000  0.23920000  0.14945000  1.0
  H  H73  1  0.26319000  0.14945000  0.61135000  1.0
  H  H74  1  0.92985000  0.61136000  0.23920000  1.0
  H  H75  1  0.42985000  0.38865000  0.76080000  1.0
  H  H76  1  0.09652000  0.76080000  0.85055000  1.0
  H  H77  1  0.76319000  0.85056000  0.38864000  1.0
  H  H78  1  0.54299000  0.73454000  0.38999000  1.0
  H  H79  1  0.70965000  0.61001000  0.12453000  1.0
  H  H80  1  0.87632000  0.87548000  0.73453000  1.0
  H  H81  1  0.04298000  0.26547000  0.61000000  1.0
  H  H82  1  0.20965000  0.38999000  0.87547000  1.0
  H  H83  1  0.37632000  0.12453000  0.26546000  1.0
  H  H84  1  0.45702000  0.26547000  0.12452000  1.0
  H  H85  1  0.12369000  0.12453000  0.61001000  1.0
  H  H86  1  0.79035000  0.61001000  0.26547000  1.0
  H  H87  1  0.29035000  0.38999000  0.73454000  1.0
  H  H88  1  0.95702000  0.73454000  0.87547000  1.0
  H  H89  1  0.62369000  0.87548000  0.38999000  1.0
  H  H90  1  0.48488000  0.74105000  0.48576000  1.0
  H  H91  1  0.65154000  0.51424000  0.22681000  1.0
  H  H92  1  0.81821000  0.77319000  0.74105000  1.0
  H  H93  1  0.98487000  0.25895000  0.51424000  1.0
  H  H94  1  0.15154000  0.48576000  0.77319000  1.0
  H  H95  1  0.31820000  0.22681000  0.25895000  1.0
  H  H96  1  0.51513000  0.25895000  0.22681000  1.0
  H  H97  1  0.18180000  0.22681000  0.51424000  1.0
  H  H98  1  0.84847000  0.51424000  0.25895000  1.0
  H  H99  1  0.34847000  0.48576000  0.74105000  1.0
  H  H100  1  0.01513000  0.74105000  0.77319000  1.0
  H  H101  1  0.68180000  0.77319000  0.48576000  1.0
  C  C102  1  0.33333333  0.56882000  0.00000000  1.0
  C  C103  1  0.50000000  0.00001000  0.56882000  1.0
  C  C104  1  0.66666667  0.43118000  0.56882000  1.0
  C  C105  1  0.83333000  0.43118000  0.00001000  1.0
  C  C106  1  0.00000000  0.00000000  0.43118000  1.0
  C  C107  1  0.16667000  0.56882000  0.43117000  1.0
  C  C108  1  0.33980000  0.56866000  0.08489000  1.0
  C  C109  1  0.50647000  0.91511000  0.65355000  1.0
  C  C110  1  0.67313000  0.34645000  0.56866000  1.0
  C  C111  1  0.83980000  0.43134000  0.91511000  1.0
  C  C112  1  0.00646000  0.08488000  0.34645000  1.0
  C  C113  1  0.17314000  0.65355000  0.43134000  1.0
  C  C114  1  0.66020000  0.43134000  0.65355000  1.0
  C  C115  1  0.32687000  0.65355000  0.91511000  1.0
  C  C116  1  0.99354000  0.91510000  0.43134000  1.0
  C  C117  1  0.49354000  0.08489000  0.56867000  1.0
  C  C118  1  0.16020000  0.56866000  0.34645000  1.0
  C  C119  1  0.82687000  0.34645000  0.08489000  1.0
  C  C120  1  0.34246000  0.65369000  0.08448000  1.0
  C  C121  1  0.50914000  0.91553000  0.73816000  1.0
  C  C122  1  0.67579000  0.26183000  0.65369000  1.0
  C  C123  1  0.84246000  0.34631000  0.91553000  1.0
  C  C124  1  0.00913000  0.08447000  0.26183000  1.0
  C  C125  1  0.17580000  0.73816000  0.34631000  1.0
  C  C126  1  0.65754000  0.34631000  0.73816000  1.0
  C  C127  1  0.32421000  0.73817000  0.91552000  1.0
  C  C128  1  0.99087000  0.91551000  0.34632000  1.0
  C  C129  1  0.49089000  0.08449000  0.65369000  1.0
  C  C130  1  0.15754000  0.65369000  0.26183000  1.0
  C  C131  1  0.82421000  0.26183000  0.08448000  1.0
  C  C132  1  0.33333333  0.73685000  0.00000000  1.0
  C  C133  1  0.50002000  0.99998000  0.73686000  1.0
  C  C134  1  0.66666667  0.26316000  0.73684000  1.0
  C  C135  1  0.83334000  0.26316000  0.99999000  1.0
  C  C136  1  0.00000000  0.99998000  0.26316000  1.0
  C  C137  1  0.16667000  0.73685000  0.26316000  1.0
  C  C138  1  0.34491000  0.48016000  0.17887000  1.0
  C  C139  1  0.51158000  0.82113000  0.65903000  1.0
  C  C140  1  0.67824000  0.34097000  0.48016000  1.0
  C  C141  1  0.84491000  0.51985000  0.82113000  1.0
  C  C142  1  0.01157000  0.17887000  0.34097000  1.0
  C  C143  1  0.17824000  0.65902000  0.51985000  1.0
  C  C144  1  0.65509000  0.51984000  0.65903000  1.0
  C  C145  1  0.32176000  0.65903000  0.82113000  1.0
  C  C146  1  0.98842000  0.82112000  0.51984000  1.0
  C  C147  1  0.48842000  0.17887000  0.48017000  1.0
  C  C148  1  0.15509000  0.48016000  0.34096000  1.0
  C  C149  1  0.82176000  0.34096000  0.17888000  1.0
  C  C150  1  0.47439000  0.61494000  0.33135000  1.0
  C  C151  1  0.64106000  0.66865000  0.94629000  1.0
  C  C152  1  0.80773000  0.05372000  0.61493000  1.0
  C  C153  1  0.97439000  0.38506000  0.66865000  1.0
  C  C154  1  0.14106000  0.33135000  0.05371000  1.0
  C  C155  1  0.30773000  0.94628000  0.38507000  1.0
  C  C156  1  0.52561000  0.38506000  0.94629000  1.0
  C  C157  1  0.19227000  0.94629000  0.66865000  1.0
  C  C158  1  0.85894000  0.66865000  0.38506000  1.0
  C  C159  1  0.35894000  0.33135000  0.61494000  1.0
  C  C160  1  0.02561000  0.61494000  0.05371000  1.0
  C  C161  1  0.69227000  0.05372000  0.33134000  1.0
  C  C162  1  0.47075000  0.71885000  0.43408000  1.0
  C  C163  1  0.63741000  0.56592000  0.15293000  1.0
  C  C164  1  0.80408000  0.84707000  0.71885000  1.0
  C  C165  1  0.97075000  0.28116000  0.56591000  1.0
  C  C166  1  0.13741000  0.43408000  0.84708000  1.0
  C  C167  1  0.30408000  0.15293000  0.28115000  1.0
  C  C168  1  0.52926000  0.28116000  0.15292000  1.0
  C  C169  1  0.19593000  0.15293000  0.56592000  1.0
  C  C170  1  0.86259000  0.56592000  0.28115000  1.0
  C  C171  1  0.36259000  0.43408000  0.71885000  1.0
  C  C172  1  0.02926000  0.71884000  0.84708000  1.0
  C  C173  1  0.69592000  0.84708000  0.43408000  1.0
  C  C174  1  0.44351000  0.61715000  0.48162000  1.0
  C  C175  1  0.61017000  0.51838000  0.09877000  1.0
  C  C176  1  0.77684000  0.90123000  0.61715000  1.0
  C  C177  1  0.94351000  0.38285000  0.51838000  1.0
  C  C178  1  0.11017000  0.48162000  0.90123000  1.0
  C  C179  1  0.27684000  0.09877000  0.38285000  1.0
  C  C180  1  0.55650000  0.38285000  0.09877000  1.0
  C  C181  1  0.22317000  0.09876000  0.51839000  1.0
  C  C182  1  0.88983000  0.51838000  0.38285000  1.0
  C  C183  1  0.38983000  0.48162000  0.61715000  1.0
  C  C184  1  0.05650000  0.61715000  0.90123000  1.0
  C  C185  1  0.72317000  0.90124000  0.48161000  1.0
  C  C186  1  0.44360000  0.56767000  0.43250000  1.0
  C  C187  1  0.61026000  0.56750000  0.00017000  1.0
  C  C188  1  0.77693000  0.99983000  0.56767000  1.0
  C  C189  1  0.94360000  0.43233000  0.56750000  1.0
  C  C190  1  0.11026000  0.43250000  0.99983000  1.0
  C  C191  1  0.27693000  0.00017000  0.43233000  1.0
  C  C192  1  0.55640000  0.43233000  0.00017000  1.0
  C  C193  1  0.22307000  0.00017000  0.56750000  1.0
  C  C194  1  0.88974000  0.56750000  0.43233000  1.0
  C  C195  1  0.38974000  0.43251000  0.56766000  1.0
  C  C196  1  0.05640000  0.56767000  0.99983000  1.0
  C  C197  1  0.72307000  0.99983000  0.43250000  1.0
  N  N198  1  0.41667000  0.57302000  0.57302000  1.0
  N  N199  1  0.58334000  0.42698000  0.14604000  1.0
  N  N200  1  0.75000000  0.85396000  0.57302000  1.0
  N  N201  1  0.91667000  0.42698000  0.42698000  1.0
  N  N202  1  0.08334000  0.57302000  0.85396000  1.0
  N  N203  1  0.25000000  0.14604000  0.42698000  1.0
  N  N204  1  0.41667000  0.47638000  0.47637000  1.0
  N  N205  1  0.58333000  0.52363000  0.95274000  1.0
  N  N206  1  0.75000000  0.04726000  0.47637000  1.0
  N  N207  1  0.91667000  0.52363000  0.52362000  1.0
  N  N208  1  0.08333000  0.47637000  0.04726000  1.0
  N  N209  1  0.25000000  0.95275000  0.52362000  1.0
  N  N210  1  0.33333333  0.82634000  1.00000000  1.0
  N  N211  1  0.50000000  0.00000000  0.82634000  1.0
  N  N212  1  0.66666667  0.17366000  0.82633000  1.0
  N  N213  1  0.83333000  0.17366000  0.00001000  1.0
  N  N214  1  0.00000000  0.00000000  0.17366000  1.0
  N  N215  1  0.16666000  0.82634000  0.17366000  1.0
  O  O216  1  0.31124000  0.40393000  0.18696000  1.0
  O  O217  1  0.47790000  0.81304000  0.59089000  1.0
  O  O218  1  0.64457000  0.40911000  0.40392000  1.0
  O  O219  1  0.81124000  0.59608000  0.81303000  1.0
  O  O220  1  0.97790000  0.18696000  0.40911000  1.0
  O  O221  1  0.14457000  0.59089000  0.59607000  1.0
  O  O222  1  0.68877000  0.59607000  0.59089000  1.0
  O  O223  1  0.35543000  0.59090000  0.81303000  1.0
  O  O224  1  0.02210000  0.81303000  0.59608000  1.0
  O  O225  1  0.52209000  0.18697000  0.40393000  1.0
  O  O226  1  0.18876000  0.40392000  0.40911000  1.0
  O  O227  1  0.85543000  0.40911000  0.18697000  1.0
  O  O228  1  0.38294000  0.49238000  0.24393000  1.0
  O  O229  1  0.54961000  0.75607000  0.73631000  1.0
  O  O230  1  0.71627000  0.26369000  0.49238000  1.0
  O  O231  1  0.88294000  0.50762000  0.75607000  1.0
  O  O232  1  0.04959000  0.24392000  0.26369000  1.0
  O  O233  1  0.21627000  0.73631000  0.50762000  1.0
  O  O234  1  0.61708000  0.50762000  0.73631000  1.0
  O  O235  1  0.28374000  0.73631000  0.75607000  1.0
  O  O236  1  0.95040000  0.75606000  0.50763000  1.0
  O  O237  1  0.45041000  0.24393000  0.49239000  1.0
  O  O238  1  0.11708000  0.49238000  0.26369000  1.0
  O  O239  1  0.78374000  0.26369000  0.24393000  1.0
  O  O240  1  0.36808000  0.82533000  0.07090000  1.0
  O  O241  1  0.53476000  0.92907000  0.89625000  1.0
  O  O242  1  0.70142000  0.10377000  0.82533000  1.0
  O  O243  1  0.86808000  0.17468000  0.92908000  1.0
  O  O244  1  0.03474000  0.07088000  0.10378000  1.0
  O  O245  1  0.20141000  0.89624000  0.17468000  1.0
  O  O246  1  0.63191000  0.17468000  0.89623000  1.0
  O  O247  1  0.29858000  0.89624000  0.92909000  1.0
  O  O248  1  0.96523000  0.92907000  0.17468000  1.0
  O  O249  1  0.46525000  0.07088000  0.82535000  1.0
  O  O250  1  0.13191000  0.82533000  0.10378000  1.0
  O  O251  1  0.79858000  0.10378000  0.07089000  1.0
