# generated using pymatgen
data_PrCrH26C42N12O
_symmetry_space_group_name_H-M   'P 1'
_cell_length_a   10.91030000
_cell_length_b   13.13070000
_cell_length_c   16.38170000
_cell_angle_alpha   72.62830000
_cell_angle_beta   82.12360000
_cell_angle_gamma   70.70700000
_symmetry_Int_Tables_number   1
_chemical_formula_structural   PrCrH26C42N12O
_chemical_formula_sum   'Pr2 Cr2 H52 C84 N24 O2'
_cell_volume   2112.09139540
_cell_formula_units_Z   2
loop_
 _symmetry_equiv_pos_site_id
 _symmetry_equiv_pos_as_xyz
  1  'x, y, z'
loop_
 _atom_site_type_symbol
 _atom_site_label
 _atom_site_symmetry_multiplicity
 _atom_site_fract_x
 _atom_site_fract_y
 _atom_site_fract_z
 _atom_site_occupancy
  Pr  Pr0  1  0.99312000  0.31132000  0.25777000  1.0
  Pr  Pr1  1  0.00708000  0.68862000  0.74219000  1.0
  Cr  Cr2  1  0.52826000  0.23682000  0.22706000  1.0
  Cr  Cr3  1  0.47268000  0.76282000  0.77256000  1.0
  H  H4  1  0.20750000  0.48149000  0.22237000  1.0
  H  H5  1  0.79295000  0.51817000  0.77752000  1.0
  H  H6  1  0.20740000  0.67869000  0.16892000  1.0
  H  H7  1  0.79285000  0.32100000  0.83127000  1.0
  H  H8  1  0.02343000  0.82065000  0.07888000  1.0
  H  H9  1  0.97679000  0.17916000  0.92140000  1.0
  H  H10  1  0.81751000  0.85901000  0.00619000  1.0
  H  H11  1  0.18272000  0.14094000  0.99403000  1.0
  H  H12  1  0.66923000  0.78393000  0.95448000  1.0
  H  H13  1  0.33073000  0.21614000  0.04583000  1.0
  H  H14  1  0.60929000  0.62152000  0.94511000  1.0
  H  H15  1  0.39031000  0.37876000  0.05533000  1.0
  H  H16  1  0.65366000  0.41257000  0.98620000  1.0
  H  H17  1  0.34611000  0.58765000  0.01394000  1.0
  H  H18  1  0.82359000  0.29315000  0.08831000  1.0
  H  H19  1  0.17655000  0.70688000  0.91156000  1.0
  H  H20  1  0.22365000  0.29533000  0.39141000  1.0
  H  H21  1  0.77620000  0.70474000  0.60873000  1.0
  H  H22  1  0.30007000  0.40804000  0.45594000  1.0
  H  H23  1  0.69978000  0.59223000  0.54403000  1.0
  H  H24  1  0.15373000  0.60322000  0.45782000  1.0
  H  H25  1  0.84612000  0.39706000  0.54201000  1.0
  H  H26  1  0.94213000  0.75040000  0.42241000  1.0
  H  H27  1  0.05769000  0.24984000  0.57734000  1.0
  H  H28  1  0.73024000  0.82212000  0.35139000  1.0
  H  H29  1  0.26956000  0.17800000  0.64834000  1.0
  H  H30  1  0.58046000  0.79607000  0.26731000  1.0
  H  H31  1  0.41940000  0.20386000  0.73260000  1.0
  H  H32  1  0.52134000  0.66549000  0.20048000  1.0
  H  H33  1  0.47857000  0.33430000  0.79949000  1.0
  H  H34  1  0.67329000  0.47727000  0.21106000  1.0
  H  H35  1  0.32669000  0.52262000  0.78890000  1.0
  H  H36  1  0.28988000  0.08802000  0.30859000  1.0
  H  H37  1  0.71014000  0.91181000  0.69162000  1.0
  H  H38  1  0.43074000  0.96033000  0.42689000  1.0
  H  H39  1  0.56905000  0.03945000  0.57342000  1.0
  H  H40  1  0.33833000  0.93642000  0.57824000  1.0
  H  H41  1  0.66120000  0.06340000  0.42200000  1.0
  H  H42  1  0.14611000  0.97479000  0.67560000  1.0
  H  H43  1  0.85319000  0.02524000  0.32453000  1.0
  H  H44  1  0.90968000  0.06690000  0.69860000  1.0
  H  H45  1  0.08967000  0.93339000  0.30135000  1.0
  H  H46  1  0.69944000  0.19736000  0.63939000  1.0
  H  H47  1  0.30008000  0.80312000  0.36039000  1.0
  H  H48  1  0.57284000  0.32537000  0.51018000  1.0
  H  H49  1  0.42694000  0.67513000  0.48950000  1.0
  H  H50  1  0.68896000  0.35746000  0.36873000  1.0
  H  H51  1  0.31104000  0.64269000  0.63098000  1.0
  H  H52  1  0.10814000  0.17911000  0.12088000  1.0
  H  H53  1  0.89162000  0.82085000  0.87889000  1.0
  H  H54  1  0.98410000  0.14667000  0.16630000  1.0
  H  H55  1  0.01603000  0.85310000  0.83414000  1.0
  C  C56  1  0.34085000  0.25976000  0.21383000  1.0
  C  C57  1  0.65986000  0.73946000  0.78625000  1.0
  C  C58  1  0.70893000  0.22929000  0.24364000  1.0
  C  C59  1  0.29198000  0.76989000  0.75619000  1.0
  C  C60  1  0.59216000  0.21792000  0.10921000  1.0
  C  C61  1  0.40843000  0.78239000  0.88990000  1.0
  C  C62  1  0.55625000  0.07058000  0.26810000  1.0
  C  C63  1  0.44415000  0.92956000  0.73228000  1.0
  C  C64  1  0.48563000  0.24178000  0.35013000  1.0
  C  C65  1  0.51435000  0.75899000  0.64955000  1.0
  C  C66  1  0.47993000  0.40568000  0.19172000  1.0
  C  C67  1  0.52068000  0.59355000  0.80859000  1.0
  C  C68  1  0.13115000  0.54276000  0.18104000  1.0
  C  C69  1  0.86920000  0.45694000  0.81895000  1.0
  C  C70  1  0.12944000  0.65532000  0.15184000  1.0
  C  C71  1  0.87081000  0.34441000  0.84830000  1.0
  C  C72  1  0.02995000  0.73201000  0.10120000  1.0
  C  C73  1  0.97029000  0.26779000  0.89898000  1.0
  C  C74  1  0.93781000  0.69456000  0.07543000  1.0
  C  C75  1  0.06242000  0.30532000  0.92468000  1.0
  C  C76  1  0.83270000  0.76882000  0.02196000  1.0
  C  C77  1  0.16749000  0.23114000  0.97821000  1.0
  C  C78  1  0.75045000  0.72808000  0.99420000  1.0
  C  C79  1  0.24961000  0.27196000  0.00601000  1.0
  C  C80  1  0.76777000  0.61006000  0.01745000  1.0
  C  C81  1  0.23225000  0.38998000  0.98272000  1.0
  C  C82  1  0.68761000  0.56543000  0.98692000  1.0
  C  C83  1  0.31220000  0.43473000  0.01332000  1.0
  C  C84  1  0.71058000  0.45102000  0.01010000  1.0
  C  C85  1  0.28929000  0.54913000  0.99002000  1.0
  C  C86  1  0.80879000  0.38307000  0.06738000  1.0
  C  C87  1  0.19126000  0.61698000  0.93259000  1.0
  C  C88  1  0.86646000  0.53452000  0.07407000  1.0
  C  C89  1  0.13369000  0.46544000  0.92596000  1.0
  C  C90  1  0.95170000  0.57789000  0.10448000  1.0
  C  C91  1  0.04854000  0.42199000  0.89555000  1.0
  C  C92  1  0.16057000  0.37877000  0.39270000  1.0
  C  C93  1  0.83931000  0.62134000  0.60735000  1.0
  C  C94  1  0.20412000  0.44404000  0.42934000  1.0
  C  C95  1  0.79574000  0.55615000  0.57064000  1.0
  C  C96  1  0.12397000  0.54999000  0.42972000  1.0
  C  C97  1  0.87589000  0.45023000  0.57018000  1.0
  C  C98  1  0.00108000  0.59064000  0.39313000  1.0
  C  C99  1  0.99880000  0.40952000  0.60675000  1.0
  C  C100  1  0.91353000  0.69933000  0.39183000  1.0
  C  C101  1  0.08631000  0.30085000  0.60797000  1.0
  C  C102  1  0.79725000  0.73866000  0.35358000  1.0
  C  C103  1  0.20262000  0.26146000  0.64620000  1.0
  C  C104  1  0.75991000  0.67065000  0.31385000  1.0
  C  C105  1  0.24003000  0.32938000  0.68597000  1.0
  C  C106  1  0.64210000  0.71036000  0.27084000  1.0
  C  C107  1  0.35781000  0.28958000  0.72903000  1.0
  C  C108  1  0.61039000  0.64061000  0.23431000  1.0
  C  C109  1  0.38954000  0.35927000  0.76561000  1.0
  C  C110  1  0.69759000  0.53282000  0.23972000  1.0
  C  C111  1  0.30242000  0.46710000  0.76019000  1.0
  C  C112  1  0.84276000  0.56059000  0.31581000  1.0
  C  C113  1  0.15722000  0.43944000  0.68406000  1.0
  C  C114  1  0.96540000  0.51952000  0.35659000  1.0
  C  C115  1  0.03453000  0.48057000  0.64332000  1.0
  C  C116  1  0.25054000  0.07740000  0.37418000  1.0
  C  C117  1  0.74939000  0.92249000  0.62600000  1.0
  C  C118  1  0.33041000  0.00466000  0.44159000  1.0
  C  C119  1  0.66939000  0.99522000  0.55866000  1.0
  C  C120  1  0.27914000  0.99165000  0.52437000  1.0
  C  C121  1  0.72049000  0.00826000  0.47584000  1.0
  C  C122  1  0.14699000  0.04864000  0.53859000  1.0
  C  C123  1  0.85264000  0.95135000  0.46153000  1.0
  C  C124  1  0.08630000  0.03146000  0.62253000  1.0
  C  C125  1  0.91315000  0.96860000  0.37754000  1.0
  C  C126  1  0.95698000  0.08259000  0.63496000  1.0
  C  C127  1  0.04247000  0.91762000  0.36501000  1.0
  C  C128  1  0.88028000  0.15850000  0.56480000  1.0
  C  C129  1  0.11933000  0.84176000  0.43512000  1.0
  C  C130  1  0.74655000  0.21375000  0.57572000  1.0
  C  C131  1  0.25307000  0.78664000  0.42408000  1.0
  C  C132  1  0.67715000  0.28538000  0.50557000  1.0
  C  C133  1  0.32261000  0.71500000  0.49416000  1.0
  C  C134  1  0.74276000  0.30299000  0.42504000  1.0
  C  C135  1  0.25713000  0.69720000  0.57472000  1.0
  C  C136  1  0.93861000  0.18124000  0.48057000  1.0
  C  C137  1  0.06116000  0.81892000  0.51939000  1.0
  C  C138  1  0.07381000  0.12260000  0.46672000  1.0
  C  C139  1  0.92597000  0.87745000  0.53334000  1.0
  N  N140  1  0.22861000  0.27492000  0.21222000  1.0
  N  N141  1  0.77197000  0.72464000  0.78829000  1.0
  N  N142  1  0.81361000  0.23286000  0.24998000  1.0
  N  N143  1  0.18721000  0.76646000  0.74999000  1.0
  N  N144  1  0.63630000  0.20493000  0.04190000  1.0
  N  N145  1  0.36401000  0.79532000  0.95722000  1.0
  N  N146  1  0.56521000  0.97455000  0.29229000  1.0
  N  N147  1  0.43487000  0.02562000  0.70841000  1.0
  N  N148  1  0.46191000  0.24382000  0.42205000  1.0
  N  N149  1  0.53781000  0.75692000  0.57758000  1.0
  N  N150  1  0.44715000  0.50439000  0.17365000  1.0
  N  N151  1  0.55301000  0.49490000  0.82681000  1.0
  N  N152  1  0.04372000  0.50491000  0.16018000  1.0
  N  N153  1  0.95659000  0.49487000  0.83977000  1.0
  N  N154  1  0.88331000  0.42195000  0.10098000  1.0
  N  N155  1  0.11686000  0.57801000  0.89896000  1.0
  N  N156  1  0.04561000  0.41450000  0.35714000  1.0
  N  N157  1  0.95432000  0.58556000  0.64287000  1.0
  N  N158  1  0.81096000  0.49377000  0.27790000  1.0
  N  N159  1  0.18908000  0.50620000  0.72198000  1.0
  N  N160  1  0.12693000  0.13782000  0.38515000  1.0
  N  N161  1  0.87300000  0.86216000  0.61495000  1.0
  N  N162  1  0.86959000  0.25494000  0.41235000  1.0
  N  N163  1  0.13031000  0.74517000  0.58753000  1.0
  O  O164  1  0.06517000  0.15592000  0.17685000  1.0
  O  O165  1  0.93512000  0.84402000  0.82312000  1.0
