# generated using pymatgen
data_Al2H3C19SCl2O13
_symmetry_space_group_name_H-M   'P 1'
_cell_length_a   6.79948000
_cell_length_b   19.34270000
_cell_length_c   21.35180000
_cell_angle_alpha   86.91130000
_cell_angle_beta   85.88820000
_cell_angle_gamma   86.09700000
_symmetry_Int_Tables_number   1
_chemical_formula_structural   Al2H3C19SCl2O13
_chemical_formula_sum   'Al4 H6 C38 S2 Cl4 O26'
_cell_volume   2791.08072858
_cell_formula_units_Z   2
loop_
 _symmetry_equiv_pos_site_id
 _symmetry_equiv_pos_as_xyz
  1  'x, y, z'
loop_
 _atom_site_type_symbol
 _atom_site_label
 _atom_site_symmetry_multiplicity
 _atom_site_fract_x
 _atom_site_fract_y
 _atom_site_fract_z
 _atom_site_occupancy
  Al  Al0  1  0.79341000  0.26357000  0.26000000  1.0
  Al  Al1  1  0.21255000  0.73618000  0.73891000  1.0
  Al  Al2  1  0.29351000  0.26296000  0.26134000  1.0
  Al  Al3  1  0.71219000  0.73707000  0.73781000  1.0
  H  H4  1  0.57117000  0.00390000  0.91669000  1.0
  H  H5  1  0.56892000  0.16325000  0.01737000  1.0
  H  H6  1  0.56370000  0.17393000  0.24912000  1.0
  H  H7  1  0.44073000  0.82370000  0.75646000  1.0
  H  H8  1  0.02680000  0.35455000  0.26131000  1.0
  H  H9  1  0.97682000  0.64522000  0.74369000  1.0
  C  C10  1  0.54558000  0.34815000  0.17365000  1.0
  C  C11  1  0.46119000  0.65124000  0.82516000  1.0
  C  C12  1  0.51027000  0.34339000  0.34335000  1.0
  C  C13  1  0.49554000  0.65708000  0.65534000  1.0
  C  C14  1  0.03887000  0.17628000  0.34520000  1.0
  C  C15  1  0.96585000  0.82350000  0.65391000  1.0
  C  C16  1  0.07884000  0.18327000  0.17773000  1.0
  C  C17  1  0.92834000  0.81642000  0.82147000  1.0
  C  C18  1  0.90240000  0.03556000  0.95529000  1.0
  C  C19  1  0.11765000  0.96387000  0.04357000  1.0
  C  C20  1  0.11868000  0.04963000  0.96935000  1.0
  C  C21  1  0.89954000  0.94979000  0.02921000  1.0
  C  C22  1  0.09413000  0.13525000  0.12786000  1.0
  C  C23  1  0.91581000  0.86433000  0.87140000  1.0
  C  C24  1  0.84272000  0.03003000  0.02762000  1.0
  C  C25  1  0.17585000  0.96965000  0.97079000  1.0
  C  C26  1  0.05939000  0.04523000  0.04262000  1.0
  C  C27  1  0.95871000  0.95453000  0.95595000  1.0
  C  C28  1  0.09218000  0.09320000  0.08772000  1.0
  C  C29  1  0.92436000  0.90653000  0.91102000  1.0
  C  C30  1  0.97126000  0.87669000  0.60408000  1.0
  C  C31  1  0.03346000  0.12334000  0.39520000  1.0
  C  C32  1  0.98272000  0.92399000  0.56363000  1.0
  C  C33  1  0.02224000  0.07607000  0.43569000  1.0
  C  C34  1  0.99595000  0.97599000  0.51972000  1.0
  C  C35  1  0.00923000  0.02411000  0.47964000  1.0
  C  C36  1  0.54195000  0.39486000  0.11878000  1.0
  C  C37  1  0.46432000  0.60469000  0.88017000  1.0
  C  C38  1  0.52820000  0.43522000  0.07273000  1.0
  C  C39  1  0.47755000  0.56458000  0.92640000  1.0
  C  C40  1  0.51145000  0.47951000  0.02259000  1.0
  C  C41  1  0.49402000  0.52042000  0.97664000  1.0
  C  C42  1  0.49666000  0.39119000  0.39308000  1.0
  C  C43  1  0.50952000  0.60896000  0.60581000  1.0
  C  C44  1  0.49749000  0.43292000  0.43432000  1.0
  C  C45  1  0.50815000  0.56692000  0.56487000  1.0
  C  C46  1  0.50015000  0.47866000  0.47921000  1.0
  C  C47  1  0.50508000  0.52094000  0.52021000  1.0
  S  S48  1  0.36588000  0.92551000  0.92456000  1.0
  S  S49  1  0.63432000  0.06872000  0.06950000  1.0
  Cl  Cl50  1  0.24439000  0.11456000  0.92895000  1.0
  Cl  Cl51  1  0.76786000  0.88601000  0.06705000  1.0
  Cl  Cl52  1  0.77901000  0.08416000  0.89773000  1.0
  Cl  Cl53  1  0.24131000  0.91781000  0.10065000  1.0
  O  O54  1  0.34908000  0.32428000  0.32516000  1.0
  O  O55  1  0.65637000  0.67583000  0.67399000  1.0
  O  O56  1  0.71424000  0.32996000  0.19375000  1.0
  O  O57  1  0.29294000  0.66858000  0.80439000  1.0
  O  O58  1  0.90306000  0.20172000  0.19740000  1.0
  O  O59  1  0.10389000  0.79718000  0.80212000  1.0
  O  O60  1  0.68527000  0.32581000  0.32196000  1.0
  O  O61  1  0.32032000  0.67517000  0.67609000  1.0
  O  O62  1  0.87212000  0.19705000  0.32499000  1.0
  O  O63  1  0.13226000  0.80301000  0.67443000  1.0
  O  O64  1  0.37699000  0.33058000  0.19664000  1.0
  O  O65  1  0.62990000  0.66924000  0.80263000  1.0
  O  O66  1  0.55159000  0.22212000  0.26018000  1.0
  O  O67  1  0.45389000  0.77787000  0.73954000  1.0
  O  O68  1  0.20852000  0.19590000  0.32554000  1.0
  O  O69  1  0.79631000  0.80357000  0.67319000  1.0
  O  O70  1  0.23933000  0.20120000  0.19726000  1.0
  O  O71  1  0.76743000  0.79965000  0.80139000  1.0
  O  O72  1  0.03614000  0.30444000  0.25984000  1.0
  O  O73  1  0.96951000  0.69543000  0.73921000  1.0
  O  O74  1  0.38273000  0.85491000  0.94782000  1.0
  O  O75  1  0.33532000  0.94574000  0.85998000  1.0
  O  O76  1  0.55379000  0.96134000  0.94379000  1.0
  O  O77  1  0.46279000  0.04816000  0.04181000  1.0
  O  O78  1  0.66172000  0.05830000  0.13505000  1.0
  O  O79  1  0.65807000  0.14958000  0.05070000  1.0
