# generated using pymatgen
data_NiH18C20N2(O3F2)2
_symmetry_space_group_name_H-M   'P 1'
_cell_length_a   7.73360000
_cell_length_b   8.89970037
_cell_length_c   8.99425000
_cell_angle_alpha   69.25761667
_cell_angle_beta   78.06500000
_cell_angle_gamma   64.30742781
_symmetry_Int_Tables_number   1
_chemical_formula_structural   NiH18C20N2(O3F2)2
_chemical_formula_sum   'Ni1 H18 C20 N2 O6 F4'
_cell_volume   520.64104481
_cell_formula_units_Z   1
loop_
 _symmetry_equiv_pos_site_id
 _symmetry_equiv_pos_as_xyz
  1  'x, y, z'
loop_
 _atom_site_type_symbol
 _atom_site_label
 _atom_site_symmetry_multiplicity
 _atom_site_fract_x
 _atom_site_fract_y
 _atom_site_fract_z
 _atom_site_occupancy
  Ni  Ni0  1  0.00000000  0.00000000  0.00000000  1.0
  H  H1  1  0.84565000  0.83533000  0.23571000  1.0
  H  H2  1  0.15436000  0.16466000  0.76430000  1.0
  H  H3  1  0.81962000  0.94872000  0.77832000  1.0
  H  H4  1  0.18038000  0.05128000  0.22168000  1.0
  H  H5  1  0.86922000  0.71540000  0.66159000  1.0
  H  H6  1  0.13077000  0.28462000  0.33840000  1.0
  H  H7  1  0.14834000  0.42803000  0.74156000  1.0
  H  H8  1  0.85166000  0.57198000  0.25843000  1.0
  H  H9  1  0.37824000  0.39366000  0.92445000  1.0
  H  H10  1  0.62175000  0.60635000  0.07554000  1.0
  H  H11  1  0.31580000  0.64525000  0.02055000  1.0
  H  H12  1  0.68420000  0.35475000  0.97945000  1.0
  H  H13  1  0.59787000  0.09024000  0.26376000  1.0
  H  H14  1  0.40214000  0.90976000  0.73624000  1.0
  H  H15  1  0.48953000  0.96095000  0.23588000  1.0
  H  H16  1  0.51048000  0.03906000  0.76413000  1.0
  H  H17  1  0.52573000  0.13127000  0.07148000  1.0
  H  H18  1  0.47428000  0.86873000  0.92852000  1.0
  C  C19  1  0.16170000  0.72507000  0.30935000  1.0
  C  C20  1  0.83827000  0.27492000  0.69067000  1.0
  C  C21  1  0.33527000  0.60955000  0.40919000  1.0
  C  C22  1  0.66473000  0.39044000  0.59081000  1.0
  C  C23  1  0.40562000  0.67368000  0.49323000  1.0
  C  C24  1  0.59439000  0.32631000  0.50677000  1.0
  C  C25  1  0.43344000  0.43370000  0.41821000  1.0
  C  C26  1  0.56656000  0.56630000  0.58179000  1.0
  C  C27  1  0.94248000  0.82451000  0.80571000  1.0
  C  C28  1  0.05752000  0.17550000  0.19428000  1.0
  C  C29  1  0.96933000  0.69293000  0.74358000  1.0
  C  C30  1  0.03067000  0.30708000  0.25641000  1.0
  C  C31  1  0.12621000  0.53401000  0.78657000  1.0
  C  C32  1  0.87379000  0.46600000  0.21342000  1.0
  C  C33  1  0.25325000  0.51520000  0.88779000  1.0
  C  C34  1  0.74675000  0.48480000  0.11220000  1.0
  C  C35  1  0.21988000  0.65438000  0.94191000  1.0
  C  C36  1  0.78012000  0.34562000  0.05809000  1.0
  C  C37  1  0.58661000  0.02952000  0.18093000  1.0
  C  C38  1  0.41340000  0.97048000  0.81908000  1.0
  N  N39  1  0.06572000  0.80713000  0.90314000  1.0
  N  N40  1  0.93428000  0.19287000  0.09686000  1.0
  O  O41  1  0.19934000  0.82207000  0.17453000  1.0
  O  O42  1  0.80066000  0.17793000  0.82548000  1.0
  O  O43  1  0.00379000  0.71367000  0.36575000  1.0
  O  O44  1  0.99622000  0.28631000  0.63425000  1.0
  O  O45  1  0.77024000  0.91093000  0.13755000  1.0
  O  O46  1  0.22976000  0.08907000  0.86246000  1.0
  F  F47  1  0.37523000  0.36587000  0.33371000  1.0
  F  F48  1  0.62477000  0.63412000  0.66629000  1.0
  F  F49  1  0.31254000  0.84282000  0.49398000  1.0
  F  F50  1  0.68746000  0.15718000  0.50601000  1.0
