# generated using pymatgen
data_Zn4H24C42N6O13
_symmetry_space_group_name_H-M   'P 1'
_cell_length_a   26.60720000
_cell_length_b   27.08700000
_cell_length_c   27.27274190
_cell_angle_alpha   61.62552839
_cell_angle_beta   60.98629734
_cell_angle_gamma   60.83480000
_symmetry_Int_Tables_number   1
_chemical_formula_structural   Zn4H24C42N6O13
_chemical_formula_sum   'Zn8 H48 C84 N12 O26'
_cell_volume   14256.51606981
_cell_formula_units_Z   2
loop_
 _symmetry_equiv_pos_site_id
 _symmetry_equiv_pos_as_xyz
  1  'x, y, z'
loop_
 _atom_site_type_symbol
 _atom_site_label
 _atom_site_symmetry_multiplicity
 _atom_site_fract_x
 _atom_site_fract_y
 _atom_site_fract_z
 _atom_site_occupancy
  Zn  Zn0  1  0.98131000  0.94633000  0.10658000  1.0
  Zn  Zn1  1  0.10013000  0.94652000  0.98668000  1.0
  Zn  Zn2  1  0.97912000  0.06133000  0.99015000  1.0
  Zn  Zn3  1  0.97831000  0.94555000  0.99133000  1.0
  Zn  Zn4  1  0.53851000  0.50290000  0.43129000  1.0
  Zn  Zn5  1  0.41983000  0.50341000  0.55071000  1.0
  Zn  Zn6  1  0.54139000  0.50550000  0.54609000  1.0
  Zn  Zn7  1  0.54135000  0.38897000  0.54863000  1.0
  H  H8  1  0.07791000  0.85040000  0.22589000  1.0
  H  H9  1  0.14776000  0.78454000  0.28661000  1.0
  H  H10  1  0.37255000  0.66506000  0.25059000  1.0
  H  H11  1  0.44208000  0.59828000  0.31157000  1.0
  H  H12  1  0.29118000  0.62792000  0.46801000  1.0
  H  H13  1  0.22177000  0.69614000  0.40662000  1.0
  H  H14  1  0.29912000  0.75641000  0.12995000  1.0
  H  H15  1  0.22939000  0.82382000  0.06883000  1.0
  H  H16  1  0.85830000  0.04243000  0.22903000  1.0
  H  H17  1  0.79340000  0.11287000  0.28911000  1.0
  H  H18  1  0.73179000  0.33338000  0.25217000  1.0
  H  H19  1  0.66633000  0.40457000  0.31144000  1.0
  H  H20  1  0.61830000  0.26197000  0.46647000  1.0
  H  H21  1  0.68206000  0.19112000  0.40650000  1.0
  H  H22  1  0.83795000  0.25700000  0.13423000  1.0
  H  H23  1  0.90105000  0.18687000  0.07351000  1.0
  H  H24  1  0.88338000  0.82583000  0.22821000  1.0
  H  H25  1  0.81931000  0.75926000  0.28646000  1.0
  H  H26  1  0.69858000  0.69161000  0.24820000  1.0
  H  H27  1  0.63554000  0.62400000  0.30742000  1.0
  H  H28  1  0.66982000  0.58582000  0.46257000  1.0
  H  H29  1  0.73404000  0.65266000  0.40289000  1.0
  H  H30  1  0.78031000  0.80416000  0.13192000  1.0
  H  H31  1  0.84548000  0.87003000  0.07319000  1.0
  H  H32  1  0.22499000  0.04301000  0.89222000  1.0
  H  H33  1  0.28347000  0.11467000  0.82886000  1.0
  H  H34  1  0.23695000  0.33495000  0.71412000  1.0
  H  H35  1  0.29513000  0.40685000  0.64970000  1.0
  H  H36  1  0.45984000  0.26590000  0.67661000  1.0
  H  H37  1  0.40121000  0.19415000  0.74233000  1.0
  H  H38  1  0.12087000  0.25514000  0.79619000  1.0
  H  H39  1  0.06178000  0.18373000  0.86110000  1.0
  H  H40  1  0.22141000  0.84778000  0.86775000  1.0
  H  H41  1  0.28054000  0.78375000  0.80130000  1.0
  H  H42  1  0.23736000  0.66768000  0.73455000  1.0
  H  H43  1  0.29757000  0.60221000  0.66941000  1.0
  H  H44  1  0.45980000  0.63308000  0.62764000  1.0
  H  H45  1  0.39914000  0.69976000  0.69193000  1.0
  H  H46  1  0.11721000  0.75578000  0.84141000  1.0
  H  H47  1  0.05769000  0.82082000  0.90724000  1.0
  H  H48  1  0.85533000  0.18351000  0.89787000  1.0
  H  H49  1  0.79120000  0.24444000  0.83131000  1.0
  H  H50  1  0.72588000  0.20712000  0.71033000  1.0
  H  H51  1  0.66237000  0.26786000  0.64323000  1.0
  H  H52  1  0.62812000  0.42682000  0.67035000  1.0
  H  H53  1  0.69128000  0.36574000  0.73817000  1.0
  H  H54  1  0.83166000  0.08725000  0.79735000  1.0
  H  H55  1  0.89545000  0.02602000  0.86460000  1.0
  C  C56  1  0.10842000  0.88103000  0.10764000  1.0
  C  C57  1  0.14979000  0.84108000  0.14385000  1.0
  C  C58  1  0.12651000  0.82981000  0.20538000  1.0
  C  C59  1  0.16486000  0.79343000  0.23902000  1.0
  C  C60  1  0.22746000  0.76711000  0.21137000  1.0
  C  C61  1  0.29316000  0.68403000  0.32550000  1.0
  C  C62  1  0.35552000  0.65665000  0.29809000  1.0
  C  C63  1  0.39371000  0.61977000  0.33188000  1.0
  C  C64  1  0.37050000  0.60905000  0.39332000  1.0
  C  C65  1  0.30844000  0.63648000  0.42047000  1.0
  C  C66  1  0.27011000  0.67403000  0.38669000  1.0
  C  C67  1  0.41164000  0.56842000  0.42971000  1.0
  C  C68  1  0.25060000  0.77772000  0.15007000  1.0
  C  C69  1  0.21210000  0.81480000  0.11644000  1.0
  C  C70  1  0.92033000  0.06971000  0.11125000  1.0
  C  C71  1  0.88310000  0.11078000  0.14774000  1.0
  C  C72  1  0.85320000  0.08958000  0.20870000  1.0
  C  C73  1  0.81745000  0.12828000  0.24202000  1.0
  C  C74  1  0.81186000  0.18899000  0.21467000  1.0
  C  C75  1  0.71070000  0.25819000  0.32634000  1.0
  C  C76  1  0.70647000  0.31856000  0.29896000  1.0
  C  C77  1  0.67039000  0.35767000  0.33182000  1.0
  C  C78  1  0.63878000  0.33719000  0.39241000  1.0
  C  C79  1  0.64310000  0.27707000  0.41956000  1.0
  C  C80  1  0.67840000  0.23793000  0.38659000  1.0
  C  C81  1  0.60095000  0.37879000  0.42834000  1.0
  C  C82  1  0.84263000  0.20994000  0.15408000  1.0
  C  C83  1  0.87757000  0.17120000  0.12070000  1.0
  C  C84  1  0.90794000  0.88936000  0.11176000  1.0
  C  C85  1  0.86813000  0.85156000  0.14734000  1.0
  C  C86  1  0.86060000  0.82069000  0.20764000  1.0
  C  C87  1  0.82530000  0.78399000  0.23991000  1.0
  C  C88  1  0.79653000  0.77806000  0.21211000  1.0
  C  C89  1  0.71947000  0.67586000  0.32263000  1.0
  C  C90  1  0.69201000  0.66799000  0.29501000  1.0
  C  C91  1  0.65726000  0.63072000  0.32782000  1.0
  C  C92  1  0.64904000  0.60125000  0.38840000  1.0
  C  C93  1  0.67667000  0.60901000  0.41567000  1.0
  C  C94  1  0.71194000  0.64588000  0.38289000  1.0
  C  C95  1  0.61007000  0.56262000  0.42453000  1.0
  C  C96  1  0.80333000  0.80945000  0.15215000  1.0
  C  C97  1  0.83916000  0.84580000  0.11987000  1.0
  C  C98  1  0.10398000  0.06801000  0.91986000  1.0
  C  C99  1  0.13992000  0.10944000  0.88053000  1.0
  C  C100  1  0.20263000  0.08961000  0.87116000  1.0
  C  C101  1  0.23508000  0.12900000  0.83616000  1.0
  C  C102  1  0.20503000  0.18901000  0.80940000  1.0
  C  C103  1  0.31624000  0.26042000  0.73131000  1.0
  C  C104  1  0.28564000  0.32061000  0.70560000  1.0
  C  C105  1  0.31788000  0.36013000  0.67006000  1.0
  C  C106  1  0.38093000  0.34030000  0.65917000  1.0
  C  C107  1  0.41112000  0.28046000  0.68529000  1.0
  C  C108  1  0.37889000  0.24086000  0.72144000  1.0
  C  C109  1  0.41658000  0.38190000  0.61909000  1.0
  C  C110  1  0.14272000  0.20858000  0.81787000  1.0
  C  C111  1  0.11027000  0.16916000  0.85353000  1.0
  C  C112  1  0.10049000  0.87712000  0.92943000  1.0
  C  C113  1  0.13615000  0.83803000  0.89106000  1.0
  C  C114  1  0.19911000  0.82753000  0.86147000  1.0
  C  C115  1  0.23186000  0.79226000  0.82484000  1.0
  C  C116  1  0.20181000  0.76663000  0.81759000  1.0
  C  C117  1  0.31529000  0.68696000  0.71690000  1.0
  C  C118  1  0.28593000  0.65981000  0.71072000  1.0
  C  C119  1  0.31927000  0.62371000  0.67484000  1.0
  C  C120  1  0.38213000  0.61385000  0.64506000  1.0
  C  C121  1  0.41116000  0.64119000  0.65106000  1.0
  C  C122  1  0.37783000  0.67782000  0.68654000  1.0
  C  C123  1  0.41845000  0.57379000  0.60764000  1.0
  C  C124  1  0.13913000  0.77650000  0.84761000  1.0
  C  C125  1  0.10641000  0.81224000  0.88395000  1.0
  C  C126  1  0.91617000  0.06507000  0.92488000  1.0
  C  C127  1  0.87879000  0.10137000  0.88496000  1.0
  C  C128  1  0.84968000  0.16303000  0.87564000  1.0
  C  C129  1  0.81439000  0.19671000  0.83903000  1.0
  C  C130  1  0.80805000  0.16882000  0.81095000  1.0
  C  C131  1  0.71206000  0.28349000  0.72754000  1.0
  C  C132  1  0.70417000  0.25514000  0.70109000  1.0
  C  C133  1  0.66921000  0.28872000  0.66418000  1.0
  C  C134  1  0.64194000  0.35075000  0.65293000  1.0
  C  C135  1  0.64970000  0.37882000  0.67948000  1.0
  C  C136  1  0.68445000  0.34529000  0.71678000  1.0
  C  C137  1  0.60475000  0.38671000  0.61280000  1.0
  C  C138  1  0.83737000  0.10737000  0.81991000  1.0
  C  C139  1  0.87248000  0.07375000  0.85687000  1.0
  N  N140  1  0.27081000  0.72917000  0.24099000  1.0
  N  N141  1  0.24989000  0.72222000  0.29581000  1.0
  N  N142  1  0.77678000  0.23265000  0.24377000  1.0
  N  N143  1  0.74578000  0.21434000  0.29744000  1.0
  N  N144  1  0.76002000  0.74164000  0.24038000  1.0
  N  N145  1  0.75562000  0.71261000  0.29409000  1.0
  N  N146  1  0.23294000  0.23329000  0.77308000  1.0
  N  N147  1  0.28848000  0.21602000  0.76774000  1.0
  N  N148  1  0.23046000  0.73001000  0.78154000  1.0
  N  N149  1  0.28632000  0.72400000  0.75255000  1.0
  N  N150  1  0.77334000  0.19853000  0.77287000  1.0
  N  N151  1  0.74678000  0.25388000  0.76561000  1.0
  O  O152  1  0.01071000  0.97427000  0.01987000  1.0
  O  O153  1  0.13385000  0.89453000  0.05163000  1.0
  O  O154  1  0.05127000  0.89839000  0.13561000  1.0
  O  O155  1  0.38611000  0.55515000  0.48571000  1.0
  O  O156  1  0.46875000  0.55028000  0.40191000  1.0
  O  O157  1  0.93890000  0.09415000  0.05538000  1.0
  O  O158  1  0.93043000  0.01400000  0.13839000  1.0
  O  O159  1  0.58251000  0.35479000  0.48430000  1.0
  O  O160  1  0.59018000  0.43446000  0.40066000  1.0
  O  O161  1  0.91574000  0.91204000  0.05649000  1.0
  O  O162  1  0.93133000  0.89585000  0.13875000  1.0
  O  O163  1  0.60191000  0.54115000  0.47986000  1.0
  O  O164  1  0.58784000  0.55426000  0.39790000  1.0
  O  O165  1  0.04633000  0.09164000  0.93102000  1.0
  O  O166  1  0.13315000  0.01280000  0.93939000  1.0
  O  O167  1  0.47425000  0.35861000  0.60785000  1.0
  O  O168  1  0.38720000  0.43691000  0.59900000  1.0
  O  O169  1  0.04329000  0.88553000  0.95338000  1.0
  O  O170  1  0.12953000  0.89921000  0.93510000  1.0
  O  O171  1  0.47579000  0.56468000  0.58487000  1.0
  O  O172  1  0.38973000  0.55173000  0.60152000  1.0
  O  O173  1  0.94032000  0.00923000  0.93201000  1.0
  O  O174  1  0.92117000  0.09234000  0.94892000  1.0
  O  O175  1  0.58188000  0.44285000  0.60398000  1.0
  O  O176  1  0.59862000  0.35876000  0.59033000  1.0
  O  O177  1  0.50930000  0.47593000  0.51804000  1.0
