# generated using pymatgen
data_ZnH10C24N2(ClO3)2
_symmetry_space_group_name_H-M   'P 1'
_cell_length_a   9.24213000
_cell_length_b   10.94530000
_cell_length_c   23.68270000
_cell_angle_alpha   86.01370000
_cell_angle_beta   78.80090000
_cell_angle_gamma   66.47430000
_symmetry_Int_Tables_number   1
_chemical_formula_structural   ZnH10C24N2(ClO3)2
_chemical_formula_sum   'Zn2 H20 C48 N4 Cl4 O12'
_cell_volume   2154.65273175
_cell_formula_units_Z   2
loop_
 _symmetry_equiv_pos_site_id
 _symmetry_equiv_pos_as_xyz
  1  'x, y, z'
loop_
 _atom_site_type_symbol
 _atom_site_label
 _atom_site_symmetry_multiplicity
 _atom_site_fract_x
 _atom_site_fract_y
 _atom_site_fract_z
 _atom_site_occupancy
  Zn  Zn0  1  0.69374000  0.43461000  0.48682000  1.0
  Zn  Zn1  1  0.34455000  0.55595000  0.50964000  1.0
  H  H2  1  0.54791000  0.78038000  0.93186000  1.0
  H  H3  1  0.54959000  0.78169000  0.03865000  1.0
  H  H4  1  0.87962000  0.68719000  0.31865000  1.0
  H  H5  1  0.85191000  0.49610000  0.37712000  1.0
  H  H6  1  0.95421000  0.33593000  0.55779000  1.0
  H  H7  1  0.43056000  0.21088000  0.06842000  1.0
  H  H8  1  0.42970000  0.20949000  0.96156000  1.0
  H  H9  1  0.24572000  0.56078000  0.23634000  1.0
  H  H10  1  0.25978000  0.56323000  0.34078000  1.0
  H  H11  1  0.77292000  0.42300000  0.29824000  1.0
  H  H12  1  0.75939000  0.42659000  0.19353000  1.0
  H  H13  1  0.74074000  0.46656000  0.66105000  1.0
  H  H14  1  0.73812000  0.46977000  0.76693000  1.0
  H  H15  1  0.24926000  0.51062000  0.69530000  1.0
  H  H16  1  0.24556000  0.51238000  0.80134000  1.0
  H  H17  1  0.50837000  0.78394000  0.39619000  1.0
  H  H18  1  0.52859000  0.90221000  0.30410000  1.0
  H  H19  1  0.57094000  0.21713000  0.38988000  1.0
  H  H20  1  0.54891000  0.08556000  0.58848000  1.0
  H  H21  1  0.15558000  0.42676000  0.57653000  1.0
  C  C22  1  0.50292000  0.73416000  0.50218000  1.0
  C  C23  1  0.46998000  0.39020000  0.12753000  1.0
  C  C24  1  0.36051000  0.53257000  0.25018000  1.0
  C  C25  1  0.52280000  0.49765000  0.38832000  1.0
  C  C26  1  0.36835000  0.53367000  0.30820000  1.0
  C  C27  1  0.51653000  0.49568000  0.32567000  1.0
  C  C28  1  0.65773000  0.45546000  0.28432000  1.0
  C  C29  1  0.65048000  0.45608000  0.22614000  1.0
  C  C30  1  0.50187000  0.49478000  0.20945000  1.0
  C  C31  1  0.63194000  0.47733000  0.75099000  1.0
  C  C32  1  0.63338000  0.47561000  0.69220000  1.0
  C  C33  1  0.53152000  0.70168000  0.95980000  1.0
  C  C34  1  0.49569000  0.48695000  0.67208000  1.0
  C  C35  1  0.35582000  0.50076000  0.71154000  1.0
  C  C36  1  0.35361000  0.50242000  0.77040000  1.0
  C  C37  1  0.55937000  0.24554000  0.49708000  1.0
  C  C38  1  0.49184000  0.49059000  0.78977000  1.0
  C  C39  1  0.52204000  0.87848000  0.39535000  1.0
  C  C40  1  0.53327000  0.94382000  0.34387000  1.0
  C  C41  1  0.55055000  0.06678000  0.34249000  1.0
  C  C42  1  0.55644000  0.12285000  0.39192000  1.0
  C  C43  1  0.54499000  0.05715000  0.44537000  1.0
  C  C44  1  0.53242000  0.70243000  0.01903000  1.0
  C  C45  1  0.52793000  0.93235000  0.44740000  1.0
  C  C46  1  0.51604000  0.86649000  0.50117000  1.0
  C  C47  1  0.52443000  0.92212000  0.55045000  1.0
  C  C48  1  0.54274000  0.04442000  0.54883000  1.0
  C  C49  1  0.49781000  0.48557000  0.60875000  1.0
  C  C50  1  0.55119000  0.11118000  0.49753000  1.0
  C  C51  1  0.03447000  0.72236000  0.43322000  1.0
  C  C52  1  0.97882000  0.74877000  0.38127000  1.0
  C  C53  1  0.92105000  0.66275000  0.35961000  1.0
  C  C54  1  0.90830000  0.55623000  0.39109000  1.0
  C  C55  1  0.51207000  0.60109000  0.05406000  1.0
  C  C56  1  0.95935000  0.52894000  0.44476000  1.0
  C  C57  1  0.03758000  0.60421000  0.46348000  1.0
  C  C58  1  0.08994000  0.46262000  0.54109000  1.0
  C  C59  1  0.98713000  0.40579000  0.52854000  1.0
  C  C60  1  0.46729000  0.38671000  0.88376000  1.0
  C  C61  1  0.51084000  0.60026000  0.87267000  1.0
  C  C62  1  0.51031000  0.59950000  0.93540000  1.0
  C  C63  1  0.48859000  0.49546000  0.97020000  1.0
  C  C64  1  0.46681000  0.39033000  0.94632000  1.0
  C  C65  1  0.48925000  0.49630000  0.03029000  1.0
  C  C66  1  0.46778000  0.39201000  0.06501000  1.0
  C  C67  1  0.44624000  0.28999000  0.04058000  1.0
  C  C68  1  0.44585000  0.28914000  0.98132000  1.0
  C  C69  1  0.51547000  0.60292000  0.11636000  1.0
  N  N70  1  0.48989000  0.49255000  0.85080000  1.0
  N  N71  1  0.49514000  0.49601000  0.14894000  1.0
  N  N72  1  0.11256000  0.56128000  0.50989000  1.0
  N  N73  1  0.92633000  0.43603000  0.48063000  1.0
  Cl  Cl74  1  0.51679000  0.84104000  0.61582000  1.0
  Cl  Cl75  1  0.56285000  0.14700000  0.27723000  1.0
  Cl  Cl76  1  0.09247000  0.83007000  0.46178000  1.0
  Cl  Cl77  1  0.97911000  0.88575000  0.34184000  1.0
  O  O78  1  0.62974000  0.63870000  0.47951000  1.0
  O  O79  1  0.63100000  0.46619000  0.57532000  1.0
  O  O80  1  0.36591000  0.50447000  0.59292000  1.0
  O  O81  1  0.44988000  0.29699000  0.86121000  1.0
  O  O82  1  0.52822000  0.68884000  0.84092000  1.0
  O  O83  1  0.53505000  0.69123000  0.13917000  1.0
  O  O84  1  0.45233000  0.30208000  0.15956000  1.0
  O  O85  1  0.36927000  0.72780000  0.52341000  1.0
  O  O86  1  0.65770000  0.43110000  0.40357000  1.0
  O  O87  1  0.39276000  0.56608000  0.42154000  1.0
  O  O88  1  0.69420000  0.24957000  0.49903000  1.0
  O  O89  1  0.42900000  0.34460000  0.49428000  1.0
