# generated using pymatgen
data_CdH3C6(N3O)2
_symmetry_space_group_name_H-M   'P 1'
_cell_length_a   10.49990000
_cell_length_b   11.36610000
_cell_length_c   16.86800000
_cell_angle_alpha   90.00000000
_cell_angle_beta   90.00000000
_cell_angle_gamma   115.31100000
_symmetry_Int_Tables_number   1
_chemical_formula_structural   CdH3C6(N3O)2
_chemical_formula_sum   'Cd8 H24 C48 N48 O16'
_cell_volume   1819.82192053
_cell_formula_units_Z   8
loop_
 _symmetry_equiv_pos_site_id
 _symmetry_equiv_pos_as_xyz
  1  'x, y, z'
loop_
 _atom_site_type_symbol
 _atom_site_label
 _atom_site_symmetry_multiplicity
 _atom_site_fract_x
 _atom_site_fract_y
 _atom_site_fract_z
 _atom_site_occupancy
  Cd  Cd0  1  0.66873000  0.09906000  0.18691000  1.0
  Cd  Cd1  1  0.33127000  0.40094000  0.68690000  1.0
  Cd  Cd2  1  0.33127000  0.90094000  0.81310000  1.0
  Cd  Cd3  1  0.66873000  0.59906000  0.31309000  1.0
  Cd  Cd4  1  0.28755000  0.34941000  0.31084000  1.0
  Cd  Cd5  1  0.71245000  0.15059000  0.81084000  1.0
  Cd  Cd6  1  0.71245000  0.65059000  0.68916000  1.0
  Cd  Cd7  1  0.28755000  0.84941000  0.18916000  1.0
  H  H8  1  0.06414000  0.13726000  0.47013000  1.0
  H  H9  1  0.93586000  0.36274000  0.97013000  1.0
  H  H10  1  0.93586000  0.86274000  0.52987000  1.0
  H  H11  1  0.06414000  0.63726000  0.02987000  1.0
  H  H12  1  0.80515000  0.99272000  0.49013000  1.0
  H  H13  1  0.19485000  0.50728000  0.99013000  1.0
  H  H14  1  0.19485000  0.00728000  0.50987000  1.0
  H  H15  1  0.80515000  0.49272000  0.00987000  1.0
  H  H16  1  0.64285000  0.96634000  0.37422000  1.0
  H  H17  1  0.35715000  0.53366000  0.87422000  1.0
  H  H18  1  0.35715000  0.03366000  0.62578000  1.0
  H  H19  1  0.64286000  0.46634000  0.12578000  1.0
  H  H20  1  0.85041000  0.89889000  0.86627000  1.0
  H  H21  1  0.14959000  0.60111000  0.36627000  1.0
  H  H22  1  0.14959000  0.10111000  0.13373000  1.0
  H  H23  1  0.85041000  0.39889000  0.63373000  1.0
  H  H24  1  0.86433000  0.77793000  0.98980000  1.0
  H  H25  1  0.13566000  0.72207000  0.48980000  1.0
  H  H26  1  0.13566000  0.22207000  0.01020000  1.0
  H  H27  1  0.86434000  0.27793000  0.51019000  1.0
  H  H28  1  0.78900000  0.84400000  0.12069000  1.0
  H  H29  1  0.21100000  0.65600000  0.62069000  1.0
  H  H30  1  0.21100000  0.15600000  0.87931000  1.0
  H  H31  1  0.78900000  0.34400000  0.37931000  1.0
  C  C32  1  0.99342000  0.24860000  0.22596000  1.0
  C  C33  1  0.00658000  0.25140000  0.72595000  1.0
  C  C34  1  0.00658000  0.75140000  0.77404000  1.0
  C  C35  1  0.99342000  0.74860000  0.27405000  1.0
  C  C36  1  0.94184000  0.17419000  0.29851000  1.0
  C  C37  1  0.05816000  0.32581000  0.79851000  1.0
  C  C38  1  0.05816000  0.82581000  0.70149000  1.0
  C  C39  1  0.94184000  0.67419000  0.20149000  1.0
  C  C40  1  0.98790000  0.12331000  0.42313000  1.0
  C  C41  1  0.01210000  0.37669000  0.92313000  1.0
  C  C42  1  0.01210000  0.87669000  0.57687000  1.0
  C  C43  1  0.98791000  0.62331000  0.07687000  1.0
  C  C44  1  0.84516000  0.04268000  0.43415000  1.0
  C  C45  1  0.15484000  0.45731000  0.93415000  1.0
  C  C46  1  0.15484000  0.95731000  0.56585000  1.0
  C  C47  1  0.84516000  0.54269000  0.06585000  1.0
  C  C48  1  0.75515000  0.03015000  0.37083000  1.0
  C  C49  1  0.24485000  0.46985000  0.87083000  1.0
  C  C50  1  0.24485000  0.96985000  0.62917000  1.0
  C  C51  1  0.75516000  0.53015000  0.12917000  1.0
  C  C52  1  0.66959000  0.13021000  0.99955000  1.0
  C  C53  1  0.33041000  0.36979000  0.49955000  1.0
  C  C54  1  0.33041000  0.86979000  0.00045000  1.0
  C  C55  1  0.66959000  0.63021000  0.50045000  1.0
  C  C56  1  0.73219000  0.03771000  0.99769000  1.0
  C  C57  1  0.26781000  0.46229000  0.49769000  1.0
  C  C58  1  0.26782000  0.96229000  0.00231000  1.0
  C  C59  1  0.73219000  0.53771000  0.50231000  1.0
  C  C60  1  0.82083000  0.92072000  0.92458000  1.0
  C  C61  1  0.17917000  0.57927000  0.42458000  1.0
  C  C62  1  0.17917000  0.07927000  0.07542000  1.0
  C  C63  1  0.82083000  0.42072000  0.57542000  1.0
  C  C64  1  0.82806000  0.85436000  0.99281000  1.0
  C  C65  1  0.17194000  0.64565000  0.49281000  1.0
  C  C66  1  0.17194000  0.14564000  0.00719000  1.0
  C  C67  1  0.82806000  0.35436000  0.50719000  1.0
  C  C68  1  0.78671000  0.88984000  0.06407000  1.0
  C  C69  1  0.21329000  0.61015000  0.56407000  1.0
  C  C70  1  0.21329000  0.11015000  0.93593000  1.0
  C  C71  1  0.78671000  0.38985000  0.43593000  1.0
  C  C72  1  0.54771000  0.78610000  0.23773000  1.0
  C  C73  1  0.45230000  0.71390000  0.73773000  1.0
  C  C74  1  0.45229000  0.21390000  0.76227000  1.0
  C  C75  1  0.54770000  0.28611000  0.26227000  1.0
  C  C76  1  0.41122000  0.66061000  0.25687000  1.0
  C  C77  1  0.58878000  0.83938000  0.75686000  1.0
  C  C78  1  0.58878000  0.33938000  0.74313000  1.0
  C  C79  1  0.41122000  0.16062000  0.24313000  1.0
  N  N80  1  0.91267000  0.24215000  0.16331000  1.0
  N  N81  1  0.08733000  0.25785000  0.66331000  1.0
  N  N82  1  0.08733000  0.75785000  0.83669000  1.0
  N  N83  1  0.91267000  0.74216000  0.33669000  1.0
  N  N84  1  0.00006000  0.32359000  0.10923000  1.0
  N  N85  1  0.99994000  0.17641000  0.60923000  1.0
  N  N86  1  0.99994000  0.67641000  0.89077000  1.0
  N  N87  1  0.00006000  0.82359000  0.39077000  1.0
  N  N88  1  0.12995000  0.37800000  0.13849000  1.0
  N  N89  1  0.87005000  0.12200000  0.63849000  1.0
  N  N90  1  0.87005000  0.62200000  0.86151000  1.0
  N  N91  1  0.12996000  0.87800000  0.36151000  1.0
  N  N92  1  0.12781000  0.33198000  0.21204000  1.0
  N  N93  1  0.87218000  0.16802000  0.71204000  1.0
  N  N94  1  0.87219000  0.66802000  0.78796000  1.0
  N  N95  1  0.12782000  0.83199000  0.28797000  1.0
  N  N96  1  0.03665000  0.18927000  0.35553000  1.0
  N  N97  1  0.96335000  0.31073000  0.85553000  1.0
  N  N98  1  0.96335000  0.81072000  0.64447000  1.0
  N  N99  1  0.03665000  0.68927000  0.14447000  1.0
  N  N100  1  0.80322000  0.09621000  0.30302000  1.0
  N  N101  1  0.19678000  0.40379000  0.80302000  1.0
  N  N102  1  0.19678000  0.90379000  0.69698000  1.0
  N  N103  1  0.80322000  0.59621000  0.19698000  1.0
  N  N104  1  0.61909000  0.16312000  0.06458000  1.0
  N  N105  1  0.38091000  0.33688000  0.56458000  1.0
  N  N106  1  0.38091000  0.83688000  0.93542000  1.0
  N  N107  1  0.61909000  0.66312000  0.43542000  1.0
  N  N108  1  0.56604000  0.24599000  0.04029000  1.0
  N  N109  1  0.43396000  0.25401000  0.54029000  1.0
  N  N110  1  0.43396000  0.75401000  0.95971000  1.0
  N  N111  1  0.56604000  0.74599000  0.45971000  1.0
  N  N112  1  0.58350000  0.26228000  0.96264000  1.0
  N  N113  1  0.41650000  0.23772000  0.46264000  1.0
  N  N114  1  0.41650000  0.73772000  0.03736000  1.0
  N  N115  1  0.58350000  0.76228000  0.53736000  1.0
  N  N116  1  0.64842000  0.19027000  0.93595000  1.0
  N  N117  1  0.35158000  0.30973000  0.43595000  1.0
  N  N118  1  0.35158000  0.80973000  0.06405000  1.0
  N  N119  1  0.64842000  0.69027000  0.56405000  1.0
  N  N120  1  0.77343000  0.01313000  0.92660000  1.0
  N  N121  1  0.22657000  0.48687000  0.42660000  1.0
  N  N122  1  0.22657000  0.98687000  0.07340000  1.0
  N  N123  1  0.77343000  0.51313000  0.57340000  1.0
  N  N124  1  0.73910000  0.98210000  0.06689000  1.0
  N  N125  1  0.26090000  0.51790000  0.56689000  1.0
  N  N126  1  0.26090000  0.01790000  0.93311000  1.0
  N  N127  1  0.73910000  0.48210000  0.43311000  1.0
  O  O128  1  0.52629000  0.88362000  0.21629000  1.0
  O  O129  1  0.47371000  0.61638000  0.71628000  1.0
  O  O130  1  0.47371000  0.11638000  0.78371000  1.0
  O  O131  1  0.52629000  0.38362000  0.28372000  1.0
  O  O132  1  0.66612000  0.78461000  0.24512000  1.0
  O  O133  1  0.33388000  0.71539000  0.74512000  1.0
  O  O134  1  0.33388000  0.21539000  0.75488000  1.0
  O  O135  1  0.66612000  0.28462000  0.25488000  1.0
  O  O136  1  0.43316000  0.56480000  0.28135000  1.0
  O  O137  1  0.56684000  0.93520000  0.78135000  1.0
  O  O138  1  0.56684000  0.43520000  0.71865000  1.0
  O  O139  1  0.43317000  0.06480000  0.21865000  1.0
  O  O140  1  0.29302000  0.66168000  0.24812000  1.0
  O  O141  1  0.70697000  0.83832000  0.74812000  1.0
  O  O142  1  0.70698000  0.33832000  0.75188000  1.0
  O  O143  1  0.29303000  0.16168000  0.25188000  1.0
