# generated using pymatgen
data_CdH14C20(NO)4
_symmetry_space_group_name_H-M   'P 1'
_cell_length_a   10.45440000
_cell_length_b   15.10660000
_cell_length_c   31.67140000
_cell_angle_alpha   89.99980000
_cell_angle_beta   90.00000000
_cell_angle_gamma   109.80600000
_symmetry_Int_Tables_number   1
_chemical_formula_structural   CdH14C20(NO)4
_chemical_formula_sum   'Cd8 H112 C160 N32 O32'
_cell_volume   4705.99346432
_cell_formula_units_Z   8
loop_
 _symmetry_equiv_pos_site_id
 _symmetry_equiv_pos_as_xyz
  1  'x, y, z'
loop_
 _atom_site_type_symbol
 _atom_site_label
 _atom_site_symmetry_multiplicity
 _atom_site_fract_x
 _atom_site_fract_y
 _atom_site_fract_z
 _atom_site_occupancy
  Cd  Cd0  1  0.65962000  0.56874000  0.14105000  1.0
  Cd  Cd1  1  0.84038000  0.93126000  0.64105000  1.0
  Cd  Cd2  1  0.34038000  0.43126000  0.85895000  1.0
  Cd  Cd3  1  0.15962000  0.06874000  0.35895000  1.0
  Cd  Cd4  1  0.75795000  0.84235000  0.14316000  1.0
  Cd  Cd5  1  0.74206000  0.65765000  0.64316000  1.0
  Cd  Cd6  1  0.24206000  0.15765000  0.85684000  1.0
  Cd  Cd7  1  0.25795000  0.34235000  0.35684000  1.0
  H  H8  1  0.93864000  0.64985000  0.71888000  1.0
  H  H9  1  0.56136000  0.85015000  0.21888000  1.0
  H  H10  1  0.06136000  0.35014000  0.28112000  1.0
  H  H11  1  0.43864000  0.14986000  0.78112000  1.0
  H  H12  1  0.95044000  0.65271000  0.79813000  1.0
  H  H13  1  0.54956000  0.84729000  0.29813000  1.0
  H  H14  1  0.04956000  0.34729000  0.20187000  1.0
  H  H15  1  0.45044000  0.15271000  0.70187000  1.0
  H  H16  1  0.54873000  0.67439000  0.79864000  1.0
  H  H17  1  0.95127000  0.82561000  0.29864000  1.0
  H  H18  1  0.45127000  0.32561000  0.20136000  1.0
  H  H19  1  0.04873000  0.17439000  0.70136000  1.0
  H  H20  1  0.55599000  0.67401000  0.71952000  1.0
  H  H21  1  0.94401000  0.82599000  0.21952000  1.0
  H  H22  1  0.44401000  0.32599000  0.28048000  1.0
  H  H23  1  0.05599000  0.17401000  0.78048000  1.0
  H  H24  1  0.65007000  0.66885000  0.86515000  1.0
  H  H25  1  0.84993000  0.83115000  0.36515000  1.0
  H  H26  1  0.34993000  0.33115000  0.13485000  1.0
  H  H27  1  0.15007000  0.16885000  0.63485000  1.0
  H  H28  1  0.57027000  0.44061000  0.06143000  1.0
  H  H29  1  0.92972000  0.05939000  0.56143000  1.0
  H  H30  1  0.42972000  0.55939000  0.93857000  1.0
  H  H31  1  0.07027000  0.94061000  0.43857000  1.0
  H  H32  1  0.60090000  0.43667000  0.98276000  1.0
  H  H33  1  0.89910000  0.06333000  0.48276000  1.0
  H  H34  1  0.39910000  0.56333000  0.01724000  1.0
  H  H35  1  0.10090000  0.93667000  0.51724000  1.0
  H  H36  1  0.89692000  0.71635000  0.99192000  1.0
  H  H37  1  0.60308000  0.78365000  0.49193000  1.0
  H  H38  1  0.10307000  0.28365000  0.00808000  1.0
  H  H39  1  0.39692000  0.21635000  0.50807000  1.0
  H  H40  1  0.85463000  0.70772000  0.07003000  1.0
  H  H41  1  0.64537000  0.79228000  0.57003000  1.0
  H  H42  1  0.14536000  0.29228000  0.92997000  1.0
  H  H43  1  0.35463000  0.20772000  0.42997000  1.0
  H  H44  1  0.85374000  0.56495000  0.21764000  1.0
  H  H45  1  0.64626000  0.93505000  0.71764000  1.0
  H  H46  1  0.14625000  0.43505000  0.78236000  1.0
  H  H47  1  0.35374000  0.06495000  0.28236000  1.0
  H  H48  1  0.86233000  0.56530000  0.29681000  1.0
  H  H49  1  0.63767000  0.93470000  0.79681000  1.0
  H  H50  1  0.13767000  0.43470000  0.70319000  1.0
  H  H51  1  0.36233000  0.06529000  0.20319000  1.0
  H  H52  1  0.45068000  0.56838000  0.29656000  1.0
  H  H53  1  0.04932000  0.93161000  0.79656000  1.0
  H  H54  1  0.54932000  0.43161000  0.70344000  1.0
  H  H55  1  0.95068000  0.06838000  0.20344000  1.0
  H  H56  1  0.46038000  0.56971000  0.21721000  1.0
  H  H57  1  0.03962000  0.93029000  0.71721000  1.0
  H  H58  1  0.53961000  0.43029000  0.78279000  1.0
  H  H59  1  0.96039000  0.06971000  0.28279000  1.0
  H  H60  1  0.55270000  0.56944000  0.36280000  1.0
  H  H61  1  0.94729000  0.93056000  0.86280000  1.0
  H  H62  1  0.44730000  0.43057000  0.63720000  1.0
  H  H63  1  0.05270000  0.06943000  0.13720000  1.0
  H  H64  1  0.93066000  0.18289000  0.13743000  1.0
  H  H65  1  0.56934000  0.31711000  0.63743000  1.0
  H  H66  1  0.06934000  0.81711000  0.86257000  1.0
  H  H67  1  0.43066000  0.68289000  0.36257000  1.0
  H  H68  1  0.49528000  0.06424000  0.14614000  1.0
  H  H69  1  0.00472000  0.43577000  0.64614000  1.0
  H  H70  1  0.50472000  0.93576000  0.85386000  1.0
  H  H71  1  0.99528000  0.56424000  0.35386000  1.0
  H  H72  1  0.91664000  0.34453000  0.13810000  1.0
  H  H73  1  0.58336000  0.15547000  0.63810000  1.0
  H  H74  1  0.08336000  0.65547000  0.86190000  1.0
  H  H75  1  0.41664000  0.84452000  0.36190000  1.0
  H  H76  1  0.60070000  0.53983000  0.48487000  1.0
  H  H77  1  0.89930000  0.96017000  0.98486000  1.0
  H  H78  1  0.39930000  0.46017000  0.51513000  1.0
  H  H79  1  0.10070000  0.03982000  0.01514000  1.0
  H  H80  1  0.58294000  0.55735000  0.56383000  1.0
  H  H81  1  0.91706000  0.94265000  0.06383000  1.0
  H  H82  1  0.41706000  0.44265000  0.43617000  1.0
  H  H83  1  0.08294000  0.05735000  0.93617000  1.0
  H  H84  1  0.96904000  0.75496000  0.56965000  1.0
  H  H85  1  0.53096000  0.74504000  0.06965000  1.0
  H  H86  1  0.03096000  0.24504000  0.43035000  1.0
  H  H87  1  0.46904000  0.25496000  0.93035000  1.0
  H  H88  1  0.00305000  0.74648000  0.49144000  1.0
  H  H89  1  0.49695000  0.75352000  0.99144000  1.0
  H  H90  1  0.99695000  0.25352000  0.50856000  1.0
  H  H91  1  0.50305000  0.24648000  0.00856000  1.0
  H  H92  1  0.48112000  0.22582000  0.14652000  1.0
  H  H93  1  0.01888000  0.27418000  0.64652000  1.0
  H  H94  1  0.51887000  0.77418000  0.85348000  1.0
  H  H95  1  0.98113000  0.72582000  0.35348000  1.0
  H  H96  1  0.90620000  0.68986000  0.42119000  1.0
  H  H97  1  0.59380000  0.81014000  0.92119000  1.0
  H  H98  1  0.09380000  0.31014000  0.57881000  1.0
  H  H99  1  0.40620000  0.18986000  0.07881000  1.0
  H  H100  1  0.70421000  0.51515000  0.91691000  1.0
  H  H101  1  0.79579000  0.98484000  0.41691000  1.0
  H  H102  1  0.29579000  0.48484000  0.08309000  1.0
  H  H103  1  0.20421000  0.01516000  0.58309000  1.0
  H  H104  1  0.44158000  0.82503000  0.13876000  1.0
  H  H105  1  0.05842000  0.67498000  0.63876000  1.0
  H  H106  1  0.55842000  0.17498000  0.86124000  1.0
  H  H107  1  0.94158000  0.32502000  0.36124000  1.0
  H  H108  1  0.17726000  0.53545000  0.14470000  1.0
  H  H109  1  0.32274000  0.96455000  0.64470000  1.0
  H  H110  1  0.82274000  0.46455000  0.85530000  1.0
  H  H111  1  0.67726000  0.03545000  0.35530000  1.0
  H  H112  1  0.97556000  0.58711000  0.14486000  1.0
  H  H113  1  0.52444000  0.91290000  0.64486000  1.0
  H  H114  1  0.02444000  0.41290000  0.85514000  1.0
  H  H115  1  0.47556000  0.08710000  0.35514000  1.0
  H  H116  1  0.23937000  0.87648000  0.13878000  1.0
  H  H117  1  0.26063000  0.62352000  0.63878000  1.0
  H  H118  1  0.76063000  0.12352000  0.86122000  1.0
  H  H119  1  0.73938000  0.37648000  0.36122000  1.0
  C  C120  1  0.85587000  0.65680000  0.73805000  1.0
  C  C121  1  0.64414000  0.84320000  0.23805000  1.0
  C  C122  1  0.14413000  0.34319000  0.26195000  1.0
  C  C123  1  0.35587000  0.15681000  0.76195000  1.0
  C  C124  1  0.86134000  0.65771000  0.78184000  1.0
  C  C125  1  0.63867000  0.84229000  0.28184000  1.0
  C  C126  1  0.13866000  0.34228000  0.21816000  1.0
  C  C127  1  0.36134000  0.15771000  0.71816000  1.0
  C  C128  1  0.75007000  0.66490000  0.80477000  1.0
  C  C129  1  0.74993000  0.83510000  0.30477000  1.0
  C  C130  1  0.24993000  0.33509000  0.19523000  1.0
  C  C131  1  0.25007000  0.16490000  0.69523000  1.0
  C  C132  1  0.63811000  0.67092000  0.78200000  1.0
  C  C133  1  0.86189000  0.82908000  0.28200000  1.0
  C  C134  1  0.36188000  0.32908000  0.21800000  1.0
  C  C135  1  0.13811000  0.17092000  0.71799000  1.0
  C  C136  1  0.64146000  0.67008000  0.73820000  1.0
  C  C137  1  0.85854000  0.82992000  0.23820000  1.0
  C  C138  1  0.35854000  0.32992000  0.26180000  1.0
  C  C139  1  0.14146000  0.17008000  0.76180000  1.0
  C  C140  1  0.74317000  0.66429000  0.85071000  1.0
  C  C141  1  0.75683000  0.83571000  0.35071000  1.0
  C  C142  1  0.25683000  0.33571000  0.14929000  1.0
  C  C143  1  0.24317000  0.16429000  0.64929000  1.0
  C  C144  1  0.64117000  0.50001000  0.04448000  1.0
  C  C145  1  0.85883000  0.99999000  0.54448000  1.0
  C  C146  1  0.35883000  0.49999000  0.95552000  1.0
  C  C147  1  0.14117000  0.00001000  0.45552000  1.0
  C  C148  1  0.65959000  0.49821000  0.00105000  1.0
  C  C149  1  0.84041000  0.00179000  0.50105000  1.0
  C  C150  1  0.34041000  0.50179000  0.99895000  1.0
  C  C151  1  0.15959000  0.99821000  0.49895000  1.0
  C  C152  1  0.75048000  0.57730000  0.98080000  1.0
  C  C153  1  0.74952000  0.92270000  0.48080000  1.0
  C  C154  1  0.24951000  0.42270000  0.01920000  1.0
  C  C155  1  0.25048000  0.07730000  0.51920000  1.0
  C  C156  1  0.82395000  0.65399000  0.00620000  1.0
  C  C157  1  0.67605000  0.84601000  0.50620000  1.0
  C  C158  1  0.17605000  0.34601000  0.99380000  1.0
  C  C159  1  0.32394000  0.15399000  0.49380000  1.0
  C  C160  1  0.80045000  0.64961000  0.04934000  1.0
  C  C161  1  0.69954000  0.85039000  0.54934000  1.0
  C  C162  1  0.19954000  0.35039000  0.95066000  1.0
  C  C163  1  0.30045000  0.14961000  0.45066000  1.0
  C  C164  1  0.76737000  0.56643000  0.23656000  1.0
  C  C165  1  0.73263000  0.93357000  0.73656000  1.0
  C  C166  1  0.23263000  0.43358000  0.76344000  1.0
  C  C167  1  0.26737000  0.06642000  0.26344000  1.0
  C  C168  1  0.77114000  0.56594000  0.28037000  1.0
  C  C169  1  0.72886000  0.93406000  0.78037000  1.0
  C  C170  1  0.22886000  0.43406000  0.71963000  1.0
  C  C171  1  0.27114000  0.06594000  0.21963000  1.0
  C  C172  1  0.54225000  0.56888000  0.28000000  1.0
  C  C173  1  0.95775000  0.93112000  0.78000000  1.0
  C  C174  1  0.45775000  0.43112000  0.72000000  1.0
  C  C175  1  0.04225000  0.06888000  0.22000000  1.0
  C  C176  1  0.54731000  0.56947000  0.23617000  1.0
  C  C177  1  0.95269000  0.93053000  0.73617000  1.0
  C  C178  1  0.45269000  0.43053000  0.76383000  1.0
  C  C179  1  0.04731000  0.06947000  0.26383000  1.0
  C  C180  1  0.65624000  0.56740000  0.30305000  1.0
  C  C181  1  0.84376000  0.93260000  0.80305000  1.0
  C  C182  1  0.34376000  0.43260000  0.69695000  1.0
  C  C183  1  0.15624000  0.06740000  0.19695000  1.0
  C  C184  1  0.64895000  0.56931000  0.34901000  1.0
  C  C185  1  0.85105000  0.93069000  0.84901000  1.0
  C  C186  1  0.35105000  0.43069000  0.65099000  1.0
  C  C187  1  0.14895000  0.06931000  0.15100000  1.0
  C  C188  1  0.72233000  0.01678000  0.14282000  1.0
  C  C189  1  0.77767000  0.48322000  0.64282000  1.0
  C  C190  1  0.27767000  0.98322000  0.85718000  1.0
  C  C191  1  0.22233000  0.51678000  0.35718000  1.0
  C  C192  1  0.71399000  0.11377000  0.14256000  1.0
  C  C193  1  0.78601000  0.38624000  0.64256000  1.0
  C  C194  1  0.28601000  0.88623000  0.85744000  1.0
  C  C195  1  0.21399000  0.61376000  0.35744000  1.0
  C  C196  1  0.83254000  0.19286000  0.13996000  1.0
  C  C197  1  0.66746000  0.30714000  0.63996000  1.0
  C  C198  1  0.16746000  0.80714000  0.86005000  1.0
  C  C199  1  0.33254000  0.69286000  0.36004000  1.0
  C  C200  1  0.58720000  0.12594000  0.14496000  1.0
  C  C201  1  0.91280000  0.37406000  0.64496000  1.0
  C  C202  1  0.41280000  0.87406000  0.85504000  1.0
  C  C203  1  0.08720000  0.62594000  0.35504000  1.0
  C  C204  1  0.82481000  0.28298000  0.14026000  1.0
  C  C205  1  0.67519000  0.21702000  0.64026000  1.0
  C  C206  1  0.17519000  0.71702000  0.85974000  1.0
  C  C207  1  0.32482000  0.78298000  0.35974000  1.0
  C  C208  1  0.68406000  0.58777000  0.50295000  1.0
  C  C209  1  0.81594000  0.91223000  0.00295000  1.0
  C  C210  1  0.31594000  0.41223000  0.49705000  1.0
  C  C211  1  0.18406000  0.08776000  0.99705000  1.0
  C  C212  1  0.67398000  0.59751000  0.54626000  1.0
  C  C213  1  0.82602000  0.90248000  0.04626000  1.0
  C  C214  1  0.32603000  0.40248000  0.45374000  1.0
  C  C215  1  0.17398000  0.09751000  0.95374000  1.0
  C  C216  1  0.89008000  0.70844000  0.54956000  1.0
  C  C217  1  0.60992000  0.79155000  0.04956000  1.0
  C  C218  1  0.10992000  0.29156000  0.45044000  1.0
  C  C219  1  0.39008000  0.20844000  0.95044000  1.0
  C  C220  1  0.90812000  0.70335000  0.50623000  1.0
  C  C221  1  0.59188000  0.79665000  0.00623000  1.0
  C  C222  1  0.09188000  0.29665000  0.49377000  1.0
  C  C223  1  0.40812000  0.20335000  0.99377000  1.0
  C  C224  1  0.80339000  0.64171000  0.48189000  1.0
  C  C225  1  0.69661000  0.85829000  0.98189000  1.0
  C  C226  1  0.19661000  0.35829000  0.51811000  1.0
  C  C227  1  0.30340000  0.14171000  0.01811000  1.0
  C  C228  1  0.68926000  0.39206000  0.14193000  1.0
  C  C229  1  0.81074000  0.10795000  0.64193000  1.0
  C  C230  1  0.31074000  0.60795000  0.85807000  1.0
  C  C231  1  0.18926000  0.89205000  0.35807000  1.0
  C  C232  1  0.69804000  0.29522000  0.14259000  1.0
  C  C233  1  0.80196000  0.20479000  0.64259000  1.0
  C  C234  1  0.30196000  0.70479000  0.85741000  1.0
  C  C235  1  0.19804000  0.79522000  0.35741000  1.0
  C  C236  1  0.57954000  0.21602000  0.14485000  1.0
  C  C237  1  0.92046000  0.28398000  0.64485000  1.0
  C  C238  1  0.42046000  0.78398000  0.85515000  1.0
  C  C239  1  0.07955000  0.71602000  0.35515000  1.0
  C  C240  1  0.81896000  0.63668000  0.43626000  1.0
  C  C241  1  0.68104000  0.86332000  0.93626000  1.0
  C  C242  1  0.18104000  0.36332000  0.56374000  1.0
  C  C243  1  0.31896000  0.13668000  0.06374000  1.0
  C  C244  1  0.76089000  0.57861000  0.93490000  1.0
  C  C245  1  0.73911000  0.92139000  0.43490000  1.0
  C  C246  1  0.23910000  0.42139000  0.06510000  1.0
  C  C247  1  0.26089000  0.07861000  0.56510000  1.0
  C  C248  1  0.44172000  0.64283000  0.14035000  1.0
  C  C249  1  0.05828000  0.85717000  0.64035000  1.0
  C  C250  1  0.55828000  0.35717000  0.85965000  1.0
  C  C251  1  0.94172000  0.14283000  0.35965000  1.0
  C  C252  1  0.32220000  0.67632000  0.14132000  1.0
  C  C253  1  0.17780000  0.82369000  0.64132000  1.0
  C  C254  1  0.67780000  0.32369000  0.85868000  1.0
  C  C255  1  0.82220000  0.17631000  0.35868000  1.0
  C  C256  1  0.33989000  0.77271000  0.13991000  1.0
  C  C257  1  0.16010000  0.72729000  0.63991000  1.0
  C  C258  1  0.66010000  0.22729000  0.86009000  1.0
  C  C259  1  0.83990000  0.27271000  0.36009000  1.0
  C  C260  1  0.19016000  0.61010000  0.14326000  1.0
  C  C261  1  0.30984000  0.88990000  0.64327000  1.0
  C  C262  1  0.80984000  0.38990000  0.85673000  1.0
  C  C263  1  0.69016000  0.11009000  0.35674000  1.0
  C  C264  1  0.97518000  0.76884000  0.14205000  1.0
  C  C265  1  0.52483000  0.73116000  0.64205000  1.0
  C  C266  1  0.02483000  0.23116000  0.85795000  1.0
  C  C267  1  0.47517000  0.26884000  0.35795000  1.0
  C  C268  1  0.09505000  0.73563000  0.14194000  1.0
  C  C269  1  0.40495000  0.76437000  0.64194000  1.0
  C  C270  1  0.90495000  0.26437000  0.85806000  1.0
  C  C271  1  0.59505000  0.23563000  0.35806000  1.0
  C  C272  1  0.07727000  0.63927000  0.14359000  1.0
  C  C273  1  0.42273000  0.86073000  0.64359000  1.0
  C  C274  1  0.92273000  0.36073000  0.85641000  1.0
  C  C275  1  0.57727000  0.13926000  0.35641000  1.0
  C  C276  1  0.22694000  0.80189000  0.14011000  1.0
  C  C277  1  0.27306000  0.69811000  0.64011000  1.0
  C  C278  1  0.77306000  0.19811000  0.85989000  1.0
  C  C279  1  0.72693000  0.30189000  0.35989000  1.0
  N  N280  1  0.74806000  0.66320000  0.71648000  1.0
  N  N281  1  0.75194000  0.83680000  0.21648000  1.0
  N  N282  1  0.25194000  0.33679000  0.28353000  1.0
  N  N283  1  0.24806000  0.16321000  0.78352000  1.0
  N  N284  1  0.83970000  0.65466000  0.87352000  1.0
  N  N285  1  0.66030000  0.84535000  0.37352000  1.0
  N  N286  1  0.16029000  0.34534000  0.12648000  1.0
  N  N287  1  0.33971000  0.15466000  0.62648000  1.0
  N  N288  1  0.83127000  0.65476000  0.91542000  1.0
  N  N289  1  0.66873000  0.84524000  0.41542000  1.0
  N  N290  1  0.16873000  0.34523000  0.08458000  1.0
  N  N291  1  0.33127000  0.15476000  0.58458000  1.0
  N  N292  1  0.70896000  0.57486000  0.06834000  1.0
  N  N293  1  0.79103000  0.92514000  0.56834000  1.0
  N  N294  1  0.29104000  0.42514000  0.93166000  1.0
  N  N295  1  0.20896000  0.07486000  0.43166000  1.0
  N  N296  1  0.65771000  0.56863000  0.21470000  1.0
  N  N297  1  0.84229000  0.93137000  0.71470000  1.0
  N  N298  1  0.34229000  0.43138000  0.78530000  1.0
  N  N299  1  0.15771000  0.06863000  0.28530000  1.0
  N  N300  1  0.75132000  0.57153000  0.37236000  1.0
  N  N301  1  0.74868000  0.92847000  0.87236000  1.0
  N  N302  1  0.24868000  0.42847000  0.62764000  1.0
  N  N303  1  0.25132000  0.07153000  0.12764000  1.0
  N  N304  1  0.73073000  0.57212000  0.41451000  1.0
  N  N305  1  0.76927000  0.92788000  0.91451000  1.0
  N  N306  1  0.26927000  0.42788000  0.58549000  1.0
  N  N307  1  0.23073000  0.07212000  0.08549000  1.0
  N  N308  1  0.77504000  0.65736000  0.56931000  1.0
  N  N309  1  0.72496000  0.84263000  0.06931000  1.0
  N  N310  1  0.22496000  0.34263000  0.43069000  1.0
  N  N311  1  0.27504000  0.15737000  0.93069000  1.0
  O  O312  1  0.83910000  0.00864000  0.13669000  1.0
  O  O313  1  0.66090000  0.49136000  0.63669000  1.0
  O  O314  1  0.16090000  0.99136000  0.86331000  1.0
  O  O315  1  0.33910000  0.50864000  0.36331000  1.0
  O  O316  1  0.61554000  0.94650000  0.14950000  1.0
  O  O317  1  0.88446000  0.55350000  0.64950000  1.0
  O  O318  1  0.38446000  0.05350000  0.85050000  1.0
  O  O319  1  0.11554000  0.44650000  0.35050000  1.0
  O  O320  1  0.57313000  0.39990000  0.13391000  1.0
  O  O321  1  0.92688000  0.10011000  0.63391000  1.0
  O  O322  1  0.42687000  0.60011000  0.86609000  1.0
  O  O323  1  0.07313000  0.89990000  0.36609000  1.0
  O  O324  1  0.79533000  0.46245000  0.14914000  1.0
  O  O325  1  0.70467000  0.03756000  0.64914000  1.0
  O  O326  1  0.20467000  0.53756000  0.85086000  1.0
  O  O327  1  0.29533000  0.96245000  0.35085000  1.0
  O  O328  1  0.56317000  0.70211000  0.14144000  1.0
  O  O329  1  0.93682000  0.79789000  0.64144000  1.0
  O  O330  1  0.43682000  0.29789000  0.85856000  1.0
  O  O331  1  0.06318000  0.20210000  0.35856000  1.0
  O  O332  1  0.42035000  0.55475000  0.13823000  1.0
  O  O333  1  0.07965000  0.94525000  0.63823000  1.0
  O  O334  1  0.57965000  0.44525000  0.86177000  1.0
  O  O335  1  0.92035000  0.05475000  0.36177000  1.0
  O  O336  1  0.99504000  0.85623000  0.13800000  1.0
  O  O337  1  0.50496000  0.64377000  0.63800000  1.0
  O  O338  1  0.00496000  0.14377000  0.86200000  1.0
  O  O339  1  0.49504000  0.35623000  0.36201000  1.0
  O  O340  1  0.85463000  0.70906000  0.14655000  1.0
  O  O341  1  0.64537000  0.79095000  0.64655000  1.0
  O  O342  1  0.14537000  0.29095000  0.85345000  1.0
  O  O343  1  0.35464000  0.20905000  0.35345000  1.0
