# generated using pymatgen
data_ZnH14C21(NO3)2
_symmetry_space_group_name_H-M   'P 1'
_cell_length_a   7.59344000
_cell_length_b   9.98691000
_cell_length_c   11.46120000
_cell_angle_alpha   100.78400000
_cell_angle_beta   96.93820000
_cell_angle_gamma   90.39970000
_symmetry_Int_Tables_number   1
_chemical_formula_structural   ZnH14C21(NO3)2
_chemical_formula_sum   'Zn2 H28 C42 N4 O12'
_cell_volume   847.16793856
_cell_formula_units_Z   2
loop_
 _symmetry_equiv_pos_site_id
 _symmetry_equiv_pos_as_xyz
  1  'x, y, z'
loop_
 _atom_site_type_symbol
 _atom_site_label
 _atom_site_symmetry_multiplicity
 _atom_site_fract_x
 _atom_site_fract_y
 _atom_site_fract_z
 _atom_site_occupancy
  Zn  Zn0  1  0.32426000  0.50739000  0.61555000  1.0
  Zn  Zn1  1  0.67574000  0.49261000  0.38445000  1.0
  H  H2  1  0.24300000  0.22900000  0.47652000  1.0
  H  H3  1  0.75700000  0.77100000  0.52348000  1.0
  H  H4  1  0.49756000  0.21049000  0.87521000  1.0
  H  H5  1  0.50244000  0.78951000  0.12479000  1.0
  H  H6  1  0.74856000  0.29741000  0.03418000  1.0
  H  H7  1  0.25144000  0.70259000  0.96582000  1.0
  H  H8  1  0.02514000  0.38703000  0.97379000  1.0
  H  H9  1  0.97486000  0.61297000  0.02622000  1.0
  H  H10  1  0.40952000  0.80945000  0.64794000  1.0
  H  H11  1  0.59049000  0.19055000  0.35206000  1.0
  H  H12  1  0.57971000  0.98558000  0.80164000  1.0
  H  H13  1  0.42029000  0.01442000  0.19836000  1.0
  H  H14  1  0.70579000  0.66816000  0.00947000  1.0
  H  H15  1  0.29420000  0.33184000  0.99052000  1.0
  H  H16  1  0.52573000  0.50978000  0.84936000  1.0
  H  H17  1  0.47427000  0.49022000  0.15064000  1.0
  H  H18  1  0.77944000  0.04642000  0.99296000  1.0
  H  H19  1  0.22056000  0.95358000  0.00705000  1.0
  H  H20  1  0.80893000  0.81795000  0.14236000  1.0
  H  H21  1  0.19107000  0.18205000  0.85764000  1.0
  H  H22  1  0.20904000  0.99809000  0.47849000  1.0
  H  H23  1  0.79096000  0.00191000  0.52151000  1.0
  H  H24  1  0.00290000  0.84901000  0.31743000  1.0
  H  H25  1  0.99710000  0.15099000  0.68257000  1.0
  H  H26  1  0.89409000  0.20396000  0.15689000  1.0
  H  H27  1  0.10591000  0.79603000  0.84311000  1.0
  H  H28  1  0.08939000  0.34047000  0.33150000  1.0
  H  H29  1  0.91061000  0.65952000  0.66849000  1.0
  C  C30  1  0.91434000  0.37960000  0.79154000  1.0
  C  C31  1  0.08566000  0.62040000  0.20846000  1.0
  C  C32  1  0.76389000  0.34583000  0.70543000  1.0
  C  C33  1  0.23611000  0.65417000  0.29457000  1.0
  C  C34  1  0.61634000  0.28020000  0.73671000  1.0
  C  C35  1  0.38366000  0.71980000  0.26329000  1.0
  C  C36  1  0.61451000  0.25977000  0.85389000  1.0
  C  C37  1  0.38549000  0.74023000  0.14611000  1.0
  C  C38  1  0.75649000  0.30475000  0.94137000  1.0
  C  C39  1  0.24351000  0.69525000  0.05863000  1.0
  C  C40  1  0.90801000  0.35941000  0.90873000  1.0
  C  C41  1  0.09199000  0.64059000  0.09127000  1.0
  C  C42  1  0.08951000  0.42594000  0.76072000  1.0
  C  C43  1  0.91049000  0.57406000  0.23927000  1.0
  C  C44  1  0.76099000  0.36361000  0.57718000  1.0
  C  C45  1  0.23901000  0.63639000  0.42282000  1.0
  C  C46  1  0.45803000  0.22622000  0.64798000  1.0
  C  C47  1  0.54197000  0.77379000  0.35202000  1.0
  C  C48  1  0.47888000  0.78348000  0.72938000  1.0
  C  C49  1  0.52112000  0.21652000  0.27062000  1.0
  C  C50  1  0.57464000  0.88119000  0.81692000  1.0
  C  C51  1  0.42536000  0.11881000  0.18308000  1.0
  C  C52  1  0.66118000  0.84443000  0.92156000  1.0
  C  C53  1  0.33882000  0.15556000  0.07844000  1.0
  C  C54  1  0.64530000  0.70636000  0.93126000  1.0
  C  C55  1  0.35470000  0.29364000  0.06874000  1.0
  C  C56  1  0.54580000  0.61531000  0.84130000  1.0
  C  C57  1  0.45420000  0.38469000  0.15870000  1.0
  C  C58  1  0.76106000  0.94580000  0.01504000  1.0
  C  C59  1  0.23893000  0.05420000  0.98496000  1.0
  C  C60  1  0.82912000  0.91973000  0.12303000  1.0
  C  C61  1  0.17088000  0.08027000  0.87698000  1.0
  C  C62  1  0.13373000  0.03615000  0.40498000  1.0
  C  C63  1  0.86627000  0.96385000  0.59503000  1.0
  C  C64  1  0.02148000  0.95612000  0.31466000  1.0
  C  C65  1  0.97852000  0.04388000  0.68534000  1.0
  C  C66  1  0.93533000  0.01216000  0.21976000  1.0
  C  C67  1  0.06467000  0.98784000  0.78024000  1.0
  C  C68  1  0.96018000  0.15321000  0.22535000  1.0
  C  C69  1  0.03982000  0.84679000  0.77465000  1.0
  C  C70  1  0.06859000  0.23047000  0.32010000  1.0
  C  C71  1  0.93141000  0.76953000  0.67990000  1.0
  N  N72  1  0.46397000  0.65180000  0.74101000  1.0
  N  N73  1  0.53603000  0.34819000  0.25899000  1.0
  N  N74  1  0.15451000  0.17010000  0.40523000  1.0
  N  N75  1  0.84549000  0.82990000  0.59477000  1.0
  O  O76  1  0.22916000  0.40773000  0.82599000  1.0
  O  O77  1  0.77084000  0.59227000  0.17401000  1.0
  O  O78  1  0.08455000  0.47920000  0.66602000  1.0
  O  O79  1  0.91545000  0.52080000  0.33398000  1.0
  O  O80  1  0.70367000  0.47916000  0.55495000  1.0
  O  O81  1  0.29633000  0.52084000  0.44505000  1.0
  O  O82  1  0.80290000  0.26568000  0.50203000  1.0
  O  O83  1  0.19709000  0.73433000  0.49797000  1.0
  O  O84  1  0.38785000  0.30790000  0.57936000  1.0
  O  O85  1  0.61215000  0.69210000  0.42064000  1.0
  O  O86  1  0.40229000  0.10763000  0.64285000  1.0
  O  O87  1  0.59771000  0.89237000  0.35715000  1.0
