# generated using pymatgen
data_Cu2H24C19(NO)6
_symmetry_space_group_name_H-M   'P 1'
_cell_length_a   13.53340000
_cell_length_b   13.53310000
_cell_length_c   14.95520000
_cell_angle_alpha   90.00170000
_cell_angle_beta   89.99930000
_cell_angle_gamma   89.99350000
_symmetry_Int_Tables_number   1
_chemical_formula_structural   Cu2H24C19(NO)6
_chemical_formula_sum   'Cu8 H96 C76 N24 O24'
_cell_volume   2739.02774534
_cell_formula_units_Z   4
loop_
 _symmetry_equiv_pos_site_id
 _symmetry_equiv_pos_as_xyz
  1  'x, y, z'
loop_
 _atom_site_type_symbol
 _atom_site_label
 _atom_site_symmetry_multiplicity
 _atom_site_fract_x
 _atom_site_fract_y
 _atom_site_fract_z
 _atom_site_occupancy
  Cu  Cu0  1  0.79450000  0.47652000  0.03513000  1.0
  Cu  Cu1  1  0.20549000  0.52349000  0.53511000  1.0
  Cu  Cu2  1  0.02311000  0.29439000  0.28498000  1.0
  Cu  Cu3  1  0.97653000  0.70551000  0.78514000  1.0
  Cu  Cu4  1  0.29452000  0.02318000  0.21503000  1.0
  Cu  Cu5  1  0.70554000  0.97653000  0.71486000  1.0
  Cu  Cu6  1  0.52348000  0.20548000  0.96489000  1.0
  Cu  Cu7  1  0.47651000  0.79453000  0.46488000  1.0
  H  H8  1  0.79128000  0.39115000  0.80478000  1.0
  H  H9  1  0.20877000  0.60892000  0.30478000  1.0
  H  H10  1  0.10898000  0.29140000  0.05446000  1.0
  H  H11  1  0.89108000  0.70876000  0.55480000  1.0
  H  H12  1  0.29132000  0.10902000  0.44553000  1.0
  H  H13  1  0.70874000  0.89109000  0.94520000  1.0
  H  H14  1  0.60890000  0.20876000  0.19522000  1.0
  H  H15  1  0.39116000  0.79130000  0.69522000  1.0
  H  H16  1  0.90599000  0.48041000  0.21045000  1.0
  H  H17  1  0.09397000  0.51959000  0.71038000  1.0
  H  H18  1  0.01966000  0.40580000  0.46049000  1.0
  H  H19  1  0.98042000  0.59404000  0.96043000  1.0
  H  H20  1  0.40583000  0.01962000  0.03943000  1.0
  H  H21  1  0.59406000  0.98042000  0.53959000  1.0
  H  H22  1  0.51959000  0.09399000  0.78960000  1.0
  H  H23  1  0.48041000  0.90601000  0.28960000  1.0
  H  H24  1  0.98108000  0.55852000  0.34968000  1.0
  H  H25  1  0.01891000  0.44147000  0.84966000  1.0
  H  H26  1  0.94144000  0.48112000  0.59967000  1.0
  H  H27  1  0.05857000  0.51892000  0.09969000  1.0
  H  H28  1  0.48113000  0.94140000  0.90031000  1.0
  H  H29  1  0.51893000  0.05855000  0.40034000  1.0
  H  H30  1  0.44147000  0.01891000  0.65034000  1.0
  H  H31  1  0.55852000  0.98108000  0.15032000  1.0
  H  H32  1  0.90296000  0.64710000  0.40043000  1.0
  H  H33  1  0.09705000  0.35291000  0.90041000  1.0
  H  H34  1  0.85287000  0.40302000  0.65044000  1.0
  H  H35  1  0.14715000  0.59704000  0.15043000  1.0
  H  H36  1  0.40304000  0.85284000  0.84949000  1.0
  H  H37  1  0.59704000  0.14713000  0.34958000  1.0
  H  H38  1  0.35291000  0.09705000  0.59959000  1.0
  H  H39  1  0.64710000  0.90296000  0.09957000  1.0
  H  H40  1  0.00548000  0.68638000  0.33674000  1.0
  H  H41  1  0.99452000  0.31361000  0.83672000  1.0
  H  H42  1  0.81358000  0.50547000  0.58668000  1.0
  H  H43  1  0.18643000  0.49453000  0.08672000  1.0
  H  H44  1  0.50550000  0.81355000  0.91328000  1.0
  H  H45  1  0.49453000  0.18642000  0.41330000  1.0
  H  H46  1  0.31361000  0.99452000  0.66328000  1.0
  H  H47  1  0.68638000  0.00548000  0.16327000  1.0
  H  H48  1  0.71054000  0.65533000  0.01538000  1.0
  H  H49  1  0.28945000  0.34466000  0.51537000  1.0
  H  H50  1  0.84478000  0.21044000  0.26547000  1.0
  H  H51  1  0.15529000  0.78951000  0.76542000  1.0
  H  H52  1  0.21048000  0.84482000  0.23450000  1.0
  H  H53  1  0.78953000  0.15531000  0.73459000  1.0
  H  H54  1  0.34466000  0.28945000  0.98463000  1.0
  H  H55  1  0.65533000  0.71054000  0.48463000  1.0
  H  H56  1  0.76244000  0.77275000  0.03810000  1.0
  H  H57  1  0.23758000  0.22721000  0.53812000  1.0
  H  H58  1  0.72734000  0.26241000  0.28814000  1.0
  H  H59  1  0.27275000  0.73759000  0.78805000  1.0
  H  H60  1  0.26242000  0.72737000  0.21186000  1.0
  H  H61  1  0.73759000  0.27275000  0.71195000  1.0
  H  H62  1  0.22721000  0.23757000  0.96189000  1.0
  H  H63  1  0.77275000  0.76244000  0.46191000  1.0
  H  H64  1  0.65468000  0.73383000  0.09706000  1.0
  H  H65  1  0.34534000  0.26618000  0.59704000  1.0
  H  H66  1  0.76614000  0.15455000  0.34704000  1.0
  H  H67  1  0.23385000  0.84533000  0.84707000  1.0
  H  H68  1  0.15458000  0.76617000  0.15295000  1.0
  H  H69  1  0.84535000  0.23387000  0.65294000  1.0
  H  H70  1  0.26617000  0.34534000  0.90296000  1.0
  H  H71  1  0.73382000  0.65468000  0.40295000  1.0
  H  H72  1  0.61418000  0.44116000  0.78368000  1.0
  H  H73  1  0.38587000  0.55886000  0.28367000  1.0
  H  H74  1  0.05875000  0.11418000  0.03360000  1.0
  H  H75  1  0.94119000  0.88582000  0.53367000  1.0
  H  H76  1  0.11414000  0.05875000  0.46640000  1.0
  H  H77  1  0.88580000  0.94121000  0.96633000  1.0
  H  H78  1  0.55886000  0.38587000  0.21633000  1.0
  H  H79  1  0.44116000  0.61418000  0.71632000  1.0
  H  H80  1  0.69705000  0.52647000  0.73060000  1.0
  H  H81  1  0.30296000  0.47355000  0.23061000  1.0
  H  H82  1  0.97330000  0.19712000  0.98074000  1.0
  H  H83  1  0.02656000  0.80294000  0.48064000  1.0
  H  H84  1  0.19709000  0.97333000  0.51925000  1.0
  H  H85  1  0.80290000  0.02656000  0.01936000  1.0
  H  H86  1  0.47356000  0.30296000  0.26939000  1.0
  H  H87  1  0.52648000  0.69706000  0.76940000  1.0
  H  H88  1  0.63987000  0.55786000  0.83399000  1.0
  H  H89  1  0.36015000  0.44218000  0.33400000  1.0
  H  H90  1  0.94226000  0.14007000  0.08425000  1.0
  H  H91  1  0.05783000  0.86008000  0.58407000  1.0
  H  H92  1  0.14004000  0.94230000  0.41575000  1.0
  H  H93  1  0.86006000  0.05783000  0.91592000  1.0
  H  H94  1  0.44217000  0.36015000  0.16601000  1.0
  H  H95  1  0.55786000  0.63987000  0.66601000  1.0
  H  H96  1  0.86298000  0.82704000  0.30414000  1.0
  H  H97  1  0.13700000  0.17296000  0.80413000  1.0
  H  H98  1  0.67295000  0.36302000  0.55412000  1.0
  H  H99  1  0.32707000  0.63700000  0.05415000  1.0
  H  H100  1  0.36302000  0.67289000  0.94587000  1.0
  H  H101  1  0.63703000  0.32706000  0.44584000  1.0
  H  H102  1  0.17296000  0.13700000  0.69587000  1.0
  H  H103  1  0.82703000  0.86298000  0.19587000  1.0
  C  C104  1  0.75943000  0.45152000  0.84525000  1.0
  C  C105  1  0.24059000  0.54853000  0.34524000  1.0
  C  C106  1  0.04869000  0.25961000  0.09503000  1.0
  C  C107  1  0.95148000  0.74057000  0.59525000  1.0
  C  C108  1  0.25958000  0.04873000  0.40495000  1.0
  C  C109  1  0.74054000  0.95149000  0.90475000  1.0
  C  C110  1  0.54852000  0.24059000  0.15475000  1.0
  C  C111  1  0.45153000  0.75944000  0.65475000  1.0
  C  C112  1  0.82809000  0.70642000  0.21755000  1.0
  C  C113  1  0.17191000  0.29356000  0.71753000  1.0
  C  C114  1  0.79359000  0.32806000  0.46757000  1.0
  C  C115  1  0.20646000  0.67189000  0.96753000  1.0
  C  C116  1  0.32807000  0.79357000  0.03241000  1.0
  C  C117  1  0.67192000  0.20646000  0.53247000  1.0
  C  C118  1  0.29356000  0.17191000  0.78247000  1.0
  C  C119  1  0.70642000  0.82809000  0.28246000  1.0
  C  C120  1  0.84073000  0.52957000  0.85729000  1.0
  C  C121  1  0.15929000  0.47046000  0.35724000  1.0
  C  C122  1  0.97055000  0.34085000  0.10701000  1.0
  C  C123  1  0.02949000  0.65922000  0.60726000  1.0
  C  C124  1  0.34083000  0.97059000  0.39309000  1.0
  C  C125  1  0.65920000  0.02951000  0.89272000  1.0
  C  C126  1  0.47045000  0.15929000  0.14276000  1.0
  C  C127  1  0.52959000  0.84074000  0.64272000  1.0
  C  C128  1  0.66775000  0.34718000  0.95026000  1.0
  C  C129  1  0.33225000  0.65284000  0.45029000  1.0
  C  C130  1  0.15262000  0.16759000  0.20031000  1.0
  C  C131  1  0.84729000  0.83234000  0.70028000  1.0
  C  C132  1  0.16757000  0.15253000  0.29964000  1.0
  C  C133  1  0.83234000  0.84727000  0.79972000  1.0
  C  C134  1  0.65283000  0.33225000  0.04971000  1.0
  C  C135  1  0.34718000  0.66776000  0.54974000  1.0
  C  C136  1  0.88437000  0.63174000  0.25786000  1.0
  C  C137  1  0.11564000  0.36826000  0.75783000  1.0
  C  C138  1  0.86829000  0.38429000  0.50790000  1.0
  C  C139  1  0.13176000  0.61565000  0.00785000  1.0
  C  C140  1  0.38430000  0.86826000  0.99207000  1.0
  C  C141  1  0.61567000  0.13176000  0.49215000  1.0
  C  C142  1  0.36826000  0.11564000  0.74216000  1.0
  C  C143  1  0.63173000  0.88436000  0.24215000  1.0
  C  C144  1  0.78914000  0.66366000  0.13884000  1.0
  C  C145  1  0.21087000  0.33632000  0.63883000  1.0
  C  C146  1  0.83640000  0.28895000  0.38894000  1.0
  C  C147  1  0.16369000  0.71087000  0.88884000  1.0
  C  C148  1  0.28898000  0.83642000  0.11104000  1.0
  C  C149  1  0.71089000  0.16370000  0.61117000  1.0
  C  C150  1  0.33632000  0.21087000  0.86117000  1.0
  C  C151  1  0.66366000  0.78914000  0.36117000  1.0
  C  C152  1  0.81029000  0.81029000  0.25000000  1.0
  C  C153  1  0.18970000  0.18970000  0.75000000  1.0
  C  C154  1  0.68971000  0.31032000  0.49999000  1.0
  C  C155  1  0.31033000  0.68968000  1.00000000  1.0
  C  C156  1  0.94631000  0.63082000  0.34021000  1.0
  C  C157  1  0.05369000  0.36918000  0.84019000  1.0
  C  C158  1  0.86917000  0.44631000  0.59019000  1.0
  C  C159  1  0.13085000  0.55371000  0.09021000  1.0
  C  C160  1  0.44633000  0.86913000  0.90976000  1.0
  C  C161  1  0.55371000  0.13084000  0.40981000  1.0
  C  C162  1  0.36918000  0.05369000  0.65981000  1.0
  C  C163  1  0.63081000  0.94631000  0.15980000  1.0
  C  C164  1  0.72540000  0.70885000  0.06880000  1.0
  C  C165  1  0.27462000  0.29113000  0.56879000  1.0
  C  C166  1  0.79119000  0.22527000  0.31886000  1.0
  C  C167  1  0.20886000  0.77463000  0.81880000  1.0
  C  C168  1  0.22530000  0.79122000  0.18111000  1.0
  C  C169  1  0.77465000  0.20887000  0.68120000  1.0
  C  C170  1  0.29113000  0.27462000  0.93121000  1.0
  C  C171  1  0.70885000  0.72539000  0.43121000  1.0
  C  C172  1  0.67168000  0.49688000  0.79490000  1.0
  C  C173  1  0.32835000  0.50316000  0.29490000  1.0
  C  C174  1  0.00313000  0.17176000  0.04495000  1.0
  C  C175  1  0.99689000  0.82830000  0.54492000  1.0
  C  C176  1  0.17174000  0.00317000  0.45503000  1.0
  C  C177  1  0.82827000  0.99690000  0.95508000  1.0
  C  C178  1  0.50316000  0.32835000  0.20510000  1.0
  C  C179  1  0.49688000  0.67168000  0.70510000  1.0
  N  N180  1  0.73337000  0.41565000  0.93315000  1.0
  N  N181  1  0.26664000  0.58436000  0.43315000  1.0
  N  N182  1  0.08487000  0.23385000  0.18302000  1.0
  N  N183  1  0.91568000  0.76662000  0.68316000  1.0
  N  N184  1  0.23388000  0.08487000  0.31699000  1.0
  N  N185  1  0.76662000  0.91567000  0.81684000  1.0
  N  N186  1  0.58436000  0.26663000  0.06685000  1.0
  N  N187  1  0.41566000  0.73339000  0.56686000  1.0
  N  N188  1  0.87632000  0.55105000  0.20469000  1.0
  N  N189  1  0.12369000  0.44894000  0.70466000  1.0
  N  N190  1  0.94905000  0.37604000  0.45481000  1.0
  N  N191  1  0.05107000  0.62372000  0.95469000  1.0
  N  N192  1  0.37605000  0.94903000  0.04515000  1.0
  N  N193  1  0.62374000  0.05107000  0.54532000  1.0
  N  N194  1  0.44894000  0.12369000  0.79533000  1.0
  N  N195  1  0.55104000  0.87632000  0.29532000  1.0
  N  N196  1  0.81942000  0.56925000  0.13240000  1.0
  N  N197  1  0.18059000  0.43073000  0.63238000  1.0
  N  N198  1  0.93088000  0.31904000  0.38257000  1.0
  N  N199  1  0.06928000  0.68062000  0.88240000  1.0
  N  N200  1  0.31908000  0.93089000  0.11741000  1.0
  N  N201  1  0.68064000  0.06928000  0.61761000  1.0
  N  N202  1  0.43073000  0.18059000  0.86762000  1.0
  N  N203  1  0.56925000  0.81943000  0.36762000  1.0
  O  O204  1  0.61691000  0.29639000  0.89464000  1.0
  O  O205  1  0.38307000  0.70364000  0.39466000  1.0
  O  O206  1  0.20272000  0.11616000  0.14484000  1.0
  O  O207  1  0.79653000  0.88322000  0.64466000  1.0
  O  O208  1  0.11602000  0.20249000  0.35512000  1.0
  O  O209  1  0.88320000  0.79649000  0.85534000  1.0
  O  O210  1  0.70362000  0.38308000  0.10534000  1.0
  O  O211  1  0.29639000  0.61692000  0.60535000  1.0
  O  O212  1  0.88269000  0.56362000  0.78960000  1.0
  O  O213  1  0.11733000  0.43643000  0.28957000  1.0
  O  O214  1  0.93664000  0.38287000  0.03929000  1.0
  O  O215  1  0.06353000  0.61727000  0.53956000  1.0
  O  O216  1  0.38279000  0.93668000  0.46083000  1.0
  O  O217  1  0.61724000  0.06354000  0.96042000  1.0
  O  O218  1  0.43643000  0.11735000  0.21044000  1.0
  O  O219  1  0.56364000  0.88269000  0.71040000  1.0
  O  O220  1  0.86078000  0.55688000  0.93847000  1.0
  O  O221  1  0.13930000  0.44310000  0.43844000  1.0
  O  O222  1  0.94302000  0.36060000  0.18812000  1.0
  O  O223  1  0.05677000  0.63914000  0.68844000  1.0
  O  O224  1  0.36068000  0.94307000  0.31199000  1.0
  O  O225  1  0.63916000  0.05680000  0.81154000  1.0
  O  O226  1  0.44309000  0.13929000  0.06156000  1.0
  O  O227  1  0.55688000  0.86078000  0.56153000  1.0
