# generated using pymatgen
data_ZnH16C24S(N2O3)2
_symmetry_space_group_name_H-M   'P 1'
_cell_length_a   7.16982000
_cell_length_b   19.06820000
_cell_length_c   21.62570000
_cell_angle_alpha   89.99970000
_cell_angle_beta   89.99990000
_cell_angle_gamma   98.84770000
_symmetry_Int_Tables_number   1
_chemical_formula_structural   ZnH16C24S(N2O3)2
_chemical_formula_sum   'Zn4 H64 C96 S4 N16 O24'
_cell_volume   2921.38853884
_cell_formula_units_Z   4
loop_
 _symmetry_equiv_pos_site_id
 _symmetry_equiv_pos_as_xyz
  1  'x, y, z'
loop_
 _atom_site_type_symbol
 _atom_site_label
 _atom_site_symmetry_multiplicity
 _atom_site_fract_x
 _atom_site_fract_y
 _atom_site_fract_z
 _atom_site_occupancy
  Zn  Zn0  1  0.50197000  0.56522000  0.80003000  1.0
  Zn  Zn1  1  0.49804000  0.93479000  0.30003000  1.0
  Zn  Zn2  1  0.49802000  0.43479000  0.19997000  1.0
  Zn  Zn3  1  0.50196000  0.06522000  0.69998000  1.0
  H  H4  1  0.18900000  0.47116000  0.06145000  1.0
  H  H5  1  0.81101000  0.02885000  0.56145000  1.0
  H  H6  1  0.81101000  0.52885000  0.93855000  1.0
  H  H7  1  0.18901000  0.97114000  0.43855000  1.0
  H  H8  1  0.86110000  0.15429000  0.17812000  1.0
  H  H9  1  0.13890000  0.34570000  0.67813000  1.0
  H  H10  1  0.13888000  0.84572000  0.82188000  1.0
  H  H11  1  0.86112000  0.65429000  0.32188000  1.0
  H  H12  1  0.93674000  0.69922000  0.70447000  1.0
  H  H13  1  0.06326000  0.80079000  0.20447000  1.0
  H  H14  1  0.06324000  0.30077000  0.29552000  1.0
  H  H15  1  0.93675000  0.19922000  0.79552000  1.0
  H  H16  1  0.14229000  0.79403000  0.64558000  1.0
  H  H17  1  0.85769000  0.70599000  0.14556000  1.0
  H  H18  1  0.85767000  0.20598000  0.35442000  1.0
  H  H19  1  0.14233000  0.29401000  0.85442000  1.0
  H  H20  1  0.04207000  0.91205000  0.63272000  1.0
  H  H21  1  0.95791000  0.58797000  0.13272000  1.0
  H  H22  1  0.95790000  0.08796000  0.36729000  1.0
  H  H23  1  0.04212000  0.41203000  0.86729000  1.0
  H  H24  1  0.53643000  0.84100000  0.73690000  1.0
  H  H25  1  0.46355000  0.65900000  0.23691000  1.0
  H  H26  1  0.46356000  0.15899000  0.26310000  1.0
  H  H27  1  0.53650000  0.34101000  0.76309000  1.0
  H  H28  1  0.44782000  0.68745000  0.88284000  1.0
  H  H29  1  0.55218000  0.81255000  0.38283000  1.0
  H  H30  1  0.55215000  0.31255000  0.11716000  1.0
  H  H31  1  0.44780000  0.18744000  0.61716000  1.0
  H  H32  1  0.33203000  0.70053000  0.99193000  1.0
  H  H33  1  0.66802000  0.79947000  0.49191000  1.0
  H  H34  1  0.66799000  0.29947000  0.00808000  1.0
  H  H35  1  0.33197000  0.20052000  0.50807000  1.0
  H  H36  1  0.22182000  0.59092000  0.05336000  1.0
  H  H37  1  0.77821000  0.90908000  0.55336000  1.0
  H  H38  1  0.77820000  0.40909000  0.94664000  1.0
  H  H39  1  0.22181000  0.09090000  0.44664000  1.0
  H  H40  1  0.35867000  0.46747000  0.89724000  1.0
  H  H41  1  0.64133000  0.03253000  0.39725000  1.0
  H  H42  1  0.64133000  0.53254000  0.10275000  1.0
  H  H43  1  0.35868000  0.96746000  0.60276000  1.0
  H  H44  1  0.02676000  0.39379000  0.12154000  1.0
  H  H45  1  0.97321000  0.10621000  0.62155000  1.0
  H  H46  1  0.97323000  0.60623000  0.87845000  1.0
  H  H47  1  0.02680000  0.89376000  0.37846000  1.0
  H  H48  1  0.94738000  0.27177000  0.17873000  1.0
  H  H49  1  0.05259000  0.22822000  0.67874000  1.0
  H  H50  1  0.05260000  0.72825000  0.82127000  1.0
  H  H51  1  0.94737000  0.77174000  0.32129000  1.0
  H  H52  1  0.65824000  0.06297000  0.22859000  1.0
  H  H53  1  0.34175000  0.43703000  0.72859000  1.0
  H  H54  1  0.34176000  0.93704000  0.77141000  1.0
  H  H55  1  0.65823000  0.56297000  0.27140000  1.0
  H  H56  1  0.83210000  0.87037000  0.26528000  1.0
  H  H57  1  0.16789000  0.62963000  0.76527000  1.0
  H  H58  1  0.16788000  0.12965000  0.73474000  1.0
  H  H59  1  0.83210000  0.37036000  0.23473000  1.0
  H  H60  1  0.14365000  0.90850000  0.21151000  1.0
  H  H61  1  0.85637000  0.59149000  0.71149000  1.0
  H  H62  1  0.85633000  0.09152000  0.78850000  1.0
  H  H63  1  0.14365000  0.40849000  0.28850000  1.0
  H  H64  1  0.20257000  0.02766000  0.16000000  1.0
  H  H65  1  0.79744000  0.47234000  0.65999000  1.0
  H  H66  1  0.79741000  0.97236000  0.84000000  1.0
  H  H67  1  0.20256000  0.52764000  0.34001000  1.0
  C  C68  1  0.59582000  0.70676000  0.75860000  1.0
  C  C69  1  0.40420000  0.79324000  0.25860000  1.0
  C  C70  1  0.40418000  0.29323000  0.24139000  1.0
  C  C71  1  0.59582000  0.20677000  0.74138000  1.0
  C  C72  1  0.72330000  0.76411000  0.72440000  1.0
  C  C73  1  0.27671000  0.73589000  0.22440000  1.0
  C  C74  1  0.27670000  0.23589000  0.27560000  1.0
  C  C75  1  0.72332000  0.26412000  0.77559000  1.0
  C  C76  1  0.89501000  0.75131000  0.69893000  1.0
  C  C77  1  0.10498000  0.74870000  0.19893000  1.0
  C  C78  1  0.10498000  0.24869000  0.30106000  1.0
  C  C79  1  0.89504000  0.25131000  0.80106000  1.0
  C  C80  1  0.01022000  0.80418000  0.66612000  1.0
  C  C81  1  0.98975000  0.69583000  0.16611000  1.0
  C  C82  1  0.98974000  0.19582000  0.33388000  1.0
  C  C83  1  0.01026000  0.30418000  0.83388000  1.0
  C  C84  1  0.95412000  0.87045000  0.65848000  1.0
  C  C85  1  0.04587000  0.62956000  0.15848000  1.0
  C  C86  1  0.04586000  0.12956000  0.34152000  1.0
  C  C87  1  0.95415000  0.37044000  0.84152000  1.0
  C  C88  1  0.78394000  0.88449000  0.68406000  1.0
  C  C89  1  0.21603000  0.61551000  0.18406000  1.0
  C  C90  1  0.21603000  0.11550000  0.31594000  1.0
  C  C91  1  0.78399000  0.38450000  0.81594000  1.0
  C  C92  1  0.66951000  0.83116000  0.71707000  1.0
  C  C93  1  0.33047000  0.66884000  0.21708000  1.0
  C  C94  1  0.33049000  0.16884000  0.28293000  1.0
  C  C95  1  0.66955000  0.33116000  0.78292000  1.0
  C  C96  1  0.72981000  0.95672000  0.67489000  1.0
  C  C97  1  0.27016000  0.54328000  0.17489000  1.0
  C  C98  1  0.27016000  0.04328000  0.32512000  1.0
  C  C99  1  0.72983000  0.45672000  0.82511000  1.0
  C  C100  1  0.40143000  0.64180000  0.91234000  1.0
  C  C101  1  0.59856000  0.85820000  0.41233000  1.0
  C  C102  1  0.59857000  0.35820000  0.08767000  1.0
  C  C103  1  0.40140000  0.14179000  0.58767000  1.0
  C  C104  1  0.33522000  0.64814000  0.97228000  1.0
  C  C105  1  0.66480000  0.85186000  0.47228000  1.0
  C  C106  1  0.66479000  0.35187000  0.02772000  1.0
  C  C107  1  0.33518000  0.14813000  0.52771000  1.0
  C  C108  1  0.27392000  0.58743000  0.00634000  1.0
  C  C109  1  0.72612000  0.91257000  0.50634000  1.0
  C  C110  1  0.72608000  0.41258000  0.99366000  1.0
  C  C111  1  0.27390000  0.08741000  0.49366000  1.0
  C  C112  1  0.27908000  0.52017000  0.98003000  1.0
  C  C113  1  0.72095000  0.97983000  0.48002000  1.0
  C  C114  1  0.72092000  0.47984000  0.01997000  1.0
  C  C115  1  0.27910000  0.02016000  0.51998000  1.0
  C  C116  1  0.34845000  0.51780000  0.91948000  1.0
  C  C117  1  0.65157000  0.98220000  0.41948000  1.0
  C  C118  1  0.65156000  0.48222000  0.08051000  1.0
  C  C119  1  0.34846000  0.01778000  0.58052000  1.0
  C  C120  1  0.21626000  0.39067000  0.99905000  1.0
  C  C121  1  0.78377000  0.10933000  0.49905000  1.0
  C  C122  1  0.78378000  0.60934000  0.00095000  1.0
  C  C123  1  0.21624000  0.89065000  0.50095000  1.0
  C  C124  1  0.14671000  0.33775000  0.04661000  1.0
  C  C125  1  0.85332000  0.16225000  0.54662000  1.0
  C  C126  1  0.85332000  0.66227000  0.95339000  1.0
  C  C127  1  0.14669000  0.83772000  0.45340000  1.0
  C  C128  1  0.05690000  0.34381000  0.10280000  1.0
  C  C129  1  0.94306000  0.15620000  0.60281000  1.0
  C  C130  1  0.94305000  0.65621000  0.89719000  1.0
  C  C131  1  0.05695000  0.84377000  0.39720000  1.0
  C  C132  1  0.01534000  0.27815000  0.13362000  1.0
  C  C133  1  0.98462000  0.22184000  0.63363000  1.0
  C  C134  1  0.98463000  0.72186000  0.86638000  1.0
  C  C135  1  0.01538000  0.77813000  0.36639000  1.0
  C  C136  1  0.07729000  0.22348000  0.10090000  1.0
  C  C137  1  0.92274000  0.27652000  0.60090000  1.0
  C  C138  1  0.92276000  0.77654000  0.89910000  1.0
  C  C139  1  0.07722000  0.72345000  0.39912000  1.0
  C  C140  1  0.07948000  0.14869000  0.11758000  1.0
  C  C141  1  0.92058000  0.35132000  0.61756000  1.0
  C  C142  1  0.92058000  0.85133000  0.88243000  1.0
  C  C143  1  0.07938000  0.64866000  0.38245000  1.0
  C  C144  1  0.93407000  0.05457000  0.18910000  1.0
  C  C145  1  0.06592000  0.44543000  0.68910000  1.0
  C  C146  1  0.06593000  0.94545000  0.81090000  1.0
  C  C147  1  0.93407000  0.55456000  0.31089000  1.0
  C  C148  1  0.76894000  0.03023000  0.22228000  1.0
  C  C149  1  0.23105000  0.46977000  0.72229000  1.0
  C  C150  1  0.23105000  0.96978000  0.77772000  1.0
  C  C151  1  0.76894000  0.53023000  0.27770000  1.0
  C  C152  1  0.86845000  0.92232000  0.24364000  1.0
  C  C153  1  0.13153000  0.57768000  0.74364000  1.0
  C  C154  1  0.13152000  0.07770000  0.75636000  1.0
  C  C155  1  0.86845000  0.42231000  0.25636000  1.0
  C  C156  1  0.03680000  0.94336000  0.21224000  1.0
  C  C157  1  0.96320000  0.55664000  0.71223000  1.0
  C  C158  1  0.96318000  0.05666000  0.78777000  1.0
  C  C159  1  0.03680000  0.44334000  0.28777000  1.0
  C  C160  1  0.07159000  0.00981000  0.18438000  1.0
  C  C161  1  0.92840000  0.49019000  0.68438000  1.0
  C  C162  1  0.92841000  0.99021000  0.81562000  1.0
  C  C163  1  0.07158000  0.50979000  0.31562000  1.0
  S  S164  1  0.18157000  0.25197000  0.03188000  1.0
  S  S165  1  0.81845000  0.24803000  0.53188000  1.0
  S  S166  1  0.81845000  0.74805000  0.96812000  1.0
  S  S167  1  0.18157000  0.75194000  0.46813000  1.0
  N  N168  1  0.40742000  0.57758000  0.88724000  1.0
  N  N169  1  0.59260000  0.92241000  0.38724000  1.0
  N  N170  1  0.59257000  0.42242000  0.11276000  1.0
  N  N171  1  0.40740000  0.07758000  0.61276000  1.0
  N  N172  1  0.21710000  0.46034000  0.01573000  1.0
  N  N173  1  0.78291000  0.03966000  0.51574000  1.0
  N  N174  1  0.78293000  0.53968000  0.98426000  1.0
  N  N175  1  0.21711000  0.96032000  0.48426000  1.0
  N  N176  1  0.95488000  0.12268000  0.16397000  1.0
  N  N177  1  0.04512000  0.37732000  0.66397000  1.0
  N  N178  1  0.04512000  0.87734000  0.83602000  1.0
  N  N179  1  0.95486000  0.62266000  0.33603000  1.0
  N  N180  1  0.73765000  0.96576000  0.24860000  1.0
  N  N181  1  0.26234000  0.53424000  0.74860000  1.0
  N  N182  1  0.26233000  0.03426000  0.75140000  1.0
  N  N183  1  0.73765000  0.46575000  0.25140000  1.0
  O  O184  1  0.66066000  0.64650000  0.76301000  1.0
  O  O185  1  0.33937000  0.85351000  0.26301000  1.0
  O  O186  1  0.33936000  0.35350000  0.23699000  1.0
  O  O187  1  0.66062000  0.14650000  0.73698000  1.0
  O  O188  1  0.44158000  0.71809000  0.78025000  1.0
  O  O189  1  0.55842000  0.78191000  0.28026000  1.0
  O  O190  1  0.55839000  0.28190000  0.21974000  1.0
  O  O191  1  0.44163000  0.21812000  0.71971000  1.0
  O  O192  1  0.58935000  0.97156000  0.70719000  1.0
  O  O193  1  0.41063000  0.52844000  0.20719000  1.0
  O  O194  1  0.41063000  0.02844000  0.29282000  1.0
  O  O195  1  0.58936000  0.47156000  0.79282000  1.0
  O  O196  1  0.82216000  0.99892000  0.63726000  1.0
  O  O197  1  0.17782000  0.50108000  0.13726000  1.0
  O  O198  1  0.17782000  0.00107000  0.36275000  1.0
  O  O199  1  0.82218000  0.49892000  0.86274000  1.0
  O  O200  1  0.27088000  0.37181000  0.94798000  1.0
  O  O201  1  0.72912000  0.12819000  0.44798000  1.0
  O  O202  1  0.72911000  0.62821000  0.05202000  1.0
  O  O203  1  0.27095000  0.87179000  0.55202000  1.0
  O  O204  1  0.18613000  0.11288000  0.09155000  1.0
  O  O205  1  0.81395000  0.38714000  0.59152000  1.0
  O  O206  1  0.81392000  0.88714000  0.90847000  1.0
  O  O207  1  0.18603000  0.61285000  0.40849000  1.0
