# generated using pymatgen
data_NaH25(C3O2)6
_symmetry_space_group_name_H-M   'P 1'
_cell_length_a   6.69483000
_cell_length_b   14.28900000
_cell_length_c   24.52770000
_cell_angle_alpha   89.99970000
_cell_angle_beta   89.99990000
_cell_angle_gamma   103.21000000
_symmetry_Int_Tables_number   1
_chemical_formula_structural   NaH25(C3O2)6
_chemical_formula_sum   'Na4 H100 C72 O48'
_cell_volume   2284.29181890
_cell_formula_units_Z   4
loop_
 _symmetry_equiv_pos_site_id
 _symmetry_equiv_pos_as_xyz
  1  'x, y, z'
loop_
 _atom_site_type_symbol
 _atom_site_label
 _atom_site_symmetry_multiplicity
 _atom_site_fract_x
 _atom_site_fract_y
 _atom_site_fract_z
 _atom_site_occupancy
  Na  Na0  1  0.95875000  0.55968000  0.91677000  1.0
  Na  Na1  1  0.04125000  0.44032000  0.41677000  1.0
  Na  Na2  1  0.45118000  0.98016000  0.39451000  1.0
  Na  Na3  1  0.54882000  0.01983000  0.89451000  1.0
  H  H4  1  0.17091000  0.71431000  0.81688000  1.0
  H  H5  1  0.82909000  0.28569000  0.31687000  1.0
  H  H6  1  0.56305000  0.77459000  0.81532000  1.0
  H  H7  1  0.43694000  0.22540000  0.31532000  1.0
  H  H8  1  0.65305000  0.62128000  0.80071000  1.0
  H  H9  1  0.34694000  0.37872000  0.30071000  1.0
  H  H10  1  0.42990000  0.56190000  0.90746000  1.0
  H  H11  1  0.57010000  0.43810000  0.40746000  1.0
  H  H12  1  0.35402000  0.49702000  0.78922000  1.0
  H  H13  1  0.64598000  0.50297000  0.28922000  1.0
  H  H14  1  0.03172000  0.39580000  0.82300000  1.0
  H  H15  1  0.96828000  0.60420000  0.32299000  1.0
  H  H16  1  0.24848000  0.35549000  0.84717000  1.0
  H  H17  1  0.75151000  0.64451000  0.34717000  1.0
  H  H18  1  0.38436000  0.80063000  0.89062000  1.0
  H  H19  1  0.61564000  0.19937000  0.39062000  1.0
  H  H20  1  0.85345000  0.74446000  0.86167000  1.0
  H  H21  1  0.14655000  0.25554000  0.36167000  1.0
  H  H22  1  0.55115000  0.43559000  0.90580000  1.0
  H  H23  1  0.44885000  0.56441000  0.40580000  1.0
  H  H24  1  0.19855000  0.41074000  0.93039000  1.0
  H  H25  1  0.80146000  0.58926000  0.43039000  1.0
  H  H26  1  0.37273000  0.64605000  0.64998000  1.0
  H  H27  1  0.62728000  0.35395000  0.14998000  1.0
  H  H28  1  0.09974000  0.62021000  0.58025000  1.0
  H  H29  1  0.90028000  0.37980000  0.08024000  1.0
  H  H30  1  0.64938000  0.62280000  0.70554000  1.0
  H  H31  1  0.35064000  0.37722000  0.20554000  1.0
  H  H32  1  0.92226000  0.64087000  0.77571000  1.0
  H  H33  1  0.07774000  0.35915000  0.27571000  1.0
  H  H34  1  0.87356000  0.65211000  0.53302000  1.0
  H  H35  1  0.12646000  0.34789000  0.03302000  1.0
  H  H36  1  0.50635000  0.67831000  0.53047000  1.0
  H  H37  1  0.49366000  0.32169000  0.03047000  1.0
  H  H38  1  0.31919000  0.52778000  0.56777000  1.0
  H  H39  1  0.68081000  0.47222000  0.06777000  1.0
  H  H40  1  0.45233000  0.42808000  0.46930000  1.0
  H  H41  1  0.54767000  0.57193000  0.96930000  1.0
  H  H42  1  0.58176000  0.41830000  0.58826000  1.0
  H  H43  1  0.41824000  0.58170000  0.08826000  1.0
  H  H44  1  0.84612000  0.34295000  0.55263000  1.0
  H  H45  1  0.15387000  0.65704000  0.05263000  1.0
  H  H46  1  0.59707000  0.27444000  0.53401000  1.0
  H  H47  1  0.40292000  0.72556000  0.03401000  1.0
  H  H48  1  0.25244000  0.59105000  0.46586000  1.0
  H  H49  1  0.74758000  0.40895000  0.96586000  1.0
  H  H50  1  0.23537000  0.30731000  0.49958000  1.0
  H  H51  1  0.76462000  0.69269000  0.99958000  1.0
  H  H52  1  0.67337000  0.31647000  0.44597000  1.0
  H  H53  1  0.32663000  0.68352000  0.94597000  1.0
  H  H54  1  0.52466000  0.82894000  0.49628000  1.0
  H  H55  1  0.47535000  0.17106000  0.99628000  1.0
  H  H56  1  0.87148000  0.77603000  0.50272000  1.0
  H  H57  1  0.12852000  0.22397000  0.00272000  1.0
  H  H58  1  0.12013000  0.92197000  0.50214000  1.0
  H  H59  1  0.87988000  0.07803000  0.00214000  1.0
  H  H60  1  0.91888000  0.97619000  0.39926000  1.0
  H  H61  1  0.08112000  0.02380000  0.89926000  1.0
  H  H62  1  0.92308000  0.04802000  0.51643000  1.0
  H  H63  1  0.07692000  0.95197000  0.01644000  1.0
  H  H64  1  0.69627000  0.14725000  0.47892000  1.0
  H  H65  1  0.30374000  0.85274000  0.97892000  1.0
  H  H66  1  0.95298000  0.18486000  0.45505000  1.0
  H  H67  1  0.04703000  0.81513000  0.95505000  1.0
  H  H68  1  0.67852000  0.71317000  0.43774000  1.0
  H  H69  1  0.32148000  0.28682000  0.93774000  1.0
  H  H70  1  0.07494000  0.80624000  0.41069000  1.0
  H  H71  1  0.92506000  0.19376000  0.91069000  1.0
  H  H72  1  0.17053000  0.09756000  0.39428000  1.0
  H  H73  1  0.82947000  0.90244000  0.89429000  1.0
  H  H74  1  0.86274000  0.12289000  0.37154000  1.0
  H  H75  1  0.13725000  0.87710000  0.87154000  1.0
  H  H76  1  0.37646000  0.93858000  0.53487000  1.0
  H  H77  1  0.62355000  0.06142000  0.03487000  1.0
  H  H78  1  0.09288000  0.93585000  0.60142000  1.0
  H  H79  1  0.90712000  0.06415000  0.10143000  1.0
  H  H80  1  0.46234000  0.84971000  0.72740000  1.0
  H  H81  1  0.53765000  0.15029000  0.22740000  1.0
  H  H82  1  0.73532000  0.84641000  0.66050000  1.0
  H  H83  1  0.26467000  0.15358000  0.16050000  1.0
  H  H84  1  0.20555000  0.83978000  0.77155000  1.0
  H  H85  1  0.79444000  0.16023000  0.27155000  1.0
  H  H86  1  0.81860000  0.82044000  0.76667000  1.0
  H  H87  1  0.18140000  0.17956000  0.26667000  1.0
  H  H88  1  0.80165000  0.97517000  0.73504000  1.0
  H  H89  1  0.19835000  0.02484000  0.23504000  1.0
  H  H90  1  0.00628000  0.06400000  0.83958000  1.0
  H  H91  1  0.99371000  0.93599000  0.33957000  1.0
  H  H92  1  0.17926000  0.08209000  0.72388000  1.0
  H  H93  1  0.82074000  0.91792000  0.22388000  1.0
  H  H94  1  0.49989000  0.15880000  0.76348000  1.0
  H  H95  1  0.50011000  0.84120000  0.26348000  1.0
  H  H96  1  0.31158000  0.22017000  0.78591000  1.0
  H  H97  1  0.68842000  0.77983000  0.28591000  1.0
  H  H98  1  0.35007000  0.16961000  0.87167000  1.0
  H  H99  1  0.64993000  0.83039000  0.37167000  1.0
  H  H100  1  0.53563000  0.97612000  0.78616000  1.0
  H  H101  1  0.46436000  0.02388000  0.28616000  1.0
  H  H102  1  0.79815000  0.14958000  0.80182000  1.0
  H  H103  1  0.20184000  0.85042000  0.30181000  1.0
  C  C104  1  0.28022000  0.66827000  0.81038000  1.0
  C  C105  1  0.71978000  0.33173000  0.31038000  1.0
  C  C106  1  0.48344000  0.71214000  0.83939000  1.0
  C  C107  1  0.51656000  0.28786000  0.33938000  1.0
  C  C108  1  0.61634000  0.63837000  0.84292000  1.0
  C  C109  1  0.38365000  0.36163000  0.34293000  1.0
  C  C110  1  0.49162000  0.54550000  0.86785000  1.0
  C  C111  1  0.50838000  0.45450000  0.36785000  1.0
  C  C112  1  0.30407000  0.50716000  0.83132000  1.0
  C  C113  1  0.69593000  0.49284000  0.33132000  1.0
  C  C114  1  0.16474000  0.41329000  0.85053000  1.0
  C  C115  1  0.83527000  0.58671000  0.35052000  1.0
  C  C116  1  0.16561000  0.64738000  0.71721000  1.0
  C  C117  1  0.83440000  0.35264000  0.21721000  1.0
  C  C118  1  0.21407000  0.64075000  0.66220000  1.0
  C  C119  1  0.78593000  0.35925000  0.16220000  1.0
  C  C120  1  0.06007000  0.62779000  0.62278000  1.0
  C  C121  1  0.93995000  0.37223000  0.12278000  1.0
  C  C122  1  0.85644000  0.62254000  0.63832000  1.0
  C  C123  1  0.14358000  0.37747000  0.13832000  1.0
  C  C124  1  0.80828000  0.62813000  0.69347000  1.0
  C  C125  1  0.19173000  0.37188000  0.19347000  1.0
  C  C126  1  0.96210000  0.63971000  0.73285000  1.0
  C  C127  1  0.03791000  0.36031000  0.23285000  1.0
  C  C128  1  0.73546000  0.59871000  0.54581000  1.0
  C  C129  1  0.26455000  0.40129000  0.04581000  1.0
  C  C130  1  0.54790000  0.61301000  0.51395000  1.0
  C  C131  1  0.45211000  0.38699000  0.01395000  1.0
  C  C132  1  0.36604000  0.52796000  0.52470000  1.0
  C  C133  1  0.63396000  0.47204000  0.02470000  1.0
  C  C134  1  0.42396000  0.43253000  0.51312000  1.0
  C  C135  1  0.57604000  0.56747000  0.01312000  1.0
  C  C136  1  0.61980000  0.42632000  0.54433000  1.0
  C  C137  1  0.38020000  0.57368000  0.04433000  1.0
  C  C138  1  0.71129000  0.34237000  0.52691000  1.0
  C  C139  1  0.28870000  0.65763000  0.02691000  1.0
  C  C140  1  0.67846000  0.87607000  0.50153000  1.0
  C  C141  1  0.32154000  0.12393000  0.00153000  1.0
  C  C142  1  0.83886000  0.83023000  0.47423000  1.0
  C  C143  1  0.16114000  0.16977000  0.97423000  1.0
  C  C144  1  0.04037000  0.90284000  0.46319000  1.0
  C  C145  1  0.95964000  0.09716000  0.96319000  1.0
  C  C146  1  0.00314000  0.99426000  0.43780000  1.0
  C  C147  1  0.99685000  0.00574000  0.93781000  1.0
  C  C148  1  0.85898000  0.03477000  0.47490000  1.0
  C  C149  1  0.14101000  0.96522000  0.97490000  1.0
  C  C150  1  0.81328000  0.12676000  0.45302000  1.0
  C  C151  1  0.18672000  0.87323000  0.95302000  1.0
  C  C152  1  0.57085000  0.89077000  0.59344000  1.0
  C  C153  1  0.42915000  0.10923000  0.09344000  1.0
  C  C154  1  0.39142000  0.91680000  0.57680000  1.0
  C  C155  1  0.60857000  0.08320000  0.07680000  1.0
  C  C156  1  0.23545000  0.91782000  0.61423000  1.0
  C  C157  1  0.76455000  0.08218000  0.11423000  1.0
  C  C158  1  0.26016000  0.89493000  0.66870000  1.0
  C  C159  1  0.73983000  0.10508000  0.16870000  1.0
  C  C160  1  0.44124000  0.87037000  0.68550000  1.0
  C  C161  1  0.55875000  0.12963000  0.18550000  1.0
  C  C162  1  0.59582000  0.86751000  0.64784000  1.0
  C  C163  1  0.40418000  0.13249000  0.14784000  1.0
  C  C164  1  0.12921000  0.89706000  0.75972000  1.0
  C  C165  1  0.87077000  0.10294000  0.25972000  1.0
  C  C166  1  0.92026000  0.88108000  0.78846000  1.0
  C  C167  1  0.07973000  0.11892000  0.28846000  1.0
  C  C168  1  0.83326000  0.97089000  0.77894000  1.0
  C  C169  1  0.16673000  0.02912000  0.27894000  1.0
  C  C170  1  0.98607000  0.06332000  0.79515000  1.0
  C  C171  1  0.01393000  0.93668000  0.29515000  1.0
  C  C172  1  0.19537000  0.07060000  0.76809000  1.0
  C  C173  1  0.80463000  0.92940000  0.26809000  1.0
  C  C174  1  0.36418000  0.15291000  0.78979000  1.0
  C  C175  1  0.63582000  0.84709000  0.28979000  1.0
  O  O176  1  0.17900000  0.57795000  0.83161000  1.0
  O  O177  1  0.82100000  0.42205000  0.33161000  1.0
  O  O178  1  0.32825000  0.66325000  0.75397000  1.0
  O  O179  1  0.67175000  0.33675000  0.25397000  1.0
  O  O180  1  0.44876000  0.74334000  0.89286000  1.0
  O  O181  1  0.55124000  0.25666000  0.39286000  1.0
  O  O182  1  0.80014000  0.67472000  0.87300000  1.0
  O  O183  1  0.19986000  0.32527000  0.37300000  1.0
  O  O184  1  0.61689000  0.47827000  0.87500000  1.0
  O  O185  1  0.38311000  0.52173000  0.37500000  1.0
  O  O186  1  0.08802000  0.41895000  0.90445000  1.0
  O  O187  1  0.91199000  0.58105000  0.40445000  1.0
  O  O188  1  0.78226000  0.51007000  0.53539000  1.0
  O  O189  1  0.21774000  0.48993000  0.03539000  1.0
  O  O190  1  0.69399000  0.61204000  0.60229000  1.0
  O  O191  1  0.30602000  0.38796000  0.10230000  1.0
  O  O192  1  0.58895000  0.62247000  0.45740000  1.0
  O  O193  1  0.41106000  0.37753000  0.95740000  1.0
  O  O194  1  0.19600000  0.53996000  0.49192000  1.0
  O  O195  1  0.80400000  0.46005000  0.99192000  1.0
  O  O196  1  0.25796000  0.35419000  0.52900000  1.0
  O  O197  1  0.74204000  0.64581000  0.02900000  1.0
  O  O198  1  0.78110000  0.34978000  0.47176000  1.0
  O  O199  1  0.21890000  0.65021000  0.97177000  1.0
  O  O200  1  0.66436000  0.96450000  0.47709000  1.0
  O  O201  1  0.33564000  0.03549000  0.97709000  1.0
  O  O202  1  0.72965000  0.88631000  0.55786000  1.0
  O  O203  1  0.27035000  0.11369000  0.05786000  1.0
  O  O204  1  0.76206000  0.78431000  0.42464000  1.0
  O  O205  1  0.23794000  0.21569000  0.92464000  1.0
  O  O206  1  0.16972000  0.85865000  0.42985000  1.0
  O  O207  1  0.83028000  0.14134000  0.92985000  1.0
  O  O208  1  0.19337000  0.06027000  0.42809000  1.0
  O  O209  1  0.80663000  0.93972000  0.92809000  1.0
  O  O210  1  0.73550000  0.11489000  0.39832000  1.0
  O  O211  1  0.26450000  0.88511000  0.89832000  1.0
  O  O212  1  0.26658000  0.98342000  0.77687000  1.0
  O  O213  1  0.73342000  0.01658000  0.27687000  1.0
  O  O214  1  0.42572000  0.13866000  0.84441000  1.0
  O  O215  1  0.57428000  0.86134000  0.34441000  1.0
  O  O216  1  0.09525000  0.89659000  0.70266000  1.0
  O  O217  1  0.90475000  0.10341000  0.20266000  1.0
  O  O218  1  0.93902000  0.85765000  0.84358000  1.0
  O  O219  1  0.06096000  0.14235000  0.34358000  1.0
  O  O220  1  0.64604000  0.96251000  0.80923000  1.0
  O  O221  1  0.35395000  0.03750000  0.30923000  1.0
  O  O222  1  0.91615000  0.14697000  0.77901000  1.0
  O  O223  1  0.08384000  0.85303000  0.27900000  1.0
