# generated using pymatgen
data_ZnH6(C2N3)4
_symmetry_space_group_name_H-M   'P 1'
_cell_length_a   8.61546000
_cell_length_b   8.61573000
_cell_length_c   10.14577190
_cell_angle_alpha   105.78952180
_cell_angle_beta   105.71336760
_cell_angle_gamma   111.14200000
_symmetry_Int_Tables_number   1
_chemical_formula_structural   ZnH6(C2N3)4
_chemical_formula_sum   'Zn2 H12 C16 N24'
_cell_volume   616.15031250
_cell_formula_units_Z   2
loop_
 _symmetry_equiv_pos_site_id
 _symmetry_equiv_pos_as_xyz
  1  'x, y, z'
loop_
 _atom_site_type_symbol
 _atom_site_label
 _atom_site_symmetry_multiplicity
 _atom_site_fract_x
 _atom_site_fract_y
 _atom_site_fract_z
 _atom_site_occupancy
  Zn  Zn0  1  0.88595000  0.63595000  0.74999000  1.0
  Zn  Zn1  1  0.11405000  0.36405000  0.25001000  1.0
  H  H2  1  0.17864000  0.90192000  0.10681000  1.0
  H  H3  1  0.79481000  0.57163000  0.39319000  1.0
  H  H4  1  0.82136000  0.09808000  0.89319000  1.0
  H  H5  1  0.20519000  0.42837000  0.60681000  1.0
  H  H6  1  0.69755000  0.76041000  0.18653000  1.0
  H  H7  1  0.57404000  0.01099000  0.31357000  1.0
  H  H8  1  0.30245000  0.23959000  0.81347000  1.0
  H  H9  1  0.42596000  0.98902000  0.68644000  1.0
  H  H10  1  0.51714000  0.68133000  0.72764000  1.0
  H  H11  1  0.95388000  0.28967000  0.77241000  1.0
  H  H12  1  0.48287000  0.31868000  0.27237000  1.0
  H  H13  1  0.04612000  0.71033000  0.22759000  1.0
  C  C14  1  0.40291000  0.75013000  0.96263000  1.0
  C  C15  1  0.78759000  0.94031000  0.53743000  1.0
  C  C16  1  0.59709000  0.24987000  0.03737000  1.0
  C  C17  1  0.21240000  0.05969000  0.46257000  1.0
  C  C18  1  0.23402000  0.83720000  0.03805000  1.0
  C  C19  1  0.79890000  0.69582000  0.46192000  1.0
  C  C20  1  0.76598000  0.16280000  0.96195000  1.0
  C  C21  1  0.20110000  0.30418000  0.53808000  1.0
  C  C22  1  0.68894000  0.73056000  0.07189000  1.0
  C  C23  1  0.65879000  0.11704000  0.42816000  1.0
  C  C24  1  0.31107000  0.26944000  0.92811000  1.0
  C  C25  1  0.34121000  0.88295000  0.57184000  1.0
  C  C26  1  0.59510000  0.68940000  0.83573000  1.0
  C  C27  1  0.85386000  0.25947000  0.66430000  1.0
  C  C28  1  0.40491000  0.31060000  0.16427000  1.0
  C  C29  1  0.14613000  0.74053000  0.33570000  1.0
  N  N30  1  0.13942000  0.72910000  0.89013000  1.0
  N  N31  1  0.83881000  0.74919000  0.60986000  1.0
  N  N32  1  0.86058000  0.27090000  0.10987000  1.0
  N  N33  1  0.16119000  0.25081000  0.39014000  1.0
  N  N34  1  0.24908000  0.67027000  0.83958000  1.0
  N  N35  1  0.83072000  0.90949000  0.66046000  1.0
  N  N36  1  0.75092000  0.32973000  0.16042000  1.0
  N  N37  1  0.16928000  0.09051000  0.33954000  1.0
  N  N38  1  0.40368000  0.85466000  0.08922000  1.0
  N  N39  1  0.76546000  0.81446000  0.41083000  1.0
  N  N40  1  0.59632000  0.14534000  0.91078000  1.0
  N  N41  1  0.23454000  0.18554000  0.58917000  1.0
  N  N42  1  0.74457000  0.67068000  0.87386000  1.0
  N  N43  1  0.79700000  0.37078000  0.62611000  1.0
  N  N44  1  0.25543000  0.32932000  0.12614000  1.0
  N  N45  1  0.20300000  0.62922000  0.37389000  1.0
  N  N46  1  0.80490000  0.69650000  0.02273000  1.0
  N  N47  1  0.67391000  0.28219000  0.47724000  1.0
  N  N48  1  0.19510000  0.30350000  0.97727000  1.0
  N  N49  1  0.32609000  0.71781000  0.52276000  1.0
  N  N50  1  0.55484000  0.72628000  0.95783000  1.0
  N  N51  1  0.76864000  0.09709000  0.54223000  1.0
  N  N52  1  0.44516000  0.27372000  0.04217000  1.0
  N  N53  1  0.23136000  0.90291000  0.45777000  1.0
