# generated using pymatgen
data_CuH10C9N2(ClO)2
_symmetry_space_group_name_H-M   'P 1'
_cell_length_a   8.49687000
_cell_length_b   10.00630000
_cell_length_c   13.96110000
_cell_angle_alpha   89.99980000
_cell_angle_beta   89.99980000
_cell_angle_gamma   74.51400000
_symmetry_Int_Tables_number   1
_chemical_formula_structural   CuH10C9N2(ClO)2
_chemical_formula_sum   'Cu4 H40 C36 N8 Cl8 O8'
_cell_volume   1143.91054237
_cell_formula_units_Z   4
loop_
 _symmetry_equiv_pos_site_id
 _symmetry_equiv_pos_as_xyz
  1  'x, y, z'
loop_
 _atom_site_type_symbol
 _atom_site_label
 _atom_site_symmetry_multiplicity
 _atom_site_fract_x
 _atom_site_fract_y
 _atom_site_fract_z
 _atom_site_occupancy
  Cu  Cu0  1  0.32972000  0.64768000  0.55867000  1.0
  Cu  Cu1  1  0.17028000  0.85233000  0.05866000  1.0
  Cu  Cu2  1  0.67027000  0.35231000  0.44133000  1.0
  Cu  Cu3  1  0.82972000  0.14768000  0.94134000  1.0
  H  H4  1  0.42322000  0.16403000  0.90002000  1.0
  H  H5  1  0.07677000  0.33598000  0.40002000  1.0
  H  H6  1  0.57677000  0.83597000  0.09998000  1.0
  H  H7  1  0.92324000  0.66402000  0.59997000  1.0
  H  H8  1  0.38023000  0.50713000  0.83243000  1.0
  H  H9  1  0.11977000  0.99288000  0.33242000  1.0
  H  H10  1  0.61976000  0.49287000  0.16757000  1.0
  H  H11  1  0.88023000  0.00712000  0.66758000  1.0
  H  H12  1  0.32326000  0.43641000  0.72642000  1.0
  H  H13  1  0.17674000  0.06360000  0.22642000  1.0
  H  H14  1  0.67674000  0.56359000  0.27358000  1.0
  H  H15  1  0.82326000  0.93640000  0.77358000  1.0
  H  H16  1  0.66057000  0.48227000  0.76443000  1.0
  H  H17  1  0.83943000  0.01773000  0.26443000  1.0
  H  H18  1  0.33943000  0.51772000  0.23557000  1.0
  H  H19  1  0.16057000  0.98227000  0.73557000  1.0
  H  H20  1  0.60916000  0.39869000  0.66140000  1.0
  H  H21  1  0.89084000  0.10131000  0.16141000  1.0
  H  H22  1  0.39084000  0.60130000  0.33859000  1.0
  H  H23  1  0.10915000  0.89870000  0.83859000  1.0
  H  H24  1  0.61204000  0.71212000  0.76240000  1.0
  H  H25  1  0.88797000  0.78788000  0.26241000  1.0
  H  H26  1  0.38797000  0.28787000  0.23759000  1.0
  H  H27  1  0.11202000  0.21212000  0.73759000  1.0
  H  H28  1  0.57417000  0.97306000  0.74079000  1.0
  H  H29  1  0.92584000  0.52694000  0.24079000  1.0
  H  H30  1  0.42583000  0.02693000  0.25920000  1.0
  H  H31  1  0.07417000  0.47306000  0.75920000  1.0
  H  H32  1  0.44326000  0.19051000  0.64717000  1.0
  H  H33  1  0.05674000  0.30950000  0.14717000  1.0
  H  H34  1  0.55674000  0.80949000  0.35283000  1.0
  H  H35  1  0.94329000  0.69050000  0.85283000  1.0
  H  H36  1  0.24112000  0.17936000  0.52053000  1.0
  H  H37  1  0.25887000  0.32065000  0.02053000  1.0
  H  H38  1  0.75887000  0.82064000  0.47947000  1.0
  H  H39  1  0.74115000  0.67936000  0.97948000  1.0
  H  H40  1  0.19085000  0.94781000  0.48139000  1.0
  H  H41  1  0.30914000  0.55220000  0.98139000  1.0
  H  H42  1  0.80914000  0.05218000  0.51861000  1.0
  H  H43  1  0.69085000  0.44782000  0.01862000  1.0
  C  C44  1  0.48698000  0.28898000  0.81417000  1.0
  C  C45  1  0.01302000  0.21103000  0.31418000  1.0
  C  C46  1  0.51301000  0.71101000  0.18583000  1.0
  C  C47  1  0.98699000  0.78898000  0.68582000  1.0
  C  C48  1  0.42723000  0.43304000  0.77423000  1.0
  C  C49  1  0.07276000  0.06697000  0.27423000  1.0
  C  C50  1  0.57277000  0.56696000  0.22576000  1.0
  C  C51  1  0.92724000  0.93303000  0.72577000  1.0
  C  C52  1  0.55921000  0.47558000  0.71734000  1.0
  C  C53  1  0.94079000  0.02443000  0.21734000  1.0
  C  C54  1  0.44079000  0.52441000  0.28266000  1.0
  C  C55  1  0.05921000  0.97558000  0.78266000  1.0
  C  C56  1  0.52794000  0.71638000  0.70232000  1.0
  C  C57  1  0.97206000  0.78362000  0.20232000  1.0
  C  C58  1  0.47207000  0.28360000  0.29767000  1.0
  C  C59  1  0.02793000  0.21639000  0.79767000  1.0
  C  C60  1  0.45654000  0.84829000  0.65527000  1.0
  C  C61  1  0.04346000  0.65171000  0.15527000  1.0
  C  C62  1  0.54345000  0.15170000  0.34474000  1.0
  C  C63  1  0.95654000  0.34829000  0.84473000  1.0
  C  C64  1  0.49057000  0.97188000  0.68193000  1.0
  C  C65  1  0.00943000  0.52812000  0.18192000  1.0
  C  C66  1  0.50942000  0.02812000  0.31807000  1.0
  C  C67  1  0.99058000  0.47188000  0.81807000  1.0
  C  C68  1  0.41576000  0.09253000  0.63165000  1.0
  C  C69  1  0.08424000  0.40747000  0.13165000  1.0
  C  C70  1  0.58423000  0.90746000  0.36834000  1.0
  C  C71  1  0.91578000  0.59253000  0.86835000  1.0
  C  C72  1  0.30481000  0.08672000  0.55950000  1.0
  C  C73  1  0.19519000  0.41328000  0.05950000  1.0
  C  C74  1  0.69519000  0.91327000  0.44050000  1.0
  C  C75  1  0.80482000  0.58673000  0.94050000  1.0
  C  C76  1  0.27655000  0.95923000  0.53688000  1.0
  C  C77  1  0.22345000  0.54078000  0.03688000  1.0
  C  C78  1  0.72345000  0.04076000  0.46312000  1.0
  C  C79  1  0.77655000  0.45923000  0.96312000  1.0
  N  N80  1  0.48959000  0.60846000  0.67156000  1.0
  N  N81  1  0.01041000  0.89155000  0.17156000  1.0
  N  N82  1  0.51041000  0.39153000  0.32844000  1.0
  N  N83  1  0.98959000  0.10846000  0.82844000  1.0
  N  N84  1  0.35264000  0.84245000  0.58255000  1.0
  N  N85  1  0.14736000  0.65756000  0.08255000  1.0
  N  N86  1  0.64737000  0.15754000  0.41745000  1.0
  N  N87  1  0.85263000  0.34245000  0.91745000  1.0
  Cl  Cl88  1  0.32627000  0.42527000  0.53826000  1.0
  Cl  Cl89  1  0.17372000  0.07474000  0.03825000  1.0
  Cl  Cl90  1  0.67372000  0.57472000  0.46174000  1.0
  Cl  Cl91  1  0.82628000  0.92527000  0.96175000  1.0
  Cl  Cl92  1  0.13281000  0.72176000  0.44518000  1.0
  Cl  Cl93  1  0.36720000  0.77825000  0.94518000  1.0
  Cl  Cl94  1  0.86719000  0.27824000  0.55482000  1.0
  Cl  Cl95  1  0.63281000  0.22176000  0.05482000  1.0
  O  O96  1  0.37276000  0.25324000  0.86846000  1.0
  O  O97  1  0.12724000  0.24677000  0.36846000  1.0
  O  O98  1  0.62723000  0.74677000  0.13154000  1.0
  O  O99  1  0.87278000  0.75323000  0.63154000  1.0
  O  O100  1  0.62204000  0.20981000  0.79896000  1.0
  O  O101  1  0.87796000  0.29020000  0.29896000  1.0
  O  O102  1  0.37796000  0.79019000  0.20105000  1.0
  O  O103  1  0.12204000  0.70980000  0.70105000  1.0
