# generated using pymatgen
data_CoH17C18(NO)4
_symmetry_space_group_name_H-M   'P 1'
_cell_length_a   11.40630000
_cell_length_b   12.46530000
_cell_length_c   13.70210000
_cell_angle_alpha   89.99960000
_cell_angle_beta   89.99900000
_cell_angle_gamma   100.19900000
_symmetry_Int_Tables_number   1
_chemical_formula_structural   CoH17C18(NO)4
_chemical_formula_sum   'Co4 H68 C72 N16 O16'
_cell_volume   1917.42084303
_cell_formula_units_Z   4
loop_
 _symmetry_equiv_pos_site_id
 _symmetry_equiv_pos_as_xyz
  1  'x, y, z'
loop_
 _atom_site_type_symbol
 _atom_site_label
 _atom_site_symmetry_multiplicity
 _atom_site_fract_x
 _atom_site_fract_y
 _atom_site_fract_z
 _atom_site_occupancy
  Co  Co0  1  0.10964000  0.34275000  0.23894000  1.0
  Co  Co1  1  0.89036000  0.15725000  0.73894000  1.0
  Co  Co2  1  0.89036000  0.65725000  0.76106000  1.0
  Co  Co3  1  0.10964000  0.84275000  0.26106000  1.0
  H  H4  1  0.15156000  0.34062000  0.00393000  1.0
  H  H5  1  0.84845000  0.15938000  0.50393000  1.0
  H  H6  1  0.84843000  0.65938000  0.99608000  1.0
  H  H7  1  0.15156000  0.84062000  0.49608000  1.0
  H  H8  1  0.10805000  0.59529000  0.19685000  1.0
  H  H9  1  0.89196000  0.90471000  0.69686000  1.0
  H  H10  1  0.89196000  0.40472000  0.80315000  1.0
  H  H11  1  0.10804000  0.09528000  0.30314000  1.0
  H  H12  1  0.14279000  0.67812000  0.00659000  1.0
  H  H13  1  0.85720000  0.82187000  0.50659000  1.0
  H  H14  1  0.85721000  0.32188000  0.99341000  1.0
  H  H15  1  0.14279000  0.17812000  0.49341000  1.0
  H  H16  1  0.15735000  0.59399000  0.84440000  1.0
  H  H17  1  0.84265000  0.90601000  0.34442000  1.0
  H  H18  1  0.84264000  0.40600000  0.15559000  1.0
  H  H19  1  0.15735000  0.09399000  0.65559000  1.0
  H  H20  1  0.12938000  0.44901000  0.83446000  1.0
  H  H21  1  0.87061000  0.05098000  0.33446000  1.0
  H  H22  1  0.87061000  0.55098000  0.16555000  1.0
  H  H23  1  0.12939000  0.94902000  0.66555000  1.0
  H  H24  1  0.37066000  0.64615000  0.96398000  1.0
  H  H25  1  0.62933000  0.85384000  0.46399000  1.0
  H  H26  1  0.62932000  0.35385000  0.03601000  1.0
  H  H27  1  0.37066000  0.14616000  0.53601000  1.0
  H  H28  1  0.58522000  0.63679000  0.94785000  1.0
  H  H29  1  0.41477000  0.86321000  0.44786000  1.0
  H  H30  1  0.41476000  0.36322000  0.05214000  1.0
  H  H31  1  0.58523000  0.13680000  0.55213000  1.0
  H  H32  1  0.65127000  0.50574000  0.83261000  1.0
  H  H33  1  0.34873000  0.99425000  0.33261000  1.0
  H  H34  1  0.34872000  0.49427000  0.16739000  1.0
  H  H35  1  0.65128000  0.00575000  0.66738000  1.0
  H  H36  1  0.28627000  0.38726000  0.75221000  1.0
  H  H37  1  0.71374000  0.11274000  0.25223000  1.0
  H  H38  1  0.71373000  0.61273000  0.24778000  1.0
  H  H39  1  0.28627000  0.88726000  0.74778000  1.0
  H  H40  1  0.43372000  0.31169000  0.67738000  1.0
  H  H41  1  0.56630000  0.18831000  0.17739000  1.0
  H  H42  1  0.56628000  0.68831000  0.32262000  1.0
  H  H43  1  0.43371000  0.81170000  0.82261000  1.0
  H  H44  1  0.56620000  0.40758000  0.65333000  1.0
  H  H45  1  0.43382000  0.09241000  0.15334000  1.0
  H  H46  1  0.43380000  0.59242000  0.34667000  1.0
  H  H47  1  0.56619000  0.90759000  0.84666000  1.0
  H  H48  1  0.74097000  0.32805000  0.66324000  1.0
  H  H49  1  0.25904000  0.17195000  0.16324000  1.0
  H  H50  1  0.25903000  0.67195000  0.33676000  1.0
  H  H51  1  0.74096000  0.82805000  0.83675000  1.0
  H  H52  1  0.66601000  0.10537000  0.89681000  1.0
  H  H53  1  0.33399000  0.39463000  0.39681000  1.0
  H  H54  1  0.33399000  0.89463000  0.10318000  1.0
  H  H55  1  0.66602000  0.60537000  0.60319000  1.0
  H  H56  1  0.47474000  0.21684000  0.87259000  1.0
  H  H57  1  0.52527000  0.28316000  0.37259000  1.0
  H  H58  1  0.52526000  0.78315000  0.12741000  1.0
  H  H59  1  0.47474000  0.71685000  0.62740000  1.0
  H  H60  1  0.07915000  0.61095000  0.48397000  1.0
  H  H61  1  0.92084000  0.88906000  0.98398000  1.0
  H  H62  1  0.92085000  0.38905000  0.51603000  1.0
  H  H63  1  0.07915000  0.11095000  0.01603000  1.0
  H  H64  1  0.85646000  0.51087000  0.36904000  1.0
  H  H65  1  0.14353000  0.98912000  0.86904000  1.0
  H  H66  1  0.14354000  0.48912000  0.63096000  1.0
  H  H67  1  0.85646000  0.01088000  0.13097000  1.0
  H  H68  1  0.84361000  0.59115000  0.47266000  1.0
  H  H69  1  0.15638000  0.90885000  0.97266000  1.0
  H  H70  1  0.15639000  0.40885000  0.52734000  1.0
  H  H71  1  0.84361000  0.09116000  0.02735000  1.0
  C  C72  1  0.14461000  0.42046000  0.03237000  1.0
  C  C73  1  0.85540000  0.07954000  0.53237000  1.0
  C  C74  1  0.85539000  0.57954000  0.96763000  1.0
  C  C75  1  0.14461000  0.92045000  0.46763000  1.0
  C  C76  1  0.12323000  0.55506000  0.12908000  1.0
  C  C77  1  0.87677000  0.94494000  0.62908000  1.0
  C  C78  1  0.87677000  0.44494000  0.87093000  1.0
  C  C79  1  0.12322000  0.05505000  0.37092000  1.0
  C  C80  1  0.13928000  0.59700000  0.03629000  1.0
  C  C81  1  0.86072000  0.90300000  0.53630000  1.0
  C  C82  1  0.86072000  0.40300000  0.96371000  1.0
  C  C83  1  0.13927000  0.09700000  0.46370000  1.0
  C  C84  1  0.18291000  0.51850000  0.87222000  1.0
  C  C85  1  0.81709000  0.98150000  0.37223000  1.0
  C  C86  1  0.81709000  0.48149000  0.12778000  1.0
  C  C87  1  0.18291000  0.01850000  0.62778000  1.0
  C  C88  1  0.31422000  0.51832000  0.85833000  1.0
  C  C89  1  0.68578000  0.98168000  0.35835000  1.0
  C  C90  1  0.68577000  0.48168000  0.14166000  1.0
  C  C91  1  0.31422000  0.01832000  0.64165000  1.0
  C  C92  1  0.39916000  0.58916000  0.91234000  1.0
  C  C93  1  0.60084000  0.91083000  0.41236000  1.0
  C  C94  1  0.60083000  0.41084000  0.08765000  1.0
  C  C95  1  0.39916000  0.08917000  0.58764000  1.0
  C  C96  1  0.51977000  0.58378000  0.90343000  1.0
  C  C97  1  0.48023000  0.91621000  0.40343000  1.0
  C  C98  1  0.48022000  0.41622000  0.09657000  1.0
  C  C99  1  0.51977000  0.08379000  0.59656000  1.0
  C  C100  1  0.55696000  0.50964000  0.83939000  1.0
  C  C101  1  0.44305000  0.99036000  0.33940000  1.0
  C  C102  1  0.44304000  0.49037000  0.16061000  1.0
  C  C103  1  0.55696000  0.00964000  0.66060000  1.0
  C  C104  1  0.47297000  0.44016000  0.78366000  1.0
  C  C105  1  0.52704000  0.05983000  0.28367000  1.0
  C  C106  1  0.52703000  0.55984000  0.21634000  1.0
  C  C107  1  0.47297000  0.94017000  0.71632000  1.0
  C  C108  1  0.35178000  0.44393000  0.79409000  1.0
  C  C109  1  0.64823000  0.05607000  0.29410000  1.0
  C  C110  1  0.64822000  0.55607000  0.20591000  1.0
  C  C111  1  0.35178000  0.94394000  0.70590000  1.0
  C  C112  1  0.51186000  0.36234000  0.71129000  1.0
  C  C113  1  0.48816000  0.13766000  0.21130000  1.0
  C  C114  1  0.48815000  0.63766000  0.28871000  1.0
  C  C115  1  0.51185000  0.86235000  0.78870000  1.0
  C  C116  1  0.69462000  0.27816000  0.72134000  1.0
  C  C117  1  0.30539000  0.22183000  0.22134000  1.0
  C  C118  1  0.30538000  0.72184000  0.27866000  1.0
  C  C119  1  0.69462000  0.77817000  0.77866000  1.0
  C  C120  1  0.65238000  0.16763000  0.84499000  1.0
  C  C121  1  0.34763000  0.33237000  0.34499000  1.0
  C  C122  1  0.34763000  0.83237000  0.15501000  1.0
  C  C123  1  0.65238000  0.66763000  0.65501000  1.0
  C  C124  1  0.55810000  0.22164000  0.83358000  1.0
  C  C125  1  0.44190000  0.27836000  0.33358000  1.0
  C  C126  1  0.44190000  0.77836000  0.16642000  1.0
  C  C127  1  0.55811000  0.72164000  0.66642000  1.0
  C  C128  1  0.08108000  0.48317000  0.38111000  1.0
  C  C129  1  0.91892000  0.01684000  0.88111000  1.0
  C  C130  1  0.91892000  0.51684000  0.61889000  1.0
  C  C131  1  0.08108000  0.98317000  0.11889000  1.0
  C  C132  1  0.01636000  0.54008000  0.45682000  1.0
  C  C133  1  0.98364000  0.95992000  0.95683000  1.0
  C  C134  1  0.98364000  0.45992000  0.54317000  1.0
  C  C135  1  0.01636000  0.04008000  0.04318000  1.0
  C  C136  1  0.90545000  0.57690000  0.41456000  1.0
  C  C137  1  0.09455000  0.92310000  0.91456000  1.0
  C  C138  1  0.09456000  0.42310000  0.58544000  1.0
  C  C139  1  0.90545000  0.07690000  0.08545000  1.0
  C  C140  1  0.93032000  0.68011000  0.35306000  1.0
  C  C141  1  0.06967000  0.81988000  0.85307000  1.0
  C  C142  1  0.06968000  0.31989000  0.64694000  1.0
  C  C143  1  0.93031000  0.18011000  0.14695000  1.0
  N  N144  1  0.12677000  0.44458000  0.12569000  1.0
  N  N145  1  0.87324000  0.05542000  0.62570000  1.0
  N  N146  1  0.87323000  0.55543000  0.87431000  1.0
  N  N147  1  0.12676000  0.94457000  0.37431000  1.0
  N  N148  1  0.15193000  0.51089000  0.97616000  1.0
  N  N149  1  0.84807000  0.98911000  0.47617000  1.0
  N  N150  1  0.84807000  0.48912000  0.02384000  1.0
  N  N151  1  0.15192000  0.01088000  0.52384000  1.0
  N  N152  1  0.58641000  0.29087000  0.75503000  1.0
  N  N153  1  0.41360000  0.20913000  0.25503000  1.0
  N  N154  1  0.41359000  0.70914000  0.24497000  1.0
  N  N155  1  0.58640000  0.79087000  0.74497000  1.0
  N  N156  1  0.73708000  0.20369000  0.77452000  1.0
  N  N157  1  0.26293000  0.29631000  0.27452000  1.0
  N  N158  1  0.26293000  0.79632000  0.22548000  1.0
  N  N159  1  0.73707000  0.70369000  0.72548000  1.0
  O  O160  1  0.01608000  0.40138000  0.33688000  1.0
  O  O161  1  0.98392000  0.09863000  0.83689000  1.0
  O  O162  1  0.98392000  0.59863000  0.66312000  1.0
  O  O163  1  0.01608000  0.90137000  0.16311000  1.0
  O  O164  1  0.19091000  0.51055000  0.36609000  1.0
  O  O165  1  0.80909000  0.98944000  0.86609000  1.0
  O  O166  1  0.80910000  0.48945000  0.63391000  1.0
  O  O167  1  0.19091000  0.01056000  0.13391000  1.0
  O  O168  1  0.85035000  0.73566000  0.34106000  1.0
  O  O169  1  0.14963000  0.76433000  0.84107000  1.0
  O  O170  1  0.14965000  0.26434000  0.65894000  1.0
  O  O171  1  0.85035000  0.23566000  0.15895000  1.0
  O  O172  1  0.03701000  0.70266000  0.31603000  1.0
  O  O173  1  0.96297000  0.79733000  0.81605000  1.0
  O  O174  1  0.96298000  0.29733000  0.68395000  1.0
  O  O175  1  0.03702000  0.20266000  0.18396000  1.0
