# generated using pymatgen
data_CdH16C20(N3O2)2
_symmetry_space_group_name_H-M   'P 1'
_cell_length_a   4.93915000
_cell_length_b   9.20939000
_cell_length_c   20.17620000
_cell_angle_alpha   89.99810000
_cell_angle_beta   91.30470000
_cell_angle_gamma   89.99870000
_symmetry_Int_Tables_number   1
_chemical_formula_structural   CdH16C20(N3O2)2
_chemical_formula_sum   'Cd2 H32 C40 N12 O8'
_cell_volume   917.50797294
_cell_formula_units_Z   2
loop_
 _symmetry_equiv_pos_site_id
 _symmetry_equiv_pos_as_xyz
  1  'x, y, z'
loop_
 _atom_site_type_symbol
 _atom_site_label
 _atom_site_symmetry_multiplicity
 _atom_site_fract_x
 _atom_site_fract_y
 _atom_site_fract_z
 _atom_site_occupancy
  Cd  Cd0  1  0.50000000  0.50001000  0.50000000  1.0
  Cd  Cd1  1  0.50000000  0.99999000  0.00000000  1.0
  H  H2  1  0.99300000  0.28808000  0.00777000  1.0
  H  H3  1  0.00700000  0.78810000  0.49224000  1.0
  H  H4  1  0.00701000  0.71190000  0.99223000  1.0
  H  H5  1  0.99300000  0.21193000  0.50776000  1.0
  H  H6  1  0.26939000  0.25909000  0.89540000  1.0
  H  H7  1  0.73063000  0.75911000  0.60460000  1.0
  H  H8  1  0.73062000  0.74088000  0.10460000  1.0
  H  H9  1  0.26938000  0.24091000  0.39539000  1.0
  H  H10  1  0.59953000  0.64117000  0.87783000  1.0
  H  H11  1  0.40046000  0.14119000  0.62216000  1.0
  H  H12  1  0.40045000  0.35881000  0.12218000  1.0
  H  H13  1  0.59955000  0.85882000  0.37784000  1.0
  H  H14  1  0.27268000  0.59881000  0.90656000  1.0
  H  H15  1  0.72732000  0.09882000  0.59343000  1.0
  H  H16  1  0.72730000  0.40116000  0.09344000  1.0
  H  H17  1  0.27270000  0.90120000  0.40657000  1.0
  H  H18  1  0.64054000  0.36686000  0.78288000  1.0
  H  H19  1  0.35946000  0.86688000  0.71712000  1.0
  H  H20  1  0.35946000  0.63313000  0.21712000  1.0
  H  H21  1  0.64053000  0.13313000  0.28287000  1.0
  H  H22  1  0.01275000  0.68289000  0.81499000  1.0
  H  H23  1  0.98724000  0.18290000  0.68500000  1.0
  H  H24  1  0.98725000  0.31710000  0.18501000  1.0
  H  H25  1  0.01278000  0.81711000  0.31501000  1.0
  H  H26  1  0.83477000  0.64190000  0.70064000  1.0
  H  H27  1  0.16521000  0.14191000  0.79936000  1.0
  H  H28  1  0.16523000  0.35810000  0.29937000  1.0
  H  H29  1  0.83478000  0.85809000  0.20065000  1.0
  H  H30  1  0.47475000  0.33822000  0.66680000  1.0
  H  H31  1  0.52526000  0.83823000  0.83320000  1.0
  H  H32  1  0.52525000  0.66179000  0.33320000  1.0
  H  H33  1  0.47471000  0.16176000  0.16679000  1.0
  C  C34  1  0.82441000  0.31760000  0.97490000  1.0
  C  C35  1  0.17560000  0.81763000  0.52510000  1.0
  C  C36  1  0.17560000  0.68237000  0.02510000  1.0
  C  C37  1  0.82441000  0.18240000  0.47489000  1.0
  C  C38  1  0.45455000  0.29953000  0.91841000  1.0
  C  C39  1  0.54547000  0.79954000  0.58159000  1.0
  C  C40  1  0.54546000  0.70045000  0.08159000  1.0
  C  C41  1  0.45454000  0.20048000  0.41841000  1.0
  C  C42  1  0.43955000  0.55810000  0.87667000  1.0
  C  C43  1  0.56045000  0.05811000  0.62333000  1.0
  C  C44  1  0.56044000  0.44188000  0.12334000  1.0
  C  C45  1  0.43958000  0.94191000  0.37667000  1.0
  C  C46  1  0.33750000  0.52748000  0.80712000  1.0
  C  C47  1  0.66249000  0.02749000  0.69287000  1.0
  C  C48  1  0.66249000  0.47251000  0.19288000  1.0
  C  C49  1  0.33751000  0.97252000  0.30712000  1.0
  C  C50  1  0.46495000  0.42871000  0.76529000  1.0
  C  C51  1  0.53506000  0.92872000  0.73471000  1.0
  C  C52  1  0.53505000  0.57129000  0.23471000  1.0
  C  C53  1  0.46494000  0.07129000  0.26528000  1.0
  C  C54  1  0.11304000  0.60557000  0.78272000  1.0
  C  C55  1  0.88695000  0.10558000  0.71728000  1.0
  C  C56  1  0.88696000  0.39442000  0.21729000  1.0
  C  C57  1  0.11305000  0.89443000  0.28273000  1.0
  C  C58  1  0.01504000  0.58433000  0.71815000  1.0
  C  C59  1  0.98495000  0.08434000  0.78185000  1.0
  C  C60  1  0.98496000  0.41567000  0.28185000  1.0
  C  C61  1  0.01504000  0.91566000  0.21816000  1.0
  C  C62  1  0.37020000  0.41026000  0.70031000  1.0
  C  C63  1  0.62980000  0.91027000  0.79969000  1.0
  C  C64  1  0.62979000  0.58974000  0.29969000  1.0
  C  C65  1  0.37019000  0.08972000  0.20031000  1.0
  C  C66  1  0.14240000  0.48568000  0.67613000  1.0
  C  C67  1  0.85760000  0.98569000  0.82387000  1.0
  C  C68  1  0.85759000  0.51433000  0.32388000  1.0
  C  C69  1  0.14239000  0.01431000  0.17613000  1.0
  C  C70  1  0.03483000  0.45640000  0.60671000  1.0
  C  C71  1  0.96517000  0.95641000  0.89329000  1.0
  C  C72  1  0.96516000  0.54361000  0.39329000  1.0
  C  C73  1  0.03482000  0.04358000  0.10671000  1.0
  N  N74  1  0.61881000  0.22369000  0.95896000  1.0
  N  N75  1  0.38120000  0.72371000  0.54104000  1.0
  N  N76  1  0.38120000  0.77629000  0.04103000  1.0
  N  N77  1  0.61880000  0.27632000  0.45896000  1.0
  N  N78  1  0.55833000  0.43292000  0.91050000  1.0
  N  N79  1  0.44168000  0.93294000  0.58950000  1.0
  N  N80  1  0.44167000  0.56706000  0.08951000  1.0
  N  N81  1  0.55834000  0.06708000  0.41050000  1.0
  N  N82  1  0.79503000  0.44674000  0.94615000  1.0
  N  N83  1  0.20496000  0.94676000  0.55385000  1.0
  N  N84  1  0.20497000  0.55324000  0.05385000  1.0
  N  N85  1  0.79505000  0.05326000  0.44615000  1.0
  O  O86  1  0.80352000  0.50928000  0.59177000  1.0
  O  O87  1  0.19646000  0.00929000  0.90823000  1.0
  O  O88  1  0.19647000  0.49073000  0.40823000  1.0
  O  O89  1  0.80353000  0.99070000  0.09177000  1.0
  O  O90  1  0.17962000  0.37903000  0.56876000  1.0
  O  O91  1  0.82039000  0.87903000  0.93124000  1.0
  O  O92  1  0.82038000  0.62099000  0.43124000  1.0
  O  O93  1  0.17960000  0.12095000  0.06875000  1.0
