# generated using pymatgen
data_TmH4(C3O4)2
_symmetry_space_group_name_H-M   'P 1'
_cell_length_a   10.32700000
_cell_length_b   18.46620000
_cell_length_c   18.46620000
_cell_angle_alpha   90.00010000
_cell_angle_beta   90.00000000
_cell_angle_gamma   90.00000000
_symmetry_Int_Tables_number   1
_chemical_formula_structural   TmH4(C3O4)2
_chemical_formula_sum   'Tm16 H64 C96 O128'
_cell_volume   3521.51260177
_cell_formula_units_Z   16
loop_
 _symmetry_equiv_pos_site_id
 _symmetry_equiv_pos_as_xyz
  1  'x, y, z'
loop_
 _atom_site_type_symbol
 _atom_site_label
 _atom_site_symmetry_multiplicity
 _atom_site_fract_x
 _atom_site_fract_y
 _atom_site_fract_z
 _atom_site_occupancy
  Tm  Tm0  1  0.64988000  0.97873000  0.25299000  1.0
  Tm  Tm1  1  0.64988000  0.52127000  0.24701000  1.0
  Tm  Tm2  1  0.64988000  0.24701000  0.97873000  1.0
  Tm  Tm3  1  0.64988000  0.25299000  0.52127000  1.0
  Tm  Tm4  1  0.85012000  0.02127000  0.75299000  1.0
  Tm  Tm5  1  0.85012000  0.47873000  0.74701000  1.0
  Tm  Tm6  1  0.85012000  0.75299000  0.47873000  1.0
  Tm  Tm7  1  0.85012000  0.74701000  0.02127000  1.0
  Tm  Tm8  1  0.35011000  0.02127000  0.74701000  1.0
  Tm  Tm9  1  0.35011000  0.47873000  0.75299000  1.0
  Tm  Tm10  1  0.35012000  0.75299000  0.02127000  1.0
  Tm  Tm11  1  0.35011000  0.74701000  0.47873000  1.0
  Tm  Tm12  1  0.14989000  0.97873000  0.24701000  1.0
  Tm  Tm13  1  0.14988000  0.52127000  0.25299000  1.0
  Tm  Tm14  1  0.14988000  0.24701000  0.52127000  1.0
  Tm  Tm15  1  0.14989000  0.25299000  0.97873000  1.0
  H  H16  1  0.69921000  0.83196000  0.26097000  1.0
  H  H17  1  0.81519000  0.85611000  0.20714000  1.0
  H  H18  1  0.69693000  0.11258000  0.16429000  1.0
  H  H19  1  0.55341000  0.11998000  0.19789000  1.0
  H  H20  1  0.69921000  0.66804000  0.23903000  1.0
  H  H21  1  0.81519000  0.64389000  0.29286000  1.0
  H  H22  1  0.69693000  0.38741000  0.33571000  1.0
  H  H23  1  0.55341000  0.38002000  0.30211000  1.0
  H  H24  1  0.69921000  0.23903000  0.83196000  1.0
  H  H25  1  0.81519000  0.29286000  0.85611000  1.0
  H  H26  1  0.69693000  0.33571000  0.11259000  1.0
  H  H27  1  0.55341000  0.30211000  0.11998000  1.0
  H  H28  1  0.69921000  0.26097000  0.66804000  1.0
  H  H29  1  0.81519000  0.20714000  0.64389000  1.0
  H  H30  1  0.69693000  0.16429000  0.38741000  1.0
  H  H31  1  0.55341000  0.19789000  0.38002000  1.0
  H  H32  1  0.80079000  0.16804000  0.76097000  1.0
  H  H33  1  0.68481000  0.14389000  0.70714000  1.0
  H  H34  1  0.80307000  0.88741000  0.66429000  1.0
  H  H35  1  0.94659000  0.88002000  0.69789000  1.0
  H  H36  1  0.80079000  0.33196000  0.73903000  1.0
  H  H37  1  0.68481000  0.35611000  0.79286000  1.0
  H  H38  1  0.80307000  0.61259000  0.83571000  1.0
  H  H39  1  0.94659000  0.61998000  0.80211000  1.0
  H  H40  1  0.80079000  0.76097000  0.33196000  1.0
  H  H41  1  0.68481000  0.70714000  0.35611000  1.0
  H  H42  1  0.80307000  0.66429000  0.61259000  1.0
  H  H43  1  0.94659000  0.69789000  0.61998000  1.0
  H  H44  1  0.80079000  0.73903000  0.16804000  1.0
  H  H45  1  0.68481000  0.79286000  0.14389000  1.0
  H  H46  1  0.80307000  0.83571000  0.88741000  1.0
  H  H47  1  0.94659000  0.80211000  0.88002000  1.0
  H  H48  1  0.30079000  0.16804000  0.73903000  1.0
  H  H49  1  0.18481000  0.14389000  0.79286000  1.0
  H  H50  1  0.30307000  0.88741000  0.83571000  1.0
  H  H51  1  0.44659000  0.88002000  0.80211000  1.0
  H  H52  1  0.30079000  0.33196000  0.76097000  1.0
  H  H53  1  0.18481000  0.35611000  0.70714000  1.0
  H  H54  1  0.30307000  0.61259000  0.66429000  1.0
  H  H55  1  0.44659000  0.61998000  0.69789000  1.0
  H  H56  1  0.30079000  0.76097000  0.16804000  1.0
  H  H57  1  0.18481000  0.70714000  0.14389000  1.0
  H  H58  1  0.30307000  0.66429000  0.88741000  1.0
  H  H59  1  0.44659000  0.69789000  0.88002000  1.0
  H  H60  1  0.30079000  0.73903000  0.33196000  1.0
  H  H61  1  0.18481000  0.79286000  0.35611000  1.0
  H  H62  1  0.30307000  0.83571000  0.61259000  1.0
  H  H63  1  0.44659000  0.80211000  0.61998000  1.0
  H  H64  1  0.19921000  0.83196000  0.23903000  1.0
  H  H65  1  0.31519000  0.85611000  0.29286000  1.0
  H  H66  1  0.19693000  0.11259000  0.33571000  1.0
  H  H67  1  0.05341000  0.11998000  0.30211000  1.0
  H  H68  1  0.19921000  0.66804000  0.26097000  1.0
  H  H69  1  0.31519000  0.64389000  0.20714000  1.0
  H  H70  1  0.19693000  0.38741000  0.16429000  1.0
  H  H71  1  0.05341000  0.38002000  0.19789000  1.0
  H  H72  1  0.19921000  0.23903000  0.66804000  1.0
  H  H73  1  0.31519000  0.29286000  0.64389000  1.0
  H  H74  1  0.19693000  0.33571000  0.38741000  1.0
  H  H75  1  0.05341000  0.30211000  0.38002000  1.0
  H  H76  1  0.19921000  0.26097000  0.83196000  1.0
  H  H77  1  0.31519000  0.20714000  0.85611000  1.0
  H  H78  1  0.19693000  0.16429000  0.11259000  1.0
  H  H79  1  0.05341000  0.19789000  0.11998000  1.0
  C  C80  1  0.92996000  0.02147000  0.43814000  1.0
  C  C81  1  0.97783000  0.95030000  0.44340000  1.0
  C  C82  1  0.95427000  0.07094000  0.49414000  1.0
  C  C83  1  0.84332000  0.04601000  0.37720000  1.0
  C  C84  1  0.97553000  0.89653000  0.38179000  1.0
  C  C85  1  0.90596000  0.14818000  0.48952000  1.0
  C  C86  1  0.92996000  0.47853000  0.06186000  1.0
  C  C87  1  0.97784000  0.54970000  0.05660000  1.0
  C  C88  1  0.95427000  0.42906000  0.00586000  1.0
  C  C89  1  0.84332000  0.45399000  0.12280000  1.0
  C  C90  1  0.97553000  0.60347000  0.11820000  1.0
  C  C91  1  0.90596000  0.35182000  0.01048000  1.0
  C  C92  1  0.92996000  0.06186000  0.02147000  1.0
  C  C93  1  0.97784000  0.05660000  0.95030000  1.0
  C  C94  1  0.95427000  0.00586000  0.07094000  1.0
  C  C95  1  0.84332000  0.12280000  0.04601000  1.0
  C  C96  1  0.97553000  0.11820000  0.89653000  1.0
  C  C97  1  0.90596000  0.01048000  0.14818000  1.0
  C  C98  1  0.92996000  0.43814000  0.47853000  1.0
  C  C99  1  0.97784000  0.44340000  0.54970000  1.0
  C  C100  1  0.95427000  0.49414000  0.42906000  1.0
  C  C101  1  0.84332000  0.37720000  0.45399000  1.0
  C  C102  1  0.97553000  0.38180000  0.60347000  1.0
  C  C103  1  0.90596000  0.48952000  0.35182000  1.0
  C  C104  1  0.57004000  0.97853000  0.93814000  1.0
  C  C105  1  0.52216000  0.04970000  0.94340000  1.0
  C  C106  1  0.54573000  0.92906000  0.99414000  1.0
  C  C107  1  0.65668000  0.95399000  0.87720000  1.0
  C  C108  1  0.52447000  0.10347000  0.88180000  1.0
  C  C109  1  0.59404000  0.85182000  0.98952000  1.0
  C  C110  1  0.57004000  0.52147000  0.56186000  1.0
  C  C111  1  0.52216000  0.45030000  0.55660000  1.0
  C  C112  1  0.54573000  0.57094000  0.50586000  1.0
  C  C113  1  0.65668000  0.54601000  0.62280000  1.0
  C  C114  1  0.52447000  0.39653000  0.61820000  1.0
  C  C115  1  0.59404000  0.64818000  0.51048000  1.0
  C  C116  1  0.57004000  0.93814000  0.52147000  1.0
  C  C117  1  0.52217000  0.94340000  0.45030000  1.0
  C  C118  1  0.54573000  0.99414000  0.57094000  1.0
  C  C119  1  0.65668000  0.87720000  0.54601000  1.0
  C  C120  1  0.52447000  0.88180000  0.39653000  1.0
  C  C121  1  0.59404000  0.98952000  0.64818000  1.0
  C  C122  1  0.57004000  0.56186000  0.97853000  1.0
  C  C123  1  0.52217000  0.55660000  0.04970000  1.0
  C  C124  1  0.54573000  0.50586000  0.92906000  1.0
  C  C125  1  0.65668000  0.62280000  0.95399000  1.0
  C  C126  1  0.52447000  0.61821000  0.10347000  1.0
  C  C127  1  0.59404000  0.51048000  0.85182000  1.0
  C  C128  1  0.07004000  0.97853000  0.56186000  1.0
  C  C129  1  0.02217000  0.04970000  0.55660000  1.0
  C  C130  1  0.04573000  0.92906000  0.50585000  1.0
  C  C131  1  0.15668000  0.95399000  0.62280000  1.0
  C  C132  1  0.02447000  0.10347000  0.61821000  1.0
  C  C133  1  0.09404000  0.85182000  0.51048000  1.0
  C  C134  1  0.07004000  0.52146000  0.93814000  1.0
  C  C135  1  0.02217000  0.45030000  0.94340000  1.0
  C  C136  1  0.04573000  0.57094000  0.99415000  1.0
  C  C137  1  0.15668000  0.54601000  0.87720000  1.0
  C  C138  1  0.02447000  0.39653000  0.88179000  1.0
  C  C139  1  0.09404000  0.64818000  0.98952000  1.0
  C  C140  1  0.07004000  0.93814000  0.97853000  1.0
  C  C141  1  0.02217000  0.94340000  0.04970000  1.0
  C  C142  1  0.04574000  0.99415000  0.92906000  1.0
  C  C143  1  0.15668000  0.87720000  0.95399000  1.0
  C  C144  1  0.02447000  0.88179000  0.10347000  1.0
  C  C145  1  0.09404000  0.98952000  0.85182000  1.0
  C  C146  1  0.07004000  0.56186000  0.52147000  1.0
  C  C147  1  0.02217000  0.55660000  0.45030000  1.0
  C  C148  1  0.04573000  0.50586000  0.57094000  1.0
  C  C149  1  0.15668000  0.62280000  0.54601000  1.0
  C  C150  1  0.02447000  0.61821000  0.39653000  1.0
  C  C151  1  0.09404000  0.51048000  0.64818000  1.0
  C  C152  1  0.42996000  0.02146000  0.06186000  1.0
  C  C153  1  0.47783000  0.95030000  0.05660000  1.0
  C  C154  1  0.45427000  0.07094000  0.00585000  1.0
  C  C155  1  0.34332000  0.04601000  0.12280000  1.0
  C  C156  1  0.47553000  0.89653000  0.11820000  1.0
  C  C157  1  0.40596000  0.14818000  0.01048000  1.0
  C  C158  1  0.42996000  0.47854000  0.43814000  1.0
  C  C159  1  0.47783000  0.54970000  0.44340000  1.0
  C  C160  1  0.45426000  0.42906000  0.49415000  1.0
  C  C161  1  0.34332000  0.45399000  0.37720000  1.0
  C  C162  1  0.47553000  0.60347000  0.38179000  1.0
  C  C163  1  0.40596000  0.35182000  0.48952000  1.0
  C  C164  1  0.42996000  0.06186000  0.47853000  1.0
  C  C165  1  0.47783000  0.05660000  0.54970000  1.0
  C  C166  1  0.45427000  0.00585000  0.42906000  1.0
  C  C167  1  0.34332000  0.12280000  0.45399000  1.0
  C  C168  1  0.47553000  0.11821000  0.60347000  1.0
  C  C169  1  0.40596000  0.01048000  0.35182000  1.0
  C  C170  1  0.42996000  0.43814000  0.02147000  1.0
  C  C171  1  0.47783000  0.44340000  0.95030000  1.0
  C  C172  1  0.45427000  0.49415000  0.07094000  1.0
  C  C173  1  0.34332000  0.37720000  0.04601000  1.0
  C  C174  1  0.47553000  0.38179000  0.89653000  1.0
  C  C175  1  0.40596000  0.48952000  0.14818000  1.0
  O  O176  1  0.76910000  0.86650000  0.25201000  1.0
  O  O177  1  0.63265000  0.09149000  0.19900000  1.0
  O  O178  1  0.82694000  0.11293000  0.36778000  1.0
  O  O179  1  0.78881000  0.99602000  0.34033000  1.0
  O  O180  1  0.93257000  0.83318000  0.39249000  1.0
  O  O181  1  0.03146000  0.91506000  0.32342000  1.0
  O  O182  1  0.98453000  0.19593000  0.46601000  1.0
  O  O183  1  0.79594000  0.16185000  0.51646000  1.0
  O  O184  1  0.76910000  0.63350000  0.24799000  1.0
  O  O185  1  0.63265000  0.40851000  0.30100000  1.0
  O  O186  1  0.82694000  0.38707000  0.13222000  1.0
  O  O187  1  0.78881000  0.50398000  0.15967000  1.0
  O  O188  1  0.93257000  0.66682000  0.10751000  1.0
  O  O189  1  0.03146000  0.58494000  0.17658000  1.0
  O  O190  1  0.98453000  0.30407000  0.03399000  1.0
  O  O191  1  0.79594000  0.33815000  0.98354000  1.0
  O  O192  1  0.76910000  0.24799000  0.86650000  1.0
  O  O193  1  0.63265000  0.30100000  0.09149000  1.0
  O  O194  1  0.82694000  0.13222000  0.11293000  1.0
  O  O195  1  0.78881000  0.15967000  0.99602000  1.0
  O  O196  1  0.93257000  0.10751000  0.83318000  1.0
  O  O197  1  0.03146000  0.17658000  0.91507000  1.0
  O  O198  1  0.98453000  0.03399000  0.19593000  1.0
  O  O199  1  0.79594000  0.98354000  0.16185000  1.0
  O  O200  1  0.76910000  0.25201000  0.63350000  1.0
  O  O201  1  0.63265000  0.19900000  0.40851000  1.0
  O  O202  1  0.82694000  0.36778000  0.38707000  1.0
  O  O203  1  0.78881000  0.34033000  0.50398000  1.0
  O  O204  1  0.93257000  0.39249000  0.66682000  1.0
  O  O205  1  0.03146000  0.32342000  0.58493000  1.0
  O  O206  1  0.98453000  0.46601000  0.30407000  1.0
  O  O207  1  0.79593000  0.51646000  0.33815000  1.0
  O  O208  1  0.73091000  0.13350000  0.75201000  1.0
  O  O209  1  0.86735000  0.90851000  0.69900000  1.0
  O  O210  1  0.67306000  0.88707000  0.86778000  1.0
  O  O211  1  0.71119000  0.00398000  0.84033000  1.0
  O  O212  1  0.56743000  0.16682000  0.89249000  1.0
  O  O213  1  0.46854000  0.08493000  0.82342000  1.0
  O  O214  1  0.51547000  0.80407000  0.96601000  1.0
  O  O215  1  0.70407000  0.83815000  0.01646000  1.0
  O  O216  1  0.73090000  0.36650000  0.74799000  1.0
  O  O217  1  0.86735000  0.59149000  0.80100000  1.0
  O  O218  1  0.67306000  0.61293000  0.63222000  1.0
  O  O219  1  0.71119000  0.49602000  0.65967000  1.0
  O  O220  1  0.56743000  0.33318000  0.60751000  1.0
  O  O221  1  0.46854000  0.41507000  0.67658000  1.0
  O  O222  1  0.51547000  0.69593000  0.53399000  1.0
  O  O223  1  0.70406000  0.66185000  0.48354000  1.0
  O  O224  1  0.73090000  0.75201000  0.36650000  1.0
  O  O225  1  0.86735000  0.69900000  0.59149000  1.0
  O  O226  1  0.67306000  0.86778000  0.61293000  1.0
  O  O227  1  0.71119000  0.84033000  0.49602000  1.0
  O  O228  1  0.56743000  0.89249000  0.33318000  1.0
  O  O229  1  0.46854000  0.82342000  0.41506000  1.0
  O  O230  1  0.51547000  0.96601000  0.69593000  1.0
  O  O231  1  0.70406000  0.01646000  0.66185000  1.0
  O  O232  1  0.73090000  0.74799000  0.13350000  1.0
  O  O233  1  0.86735000  0.80100000  0.90851000  1.0
  O  O234  1  0.67306000  0.63222000  0.88707000  1.0
  O  O235  1  0.71119000  0.65967000  0.00398000  1.0
  O  O236  1  0.56743000  0.60751000  0.16682000  1.0
  O  O237  1  0.46854000  0.67658000  0.08493000  1.0
  O  O238  1  0.51547000  0.53399000  0.80407000  1.0
  O  O239  1  0.70407000  0.48354000  0.83815000  1.0
  O  O240  1  0.23090000  0.13350000  0.74799000  1.0
  O  O241  1  0.36735000  0.90851000  0.80100000  1.0
  O  O242  1  0.17306000  0.88707000  0.63222000  1.0
  O  O243  1  0.21119000  0.00398000  0.65967000  1.0
  O  O244  1  0.06743000  0.16682000  0.60751000  1.0
  O  O245  1  0.96854000  0.08493000  0.67658000  1.0
  O  O246  1  0.01547000  0.80407000  0.53399000  1.0
  O  O247  1  0.20406000  0.83815000  0.48354000  1.0
  O  O248  1  0.23090000  0.36650000  0.75201000  1.0
  O  O249  1  0.36735000  0.59149000  0.69900000  1.0
  O  O250  1  0.17306000  0.61293000  0.86778000  1.0
  O  O251  1  0.21119000  0.49602000  0.84033000  1.0
  O  O252  1  0.06744000  0.33318000  0.89250000  1.0
  O  O253  1  0.96854000  0.41507000  0.82342000  1.0
  O  O254  1  0.01547000  0.69593000  0.96601000  1.0
  O  O255  1  0.20407000  0.66185000  0.01646000  1.0
  O  O256  1  0.23090000  0.75201000  0.13350000  1.0
  O  O257  1  0.36735000  0.69900000  0.90850000  1.0
  O  O258  1  0.17306000  0.86778000  0.88707000  1.0
  O  O259  1  0.21119000  0.84033000  0.00398000  1.0
  O  O260  1  0.06743000  0.89249000  0.16682000  1.0
  O  O261  1  0.96854000  0.82342000  0.08494000  1.0
  O  O262  1  0.01547000  0.96601000  0.80408000  1.0
  O  O263  1  0.20407000  0.01646000  0.83815000  1.0
  O  O264  1  0.23090000  0.74799000  0.36650000  1.0
  O  O265  1  0.36735000  0.80100000  0.59149000  1.0
  O  O266  1  0.17306000  0.63222000  0.61293000  1.0
  O  O267  1  0.21119000  0.65967000  0.49602000  1.0
  O  O268  1  0.06743000  0.60751000  0.33318000  1.0
  O  O269  1  0.96854000  0.67658000  0.41506000  1.0
  O  O270  1  0.01547000  0.53399000  0.69593000  1.0
  O  O271  1  0.20407000  0.48354000  0.66185000  1.0
  O  O272  1  0.26910000  0.86650000  0.24799000  1.0
  O  O273  1  0.13265000  0.09150000  0.30100000  1.0
  O  O274  1  0.32694000  0.11293000  0.13222000  1.0
  O  O275  1  0.28881000  0.99602000  0.15967000  1.0
  O  O276  1  0.43257000  0.83318000  0.10751000  1.0
  O  O277  1  0.53146000  0.91507000  0.17658000  1.0
  O  O278  1  0.48453000  0.19592000  0.03399000  1.0
  O  O279  1  0.29593000  0.16185000  0.98354000  1.0
  O  O280  1  0.26909000  0.63350000  0.25201000  1.0
  O  O281  1  0.13265000  0.40851000  0.19900000  1.0
  O  O282  1  0.32694000  0.38707000  0.36778000  1.0
  O  O283  1  0.28881000  0.50398000  0.34033000  1.0
  O  O284  1  0.43257000  0.66682000  0.39250000  1.0
  O  O285  1  0.53146000  0.58493000  0.32342000  1.0
  O  O286  1  0.48453000  0.30408000  0.46601000  1.0
  O  O287  1  0.29593000  0.33815000  0.51646000  1.0
  O  O288  1  0.26910000  0.24799000  0.63350000  1.0
  O  O289  1  0.13265000  0.30100000  0.40851000  1.0
  O  O290  1  0.32694000  0.13222000  0.38707000  1.0
  O  O291  1  0.28881000  0.15967000  0.50398000  1.0
  O  O292  1  0.43257000  0.10751000  0.66682000  1.0
  O  O293  1  0.53146000  0.17658000  0.58493000  1.0
  O  O294  1  0.48453000  0.03399000  0.30407000  1.0
  O  O295  1  0.29593000  0.98354000  0.33815000  1.0
  O  O296  1  0.26910000  0.25201000  0.86650000  1.0
  O  O297  1  0.13265000  0.19900000  0.09149000  1.0
  O  O298  1  0.32694000  0.36778000  0.11293000  1.0
  O  O299  1  0.28881000  0.34033000  0.99602000  1.0
  O  O300  1  0.43257000  0.39249000  0.83318000  1.0
  O  O301  1  0.53146000  0.32342000  0.91507000  1.0
  O  O302  1  0.48453000  0.46601000  0.19593000  1.0
  O  O303  1  0.29593000  0.51646000  0.16185000  1.0
