# generated using pymatgen
data_CuH16C24(N2O3)2
_symmetry_space_group_name_H-M   'P 1'
_cell_length_a   11.03860000
_cell_length_b   11.03840000
_cell_length_c   12.66270000
_cell_angle_alpha   67.84720000
_cell_angle_beta   67.84500000
_cell_angle_gamma   86.65320000
_symmetry_Int_Tables_number   1
_chemical_formula_structural   CuH16C24(N2O3)2
_chemical_formula_sum   'Cu2 H32 C48 N8 O12'
_cell_volume   1317.19011087
_cell_formula_units_Z   2
loop_
 _symmetry_equiv_pos_site_id
 _symmetry_equiv_pos_as_xyz
  1  'x, y, z'
loop_
 _atom_site_type_symbol
 _atom_site_label
 _atom_site_symmetry_multiplicity
 _atom_site_fract_x
 _atom_site_fract_y
 _atom_site_fract_z
 _atom_site_occupancy
  Cu  Cu0  1  0.50000000  0.00000000  0.50000000  1.0
  Cu  Cu1  1  0.00000000  0.50000000  0.00000000  1.0
  H  H2  1  0.10735000  0.82035000  0.47528000  1.0
  H  H3  1  0.17968000  0.89262000  0.02475000  1.0
  H  H4  1  0.89265000  0.17965000  0.52472000  1.0
  H  H5  1  0.82032000  0.10738000  0.97524000  1.0
  H  H6  1  0.86219000  0.78735000  0.55680000  1.0
  H  H7  1  0.21274000  0.13781000  0.94320000  1.0
  H  H8  1  0.13780000  0.21265000  0.44321000  1.0
  H  H9  1  0.78725000  0.86219000  0.05680000  1.0
  H  H10  1  0.72960000  0.84199000  0.74482000  1.0
  H  H11  1  0.15810000  0.27044000  0.75515000  1.0
  H  H12  1  0.27040000  0.15800000  0.25518000  1.0
  H  H13  1  0.84189000  0.72957000  0.24485000  1.0
  H  H14  1  0.34979000  0.23321000  0.47802000  1.0
  H  H15  1  0.76677000  0.65021000  0.02197000  1.0
  H  H16  1  0.65020000  0.76680000  0.52197000  1.0
  H  H17  1  0.23323000  0.34979000  0.97803000  1.0
  H  H18  1  0.33433000  0.43079000  0.30438000  1.0
  H  H19  1  0.56921000  0.66565000  0.19562000  1.0
  H  H20  1  0.66567000  0.56922000  0.69561000  1.0
  H  H21  1  0.43079000  0.33435000  0.80438000  1.0
  H  H22  1  0.61902000  0.27679000  0.05254000  1.0
  H  H23  1  0.72321000  0.38096000  0.44746000  1.0
  H  H24  1  0.38099000  0.72321000  0.94745000  1.0
  H  H25  1  0.27679000  0.61903000  0.55254000  1.0
  H  H26  1  0.62297000  0.08988000  0.23500000  1.0
  H  H27  1  0.91012000  0.37700000  0.26501000  1.0
  H  H28  1  0.37703000  0.91012000  0.76500000  1.0
  H  H29  1  0.08988000  0.62300000  0.73499000  1.0
  H  H30  1  0.38832000  0.54887000  0.08763000  1.0
  H  H31  1  0.45117000  0.61170000  0.41234000  1.0
  H  H32  1  0.61169000  0.45113000  0.91235000  1.0
  H  H33  1  0.54883000  0.38830000  0.58766000  1.0
  C  C34  1  0.25491000  0.91314000  0.55804000  1.0
  C  C35  1  0.08687000  0.74509000  0.94199000  1.0
  C  C36  1  0.74509000  0.08686000  0.44197000  1.0
  C  C37  1  0.91313000  0.25491000  0.05801000  1.0
  C  C38  1  0.10697000  0.89052000  0.61261000  1.0
  C  C39  1  0.10946000  0.89304000  0.88743000  1.0
  C  C40  1  0.89303000  0.10948000  0.38740000  1.0
  C  C41  1  0.89054000  0.10697000  0.11257000  1.0
  C  C42  1  0.04690000  0.84018000  0.55637000  1.0
  C  C43  1  0.15984000  0.95309000  0.94365000  1.0
  C  C44  1  0.95310000  0.15982000  0.44363000  1.0
  C  C45  1  0.84016000  0.04691000  0.05635000  1.0
  C  C46  1  0.91036000  0.82118000  0.60280000  1.0
  C  C47  1  0.17889000  0.08964000  0.89719000  1.0
  C  C48  1  0.08964000  0.17882000  0.39720000  1.0
  C  C49  1  0.82110000  0.91036000  0.10281000  1.0
  C  C50  1  0.83629000  0.85146000  0.70336000  1.0
  C  C51  1  0.14862000  0.16373000  0.79663000  1.0
  C  C52  1  0.16371000  0.14854000  0.29664000  1.0
  C  C53  1  0.85138000  0.83627000  0.20338000  1.0
  C  C54  1  0.02973000  0.91919000  0.71526000  1.0
  C  C55  1  0.08083000  0.97027000  0.78474000  1.0
  C  C56  1  0.97027000  0.08081000  0.28474000  1.0
  C  C57  1  0.91917000  0.02973000  0.21526000  1.0
  C  C58  1  0.40853000  0.24885000  0.38199000  1.0
  C  C59  1  0.75115000  0.59145000  0.11800000  1.0
  C  C60  1  0.59148000  0.75116000  0.61800000  1.0
  C  C61  1  0.24886000  0.40854000  0.88200000  1.0
  C  C62  1  0.39995000  0.35751000  0.28467000  1.0
  C  C63  1  0.64249000  0.60003000  0.21534000  1.0
  C  C64  1  0.60005000  0.64249000  0.71532000  1.0
  C  C65  1  0.35751000  0.39997000  0.78466000  1.0
  C  C66  1  0.47418000  0.37176000  0.16190000  1.0
  C  C67  1  0.62823000  0.52580000  0.33811000  1.0
  C  C68  1  0.52583000  0.62825000  0.83809000  1.0
  C  C69  1  0.37176000  0.47419000  0.66189000  1.0
  C  C70  1  0.55597000  0.27260000  0.14405000  1.0
  C  C71  1  0.72739000  0.44400000  0.35595000  1.0
  C  C72  1  0.44403000  0.72740000  0.85594000  1.0
  C  C73  1  0.27261000  0.55599000  0.64405000  1.0
  C  C74  1  0.55980000  0.16739000  0.24557000  1.0
  C  C75  1  0.83261000  0.44018000  0.25443000  1.0
  C  C76  1  0.44021000  0.83261000  0.75443000  1.0
  C  C77  1  0.16739000  0.55981000  0.74557000  1.0
  C  C78  1  0.46321000  0.48512000  0.06055000  1.0
  C  C79  1  0.51488000  0.53680000  0.43945000  1.0
  C  C80  1  0.53680000  0.51488000  0.93944000  1.0
  C  C81  1  0.48511000  0.46319000  0.56055000  1.0
  N  N82  1  0.89424000  0.89986000  0.75968000  1.0
  N  N83  1  0.10018000  0.10576000  0.74032000  1.0
  N  N84  1  0.10576000  0.10014000  0.24032000  1.0
  N  N85  1  0.89981000  0.89424000  0.25968000  1.0
  N  N86  1  0.48741000  0.15532000  0.36246000  1.0
  N  N87  1  0.84468000  0.51256000  0.13753000  1.0
  N  N88  1  0.51259000  0.84468000  0.63754000  1.0
  N  N89  1  0.15532000  0.48744000  0.86247000  1.0
  O  O90  1  0.30636000  0.98721000  0.59229000  1.0
  O  O91  1  0.01280000  0.69365000  0.90774000  1.0
  O  O92  1  0.69364000  0.01280000  0.40771000  1.0
  O  O93  1  0.98721000  0.30635000  0.09227000  1.0
  O  O94  1  0.32053000  0.86304000  0.48291000  1.0
  O  O95  1  0.13697000  0.67947000  0.01712000  1.0
  O  O96  1  0.67946000  0.13696000  0.51710000  1.0
  O  O97  1  0.86304000  0.32053000  0.98288000  1.0
  O  O98  1  0.82223000  0.92566000  0.85465000  1.0
  O  O99  1  0.07439000  0.17778000  0.64535000  1.0
  O  O100  1  0.17777000  0.07434000  0.14535000  1.0
  O  O101  1  0.92560000  0.82222000  0.35465000  1.0
