# generated using pymatgen
data_AgH9C7N3O2
_symmetry_space_group_name_H-M   'P 1'
_cell_length_a   8.15126000
_cell_length_b   9.33501000
_cell_length_c   12.16420000
_cell_angle_alpha   70.64200000
_cell_angle_beta   90.00070000
_cell_angle_gamma   90.00010000
_symmetry_Int_Tables_number   1
_chemical_formula_structural   AgH9C7N3O2
_chemical_formula_sum   'Ag4 H36 C28 N12 O8'
_cell_volume   873.27150544
_cell_formula_units_Z   4
loop_
 _symmetry_equiv_pos_site_id
 _symmetry_equiv_pos_as_xyz
  1  'x, y, z'
loop_
 _atom_site_type_symbol
 _atom_site_label
 _atom_site_symmetry_multiplicity
 _atom_site_fract_x
 _atom_site_fract_y
 _atom_site_fract_z
 _atom_site_occupancy
  Ag  Ag0  1  0.47459000  0.00000000  0.25000000  1.0
  Ag  Ag1  1  0.52542000  0.00000000  0.75000000  1.0
  Ag  Ag2  1  0.17052000  0.00001000  0.75000000  1.0
  Ag  Ag3  1  0.82948000  0.00000000  0.25000000  1.0
  H  H4  1  0.25501000  0.71736000  0.25807000  1.0
  H  H5  1  0.25502000  0.28265000  0.24193000  1.0
  H  H6  1  0.74498000  0.28265000  0.74193000  1.0
  H  H7  1  0.74498000  0.71734000  0.75807000  1.0
  H  H8  1  0.05333000  0.60035000  0.15266000  1.0
  H  H9  1  0.05334000  0.39965000  0.34734000  1.0
  H  H10  1  0.94666000  0.39966000  0.84734000  1.0
  H  H11  1  0.94667000  0.60033000  0.65267000  1.0
  H  H12  1  0.89682000  0.81460000  0.86531000  1.0
  H  H13  1  0.89683000  0.18540000  0.63468000  1.0
  H  H14  1  0.10318000  0.18542000  0.13468000  1.0
  H  H15  1  0.10317000  0.81459000  0.36532000  1.0
  H  H16  1  0.05460000  0.68458000  0.86044000  1.0
  H  H17  1  0.05461000  0.31542000  0.63956000  1.0
  H  H18  1  0.94539000  0.31543000  0.13956000  1.0
  H  H19  1  0.94539000  0.68457000  0.36044000  1.0
  H  H20  1  0.90291000  0.63097000  0.97405000  1.0
  H  H21  1  0.90292000  0.36904000  0.52595000  1.0
  H  H22  1  0.09708000  0.36905000  0.02595000  1.0
  H  H23  1  0.09709000  0.63095000  0.47406000  1.0
  H  H24  1  0.54780000  0.56523000  0.09739000  1.0
  H  H25  1  0.54782000  0.43477000  0.40261000  1.0
  H  H26  1  0.45218000  0.43477000  0.90262000  1.0
  H  H27  1  0.45219000  0.56522000  0.59738000  1.0
  H  H28  1  0.68700000  0.52000000  0.00488000  1.0
  H  H29  1  0.68702000  0.48001000  0.49512000  1.0
  H  H30  1  0.31298000  0.48000000  0.99512000  1.0
  H  H31  1  0.31299000  0.51998000  0.50488000  1.0
  H  H32  1  0.38541000  0.16881000  0.00373000  1.0
  H  H33  1  0.38541000  0.83119000  0.49628000  1.0
  H  H34  1  0.61459000  0.83120000  0.99627000  1.0
  H  H35  1  0.61459000  0.16879000  0.50373000  1.0
  H  H36  1  0.30655000  0.17961000  0.86509000  1.0
  H  H37  1  0.30654000  0.82040000  0.63491000  1.0
  H  H38  1  0.69345000  0.82040000  0.13491000  1.0
  H  H39  1  0.69346000  0.17959000  0.36509000  1.0
  C  C40  1  0.25278000  0.98469000  0.00311000  1.0
  C  C41  1  0.25278000  0.01533000  0.49689000  1.0
  C  C42  1  0.74722000  0.01533000  0.99688000  1.0
  C  C43  1  0.74722000  0.98466000  0.50312000  1.0
  C  C44  1  0.21997000  0.77496000  0.16740000  1.0
  C  C45  1  0.21997000  0.22505000  0.33259000  1.0
  C  C46  1  0.78003000  0.22506000  0.83259000  1.0
  C  C47  1  0.78004000  0.77494000  0.66741000  1.0
  C  C48  1  0.11327000  0.70839000  0.10917000  1.0
  C  C49  1  0.11327000  0.29162000  0.39083000  1.0
  C  C50  1  0.88673000  0.29162000  0.89083000  1.0
  C  C51  1  0.88673000  0.70837000  0.60918000  1.0
  C  C52  1  0.08555000  0.78671000  0.99139000  1.0
  C  C53  1  0.08555000  0.21329000  0.50861000  1.0
  C  C54  1  0.91445000  0.21330000  0.00861000  1.0
  C  C55  1  0.91446000  0.78669000  0.49140000  1.0
  C  C56  1  0.97803000  0.72467000  0.91905000  1.0
  C  C57  1  0.97803000  0.27534000  0.58095000  1.0
  C  C58  1  0.02197000  0.27535000  0.08095000  1.0
  C  C59  1  0.02197000  0.72465000  0.41905000  1.0
  C  C60  1  0.58236000  0.32868000  0.13290000  1.0
  C  C61  1  0.58236000  0.67133000  0.36710000  1.0
  C  C62  1  0.41763000  0.67132000  0.86710000  1.0
  C  C63  1  0.41765000  0.32866000  0.63290000  1.0
  C  C64  1  0.56621000  0.48908000  0.04616000  1.0
  C  C65  1  0.56622000  0.51092000  0.45384000  1.0
  C  C66  1  0.43378000  0.51092000  0.95384000  1.0
  C  C67  1  0.43379000  0.48907000  0.54616000  1.0
  N  N68  1  0.31509000  0.12318000  0.95352000  1.0
  N  N69  1  0.31508000  0.87683000  0.54649000  1.0
  N  N70  1  0.68492000  0.87684000  0.04648000  1.0
  N  N71  1  0.68492000  0.12315000  0.45352000  1.0
  N  N72  1  0.28605000  0.91165000  0.11775000  1.0
  N  N73  1  0.28605000  0.08836000  0.38226000  1.0
  N  N74  1  0.71395000  0.08837000  0.88225000  1.0
  N  N75  1  0.71395000  0.91162000  0.61775000  1.0
  N  N76  1  0.15841000  0.92182000  0.93760000  1.0
  N  N77  1  0.15842000  0.07819000  0.56240000  1.0
  N  N78  1  0.84158000  0.07820000  0.06240000  1.0
  N  N79  1  0.84159000  0.92180000  0.43761000  1.0
  O  O80  1  0.68570000  0.30584000  0.21397000  1.0
  O  O81  1  0.68569000  0.69417000  0.28603000  1.0
  O  O82  1  0.31428000  0.69416000  0.78603000  1.0
  O  O83  1  0.31432000  0.30583000  0.71397000  1.0
  O  O84  1  0.48833000  0.22645000  0.11684000  1.0
  O  O85  1  0.48832000  0.77355000  0.38316000  1.0
  O  O86  1  0.51169000  0.77355000  0.88316000  1.0
  O  O87  1  0.51169000  0.22645000  0.61684000  1.0
