# generated using pymatgen
data_AgH4C5SN2(OF)3
_symmetry_space_group_name_H-M   'P 1'
_cell_length_a   5.33106000
_cell_length_b   9.75148000
_cell_length_c   18.75910000
_cell_angle_alpha   92.56600000
_cell_angle_beta   90.02920000
_cell_angle_gamma   105.83400000
_symmetry_Int_Tables_number   1
_chemical_formula_structural   AgH4C5SN2(OF)3
_chemical_formula_sum   'Ag4 H16 C20 S4 N8 O12 F12'
_cell_volume   937.17958070
_cell_formula_units_Z   4
loop_
 _symmetry_equiv_pos_site_id
 _symmetry_equiv_pos_as_xyz
  1  'x, y, z'
loop_
 _atom_site_type_symbol
 _atom_site_label
 _atom_site_symmetry_multiplicity
 _atom_site_fract_x
 _atom_site_fract_y
 _atom_site_fract_z
 _atom_site_occupancy
  Ag  Ag0  1  0.66666667  0.55841000  0.78678000  1.0
  Ag  Ag1  1  0.10843000  0.44177000  0.71322000  1.0
  Ag  Ag2  1  0.33333333  0.44158000  0.21322000  1.0
  Ag  Ag3  1  0.89157000  0.55823000  0.28678000  1.0
  H  H4  1  0.54332000  0.77168000  0.68409000  1.0
  H  H5  1  0.77257000  0.22879000  0.81576000  1.0
  H  H6  1  0.45669000  0.22832000  0.31591000  1.0
  H  H7  1  0.22743000  0.77121000  0.18425000  1.0
  H  H8  1  0.62319000  0.83147000  0.55376000  1.0
  H  H9  1  0.79254000  0.16876000  0.94605000  1.0
  H  H10  1  0.37683000  0.16853000  0.44624000  1.0
  H  H11  1  0.20745000  0.83125000  0.05395000  1.0
  H  H12  1  0.95015000  0.72643000  0.48792000  1.0
  H  H13  1  0.22454000  0.27323000  0.01200000  1.0
  H  H14  1  0.04986000  0.27357000  0.51208000  1.0
  H  H15  1  0.77546000  0.72677000  0.98801000  1.0
  H  H16  1  0.16646000  0.57394000  0.55735000  1.0
  H  H17  1  0.59331000  0.42577000  0.94275000  1.0
  H  H18  1  0.83355000  0.42606000  0.44265000  1.0
  H  H19  1  0.40669000  0.57424000  0.05725000  1.0
  C  C20  1  0.67854000  0.73171000  0.65104000  1.0
  C  C21  1  0.94777000  0.26850000  0.84884000  1.0
  C  C22  1  0.32147000  0.26829000  0.34896000  1.0
  C  C23  1  0.05223000  0.73151000  0.15116000  1.0
  C  C24  1  0.72429000  0.76375000  0.57961000  1.0
  C  C25  1  0.96143000  0.23635000  0.92026000  1.0
  C  C26  1  0.27572000  0.23625000  0.42038000  1.0
  C  C27  1  0.03856000  0.76365000  0.07974000  1.0
  C  C28  1  0.90162000  0.70666000  0.54346000  1.0
  C  C29  1  0.19581000  0.29315000  0.95647000  1.0
  C  C30  1  0.09839000  0.29334000  0.45654000  1.0
  C  C31  1  0.80419000  0.70685000  0.04353000  1.0
  C  C32  1  0.02268000  0.62190000  0.58145000  1.0
  C  C33  1  0.40164000  0.37787000  0.91856000  1.0
  C  C34  1  0.97733000  0.37809000  0.41855000  1.0
  C  C35  1  0.59835000  0.62214000  0.08144000  1.0
  C  C36  1  0.18080000  0.91761000  0.87020000  1.0
  C  C37  1  0.26401000  0.08238000  0.62998000  1.0
  C  C38  1  0.81919000  0.08238000  0.12980000  1.0
  C  C39  1  0.73599000  0.91762000  0.37002000  1.0
  S  S40  1  0.24858000  0.73959000  0.86964000  1.0
  S  S41  1  0.50912000  0.26054000  0.63026000  1.0
  S  S42  1  0.75142000  0.26041000  0.13035000  1.0
  S  S43  1  0.49088000  0.73946000  0.36974000  1.0
  N  N44  1  0.79714000  0.64775000  0.68437000  1.0
  N  N45  1  0.15041000  0.35228000  0.81556000  1.0
  N  N46  1  0.20286000  0.35225000  0.31563000  1.0
  N  N47  1  0.84959000  0.64772000  0.18444000  1.0
  N  N48  1  0.97096000  0.59341000  0.64977000  1.0
  N  N49  1  0.37852000  0.40645000  0.85023000  1.0
  N  N50  1  0.02905000  0.40658000  0.35023000  1.0
  N  N51  1  0.62147000  0.59355000  0.14977000  1.0
  O  O52  1  0.99317000  0.64062000  0.88391000  1.0
  O  O53  1  0.35176000  0.35914000  0.61597000  1.0
  O  O54  1  0.00683000  0.35938000  0.11609000  1.0
  O  O55  1  0.64824000  0.64086000  0.38403000  1.0
  O  O56  1  0.34322000  0.72506000  0.79726000  1.0
  O  O57  1  0.61915000  0.27551000  0.70258000  1.0
  O  O58  1  0.65678000  0.27494000  0.20274000  1.0
  O  O59  1  0.38086000  0.72450000  0.29742000  1.0
  O  O60  1  0.43818000  0.75490000  0.92715000  1.0
  O  O61  1  0.68286000  0.24506000  0.57267000  1.0
  O  O62  1  0.56181000  0.24510000  0.07285000  1.0
  O  O63  1  0.31714000  0.75494000  0.42733000  1.0
  F  F64  1  0.99538000  0.92063000  0.82139000  1.0
  F  F65  1  0.07582000  0.07953000  0.67878000  1.0
  F  F66  1  0.00461000  0.07937000  0.17861000  1.0
  F  F67  1  0.92418000  0.92047000  0.32122000  1.0
  F  F68  1  0.40097000  0.02152000  0.85530000  1.0
  F  F69  1  0.38094000  0.97877000  0.64504000  1.0
  F  F70  1  0.59903000  0.97848000  0.14470000  1.0
  F  F71  1  0.61906000  0.02123000  0.35496000  1.0
  F  F72  1  0.09854000  0.95129000  0.93565000  1.0
  F  F73  1  0.14783000  0.04831000  0.56455000  1.0
  F  F74  1  0.90147000  0.04872000  0.06435000  1.0
  F  F75  1  0.85218000  0.95169000  0.43545000  1.0
