# generated using pymatgen
data_CdH10C14S4N2O5
_symmetry_space_group_name_H-M   'P 1'
_cell_length_a   7.59368000
_cell_length_b   7.59370000
_cell_length_c   16.53960000
_cell_angle_alpha   81.58880000
_cell_angle_beta   81.58880000
_cell_angle_gamma   71.44680000
_symmetry_Int_Tables_number   1
_chemical_formula_structural   CdH10C14S4N2O5
_chemical_formula_sum   'Cd2 H20 C28 S8 N4 O10'
_cell_volume   889.37669348
_cell_formula_units_Z   2
loop_
 _symmetry_equiv_pos_site_id
 _symmetry_equiv_pos_as_xyz
  1  'x, y, z'
loop_
 _atom_site_type_symbol
 _atom_site_label
 _atom_site_symmetry_multiplicity
 _atom_site_fract_x
 _atom_site_fract_y
 _atom_site_fract_z
 _atom_site_occupancy
  Cd  Cd0  1  0.12677000  0.87322000  0.25000000  1.0
  Cd  Cd1  1  0.87322000  0.12679000  0.75000000  1.0
  H  H2  1  0.73186000  0.16466000  0.52149000  1.0
  H  H3  1  0.83535000  0.26812000  0.97851000  1.0
  H  H4  1  0.26813000  0.83534000  0.47852000  1.0
  H  H5  1  0.16467000  0.73187000  0.02148000  1.0
  H  H6  1  0.43003000  0.35177000  0.59333000  1.0
  H  H7  1  0.64824000  0.56994000  0.90666000  1.0
  H  H8  1  0.56996000  0.64825000  0.40667000  1.0
  H  H9  1  0.35176000  0.43004000  0.09333000  1.0
  H  H10  1  0.13811000  0.43877000  0.52935000  1.0
  H  H11  1  0.56124000  0.86186000  0.97064000  1.0
  H  H12  1  0.86188000  0.56125000  0.47065000  1.0
  H  H13  1  0.43876000  0.13812000  0.02935000  1.0
  H  H14  1  0.13452000  0.34334000  0.39030000  1.0
  H  H15  1  0.65666000  0.86547000  0.10969000  1.0
  H  H16  1  0.86548000  0.65666000  0.60970000  1.0
  H  H17  1  0.34334000  0.13452000  0.89030000  1.0
  H  H18  1  0.50435000  0.61270000  0.26343000  1.0
  H  H19  1  0.38731000  0.49566000  0.23657000  1.0
  H  H20  1  0.49565000  0.38732000  0.73657000  1.0
  H  H21  1  0.61270000  0.50435000  0.76344000  1.0
  C  C22  1  0.75766000  0.03993000  0.36241000  1.0
  C  C23  1  0.96008000  0.24233000  0.13759000  1.0
  C  C24  1  0.24233000  0.96008000  0.63760000  1.0
  C  C25  1  0.03992000  0.75766000  0.86240000  1.0
  C  C26  1  0.60005000  0.14963000  0.41702000  1.0
  C  C27  1  0.85038000  0.39994000  0.08298000  1.0
  C  C28  1  0.39995000  0.85037000  0.58300000  1.0
  C  C29  1  0.14962000  0.60005000  0.91701000  1.0
  C  C30  1  0.60144000  0.20358000  0.49373000  1.0
  C  C31  1  0.79643000  0.39854000  0.00627000  1.0
  C  C32  1  0.39855000  0.79643000  0.50628000  1.0
  C  C33  1  0.20358000  0.60145000  0.99372000  1.0
  C  C34  1  0.43311000  0.30831000  0.53322000  1.0
  C  C35  1  0.69170000  0.56686000  0.96677000  1.0
  C  C36  1  0.56688000  0.69169000  0.46679000  1.0
  C  C37  1  0.30831000  0.43312000  0.03322000  1.0
  C  C38  1  0.26689000  0.35814000  0.49659000  1.0
  C  C39  1  0.64188000  0.73308000  0.00340000  1.0
  C  C40  1  0.73310000  0.64187000  0.50341000  1.0
  C  C41  1  0.35813000  0.26690000  0.99659000  1.0
  C  C42  1  0.26351000  0.30535000  0.41919000  1.0
  C  C43  1  0.69465000  0.73648000  0.08081000  1.0
  C  C44  1  0.73648000  0.69465000  0.58082000  1.0
  C  C45  1  0.30535000  0.26351000  0.91918000  1.0
  C  C46  1  0.43228000  0.20165000  0.38124000  1.0
  C  C47  1  0.79836000  0.56771000  0.11875000  1.0
  C  C48  1  0.56772000  0.79835000  0.61876000  1.0
  C  C49  1  0.20164000  0.43228000  0.88124000  1.0
  S  S50  1  0.97879000  0.95846000  0.38977000  1.0
  S  S51  1  0.04156000  0.02121000  0.11024000  1.0
  S  S52  1  0.02121000  0.04156000  0.61024000  1.0
  S  S53  1  0.95845000  0.97879000  0.88976000  1.0
  S  S54  1  0.48828000  0.11063000  0.28436000  1.0
  S  S55  1  0.88937000  0.51172000  0.21564000  1.0
  S  S56  1  0.51172000  0.88937000  0.71565000  1.0
  S  S57  1  0.11063000  0.48827000  0.78436000  1.0
  N  N58  1  0.71299000  0.01235000  0.29174000  1.0
  N  N59  1  0.98766000  0.28701000  0.20826000  1.0
  N  N60  1  0.28700000  0.98767000  0.70826000  1.0
  N  N61  1  0.01234000  0.71300000  0.79173000  1.0
  O  O62  1  0.45987000  0.25910000  0.21642000  1.0
  O  O63  1  0.74091000  0.54013000  0.28358000  1.0
  O  O64  1  0.54011000  0.74091000  0.78359000  1.0
  O  O65  1  0.25911000  0.45986000  0.71642000  1.0
  O  O66  1  0.40226000  0.96621000  0.28111000  1.0
  O  O67  1  0.03379000  0.59775000  0.21889000  1.0
  O  O68  1  0.59775000  0.03378000  0.71890000  1.0
  O  O69  1  0.96621000  0.40226000  0.78110000  1.0
  O  O70  1  0.37984000  0.62016000  0.25000000  1.0
  O  O71  1  0.62015000  0.37985000  0.75000000  1.0
