# generated using pymatgen
data_Mn2H28PtC38S6(N5O2)2
_symmetry_space_group_name_H-M   'P 1'
_cell_length_a   10.19910000
_cell_length_b   10.52630000
_cell_length_c   10.96750000
_cell_angle_alpha   95.07730000
_cell_angle_beta   107.90400000
_cell_angle_gamma   107.85100000
_symmetry_Int_Tables_number   1
_chemical_formula_structural   Mn2H28PtC38S6(N5O2)2
_chemical_formula_sum   'Mn2 H28 Pt1 C38 S6 N10 O4'
_cell_volume   1044.56496530
_cell_formula_units_Z   1
loop_
 _symmetry_equiv_pos_site_id
 _symmetry_equiv_pos_as_xyz
  1  'x, y, z'
loop_
 _atom_site_type_symbol
 _atom_site_label
 _atom_site_symmetry_multiplicity
 _atom_site_fract_x
 _atom_site_fract_y
 _atom_site_fract_z
 _atom_site_occupancy
  Mn  Mn0  1  0.50262000  0.41487000  0.36581000  1.0
  Mn  Mn1  1  0.49738000  0.58512000  0.63419000  1.0
  H  H2  1  0.14885000  0.53829000  0.11785000  1.0
  H  H3  1  0.85115000  0.46170000  0.88215000  1.0
  H  H4  1  0.15752000  0.68157000  0.94944000  1.0
  H  H5  1  0.84248000  0.31843000  0.05056000  1.0
  H  H6  1  0.39208000  0.78779000  0.91170000  1.0
  H  H7  1  0.60792000  0.21221000  0.08831000  1.0
  H  H8  1  0.61447000  0.73646000  0.03266000  1.0
  H  H9  1  0.38552000  0.26353000  0.96734000  1.0
  H  H10  1  0.73254000  0.62444000  0.17556000  1.0
  H  H11  1  0.26746000  0.37556000  0.82444000  1.0
  H  H12  1  0.88109000  0.55287000  0.33352000  1.0
  H  H13  1  0.11892000  0.44714000  0.66648000  1.0
  H  H14  1  0.77344000  0.37686000  0.27996000  1.0
  H  H15  1  0.22657000  0.62314000  0.72005000  1.0
  H  H16  1  0.88762000  0.39780000  0.51183000  1.0
  H  H17  1  0.11239000  0.60219000  0.48817000  1.0
  H  H18  1  0.85340000  0.55071000  0.54945000  1.0
  H  H19  1  0.14661000  0.44929000  0.45056000  1.0
  H  H20  1  0.74860000  0.25975000  0.61050000  1.0
  H  H21  1  0.25140000  0.74025000  0.38951000  1.0
  H  H22  1  0.16612000  0.20782000  0.52252000  1.0
  H  H23  1  0.83387000  0.79219000  0.47748000  1.0
  H  H24  1  0.15630000  0.00849000  0.62977000  1.0
  H  H25  1  0.84370000  0.99152000  0.37023000  1.0
  H  H26  1  0.37448000  0.93689000  0.70180000  1.0
  H  H27  1  0.62551000  0.06312000  0.29820000  1.0
  H  H28  1  0.60476000  0.06855000  0.66686000  1.0
  H  H29  1  0.39524000  0.93145000  0.33314000  1.0
  Pt  Pt30  1  0.00000000  0.00000000  0.00000000  1.0
  C  C31  1  0.37458000  0.55202000  0.16797000  1.0
  C  C32  1  0.62542000  0.44798000  0.83202000  1.0
  C  C33  1  0.24934000  0.58050000  0.09672000  1.0
  C  C34  1  0.75066000  0.41950000  0.90328000  1.0
  C  C35  1  0.25614000  0.66269000  0.00493000  1.0
  C  C36  1  0.74386000  0.33731000  0.99507000  1.0
  C  C37  1  0.38797000  0.72178000  0.98246000  1.0
  C  C38  1  0.61203000  0.27823000  0.01754000  1.0
  C  C39  1  0.51148000  0.69376000  0.05012000  1.0
  C  C40  1  0.48852000  0.30624000  0.94988000  1.0
  C  C41  1  0.50750000  0.60798000  0.14199000  1.0
  C  C42  1  0.49249000  0.39202000  0.85802000  1.0
  C  C43  1  0.63744000  0.57888000  0.20449000  1.0
  C  C44  1  0.36256000  0.42112000  0.79550000  1.0
  C  C45  1  0.78725000  0.47200000  0.34100000  1.0
  C  C46  1  0.21276000  0.52800000  0.65900000  1.0
  C  C47  1  0.81048000  0.45209000  0.48107000  1.0
  C  C48  1  0.18952000  0.54790000  0.51893000  1.0
  C  C49  1  0.65068000  0.28177000  0.55590000  1.0
  C  C50  1  0.34932000  0.71823000  0.44410000  1.0
  C  C51  1  0.51380000  0.20795000  0.57014000  1.0
  C  C52  1  0.48620000  0.79205000  0.42986000  1.0
  C  C53  1  0.38790000  0.24783000  0.52832000  1.0
  C  C54  1  0.61210000  0.75218000  0.47168000  1.0
  C  C55  1  0.26055000  0.17475000  0.55228000  1.0
  C  C56  1  0.73945000  0.82526000  0.44772000  1.0
  C  C57  1  0.25639000  0.06395000  0.61302000  1.0
  C  C58  1  0.74360000  0.93606000  0.38698000  1.0
  C  C59  1  0.37956000  0.02398000  0.65437000  1.0
  C  C60  1  0.62044000  0.97603000  0.34563000  1.0
  C  C61  1  0.50708000  0.09677000  0.63429000  1.0
  C  C62  1  0.49291000  0.90323000  0.36571000  1.0
  C  C63  1  0.01839000  0.26076000  0.86108000  1.0
  C  C64  1  0.98161000  0.73923000  0.13890000  1.0
  C  C65  1  0.98290000  0.16474000  0.25664000  1.0
  C  C66  1  0.01711000  0.83526000  0.74336000  1.0
  C  C67  1  0.34670000  0.11990000  0.15798000  1.0
  C  C68  1  0.65331000  0.88011000  0.84204000  1.0
  S  S69  1  0.09325000  0.24262000  0.01277000  1.0
  S  S70  1  0.90675000  0.75738000  0.98721000  1.0
  S  S71  1  0.05461000  0.04722000  0.23235000  1.0
  S  S72  1  0.94539000  0.95278000  0.76764000  1.0
  S  S73  1  0.23998000  0.98580000  0.04100000  1.0
  S  S74  1  0.76002000  0.01420000  0.95900000  1.0
  N  N75  1  0.65167000  0.50241000  0.29103000  1.0
  N  N76  1  0.34834000  0.49759000  0.70897000  1.0
  N  N77  1  0.66654000  0.37412000  0.48538000  1.0
  N  N78  1  0.33346000  0.62588000  0.51462000  1.0
  N  N79  1  0.97074000  0.28084000  0.75510000  1.0
  N  N80  1  0.02925000  0.71914000  0.24489000  1.0
  N  N81  1  0.93256000  0.24588000  0.28277000  1.0
  N  N82  1  0.06744000  0.75411000  0.71723000  1.0
  N  N83  1  0.42913000  0.21415000  0.24183000  1.0
  N  N84  1  0.57087000  0.78584000  0.75818000  1.0
  O  O85  1  0.36363000  0.47533000  0.25595000  1.0
  O  O86  1  0.63636000  0.52466000  0.74405000  1.0
  O  O87  1  0.38815000  0.35549000  0.47211000  1.0
  O  O88  1  0.61185000  0.64452000  0.52789000  1.0
