# generated using pymatgen
data_ZnH18C21(NO)4
_symmetry_space_group_name_H-M   'P 1'
_cell_length_a   21.58220000
_cell_length_b   21.67840000
_cell_length_c   21.75732733
_cell_angle_alpha   60.12594150
_cell_angle_beta   63.38200192
_cell_angle_gamma   63.33190000
_symmetry_Int_Tables_number   1
_chemical_formula_structural   ZnH18C21(NO)4
_chemical_formula_sum   'Zn4 H72 C84 N16 O16'
_cell_volume   7549.66019933
_cell_formula_units_Z   4
loop_
 _symmetry_equiv_pos_site_id
 _symmetry_equiv_pos_as_xyz
  1  'x, y, z'
loop_
 _atom_site_type_symbol
 _atom_site_label
 _atom_site_symmetry_multiplicity
 _atom_site_fract_x
 _atom_site_fract_y
 _atom_site_fract_z
 _atom_site_occupancy
  Zn  Zn0  1  0.54740000  0.95234000  0.95382000  1.0
  Zn  Zn1  1  0.45698000  0.04722000  0.04610000  1.0
  Zn  Zn2  1  0.96550000  0.54281000  0.54421000  1.0
  Zn  Zn3  1  0.03838000  0.45538000  0.45684000  1.0
  H  H4  1  0.82122000  0.60165000  0.61767000  1.0
  H  H5  1  0.74495000  0.67820000  0.69789000  1.0
  H  H6  1  0.59446000  0.80594000  0.79752000  1.0
  H  H7  1  0.78743000  0.81089000  0.80548000  1.0
  H  H8  1  0.18228000  0.39890000  0.38241000  1.0
  H  H9  1  0.25882000  0.32266000  0.30162000  1.0
  H  H10  1  0.40705000  0.17557000  0.22004000  1.0
  H  H11  1  0.21809000  0.21103000  0.17268000  1.0
  H  H12  1  0.73215000  0.20387000  0.69873000  1.0
  H  H13  1  0.70105000  0.36411000  0.78939000  1.0
  H  H14  1  0.92223000  0.29668000  0.59594000  1.0
  H  H15  1  0.84198000  0.21409000  0.67370000  1.0
  H  H16  1  0.60931000  0.17492000  0.96189000  1.0
  H  H17  1  0.69080000  0.25576000  0.88334000  1.0
  H  H18  1  0.35330000  0.70256000  0.16995000  1.0
  H  H19  1  0.13091000  0.81674000  0.29104000  1.0
  H  H20  1  0.22725000  0.54604000  0.34589000  1.0
  H  H21  1  0.31222000  0.62298000  0.27355000  1.0
  H  H22  1  0.29072000  0.94012000  0.19419000  1.0
  H  H23  1  0.21026000  0.85902000  0.27799000  1.0
  H  H24  1  0.38666000  0.20167000  0.66717000  1.0
  H  H25  1  0.16944000  0.31966000  0.78439000  1.0
  H  H26  1  0.21743000  0.29826000  0.55010000  1.0
  H  H27  1  0.30163000  0.21114000  0.62741000  1.0
  H  H28  1  0.29152000  0.13389000  0.93888000  1.0
  H  H29  1  0.20573000  0.20657000  0.86303000  1.0
  H  H30  1  0.73206000  0.67387000  0.21238000  1.0
  H  H31  1  0.69591000  0.76865000  0.36556000  1.0
  H  H32  1  0.92800000  0.58469000  0.29680000  1.0
  H  H33  1  0.85013000  0.66113000  0.21160000  1.0
  H  H34  1  0.61844000  0.94340000  0.16135000  1.0
  H  H35  1  0.69711000  0.86858000  0.24515000  1.0
  H  H36  1  0.06007000  0.57177000  0.63500000  1.0
  H  H37  1  0.05329000  0.60061000  0.54571000  1.0
  H  H38  1  0.05115000  0.66607000  0.57382000  1.0
  H  H39  1  0.97834000  0.74537000  0.64068000  1.0
  H  H40  1  0.91945000  0.72481000  0.73269000  1.0
  H  H41  1  0.00092000  0.65594000  0.70821000  1.0
  H  H42  1  0.47279000  0.87311000  0.94097000  1.0
  H  H43  1  0.47744000  0.94926000  0.85653000  1.0
  H  H44  1  0.48153000  0.86296000  0.86074000  1.0
  H  H45  1  0.70071000  0.95358000  0.87544000  1.0
  H  H46  1  0.70698000  0.86896000  0.95187000  1.0
  H  H47  1  0.77946000  0.87621000  0.86744000  1.0
  H  H48  1  0.95193000  0.33806000  0.42489000  1.0
  H  H49  1  0.94843000  0.40958000  0.44556000  1.0
  H  H50  1  0.94504000  0.42920000  0.35719000  1.0
  H  H51  1  0.00530000  0.34744000  0.28538000  1.0
  H  H52  1  0.08519000  0.27427000  0.26754000  1.0
  H  H53  1  0.02231000  0.26016000  0.35752000  1.0
  H  H54  1  0.51944000  0.10380000  0.16980000  1.0
  H  H55  1  0.51863000  0.03192000  0.15177000  1.0
  H  H56  1  0.53261000  0.11467000  0.07784000  1.0
  H  H57  1  0.22805000  0.16059000  0.09497000  1.0
  H  H58  1  0.31170000  0.15451000  0.02239000  1.0
  H  H59  1  0.29661000  0.07333000  0.09873000  1.0
  H  H60  1  0.61858000  0.08152000  0.80314000  1.0
  H  H61  1  0.66028000  0.13485000  0.71647000  1.0
  H  H62  1  0.81989000  0.47880000  0.69720000  1.0
  H  H63  1  0.74163000  0.45965000  0.76729000  1.0
  H  H64  1  0.48388000  0.80496000  0.05257000  1.0
  H  H65  1  0.46812000  0.71946000  0.09131000  1.0
  H  H66  1  0.99952000  0.71420000  0.40698000  1.0
  H  H67  1  0.01324000  0.80197000  0.35294000  1.0
  H  H68  1  0.51637000  0.07463000  0.76972000  1.0
  H  H69  1  0.50124000  0.12055000  0.68367000  1.0
  H  H70  1  0.03793000  0.44675000  0.68375000  1.0
  H  H71  1  0.05486000  0.40529000  0.76897000  1.0
  H  H72  1  0.63254000  0.77429000  0.07783000  1.0
  H  H73  1  0.68463000  0.68843000  0.12524000  1.0
  H  H74  1  0.79790000  0.65929000  0.49898000  1.0
  H  H75  1  0.71563000  0.72298000  0.48179000  1.0
  C  C76  1  0.41128000  0.92128000  0.08615000  1.0
  C  C77  1  0.43394000  0.07960000  0.89735000  1.0
  C  C78  1  0.58053000  0.09067000  0.92774000  1.0
  C  C79  1  0.58584000  0.90179000  0.08669000  1.0
  C  C80  1  0.09902000  0.40720000  0.57289000  1.0
  C  C81  1  0.08581000  0.58543000  0.40745000  1.0
  C  C82  1  0.90636000  0.58375000  0.42611000  1.0
  C  C83  1  0.91087000  0.42009000  0.60182000  1.0
  C  C84  1  0.84524000  0.62473000  0.63313000  1.0
  C  C85  1  0.80361000  0.66613000  0.67726000  1.0
  C  C86  1  0.83892000  0.69257000  0.69590000  1.0
  C  C87  1  0.91484000  0.67637000  0.66997000  1.0
  C  C88  1  0.95318000  0.63494000  0.62328000  1.0
  C  C89  1  0.62063000  0.82291000  0.81689000  1.0
  C  C90  1  0.69597000  0.80225000  0.79694000  1.0
  C  C91  1  0.72872000  0.82540000  0.82128000  1.0
  C  C92  1  0.68551000  0.86776000  0.86543000  1.0
  C  C93  1  0.57918000  0.86538000  0.86138000  1.0
  C  C94  1  0.15849000  0.37667000  0.36581000  1.0
  C  C95  1  0.20012000  0.33514000  0.32169000  1.0
  C  C96  1  0.16491000  0.30919000  0.30244000  1.0
  C  C97  1  0.08889000  0.32642000  0.32740000  1.0
  C  C98  1  0.05046000  0.36857000  0.37329000  1.0
  C  C99  1  0.38181000  0.16720000  0.19231000  1.0
  C  C100  1  0.30748000  0.19833000  0.20213000  1.0
  C  C101  1  0.27597000  0.18703000  0.16616000  1.0
  C  C102  1  0.31942000  0.14498000  0.12179000  1.0
  C  C103  1  0.42330000  0.12538000  0.14722000  1.0
  C  C104  1  0.62800000  0.14007000  0.87713000  1.0
  C  C105  1  0.85928000  0.37500000  0.64938000  1.0
  C  C106  1  0.66331000  0.14765000  0.80178000  1.0
  C  C107  1  0.70654000  0.19639000  0.75714000  1.0
  C  C108  1  0.79636000  0.39408000  0.70580000  1.0
  C  C109  1  0.75044000  0.34803000  0.74779000  1.0
  C  C110  1  0.87312000  0.31071000  0.63862000  1.0
  C  C111  1  0.82800000  0.26528000  0.68131000  1.0
  C  C112  1  0.63741000  0.18113000  0.90409000  1.0
  C  C113  1  0.68178000  0.22733000  0.85991000  1.0
  C  C114  1  0.71708000  0.23558000  0.78499000  1.0
  C  C115  1  0.76537000  0.28380000  0.73720000  1.0
  C  C116  1  0.36682000  0.86886000  0.13465000  1.0
  C  C117  1  0.13262000  0.63566000  0.36314000  1.0
  C  C118  1  0.38616000  0.79931000  0.12932000  1.0
  C  C119  1  0.33942000  0.75427000  0.17672000  1.0
  C  C120  1  0.10483000  0.71322000  0.34955000  1.0
  C  C121  1  0.15313000  0.75685000  0.30423000  1.0
  C  C122  1  0.20719000  0.60566000  0.33381000  1.0
  C  C123  1  0.25431000  0.64890000  0.29234000  1.0
  C  C124  1  0.30331000  0.88792000  0.18914000  1.0
  C  C125  1  0.25823000  0.84273000  0.23563000  1.0
  C  C126  1  0.27554000  0.77471000  0.22922000  1.0
  C  C127  1  0.22722000  0.72635000  0.27591000  1.0
  C  C128  1  0.38656000  0.12432000  0.84764000  1.0
  C  C129  1  0.14691000  0.35825000  0.62192000  1.0
  C  C130  1  0.41394000  0.14105000  0.76997000  1.0
  C  C131  1  0.36497000  0.18536000  0.72725000  1.0
  C  C132  1  0.13222000  0.36399000  0.68982000  1.0
  C  C133  1  0.17989000  0.31374000  0.73336000  1.0
  C  C134  1  0.20821000  0.30257000  0.60153000  1.0
  C  C135  1  0.25516000  0.25423000  0.64456000  1.0
  C  C136  1  0.31161000  0.14944000  0.87898000  1.0
  C  C137  1  0.26385000  0.19070000  0.83652000  1.0
  C  C138  1  0.29055000  0.21079000  0.75896000  1.0
  C  C139  1  0.24120000  0.25950000  0.71195000  1.0
  C  C140  1  0.63119000  0.85264000  0.13831000  1.0
  C  C141  1  0.85701000  0.63241000  0.37869000  1.0
  C  C142  1  0.66427000  0.77527000  0.15206000  1.0
  C  C143  1  0.70799000  0.73355000  0.20028000  1.0
  C  C144  1  0.79063000  0.68577000  0.39863000  1.0
  C  C145  1  0.74726000  0.72849000  0.34989000  1.0
  C  C146  1  0.87638000  0.62491000  0.31127000  1.0
  C  C147  1  0.83294000  0.66691000  0.26430000  1.0
  C  C148  1  0.64318000  0.88391000  0.17362000  1.0
  C  C149  1  0.68654000  0.84221000  0.22075000  1.0
  C  C150  1  0.71982000  0.76565000  0.23442000  1.0
  C  C151  1  0.76707000  0.71978000  0.28367000  1.0
  C  C152  1  0.03377000  0.61756000  0.59240000  1.0
  C  C153  1  0.95521000  0.70198000  0.68945000  1.0
  C  C154  1  0.49837000  0.88846000  0.88103000  1.0
  C  C155  1  0.72053000  0.89293000  0.89115000  1.0
  C  C156  1  0.96964000  0.38745000  0.40226000  1.0
  C  C157  1  0.04863000  0.30064000  0.30793000  1.0
  C  C158  1  0.50301000  0.09222000  0.13662000  1.0
  C  C159  1  0.28650000  0.13303000  0.08250000  1.0
  N  N160  1  0.91820000  0.60974000  0.60645000  1.0
  N  N161  1  0.80124000  0.73457000  0.74188000  1.0
  N  N162  1  0.73368000  0.76008000  0.75097000  1.0
  N  N163  1  0.61161000  0.88698000  0.88548000  1.0
  N  N164  1  0.08542000  0.39255000  0.39143000  1.0
  N  N165  1  0.20256000  0.26715000  0.25650000  1.0
  N  N166  1  0.26975000  0.23930000  0.24935000  1.0
  N  N167  1  0.39217000  0.11431000  0.11280000  1.0
  N  N168  1  0.65670000  0.10906000  0.77112000  1.0
  N  N169  1  0.77790000  0.45741000  0.71819000  1.0
  N  N170  1  0.44795000  0.77507000  0.07871000  1.0
  N  N171  1  0.03336000  0.74666000  0.37882000  1.0
  N  N172  1  0.48717000  0.11875000  0.73548000  1.0
  N  N173  1  0.07423000  0.41771000  0.71361000  1.0
  N  N174  1  0.65172000  0.74015000  0.12260000  1.0
  N  N175  1  0.76868000  0.69768000  0.46253000  1.0
  O  O176  1  0.45998000  0.91127000  0.02742000  1.0
  O  O177  1  0.39816000  0.97387000  0.10528000  1.0
  O  O178  1  0.41280000  0.08827000  0.95788000  1.0
  O  O179  1  0.49395000  0.03288000  0.87625000  1.0
  O  O180  1  0.52599000  0.11044000  0.97810000  1.0
  O  O181  1  0.59775000  0.03113000  0.91741000  1.0
  O  O182  1  0.59545000  0.87999000  0.03675000  1.0
  O  O183  1  0.54141000  0.96271000  0.09314000  1.0
  O  O184  1  0.05248000  0.46681000  0.58384000  1.0
  O  O185  1  0.10627000  0.38787000  0.52303000  1.0
  O  O186  1  0.10739000  0.52365000  0.40046000  1.0
  O  O187  1  0.02473000  0.60788000  0.45217000  1.0
  O  O188  1  0.96414000  0.53774000  0.40272000  1.0
  O  O189  1  0.88872000  0.58998000  0.48812000  1.0
  O  O190  1  0.90662000  0.46903000  0.62182000  1.0
  O  O191  1  0.95676000  0.40830000  0.54357000  1.0
