# generated using pymatgen
data_HgH18C20I2(N2O)2
_symmetry_space_group_name_H-M   'P 1'
_cell_length_a   9.49927000
_cell_length_b   11.50260000
_cell_length_c   11.50250000
_cell_angle_alpha   103.95100000
_cell_angle_beta   95.37740000
_cell_angle_gamma   95.37810000
_symmetry_Int_Tables_number   1
_chemical_formula_structural   HgH18C20I2(N2O)2
_chemical_formula_sum   'Hg2 H36 C40 I4 N8 O4'
_cell_volume   1205.56141457
_cell_formula_units_Z   2
loop_
 _symmetry_equiv_pos_site_id
 _symmetry_equiv_pos_as_xyz
  1  'x, y, z'
loop_
 _atom_site_type_symbol
 _atom_site_label
 _atom_site_symmetry_multiplicity
 _atom_site_fract_x
 _atom_site_fract_y
 _atom_site_fract_z
 _atom_site_occupancy
  Hg  Hg0  1  0.15151000  0.81294000  0.13324000  1.0
  Hg  Hg1  1  0.65151000  0.13324000  0.81295000  1.0
  H  H2  1  0.97961000  0.26791000  0.29518000  1.0
  H  H3  1  0.47961000  0.29518000  0.26791000  1.0
  H  H4  1  0.72206000  0.68028000  0.73290000  1.0
  H  H5  1  0.22205000  0.73289000  0.68027000  1.0
  H  H6  1  0.85474000  0.76223000  0.25043000  1.0
  H  H7  1  0.35474000  0.25043000  0.76223000  1.0
  H  H8  1  0.66231000  0.87039000  0.35080000  1.0
  H  H9  1  0.16232000  0.35081000  0.87039000  1.0
  H  H10  1  0.67287000  0.09330000  0.37893000  1.0
  H  H11  1  0.17287000  0.37893000  0.09330000  1.0
  H  H12  1  0.05281000  0.08126000  0.20062000  1.0
  H  H13  1  0.55280000  0.20062000  0.08125000  1.0
  H  H14  1  0.88119000  0.47709000  0.41163000  1.0
  H  H15  1  0.38119000  0.41163000  0.47708000  1.0
  H  H16  1  0.90503000  0.43698000  0.25882000  1.0
  H  H17  1  0.40503000  0.25882000  0.43698000  1.0
  H  H18  1  0.72507000  0.44795000  0.10092000  1.0
  H  H19  1  0.22507000  0.10092000  0.44796000  1.0
  H  H20  1  0.52218000  0.54714000  0.03784000  1.0
  H  H21  1  0.02217000  0.03784000  0.54716000  1.0
  H  H22  1  0.38621000  0.66425000  0.19368000  1.0
  H  H23  1  0.88621000  0.19369000  0.66426000  1.0
  H  H24  1  0.45454000  0.67551000  0.40993000  1.0
  H  H25  1  0.95453000  0.40994000  0.67550000  1.0
  H  H26  1  0.57196000  0.59450000  0.56002000  1.0
  H  H27  1  0.07195000  0.56001000  0.59449000  1.0
  H  H28  1  0.69461000  0.48988000  0.52554000  1.0
  H  H29  1  0.19460000  0.52554000  0.48987000  1.0
  H  H30  1  0.91626000  0.92011000  0.63674000  1.0
  H  H31  1  0.41624000  0.63673000  0.92010000  1.0
  H  H32  1  0.11660000  0.06291000  0.77065000  1.0
  H  H33  1  0.61659000  0.77064000  0.06290000  1.0
  H  H34  1  0.20860000  0.01994000  0.96682000  1.0
  H  H35  1  0.70859000  0.96681000  0.01993000  1.0
  H  H36  1  0.92048000  0.71158000  0.90259000  1.0
  H  H37  1  0.42046000  0.90259000  0.71158000  1.0
  C  C38  1  0.85327000  0.85922000  0.26309000  1.0
  C  C39  1  0.35327000  0.26309000  0.85922000  1.0
  C  C40  1  0.74758000  0.91958000  0.31850000  1.0
  C  C41  1  0.24759000  0.31850000  0.91958000  1.0
  C  C42  1  0.75185000  0.04362000  0.33313000  1.0
  C  C43  1  0.25185000  0.33313000  0.04362000  1.0
  C  C44  1  0.86236000  0.10499000  0.29087000  1.0
  C  C45  1  0.36237000  0.29086000  0.10499000  1.0
  C  C46  1  0.96413000  0.03750000  0.23468000  1.0
  C  C47  1  0.46412000  0.23468000  0.03750000  1.0
  C  C48  1  0.77472000  0.30331000  0.31654000  1.0
  C  C49  1  0.27472000  0.31654000  0.30330000  1.0
  C  C50  1  0.82460000  0.43453000  0.32126000  1.0
  C  C51  1  0.32459000  0.32125000  0.43452000  1.0
  C  C52  1  0.70397000  0.50220000  0.29037000  1.0
  C  C53  1  0.20397000  0.29037000  0.50219000  1.0
  C  C54  1  0.66534000  0.49807000  0.16881000  1.0
  C  C55  1  0.16534000  0.16881000  0.49808000  1.0
  C  C56  1  0.55181000  0.55529000  0.13356000  1.0
  C  C57  1  0.05181000  0.13356000  0.55529000  1.0
  C  C58  1  0.47542000  0.61931000  0.22022000  1.0
  C  C59  1  0.97542000  0.22022000  0.61932000  1.0
  C  C60  1  0.51340000  0.62450000  0.34168000  1.0
  C  C61  1  0.01339000  0.34168000  0.62450000  1.0
  C  C62  1  0.62608000  0.56580000  0.37799000  1.0
  C  C63  1  0.12608000  0.37799000  0.56579000  1.0
  C  C64  1  0.66420000  0.57580000  0.51047000  1.0
  C  C65  1  0.16420000  0.51047000  0.57579000  1.0
  C  C66  1  0.78872000  0.67340000  0.56612000  1.0
  C  C67  1  0.28870000  0.56612000  0.67339000  1.0
  C  C68  1  0.90346000  0.80488000  0.75914000  1.0
  C  C69  1  0.40344000  0.75913000  0.80487000  1.0
  C  C70  1  0.96058000  0.90460000  0.72153000  1.0
  C  C71  1  0.46057000  0.72153000  0.90460000  1.0
  C  C72  1  0.07149000  0.98320000  0.79591000  1.0
  C  C73  1  0.57148000  0.79590000  0.98320000  1.0
  C  C74  1  0.12214000  0.96068000  0.90524000  1.0
  C  C75  1  0.62213000  0.90523000  0.96067000  1.0
  C  C76  1  0.96008000  0.78902000  0.86996000  1.0
  C  C77  1  0.46006000  0.86996000  0.78902000  1.0
  I  I78  1  0.02788000  0.58319000  0.07240000  1.0
  I  I79  1  0.52787000  0.07241000  0.58319000  1.0
  I  I80  1  0.37370000  0.98304000  0.21994000  1.0
  I  I81  1  0.87370000  0.21994000  0.98304000  1.0
  N  N82  1  0.95913000  0.91853000  0.22233000  1.0
  N  N83  1  0.45912000  0.22233000  0.91853000  1.0
  N  N84  1  0.87911000  0.22973000  0.30385000  1.0
  N  N85  1  0.37911000  0.30385000  0.22973000  1.0
  N  N86  1  0.79204000  0.72072000  0.68876000  1.0
  N  N87  1  0.29202000  0.68876000  0.72072000  1.0
  N  N88  1  0.06653000  0.86526000  0.94072000  1.0
  N  N89  1  0.56652000  0.94072000  0.86526000  1.0
  O  O90  1  0.64876000  0.26727000  0.32403000  1.0
  O  O91  1  0.14875000  0.32403000  0.26727000  1.0
  O  O92  1  0.88080000  0.70586000  0.50808000  1.0
  O  O93  1  0.38080000  0.50808000  0.70585000  1.0
