# generated using pymatgen
data_NiH22C32N4O7
_symmetry_space_group_name_H-M   'P 1'
_cell_length_a   10.17360000
_cell_length_b   14.71220000
_cell_length_c   24.86660000
_cell_angle_alpha   90.98290000
_cell_angle_beta   93.65360000
_cell_angle_gamma   101.82600000
_symmetry_Int_Tables_number   1
_chemical_formula_structural   NiH22C32N4O7
_chemical_formula_sum   'Ni4 H88 C128 N16 O28'
_cell_volume   3633.79053851
_cell_formula_units_Z   4
loop_
 _symmetry_equiv_pos_site_id
 _symmetry_equiv_pos_as_xyz
  1  'x, y, z'
loop_
 _atom_site_type_symbol
 _atom_site_label
 _atom_site_symmetry_multiplicity
 _atom_site_fract_x
 _atom_site_fract_y
 _atom_site_fract_z
 _atom_site_occupancy
  Ni  Ni0  1  0.47663000  0.36020000  0.01925000  1.0
  Ni  Ni1  1  0.52337000  0.63980000  0.98074000  1.0
  Ni  Ni2  1  0.03127000  0.14192000  0.51259000  1.0
  Ni  Ni3  1  0.96872000  0.85808000  0.48741000  1.0
  H  H4  1  0.68128000  0.34924000  0.94012000  1.0
  H  H5  1  0.31871000  0.65075000  0.05988000  1.0
  H  H6  1  0.28198000  0.37041000  0.92277000  1.0
  H  H7  1  0.71801000  0.62959000  0.07723000  1.0
  H  H8  1  0.70366000  0.35825000  0.84132000  1.0
  H  H9  1  0.29633000  0.64175000  0.15869000  1.0
  H  H10  1  0.28638000  0.38177000  0.82311000  1.0
  H  H11  1  0.71362000  0.61823000  0.17689000  1.0
  H  H12  1  0.93456000  0.64831000  0.97542000  1.0
  H  H13  1  0.06544000  0.35169000  0.02457000  1.0
  H  H14  1  0.82372000  0.36679000  0.02560000  1.0
  H  H15  1  0.17628000  0.63320000  0.97440000  1.0
  H  H16  1  0.29079000  0.05457000  0.97137000  1.0
  H  H17  1  0.70922000  0.94543000  0.02862000  1.0
  H  H18  1  0.69617000  0.11275000  0.04203000  1.0
  H  H19  1  0.30385000  0.88724000  0.95797000  1.0
  H  H20  1  0.59921000  0.36217000  0.75697000  1.0
  H  H21  1  0.40079000  0.63783000  0.24303000  1.0
  H  H22  1  0.26179000  0.33657000  0.63744000  1.0
  H  H23  1  0.73821000  0.66342000  0.36256000  1.0
  H  H24  1  0.68202000  0.41253000  0.69232000  1.0
  H  H25  1  0.31799000  0.58748000  0.30768000  1.0
  H  H26  1  0.32350000  0.30128000  0.54600000  1.0
  H  H27  1  0.67651000  0.69871000  0.45401000  1.0
  H  H28  1  0.74448000  0.37705000  0.60087000  1.0
  H  H29  1  0.25552000  0.62296000  0.39913000  1.0
  H  H30  1  0.64369000  0.23175000  0.43877000  1.0
  H  H31  1  0.35632000  0.76825000  0.56123000  1.0
  H  H32  1  0.40156000  0.42027000  0.49158000  1.0
  H  H33  1  0.59844000  0.57972000  0.50842000  1.0
  H  H34  1  0.56870000  0.25273000  0.34323000  1.0
  H  H35  1  0.43131000  0.74726000  0.65677000  1.0
  H  H36  1  0.32284000  0.43823000  0.39668000  1.0
  H  H37  1  0.67718000  0.56176000  0.60332000  1.0
  H  H38  1  0.59157000  0.36803000  0.28791000  1.0
  H  H39  1  0.40844000  0.63195000  0.71209000  1.0
  H  H40  1  0.70305000  0.38881000  0.21001000  1.0
  H  H41  1  0.29697000  0.61121000  0.78998000  1.0
  H  H42  1  0.26822000  0.33888000  0.20306000  1.0
  H  H43  1  0.73179000  0.66111000  0.79694000  1.0
  H  H44  1  0.68657000  0.38314000  0.10909000  1.0
  H  H45  1  0.31343000  0.61687000  0.89090000  1.0
  H  H46  1  0.27175000  0.33474000  0.10244000  1.0
  H  H47  1  0.72825000  0.66526000  0.89756000  1.0
  H  H48  1  0.83565000  0.20717000  0.68992000  1.0
  H  H49  1  0.16434000  0.79283000  0.31008000  1.0
  H  H50  1  0.75596000  0.14043000  0.92741000  1.0
  H  H51  1  0.24404000  0.85957000  0.07259000  1.0
  H  H52  1  0.82533000  0.11853000  0.83484000  1.0
  H  H53  1  0.17466000  0.88147000  0.16517000  1.0
  H  H54  1  0.80079000  0.37647000  0.47201000  1.0
  H  H55  1  0.19921000  0.62353000  0.52799000  1.0
  H  H56  1  0.21668000  0.12047000  0.70946000  1.0
  H  H57  1  0.78329000  0.87952000  0.29054000  1.0
  H  H58  1  0.31591000  0.86705000  0.46894000  1.0
  H  H59  1  0.68407000  0.13294000  0.53107000  1.0
  H  H60  1  0.10570000  0.08618000  0.03855000  1.0
  H  H61  1  0.89430000  0.91382000  0.96145000  1.0
  H  H62  1  0.21656000  0.45543000  0.52873000  1.0
  H  H63  1  0.78346000  0.54458000  0.47127000  1.0
  H  H64  1  0.78675000  0.09417000  0.32408000  1.0
  H  H65  1  0.21325000  0.90583000  0.67592000  1.0
  H  H66  1  0.85818000  0.20489000  0.59066000  1.0
  H  H67  1  0.14182000  0.79512000  0.40935000  1.0
  H  H68  1  0.17709000  0.06062000  0.13298000  1.0
  H  H69  1  0.82291000  0.93938000  0.86702000  1.0
  H  H70  1  0.22438000  0.14826000  0.42672000  1.0
  H  H71  1  0.77563000  0.85176000  0.57329000  1.0
  H  H72  1  0.44178000  0.14733000  0.53104000  1.0
  H  H73  1  0.55820000  0.85267000  0.46896000  1.0
  H  H74  1  0.82973000  0.24812000  0.09457000  1.0
  H  H75  1  0.17028000  0.75189000  0.90544000  1.0
  H  H76  1  0.80945000  0.10476000  0.42429000  1.0
  H  H77  1  0.19055000  0.89525000  0.57571000  1.0
  H  H78  1  0.89297000  0.10723000  0.24424000  1.0
  H  H79  1  0.10704000  0.89278000  0.75576000  1.0
  H  H80  1  0.22114000  0.12147000  0.60858000  1.0
  H  H81  1  0.77885000  0.87852000  0.39142000  1.0
  H  H82  1  0.92811000  0.18712000  0.77450000  1.0
  H  H83  1  0.07187000  0.81288000  0.22550000  1.0
  H  H84  1  0.17404000  0.20171000  0.98747000  1.0
  H  H85  1  0.82596000  0.79829000  0.01253000  1.0
  H  H86  1  0.89863000  0.21958000  0.18946000  1.0
  H  H87  1  0.10138000  0.78042000  0.81055000  1.0
  H  H88  1  0.24130000  0.17545000  0.89622000  1.0
  H  H89  1  0.75869000  0.82455000  0.10378000  1.0
  H  H90  1  0.22071000  0.13763000  0.32650000  1.0
  H  H91  1  0.77929000  0.86238000  0.67350000  1.0
  C  C92  1  0.72293000  0.51912000  0.00272000  1.0
  C  C93  1  0.27707000  0.48089000  0.99728000  1.0
  C  C94  1  0.48932000  0.19321000  0.01484000  1.0
  C  C95  1  0.51068000  0.80679000  0.98515000  1.0
  C  C96  1  0.59644000  0.35723000  0.91289000  1.0
  C  C97  1  0.40355000  0.64277000  0.08710000  1.0
  C  C98  1  0.37434000  0.36940000  0.90327000  1.0
  C  C99  1  0.62565000  0.63060000  0.09673000  1.0
  C  C100  1  0.86610000  0.50906000  0.00092000  1.0
  C  C101  1  0.13390000  0.49094000  0.99908000  1.0
  C  C102  1  0.49319000  0.09315000  0.00787000  1.0
  C  C103  1  0.50682000  0.90684000  0.99212000  1.0
  C  C104  1  0.60781000  0.36189000  0.85774000  1.0
  C  C105  1  0.39218000  0.63810000  0.14225000  1.0
  C  C106  1  0.37586000  0.37508000  0.84763000  1.0
  C  C107  1  0.62413000  0.62492000  0.15237000  1.0
  C  C108  1  0.96482000  0.58380000  0.98603000  1.0
  C  C109  1  0.03518000  0.41620000  0.01398000  1.0
  C  C110  1  0.90185000  0.42488000  0.01489000  1.0
  C  C111  1  0.09815000  0.57512000  0.98511000  1.0
  C  C112  1  0.38167000  0.03000000  0.98405000  1.0
  C  C113  1  0.61834000  0.96999000  0.01594000  1.0
  C  C114  1  0.61103000  0.06253000  0.02377000  1.0
  C  C115  1  0.38898000  0.93747000  0.97622000  1.0
  C  C116  1  0.49598000  0.37155000  0.82365000  1.0
  C  C117  1  0.50402000  0.62845000  0.17635000  1.0
  C  C118  1  0.41795000  0.38480000  0.72668000  1.0
  C  C119  1  0.58205000  0.61520000  0.27333000  1.0
  C  C120  1  0.46553000  0.37316000  0.67190000  1.0
  C  C121  1  0.53447000  0.62685000  0.32810000  1.0
  C  C122  1  0.36754000  0.34532000  0.62926000  1.0
  C  C123  1  0.63247000  0.65467000  0.37074000  1.0
  C  C124  1  0.60216000  0.38490000  0.66135000  1.0
  C  C125  1  0.39784000  0.61511000  0.33865000  1.0
  C  C126  1  0.40258000  0.32588000  0.57772000  1.0
  C  C127  1  0.59743000  0.67412000  0.42228000  1.0
  C  C128  1  0.63917000  0.36721000  0.60999000  1.0
  C  C129  1  0.36083000  0.63279000  0.39000000  1.0
  C  C130  1  0.53913000  0.33710000  0.56851000  1.0
  C  C131  1  0.46087000  0.66290000  0.43149000  1.0
  C  C132  1  0.52819000  0.32505000  0.47032000  1.0
  C  C133  1  0.47181000  0.67495000  0.52969000  1.0
  C  C134  1  0.57446000  0.27736000  0.42854000  1.0
  C  C135  1  0.42554000  0.72264000  0.57146000  1.0
  C  C136  1  0.43761000  0.38331000  0.45924000  1.0
  C  C137  1  0.56240000  0.61669000  0.54076000  1.0
  C  C138  1  0.53313000  0.29071000  0.37551000  1.0
  C  C139  1  0.46687000  0.70928000  0.62449000  1.0
  C  C140  1  0.39409000  0.39376000  0.40597000  1.0
  C  C141  1  0.60592000  0.60623000  0.59403000  1.0
  C  C142  1  0.44325000  0.34972000  0.36347000  1.0
  C  C143  1  0.55676000  0.65027000  0.63653000  1.0
  C  C144  1  0.39870000  0.36649000  0.30697000  1.0
  C  C145  1  0.60132000  0.63351000  0.69303000  1.0
  C  C146  1  0.48593000  0.36345000  0.21490000  1.0
  C  C147  1  0.51407000  0.63655000  0.78510000  1.0
  C  C148  1  0.60490000  0.37558000  0.18761000  1.0
  C  C149  1  0.39511000  0.62442000  0.81238000  1.0
  C  C150  1  0.36279000  0.34854000  0.18388000  1.0
  C  C151  1  0.63722000  0.65146000  0.81612000  1.0
  C  C152  1  0.59683000  0.37244000  0.13180000  1.0
  C  C153  1  0.40317000  0.62756000  0.86819000  1.0
  C  C154  1  0.36484000  0.34606000  0.12808000  1.0
  C  C155  1  0.63516000  0.65393000  0.87192000  1.0
  C  C156  1  0.22167000  0.01778000  0.49855000  1.0
  C  C157  1  0.77831000  0.98222000  0.50145000  1.0
  C  C158  1  0.09012000  0.13773000  0.80472000  1.0
  C  C159  1  0.90987000  0.86227000  0.19528000  1.0
  C  C160  1  0.92379000  0.18800000  0.67368000  1.0
  C  C161  1  0.07620000  0.81200000  0.32632000  1.0
  C  C162  1  0.08663000  0.11631000  0.22374000  1.0
  C  C163  1  0.91337000  0.88369000  0.77627000  1.0
  C  C164  1  0.86188000  0.14904000  0.91950000  1.0
  C  C165  1  0.13812000  0.85096000  0.08051000  1.0
  C  C166  1  0.90257000  0.13844000  0.86787000  1.0
  C  C167  1  0.09743000  0.86156000  0.13214000  1.0
  C  C168  1  0.00294000  0.11560000  0.31659000  1.0
  C  C169  1  0.99705000  0.88441000  0.68341000  1.0
  C  C170  1  0.88706000  0.43137000  0.48414000  1.0
  C  C171  1  0.11295000  0.56864000  0.51586000  1.0
  C  C172  1  0.13549000  0.13922000  0.68448000  1.0
  C  C173  1  0.86449000  0.86078000  0.31552000  1.0
  C  C174  1  0.39739000  0.92496000  0.48201000  1.0
  C  C175  1  0.60259000  0.07503000  0.51799000  1.0
  C  C176  1  0.96319000  0.16957000  0.06121000  1.0
  C  C177  1  0.03682000  0.83043000  0.93879000  1.0
  C  C178  1  0.06058000  0.11591000  0.07128000  1.0
  C  C179  1  0.93942000  0.88409000  0.92872000  1.0
  C  C180  1  0.12262000  0.47583000  0.51584000  1.0
  C  C181  1  0.87740000  0.52418000  0.48415000  1.0
  C  C182  1  0.88631000  0.10595000  0.34531000  1.0
  C  C183  1  0.11368000  0.89405000  0.65469000  1.0
  C  C184  1  0.93512000  0.18676000  0.61852000  1.0
  C  C185  1  0.06487000  0.81325000  0.38148000  1.0
  C  C186  1  0.02485000  0.16285000  0.70803000  1.0
  C  C187  1  0.97513000  0.83714000  0.29197000  1.0
  C  C188  1  0.04080000  0.13533000  0.16773000  1.0
  C  C189  1  0.95920000  0.86468000  0.83227000  1.0
  C  C190  1  0.09986000  0.10082000  0.12446000  1.0
  C  C191  1  0.90014000  0.89918000  0.87555000  1.0
  C  C192  1  0.12908000  0.13505000  0.40240000  1.0
  C  C193  1  0.87093000  0.86497000  0.59760000  1.0
  C  C194  1  0.46890000  0.08328000  0.51759000  1.0
  C  C195  1  0.53108000  0.91672000  0.48241000  1.0
  C  C196  1  0.00948000  0.40675000  0.49993000  1.0
  C  C197  1  0.99053000  0.59327000  0.50007000  1.0
  C  C198  1  0.90530000  0.20681000  0.10396000  1.0
  C  C199  1  0.09470000  0.79319000  0.89605000  1.0
  C  C200  1  0.89818000  0.11123000  0.40115000  1.0
  C  C201  1  0.10182000  0.88877000  0.59885000  1.0
  C  C202  1  0.03981000  0.14770000  0.85903000  1.0
  C  C203  1  0.96019000  0.85231000  0.14097000  1.0
  C  C204  1  0.13798000  0.14020000  0.62870000  1.0
  C  C205  1  0.86201000  0.85979000  0.37130000  1.0
  C  C206  1  0.09638000  0.18177000  0.95480000  1.0
  C  C207  1  0.90362000  0.81823000  0.04520000  1.0
  C  C208  1  0.36563000  0.00854000  0.49953000  1.0
  C  C209  1  0.63436000  0.99145000  0.50047000  1.0
  C  C210  1  0.95934000  0.17090000  0.96272000  1.0
  C  C211  1  0.04066000  0.82910000  0.03729000  1.0
  C  C212  1  0.94318000  0.18895000  0.15667000  1.0
  C  C213  1  0.05683000  0.81106000  0.84333000  1.0
  C  C214  1  0.13496000  0.16808000  0.90308000  1.0
  C  C215  1  0.86504000  0.83192000  0.09692000  1.0
  C  C216  1  0.12757000  0.13001000  0.34657000  1.0
  C  C217  1  0.87243000  0.86999000  0.65343000  1.0
  C  C218  1  0.01689000  0.30698000  0.50143000  1.0
  C  C219  1  0.98312000  0.69304000  0.49857000  1.0
  N  N220  1  0.48154000  0.36158000  0.93611000  1.0
  N  N221  1  0.51846000  0.63840000  0.06389000  1.0
  N  N222  1  0.47883000  0.35824000  0.10202000  1.0
  N  N223  1  0.52117000  0.64176000  0.89798000  1.0
  N  N224  1  0.51033000  0.37434000  0.76847000  1.0
  N  N225  1  0.48967000  0.62566000  0.23153000  1.0
  N  N226  1  0.49701000  0.36391000  0.27090000  1.0
  N  N227  1  0.50301000  0.63608000  0.72910000  1.0
  N  N228  1  0.01757000  0.12529000  0.42996000  1.0
  N  N229  1  0.98243000  0.87472000  0.57005000  1.0
  N  N230  1  0.04037000  0.16273000  0.59576000  1.0
  N  N231  1  0.95962000  0.83727000  0.40424000  1.0
  N  N232  1  0.98860000  0.11376000  0.26062000  1.0
  N  N233  1  0.01140000  0.88624000  0.73938000  1.0
  N  N234  1  0.00921000  0.16328000  0.76308000  1.0
  N  N235  1  0.99077000  0.83671000  0.23692000  1.0
  O  O236  1  0.64635000  0.45939000  0.02891000  1.0
  O  O237  1  0.35365000  0.54061000  0.97109000  1.0
  O  O238  1  0.59921000  0.25358000  0.02140000  1.0
  O  O239  1  0.40079000  0.74642000  0.97859000  1.0
  O  O240  1  0.37567000  0.21815000  0.01286000  1.0
  O  O241  1  0.62433000  0.78183000  0.98715000  1.0
  O  O242  1  0.30859000  0.41109000  0.02062000  1.0
  O  O243  1  0.69140000  0.58891000  0.97937000  1.0
  O  O244  1  0.30502000  0.39935000  0.73411000  1.0
  O  O245  1  0.69498000  0.60065000  0.26589000  1.0
  O  O246  1  0.58638000  0.31367000  0.52055000  1.0
  O  O247  1  0.41362000  0.68632000  0.47945000  1.0
  O  O248  1  0.28689000  0.38239000  0.29342000  1.0
  O  O249  1  0.71314000  0.61761000  0.70658000  1.0
  O  O250  1  0.19862000  0.09071000  0.52160000  1.0
  O  O251  1  0.80137000  0.90929000  0.47840000  1.0
  O  O252  1  0.13524000  0.95381000  0.47418000  1.0
  O  O253  1  0.86474000  0.04619000  0.52582000  1.0
  O  O254  1  0.90916000  0.18696000  0.01131000  1.0
  O  O255  1  0.09085000  0.81305000  0.98869000  1.0
  O  O256  1  0.13165000  0.28376000  0.50420000  1.0
  O  O257  1  0.86836000  0.71625000  0.49581000  1.0
  O  O258  1  0.20091000  0.10395000  0.23630000  1.0
  O  O259  1  0.79909000  0.89605000  0.76370000  1.0
  O  O260  1  0.19539000  0.11100000  0.79767000  1.0
  O  O261  1  0.80460000  0.88900000  0.20233000  1.0
  O  O262  1  0.90810000  0.24539000  0.50134000  1.0
  O  O263  1  0.09190000  0.75463000  0.49866000  1.0
