# generated using pymatgen
data_Na2H12C12S2Br2N2Cl4O7
_symmetry_space_group_name_H-M   'P 1'
_cell_length_a   6.39121000
_cell_length_b   6.39069000
_cell_length_c   30.27259625
_cell_angle_alpha   93.47517926
_cell_angle_beta   93.15228463
_cell_angle_gamma   116.75000000
_symmetry_Int_Tables_number   1
_chemical_formula_structural   Na2H12C12S2Br2N2Cl4O7
_chemical_formula_sum   'Na4 H24 C24 S4 Br4 N4 Cl8 O14'
_cell_volume   1097.39858326
_cell_formula_units_Z   2
loop_
 _symmetry_equiv_pos_site_id
 _symmetry_equiv_pos_as_xyz
  1  'x, y, z'
loop_
 _atom_site_type_symbol
 _atom_site_label
 _atom_site_symmetry_multiplicity
 _atom_site_fract_x
 _atom_site_fract_y
 _atom_site_fract_z
 _atom_site_occupancy
  Na  Na0  1  0.41913000  0.36993000  0.76433000  1.0
  Na  Na1  1  0.10630000  0.65436000  0.73562000  1.0
  Na  Na2  1  0.58088000  0.63007000  0.23567000  1.0
  Na  Na3  1  0.89371000  0.34564000  0.26438000  1.0
  H  H4  1  0.40966000  0.55655000  0.97221000  1.0
  H  H5  1  0.08437000  0.43755000  0.52769000  1.0
  H  H6  1  0.59031000  0.44344000  0.02779000  1.0
  H  H7  1  0.91562000  0.56243000  0.47230000  1.0
  H  H8  1  0.92820000  0.85807000  0.95857000  1.0
  H  H9  1  0.39981000  0.96990000  0.54122000  1.0
  H  H10  1  0.07176000  0.14190000  0.04143000  1.0
  H  H11  1  0.60020000  0.03011000  0.45878000  1.0
  H  H12  1  0.79734000  0.65978000  0.88190000  1.0
  H  H13  1  0.27843000  0.91555000  0.61794000  1.0
  H  H14  1  0.20264000  0.34020000  0.11810000  1.0
  H  H15  1  0.72158000  0.08445000  0.38206000  1.0
  H  H16  1  0.62176000  0.86223000  0.72435000  1.0
  H  H17  1  0.63816000  0.89652000  0.77570000  1.0
  H  H18  1  0.37825000  0.13778000  0.27565000  1.0
  H  H19  1  0.36184000  0.10347000  0.22430000  1.0
  H  H20  1  0.27592000  0.95813000  0.81369000  1.0
  H  H21  1  0.64530000  0.46208000  0.68633000  1.0
  H  H22  1  0.72408000  0.04187000  0.18631000  1.0
  H  H23  1  0.35471000  0.53792000  0.31367000  1.0
  H  H24  1  0.05256000  0.99646000  0.80526000  1.0
  H  H25  1  0.69231000  0.24720000  0.69472000  1.0
  H  H26  1  0.94744000  0.00355000  0.19474000  1.0
  H  H27  1  0.30770000  0.75281000  0.30528000  1.0
  C  C28  1  0.02453000  0.49498000  0.88373000  1.0
  C  C29  1  0.11180000  0.14087000  0.61618000  1.0
  C  C30  1  0.97547000  0.50503000  0.11628000  1.0
  C  C31  1  0.88822000  0.85914000  0.38382000  1.0
  C  C32  1  0.19778000  0.46613000  0.90964000  1.0
  C  C33  1  0.05690000  0.28829000  0.59028000  1.0
  C  C34  1  0.80220000  0.53387000  0.09036000  1.0
  C  C35  1  0.94310000  0.71172000  0.40972000  1.0
  C  C36  1  0.27467000  0.57931000  0.95262000  1.0
  C  C37  1  0.12691000  0.32227000  0.54728000  1.0
  C  C38  1  0.72531000  0.42068000  0.04738000  1.0
  C  C39  1  0.87309000  0.67772000  0.45272000  1.0
  C  C40  1  0.17472000  0.71676000  0.97014000  1.0
  C  C41  1  0.24683000  0.20487000  0.52971000  1.0
  C  C42  1  0.82527000  0.28322000  0.02986000  1.0
  C  C43  1  0.75318000  0.79512000  0.47028000  1.0
  C  C44  1  0.00391000  0.74868000  0.94495000  1.0
  C  C45  1  0.30404000  0.05917000  0.55489000  1.0
  C  C46  1  0.99607000  0.25132000  0.05506000  1.0
  C  C47  1  0.69598000  0.94083000  0.44511000  1.0
  C  C48  1  0.93121000  0.63774000  0.90198000  1.0
  C  C49  1  0.23623000  0.02935000  0.59787000  1.0
  C  C50  1  0.06877000  0.36225000  0.09802000  1.0
  C  C51  1  0.76379000  0.97066000  0.40213000  1.0
  S  S52  1  0.91378000  0.35805000  0.82810000  1.0
  S  S53  1  0.03086000  0.08572000  0.67184000  1.0
  S  S54  1  0.08622000  0.64196000  0.17190000  1.0
  S  S55  1  0.96916000  0.91428000  0.32816000  1.0
  Br  Br56  1  0.58318000  0.93539000  0.86435000  1.0
  Br  Br57  1  0.57138000  0.71899000  0.63586000  1.0
  Br  Br58  1  0.41682000  0.06462000  0.13565000  1.0
  Br  Br59  1  0.42862000  0.28101000  0.36414000  1.0
  N  N60  1  0.83128000  0.08156000  0.82682000  1.0
  N  N61  1  0.75580000  0.00477000  0.67325000  1.0
  N  N62  1  0.16873000  0.91845000  0.17318000  1.0
  N  N63  1  0.24422000  0.99524000  0.32675000  1.0
  Cl  Cl64  1  0.32156000  0.29161000  0.89088000  1.0
  Cl  Cl65  1  0.90105000  0.43067000  0.60908000  1.0
  Cl  Cl66  1  0.67843000  0.70839000  0.10912000  1.0
  Cl  Cl67  1  0.09895000  0.56931000  0.39091000  1.0
  Cl  Cl68  1  0.25988000  0.84209000  0.02437000  1.0
  Cl  Cl69  1  0.31768000  0.23589000  0.47546000  1.0
  Cl  Cl70  1  0.74010000  0.15791000  0.97563000  1.0
  Cl  Cl71  1  0.68232000  0.76411000  0.52454000  1.0
  O  O72  1  0.11113000  0.44089000  0.80031000  1.0
  O  O73  1  0.14179000  0.31089000  0.69960000  1.0
  O  O74  1  0.88888000  0.55912000  0.19969000  1.0
  O  O75  1  0.85822000  0.68912000  0.30040000  1.0
  O  O76  1  0.72918000  0.42498000  0.81653000  1.0
  O  O77  1  0.10928000  0.91256000  0.68337000  1.0
  O  O78  1  0.27083000  0.57504000  0.18347000  1.0
  O  O79  1  0.89073000  0.08745000  0.31663000  1.0
  O  O80  1  0.53747000  0.78684000  0.75000000  1.0
  O  O81  1  0.46253000  0.21316000  0.25000000  1.0
  O  O82  1  0.17711000  0.97686000  0.78992000  1.0
  O  O83  1  0.68791000  0.38699000  0.71008000  1.0
  O  O84  1  0.82288000  0.02314000  0.21008000  1.0
  O  O85  1  0.31210000  0.61301000  0.28992000  1.0
