# generated using pymatgen
data_NiH16C18(N6O)2
_symmetry_space_group_name_H-M   'P 1'
_cell_length_a   8.61155000
_cell_length_b   8.82128000
_cell_length_c   13.71160000
_cell_angle_alpha   90.00230000
_cell_angle_beta   90.00910000
_cell_angle_gamma   88.69120000
_symmetry_Int_Tables_number   1
_chemical_formula_structural   NiH16C18(N6O)2
_chemical_formula_sum   'Ni2 H32 C36 N24 O4'
_cell_volume   1041.32848383
_cell_formula_units_Z   2
loop_
 _symmetry_equiv_pos_site_id
 _symmetry_equiv_pos_as_xyz
  1  'x, y, z'
loop_
 _atom_site_type_symbol
 _atom_site_label
 _atom_site_symmetry_multiplicity
 _atom_site_fract_x
 _atom_site_fract_y
 _atom_site_fract_z
 _atom_site_occupancy
  Ni  Ni0  1  0.00000000  0.00001000  0.00000000  1.0
  Ni  Ni1  1  0.50000000  0.00000000  0.50000000  1.0
  H  H2  1  0.93489000  0.31196000  0.13603000  1.0
  H  H3  1  0.56512000  0.68803000  0.63604000  1.0
  H  H4  1  0.06511000  0.68805000  0.86396000  1.0
  H  H5  1  0.43489000  0.31196000  0.36395000  1.0
  H  H6  1  0.41915000  0.30593000  0.19080000  1.0
  H  H7  1  0.08090000  0.69411000  0.69078000  1.0
  H  H8  1  0.58085000  0.69408000  0.80920000  1.0
  H  H9  1  0.91910000  0.30589000  0.30922000  1.0
  H  H10  1  0.34883000  0.07407000  0.06261000  1.0
  H  H11  1  0.15116000  0.92597000  0.56261000  1.0
  H  H12  1  0.65118000  0.92596000  0.93738000  1.0
  H  H13  1  0.84884000  0.07403000  0.43739000  1.0
  H  H14  1  0.86681000  0.72195000  0.12119000  1.0
  H  H15  1  0.63318000  0.27806000  0.62118000  1.0
  H  H16  1  0.13321000  0.27805000  0.87880000  1.0
  H  H17  1  0.36684000  0.72194000  0.37882000  1.0
  H  H18  1  0.50201000  0.99923000  0.23449000  1.0
  H  H19  1  0.99801000  0.00077000  0.73450000  1.0
  H  H20  1  0.49800000  0.00075000  0.76551000  1.0
  H  H21  1  0.00200000  0.99923000  0.26550000  1.0
  H  H22  1  0.70407000  0.17673000  0.12709000  1.0
  H  H23  1  0.79588000  0.82326000  0.62708000  1.0
  H  H24  1  0.29593000  0.82326000  0.87291000  1.0
  H  H25  1  0.20412000  0.17673000  0.37292000  1.0
  H  H26  1  0.15793000  0.42153000  0.23960000  1.0
  H  H27  1  0.34211000  0.57847000  0.73957000  1.0
  H  H28  1  0.84207000  0.57847000  0.76040000  1.0
  H  H29  1  0.65789000  0.42152000  0.26042000  1.0
  H  H30  1  0.61351000  0.73073000  0.21668000  1.0
  H  H31  1  0.88653000  0.26927000  0.71669000  1.0
  H  H32  1  0.38651000  0.26926000  0.78332000  1.0
  H  H33  1  0.11348000  0.73072000  0.28331000  1.0
  C  C34  1  0.24285000  0.75137000  0.07488000  1.0
  C  C35  1  0.25714000  0.24862000  0.57486000  1.0
  C  C36  1  0.75713000  0.24865000  0.92513000  1.0
  C  C37  1  0.74284000  0.75137000  0.42515000  1.0
  C  C38  1  0.43666000  0.57557000  0.04304000  1.0
  C  C39  1  0.06331000  0.42442000  0.54304000  1.0
  C  C40  1  0.56331000  0.42445000  0.95698000  1.0
  C  C41  1  0.93666000  0.57556000  0.45697000  1.0
  C  C42  1  0.57756000  0.48183000  0.05781000  1.0
  C  C43  1  0.92242000  0.51817000  0.55779000  1.0
  C  C44  1  0.42241000  0.51819000  0.94220000  1.0
  C  C45  1  0.07755000  0.48182000  0.44221000  1.0
  C  C46  1  0.05603000  0.27522000  0.13427000  1.0
  C  C47  1  0.44398000  0.72478000  0.63426000  1.0
  C  C48  1  0.94397000  0.72479000  0.86573000  1.0
  C  C49  1  0.55602000  0.27521000  0.36573000  1.0
  C  C50  1  0.30947000  0.27164000  0.16072000  1.0
  C  C51  1  0.19057000  0.72838000  0.66070000  1.0
  C  C52  1  0.69054000  0.72837000  0.83928000  1.0
  C  C53  1  0.80944000  0.27162000  0.33930000  1.0
  C  C54  1  0.27302000  0.15738000  0.09740000  1.0
  C  C55  1  0.22700000  0.84264000  0.59739000  1.0
  C  C56  1  0.72699000  0.84263000  0.90260000  1.0
  C  C57  1  0.77301000  0.15735000  0.40261000  1.0
  C  C58  1  0.79890000  0.82337000  0.13802000  1.0
  C  C59  1  0.70109000  0.17664000  0.63801000  1.0
  C  C60  1  0.20112000  0.17662000  0.86197000  1.0
  C  C61  1  0.29892000  0.82336000  0.36198000  1.0
  C  C62  1  0.60664000  0.97027000  0.19423000  1.0
  C  C63  1  0.89337000  0.02973000  0.69424000  1.0
  C  C64  1  0.39337000  0.02971000  0.80576000  1.0
  C  C65  1  0.10664000  0.97026000  0.30576000  1.0
  C  C66  1  0.70889000  0.05595000  0.14179000  1.0
  C  C67  1  0.79108000  0.94406000  0.64179000  1.0
  C  C68  1  0.29112000  0.94404000  0.85821000  1.0
  C  C69  1  0.20892000  0.05594000  0.35821000  1.0
  N  N70  1  0.13405000  0.83164000  0.05965000  1.0
  N  N71  1  0.36593000  0.16839000  0.55961000  1.0
  N  N72  1  0.86593000  0.16839000  0.94035000  1.0
  N  N73  1  0.63405000  0.83161000  0.44038000  1.0
  N  N74  1  0.36303000  0.67075000  0.10291000  1.0
  N  N75  1  0.13696000  0.32923000  0.60289000  1.0
  N  N76  1  0.63694000  0.32926000  0.89711000  1.0
  N  N77  1  0.86302000  0.67076000  0.39711000  1.0
  N  N78  1  0.11474000  0.16036000  0.08204000  1.0
  N  N79  1  0.38526000  0.83964000  0.58204000  1.0
  N  N80  1  0.88526000  0.83965000  0.91796000  1.0
  N  N81  1  0.61475000  0.16035000  0.41795000  1.0
  N  N82  1  0.17141000  0.34563000  0.18299000  1.0
  N  N83  1  0.32861000  0.65439000  0.68297000  1.0
  N  N84  1  0.82859000  0.65438000  0.81701000  1.0
  N  N85  1  0.67139000  0.34561000  0.31702000  1.0
  N  N86  1  0.82846000  0.96303000  0.10733000  1.0
  N  N87  1  0.67153000  0.03698000  0.60733000  1.0
  N  N88  1  0.17155000  0.03696000  0.89267000  1.0
  N  N89  1  0.32848000  0.96302000  0.39267000  1.0
  N  N90  1  0.66620000  0.82432000  0.19091000  1.0
  N  N91  1  0.83383000  0.17567000  0.69091000  1.0
  N  N92  1  0.33382000  0.17567000  0.80908000  1.0
  N  N93  1  0.16618000  0.82433000  0.30908000  1.0
  O  O94  1  0.67032000  0.46040000  0.12739000  1.0
  O  O95  1  0.82968000  0.53959000  0.62736000  1.0
  O  O96  1  0.32966000  0.53962000  0.87262000  1.0
  O  O97  1  0.17030000  0.46039000  0.37265000  1.0
