# generated using pymatgen
data_CoH16C22(NO)4
_symmetry_space_group_name_H-M   'P 1'
_cell_length_a   7.81071000
_cell_length_b   10.95060000
_cell_length_c   13.39700000
_cell_angle_alpha   85.15990000
_cell_angle_beta   76.31630000
_cell_angle_gamma   69.15500000
_symmetry_Int_Tables_number   1
_chemical_formula_structural   CoH16C22(NO)4
_chemical_formula_sum   'Co2 H32 C44 N8 O8'
_cell_volume   1040.47523679
_cell_formula_units_Z   2
loop_
 _symmetry_equiv_pos_site_id
 _symmetry_equiv_pos_as_xyz
  1  'x, y, z'
loop_
 _atom_site_type_symbol
 _atom_site_label
 _atom_site_symmetry_multiplicity
 _atom_site_fract_x
 _atom_site_fract_y
 _atom_site_fract_z
 _atom_site_occupancy
  Co  Co0  1  0.71059000  0.57924000  0.24993000  1.0
  Co  Co1  1  0.28941000  0.42076000  0.75007000  1.0
  H  H2  1  0.83020000  0.32367000  0.93163000  1.0
  H  H3  1  0.84569000  0.32378000  0.56834000  1.0
  H  H4  1  0.16980000  0.67632000  0.06837000  1.0
  H  H5  1  0.15432000  0.67621000  0.43165000  1.0
  H  H6  1  0.60295000  0.48792000  0.06274000  1.0
  H  H7  1  0.90884000  0.48816000  0.43729000  1.0
  H  H8  1  0.39705000  0.51208000  0.93726000  1.0
  H  H9  1  0.09117000  0.51183000  0.56271000  1.0
  H  H10  1  0.15462000  0.43160000  0.21324000  1.0
  H  H11  1  0.41401000  0.43145000  0.28651000  1.0
  H  H12  1  0.84538000  0.56840000  0.78677000  1.0
  H  H13  1  0.58599000  0.56855000  0.71348000  1.0
  H  H14  1  0.46757000  0.26518000  0.13817000  1.0
  H  H15  1  0.26718000  0.26492000  0.36155000  1.0
  H  H16  1  0.53242000  0.73482000  0.86183000  1.0
  H  H17  1  0.73282000  0.73508000  0.63844000  1.0
  H  H18  1  0.50762000  0.12914000  0.99045000  1.0
  H  H19  1  0.36285000  0.12886000  0.50932000  1.0
  H  H20  1  0.49238000  0.87086000  0.00955000  1.0
  H  H21  1  0.63715000  0.87114000  0.49068000  1.0
  H  H22  1  0.23913000  0.15454000  0.90983000  1.0
  H  H23  1  0.60577000  0.15437000  0.59003000  1.0
  H  H24  1  0.76086000  0.84546000  0.09017000  1.0
  H  H25  1  0.39424000  0.84563000  0.40997000  1.0
  H  H26  1  0.69143000  0.96344000  0.30141000  1.0
  H  H27  1  0.34614000  0.96366000  0.19833000  1.0
  H  H28  1  0.30857000  0.03656000  0.69859000  1.0
  H  H29  1  0.65387000  0.03634000  0.80167000  1.0
  H  H30  1  0.74914000  0.17423000  0.27424000  1.0
  H  H31  1  0.07795000  0.17433000  0.22524000  1.0
  H  H32  1  0.25087000  0.82577000  0.72576000  1.0
  H  H33  1  0.92205000  0.82567000  0.77476000  1.0
  C  C34  1  0.75049000  0.43768000  0.06301000  1.0
  C  C35  1  0.81155000  0.43782000  0.43696000  1.0
  C  C36  1  0.24951000  0.56232000  0.93699000  1.0
  C  C37  1  0.18846000  0.56218000  0.56303000  1.0
  C  C38  1  0.02196000  0.38154000  0.10504000  1.0
  C  C39  1  0.59635000  0.38151000  0.39483000  1.0
  C  C40  1  0.97804000  0.61846000  0.89496000  1.0
  C  C41  1  0.40365000  0.61849000  0.60517000  1.0
  C  C42  1  0.17278000  0.36967000  0.14909000  1.0
  C  C43  1  0.45757000  0.36950000  0.35069000  1.0
  C  C44  1  0.82721000  0.63033000  0.85092000  1.0
  C  C45  1  0.54243000  0.63049000  0.64931000  1.0
  C  C46  1  0.34641000  0.27769000  0.10604000  1.0
  C  C47  1  0.37575000  0.27747000  0.39373000  1.0
  C  C48  1  0.65358000  0.72231000  0.89396000  1.0
  C  C49  1  0.62425000  0.72253000  0.60627000  1.0
  C  C50  1  0.36918000  0.19996000  0.02171000  1.0
  C  C51  1  0.43054000  0.19974000  0.47809000  1.0
  C  C52  1  0.63082000  0.80004000  0.97830000  1.0
  C  C53  1  0.56946000  0.80026000  0.52190000  1.0
  C  C54  1  0.22044000  0.21204000  0.97657000  1.0
  C  C55  1  0.56707000  0.21192000  0.52331000  1.0
  C  C56  1  0.77956000  0.78796000  0.02344000  1.0
  C  C57  1  0.43293000  0.78807000  0.47669000  1.0
  C  C58  1  0.04624000  0.30483000  0.01913000  1.0
  C  C59  1  0.64857000  0.30480000  0.48079000  1.0
  C  C60  1  0.95376000  0.69517000  0.98088000  1.0
  C  C61  1  0.35143000  0.69519000  0.51921000  1.0
  C  C62  1  0.94890000  0.71970000  0.29022000  1.0
  C  C63  1  0.33212000  0.71981000  0.20982000  1.0
  C  C64  1  0.05111000  0.28030000  0.70977000  1.0
  C  C65  1  0.66788000  0.28020000  0.79017000  1.0
  C  C66  1  0.98524000  0.84566000  0.26561000  1.0
  C  C67  1  0.17002000  0.84571000  0.23440000  1.0
  C  C68  1  0.01476000  0.15434000  0.73439000  1.0
  C  C69  1  0.82999000  0.15429000  0.76560000  1.0
  C  C70  1  0.83457000  0.96441000  0.27839000  1.0
  C  C71  1  0.20211000  0.96452000  0.22145000  1.0
  C  C72  1  0.16544000  0.03559000  0.72161000  1.0
  C  C73  1  0.79789000  0.03548000  0.77855000  1.0
  C  C74  1  0.86742000  0.08243000  0.26346000  1.0
  C  C75  1  0.05138000  0.08249000  0.23619000  1.0
  C  C76  1  0.13259000  0.91757000  0.73654000  1.0
  C  C77  1  0.94862000  0.91751000  0.76381000  1.0
  N  N78  1  0.83415000  0.46283000  0.13085000  1.0
  N  N79  1  0.70290000  0.46289000  0.36907000  1.0
  N  N80  1  0.16584000  0.53717000  0.86915000  1.0
  N  N81  1  0.29710000  0.53711000  0.63093000  1.0
  N  N82  1  0.87099000  0.34391000  0.99524000  1.0
  N  N83  1  0.78463000  0.34403000  0.50474000  1.0
  N  N84  1  0.12901000  0.65609000  0.00476000  1.0
  N  N85  1  0.21537000  0.65597000  0.49525000  1.0
  O  O86  1  0.82745000  0.70713000  0.24559000  1.0
  O  O87  1  0.46630000  0.70735000  0.25428000  1.0
  O  O88  1  0.17255000  0.29287000  0.75441000  1.0
  O  O89  1  0.53371000  0.29265000  0.74572000  1.0
  O  O90  1  0.03151000  0.63891000  0.35101000  1.0
  O  O91  1  0.33001000  0.63894000  0.14916000  1.0
  O  O92  1  0.96850000  0.36109000  0.64898000  1.0
  O  O93  1  0.67000000  0.36106000  0.85084000  1.0
