# generated using pymatgen
data_Gd2H23C29(N2O7)2
_symmetry_space_group_name_H-M   'P 1'
_cell_length_a   10.44520000
_cell_length_b   11.31240000
_cell_length_c   13.92470000
_cell_angle_alpha   109.82700000
_cell_angle_beta   107.07700000
_cell_angle_gamma   94.78470000
_symmetry_Int_Tables_number   1
_chemical_formula_structural   Gd2H23C29(N2O7)2
_chemical_formula_sum   'Gd4 H46 C58 N8 O28'
_cell_volume   1448.60422101
_cell_formula_units_Z   2
loop_
 _symmetry_equiv_pos_site_id
 _symmetry_equiv_pos_as_xyz
  1  'x, y, z'
loop_
 _atom_site_type_symbol
 _atom_site_label
 _atom_site_symmetry_multiplicity
 _atom_site_fract_x
 _atom_site_fract_y
 _atom_site_fract_z
 _atom_site_occupancy
  Gd  Gd0  1  0.69313000  0.48023000  0.07840000  1.0
  Gd  Gd1  1  0.30687000  0.51977000  0.92160000  1.0
  Gd  Gd2  1  0.78399000  0.62195000  0.40101000  1.0
  Gd  Gd3  1  0.21601000  0.37805000  0.59899000  1.0
  H  H4  1  0.91199000  0.48652000  0.55172000  1.0
  H  H5  1  0.08801000  0.51348000  0.44828000  1.0
  H  H6  1  0.00955000  0.61846000  0.59970000  1.0
  H  H7  1  0.99045000  0.38155000  0.40030000  1.0
  H  H8  1  0.59900000  0.39690000  0.41698000  1.0
  H  H9  1  0.40101000  0.60311000  0.58302000  1.0
  H  H10  1  0.62568000  0.51611000  0.52411000  1.0
  H  H11  1  0.37434000  0.48389000  0.47589000  1.0
  H  H12  1  0.08677000  0.36116000  0.98023000  1.0
  H  H13  1  0.91323000  0.63884000  0.01977000  1.0
  H  H14  1  0.24685000  0.33328000  0.00243000  1.0
  H  H15  1  0.75315000  0.66666667  0.99757000  1.0
  H  H16  1  0.89780000  0.11260000  0.50230000  1.0
  H  H17  1  0.10220000  0.88740000  0.49770000  1.0
  H  H18  1  0.84919000  0.94593000  0.44510000  1.0
  H  H19  1  0.15081000  0.05407000  0.55489000  1.0
  H  H20  1  0.40921000  0.94178000  0.56623000  1.0
  H  H21  1  0.59079000  0.05822000  0.43377000  1.0
  H  H22  1  0.50247000  0.83623000  0.50645000  1.0
  H  H23  1  0.49753000  0.16377000  0.49355000  1.0
  H  H24  1  0.47393000  0.64421000  0.37003000  1.0
  H  H25  1  0.52608000  0.35579000  0.62997000  1.0
  H  H26  1  0.27486000  0.69174000  0.43074000  1.0
  H  H27  1  0.72515000  0.30826000  0.56926000  1.0
  H  H28  1  0.00395000  0.46311000  0.10550000  1.0
  H  H29  1  0.99606000  0.53690000  0.89450000  1.0
  H  H30  1  0.61764000  0.85799000  0.07122000  1.0
  H  H31  1  0.38236000  0.14202000  0.92878000  1.0
  H  H32  1  0.61278000  0.07765000  0.06567000  1.0
  H  H33  1  0.38722000  0.92236000  0.93433000  1.0
  H  H34  1  0.83228000  0.24348000  0.40998000  1.0
  H  H35  1  0.16772000  0.75653000  0.59002000  1.0
  H  H36  1  0.96467000  0.01444000  0.72065000  1.0
  H  H37  1  0.03533000  0.98555000  0.27935000  1.0
  H  H38  1  0.95588000  0.20078000  0.87747000  1.0
  H  H39  1  0.04412000  0.79921000  0.12254000  1.0
  H  H40  1  0.51718000  0.11331000  0.74089000  1.0
  H  H41  1  0.48282000  0.88669000  0.25911000  1.0
  H  H42  1  0.12608000  0.32199000  0.27114000  1.0
  H  H43  1  0.87392000  0.67799000  0.72886000  1.0
  H  H44  1  0.93030000  0.16910000  0.11882000  1.0
  H  H45  1  0.06970000  0.83089000  0.88117000  1.0
  H  H46  1  0.22180000  0.96416000  0.00422000  1.0
  H  H47  1  0.77820000  0.03583000  0.99577000  1.0
  H  H48  1  0.40511000  0.13006000  0.15852000  1.0
  H  H49  1  0.59488000  0.86993000  0.84147000  1.0
  C  C50  1  0.47259000  0.50800000  0.17217000  1.0
  C  C51  1  0.52741000  0.49200000  0.82783000  1.0
  C  C52  1  0.35143000  0.52710000  0.20491000  1.0
  C  C53  1  0.64857000  0.47290000  0.79509000  1.0
  C  C54  1  0.37017000  0.60404000  0.31310000  1.0
  C  C55  1  0.62983000  0.39596000  0.68690000  1.0
  C  C56  1  0.26005000  0.63111000  0.34703000  1.0
  C  C57  1  0.73996000  0.36889000  0.65297000  1.0
  C  C58  1  0.12714000  0.58111000  0.27100000  1.0
  C  C59  1  0.87287000  0.41890000  0.72901000  1.0
  C  C60  1  0.00584000  0.60017000  0.30461000  1.0
  C  C61  1  0.99417000  0.39984000  0.69539000  1.0
  C  C62  1  0.10695000  0.50556000  0.16352000  1.0
  C  C63  1  0.89305000  0.49444000  0.83649000  1.0
  C  C64  1  0.21723000  0.47588000  0.12894000  1.0
  C  C65  1  0.78277000  0.52412000  0.87106000  1.0
  C  C66  1  0.73673000  0.79510000  0.23815000  1.0
  C  C67  1  0.26327000  0.20490000  0.76185000  1.0
  C  C68  1  0.72879000  0.92711000  0.24208000  1.0
  C  C69  1  0.27120000  0.07289000  0.75791000  1.0
  C  C70  1  0.66547000  0.94420000  0.14458000  1.0
  C  C71  1  0.33452000  0.05581000  0.85542000  1.0
  C  C72  1  0.66241000  0.06486000  0.14101000  1.0
  C  C73  1  0.33759000  0.93514000  0.85899000  1.0
  C  C74  1  0.72781000  0.17380000  0.23752000  1.0
  C  C75  1  0.27219000  0.82621000  0.76247000  1.0
  C  C76  1  0.73910000  0.30609000  0.23679000  1.0
  C  C77  1  0.26090000  0.69391000  0.76321000  1.0
  C  C78  1  0.78537000  0.15927000  0.33503000  1.0
  C  C79  1  0.21463000  0.84074000  0.66497000  1.0
  C  C80  1  0.78476000  0.03733000  0.34111000  1.0
  C  C81  1  0.21524000  0.96268000  0.65889000  1.0
  C  C82  1  0.76223000  0.84098000  0.56116000  1.0
  C  C83  1  0.23777000  0.15902000  0.43884000  1.0
  C  C84  1  0.74725000  0.95622000  0.64399000  1.0
  C  C85  1  0.25275000  0.04378000  0.35601000  1.0
  C  C86  1  0.86729000  0.03852000  0.72562000  1.0
  C  C87  1  0.13270000  0.96148000  0.27438000  1.0
  C  C88  1  0.86259000  0.14257000  0.81179000  1.0
  C  C89  1  0.13741000  0.85742000  0.18821000  1.0
  C  C90  1  0.73467000  0.16802000  0.81686000  1.0
  C  C91  1  0.26533000  0.83197000  0.18314000  1.0
  C  C92  1  0.72410000  0.27329000  0.91190000  1.0
  C  C93  1  0.27590000  0.72671000  0.08810000  1.0
  C  C94  1  0.61486000  0.09165000  0.73474000  1.0
  C  C95  1  0.38514000  0.90835000  0.26526000  1.0
  C  C96  1  0.61701000  0.98303000  0.64751000  1.0
  C  C97  1  0.38298000  0.01696000  0.35250000  1.0
  C  C98  1  0.14406000  0.24267000  0.20881000  1.0
  C  C99  1  0.85594000  0.75732000  0.79118000  1.0
  C  C100  1  0.03332000  0.15489000  0.12303000  1.0
  C  C101  1  0.96668000  0.84509000  0.87696000  1.0
  C  C102  1  0.05667000  0.04976000  0.04538000  1.0
  C  C103  1  0.94332000  0.95022000  0.95461000  1.0
  C  C104  1  0.19425000  0.04281000  0.05988000  1.0
  C  C105  1  0.80575000  0.95718000  0.94012000  1.0
  C  C106  1  0.29820000  0.13656000  0.14728000  1.0
  C  C107  1  0.70180000  0.86342000  0.85271000  1.0
  N  N108  1  0.18866000  0.40086000  0.01861000  1.0
  N  N109  1  0.81134000  0.59914000  0.98139000  1.0
  N  N110  1  0.83369000  0.03235000  0.44185000  1.0
  N  N111  1  0.16631000  0.96766000  0.55815000  1.0
  N  N112  1  0.49606000  0.90609000  0.57275000  1.0
  N  N113  1  0.50394000  0.09391000  0.42725000  1.0
  N  N114  1  0.27576000  0.23626000  0.22230000  1.0
  N  N115  1  0.72424000  0.76372000  0.77770000  1.0
  O  O116  1  0.45815000  0.46028000  0.07051000  1.0
  O  O117  1  0.54185000  0.53972000  0.92949000  1.0
  O  O118  1  0.59256000  0.53969000  0.24241000  1.0
  O  O119  1  0.40744000  0.46031000  0.75759000  1.0
  O  O120  1  0.88684000  0.56515000  0.23285000  1.0
  O  O121  1  0.11316000  0.43486000  0.76716000  1.0
  O  O122  1  0.02110000  0.64647000  0.40615000  1.0
  O  O123  1  0.97890000  0.35354000  0.59386000  1.0
  O  O124  1  0.70520000  0.70403000  0.14561000  1.0
  O  O125  1  0.29480000  0.29598000  0.85439000  1.0
  O  O126  1  0.77739000  0.77975000  0.32877000  1.0
  O  O127  1  0.22261000  0.22025000  0.67122000  1.0
  O  O128  1  0.69102000  0.31760000  0.14632000  1.0
  O  O129  1  0.30898000  0.68241000  0.85368000  1.0
  O  O130  1  0.79927000  0.40042000  0.32863000  1.0
  O  O131  1  0.20073000  0.59958000  0.67137000  1.0
  O  O132  1  0.88040000  0.82405000  0.55629000  1.0
  O  O133  1  0.11960000  0.17595000  0.44371000  1.0
  O  O134  1  0.65542000  0.75412000  0.49236000  1.0
  O  O135  1  0.34458000  0.24588000  0.50763000  1.0
  O  O136  1  0.60630000  0.29598000  0.91261000  1.0
  O  O137  1  0.39371000  0.70403000  0.08739000  1.0
  O  O138  1  0.83233000  0.34124000  0.99222000  1.0
  O  O139  1  0.16767000  0.65876000  0.00778000  1.0
  O  O140  1  0.91291000  0.57629000  0.55861000  1.0
  O  O141  1  0.08709000  0.42371000  0.44139000  1.0
  O  O142  1  0.61821000  0.49042000  0.44798000  1.0
  O  O143  1  0.38178000  0.50959000  0.55202000  1.0
