# generated using pymatgen
data_CoH11C17SN3O5
_symmetry_space_group_name_H-M   'P 1'
_cell_length_a   7.75326000
_cell_length_b   10.34170000
_cell_length_c   11.68365543
_cell_angle_alpha   116.05512550
_cell_angle_beta   99.91464517
_cell_angle_gamma   96.70620000
_symmetry_Int_Tables_number   1
_chemical_formula_structural   CoH11C17SN3O5
_chemical_formula_sum   'Co2 H22 C34 S2 N6 O10'
_cell_volume   809.20931924
_cell_formula_units_Z   2
loop_
 _symmetry_equiv_pos_site_id
 _symmetry_equiv_pos_as_xyz
  1  'x, y, z'
loop_
 _atom_site_type_symbol
 _atom_site_label
 _atom_site_symmetry_multiplicity
 _atom_site_fract_x
 _atom_site_fract_y
 _atom_site_fract_z
 _atom_site_occupancy
  Co  Co0  1  0.35288000  0.63891000  0.54986000  1.0
  Co  Co1  1  0.64711000  0.36110000  0.45014000  1.0
  H  H2  1  0.08159000  0.34913000  0.34340000  1.0
  H  H3  1  0.91840000  0.65090000  0.65661000  1.0
  H  H4  1  0.61309000  0.92485000  0.73243000  1.0
  H  H5  1  0.38692000  0.07512000  0.26757000  1.0
  H  H6  1  0.99708000  0.12637000  0.74938000  1.0
  H  H7  1  0.00288000  0.87362000  0.25059000  1.0
  H  H8  1  0.05538000  0.36112000  0.71079000  1.0
  H  H9  1  0.94462000  0.63890000  0.28920000  1.0
  H  H10  1  0.36551000  0.60320000  0.80723000  1.0
  H  H11  1  0.63448000  0.39680000  0.19278000  1.0
  H  H12  1  0.90576000  0.15825000  0.16382000  1.0
  H  H13  1  0.09424000  0.84174000  0.83618000  1.0
  H  H14  1  0.54973000  0.73087000  0.04187000  1.0
  H  H15  1  0.45026000  0.26913000  0.95814000  1.0
  H  H16  1  0.25116000  0.59431000  0.09001000  1.0
  H  H17  1  0.74883000  0.40567000  0.90997000  1.0
  H  H18  1  0.37199000  0.70601000  0.33290000  1.0
  H  H19  1  0.62798000  0.29401000  0.66709000  1.0
  H  H20  1  0.77198000  0.96485000  0.12140000  1.0
  H  H21  1  0.22803000  0.03514000  0.87860000  1.0
  H  H22  1  0.03856000  0.34596000  0.96935000  1.0
  H  H23  1  0.96147000  0.65399000  0.03063000  1.0
  C  C24  1  0.29774000  0.36133000  0.54826000  1.0
  C  C25  1  0.70225000  0.63870000  0.45175000  1.0
  C  C26  1  0.11883000  0.39998000  0.28445000  1.0
  C  C27  1  0.88117000  0.60003000  0.71555000  1.0
  C  C28  1  0.70503000  0.96658000  0.93336000  1.0
  C  C29  1  0.29499000  0.03340000  0.06664000  1.0
  C  C30  1  0.60059000  0.88494000  0.80340000  1.0
  C  C31  1  0.39943000  0.11504000  0.19660000  1.0
  C  C32  1  0.08760000  0.14296000  0.69294000  1.0
  C  C33  1  0.91238000  0.85704000  0.30704000  1.0
  C  C34  1  0.11760000  0.26702000  0.67192000  1.0
  C  C35  1  0.88239000  0.73298000  0.32807000  1.0
  C  C36  1  0.46492000  0.70552000  0.84604000  1.0
  C  C37  1  0.53509000  0.29447000  0.15397000  1.0
  C  C38  1  0.56670000  0.77729000  0.97585000  1.0
  C  C39  1  0.43330000  0.22270000  0.02415000  1.0
  C  C40  1  0.04240000  0.32893000  0.14772000  1.0
  C  C41  1  0.95761000  0.67105000  0.85227000  1.0
  C  C42  1  0.18444000  0.89590000  0.62860000  1.0
  C  C43  1  0.81556000  0.10412000  0.37142000  1.0
  C  C44  1  0.18331000  0.03917000  0.62948000  1.0
  C  C45  1  0.81668000  0.96083000  0.37051000  1.0
  C  C46  1  0.23439000  0.25554000  0.59176000  1.0
  C  C47  1  0.76562000  0.74449000  0.40825000  1.0
  C  C48  1  0.82206000  0.11112000  0.96755000  1.0
  C  C49  1  0.17797000  0.88886000  0.03244000  1.0
  C  C50  1  0.21293000  0.53479000  0.14215000  1.0
  C  C51  1  0.78707000  0.46520000  0.85784000  1.0
  C  C52  1  0.28138000  0.59805000  0.27728000  1.0
  C  C53  1  0.71861000  0.40195000  0.72271000  1.0
  C  C54  1  0.69004000  0.90893000  0.02035000  1.0
  C  C55  1  0.30997000  0.09106000  0.97965000  1.0
  C  C56  1  0.09309000  0.39824000  0.07502000  1.0
  C  C57  1  0.90692000  0.60173000  0.92497000  1.0
  S  S58  1  0.30761000  0.09287000  0.54304000  1.0
  S  S59  1  0.69240000  0.90715000  0.45697000  1.0
  N  N60  1  0.23614000  0.53011000  0.34709000  1.0
  N  N61  1  0.76384000  0.46990000  0.65290000  1.0
  N  N62  1  0.48367000  0.75694000  0.75989000  1.0
  N  N63  1  0.51633000  0.24304000  0.24011000  1.0
  N  N64  1  0.92353000  0.19229000  0.09475000  1.0
  N  N65  1  0.07649000  0.80769000  0.90525000  1.0
  O  O66  1  0.24132000  0.48145000  0.58586000  1.0
  O  O67  1  0.75864000  0.51857000  0.41415000  1.0
  O  O68  1  0.28489000  0.81951000  0.56102000  1.0
  O  O69  1  0.71516000  0.18053000  0.43904000  1.0
  O  O70  1  0.40523000  0.32733000  0.47323000  1.0
  O  O71  1  0.59479000  0.67274000  0.52680000  1.0
  O  O72  1  0.09142000  0.85801000  0.69166000  1.0
  O  O73  1  0.90852000  0.14201000  0.30833000  1.0
  O  O74  1  0.82188000  0.15290000  0.88274000  1.0
  O  O75  1  0.17816000  0.84707000  0.11725000  1.0
