# generated using pymatgen
data_ZnH5C5SNO3
_symmetry_space_group_name_H-M   'P 1'
_cell_length_a   4.92025000
_cell_length_b   8.49068000
_cell_length_c   17.13120000
_cell_angle_alpha   89.99950000
_cell_angle_beta   82.65760000
_cell_angle_gamma   89.99980000
_symmetry_Int_Tables_number   1
_chemical_formula_structural   ZnH5C5SNO3
_chemical_formula_sum   'Zn4 H20 C20 S4 N4 O12'
_cell_volume   709.80915128
_cell_formula_units_Z   4
loop_
 _symmetry_equiv_pos_site_id
 _symmetry_equiv_pos_as_xyz
  1  'x, y, z'
loop_
 _atom_site_type_symbol
 _atom_site_label
 _atom_site_symmetry_multiplicity
 _atom_site_fract_x
 _atom_site_fract_y
 _atom_site_fract_z
 _atom_site_occupancy
  Zn  Zn0  1  0.79613000  0.56855000  0.41577000  1.0
  Zn  Zn1  1  0.20387000  0.06855000  0.08423000  1.0
  Zn  Zn2  1  0.20387000  0.43145000  0.58423000  1.0
  Zn  Zn3  1  0.79612000  0.93145000  0.91577000  1.0
  H  H4  1  0.45468000  0.72811000  0.30602000  1.0
  H  H5  1  0.54531000  0.22811000  0.19398000  1.0
  H  H6  1  0.54532000  0.27189000  0.69397000  1.0
  H  H7  1  0.45469000  0.77188000  0.80602000  1.0
  H  H8  1  0.10350000  0.41422000  0.27775000  1.0
  H  H9  1  0.89650000  0.91423000  0.22225000  1.0
  H  H10  1  0.89650000  0.58578000  0.72225000  1.0
  H  H11  1  0.10349000  0.08578000  0.77775000  1.0
  H  H12  1  0.11793000  0.41497000  0.13058000  1.0
  H  H13  1  0.88206000  0.91497000  0.36942000  1.0
  H  H14  1  0.88207000  0.58503000  0.86942000  1.0
  H  H15  1  0.11794000  0.08503000  0.63059000  1.0
  H  H16  1  0.77961000  0.58559000  0.07067000  1.0
  H  H17  1  0.22039000  0.08558000  0.42933000  1.0
  H  H18  1  0.22039000  0.41441000  0.92933000  1.0
  H  H19  1  0.77962000  0.91442000  0.57067000  1.0
  H  H20  1  0.44123000  0.74192000  0.15921000  1.0
  H  H21  1  0.55877000  0.24191000  0.34079000  1.0
  H  H22  1  0.55878000  0.25809000  0.84079000  1.0
  H  H23  1  0.44123000  0.75809000  0.65921000  1.0
  C  C24  1  0.59803000  0.66203000  0.26460000  1.0
  C  C25  1  0.40199000  0.16203000  0.23540000  1.0
  C  C26  1  0.40200000  0.33797000  0.73540000  1.0
  C  C27  1  0.59801000  0.83798000  0.76460000  1.0
  C  C28  1  0.96126000  0.48517000  0.24877000  1.0
  C  C29  1  0.03874000  0.98516000  0.25123000  1.0
  C  C30  1  0.03874000  0.51483000  0.75122000  1.0
  C  C31  1  0.96125000  0.01484000  0.74877000  1.0
  C  C32  1  0.96676000  0.48548000  0.16740000  1.0
  C  C33  1  0.03324000  0.98547000  0.33260000  1.0
  C  C34  1  0.03324000  0.51452000  0.83260000  1.0
  C  C35  1  0.96675000  0.01453000  0.66740000  1.0
  C  C36  1  0.77943000  0.57988000  0.13424000  1.0
  C  C37  1  0.22057000  0.07987000  0.36576000  1.0
  C  C38  1  0.22058000  0.42012000  0.86576000  1.0
  C  C39  1  0.77942000  0.92013000  0.63424000  1.0
  C  C40  1  0.59082000  0.66857000  0.18381000  1.0
  C  C41  1  0.40918000  0.16856000  0.31619000  1.0
  C  C42  1  0.40919000  0.33144000  0.81618000  1.0
  C  C43  1  0.59081000  0.83144000  0.68382000  1.0
  S  S44  1  0.72630000  0.25934000  0.51510000  1.0
  S  S45  1  0.27370000  0.75934000  0.98490000  1.0
  S  S46  1  0.27370000  0.74066000  0.48490000  1.0
  S  S47  1  0.72630000  0.24066000  0.01510000  1.0
  N  N48  1  0.78141000  0.57251000  0.29664000  1.0
  N  N49  1  0.21860000  0.07251000  0.20336000  1.0
  N  N50  1  0.21860000  0.42749000  0.70335000  1.0
  N  N51  1  0.78139000  0.92749000  0.79665000  1.0
  O  O52  1  0.76921000  0.34098000  0.43399000  1.0
  O  O53  1  0.23079000  0.84098000  0.06601000  1.0
  O  O54  1  0.23079000  0.65902000  0.56601000  1.0
  O  O55  1  0.76921000  0.15902000  0.93399000  1.0
  O  O56  1  0.41207000  0.24902000  0.53882000  1.0
  O  O57  1  0.58793000  0.74902000  0.96118000  1.0
  O  O58  1  0.58793000  0.75097000  0.46118000  1.0
  O  O59  1  0.41207000  0.25097000  0.03882000  1.0
  O  O60  1  0.81216000  0.38440000  0.57345000  1.0
  O  O61  1  0.18784000  0.88440000  0.92655000  1.0
  O  O62  1  0.18784000  0.61560000  0.42655000  1.0
  O  O63  1  0.81216000  0.11560000  0.07345000  1.0
