# generated using pymatgen
data_CsH5C6(NO3)2
_symmetry_space_group_name_H-M   'P 1'
_cell_length_a   5.55135000
_cell_length_b   7.76733000
_cell_length_c   22.42050000
_cell_angle_alpha   90.00010000
_cell_angle_beta   90.00110000
_cell_angle_gamma   89.00750000
_symmetry_Int_Tables_number   1
_chemical_formula_structural   CsH5C6(NO3)2
_chemical_formula_sum   'Cs4 H20 C24 N8 O24'
_cell_volume   966.60825148
_cell_formula_units_Z   4
loop_
 _symmetry_equiv_pos_site_id
 _symmetry_equiv_pos_as_xyz
  1  'x, y, z'
loop_
 _atom_site_type_symbol
 _atom_site_label
 _atom_site_symmetry_multiplicity
 _atom_site_fract_x
 _atom_site_fract_y
 _atom_site_fract_z
 _atom_site_occupancy
  Cs  Cs0  1  0.31603000  0.26298000  0.51634000  1.0
  Cs  Cs1  1  0.68398000  0.23703000  0.01634000  1.0
  Cs  Cs2  1  0.68397000  0.73703000  0.48366000  1.0
  Cs  Cs3  1  0.31605000  0.76297000  0.98366000  1.0
  H  H4  1  0.95179000  0.11184000  0.73531000  1.0
  H  H5  1  0.04821000  0.38815000  0.23532000  1.0
  H  H6  1  0.04821000  0.88816000  0.26469000  1.0
  H  H7  1  0.95179000  0.61184000  0.76468000  1.0
  H  H8  1  0.32532000  0.83827000  0.79392000  1.0
  H  H9  1  0.67467000  0.66173000  0.29393000  1.0
  H  H10  1  0.67466000  0.16174000  0.20608000  1.0
  H  H11  1  0.32532000  0.33826000  0.70607000  1.0
  H  H12  1  0.20362000  0.79623000  0.68823000  1.0
  H  H13  1  0.79640000  0.70376000  0.18824000  1.0
  H  H14  1  0.79639000  0.20377000  0.31177000  1.0
  H  H15  1  0.20361000  0.29624000  0.81176000  1.0
  H  H16  1  0.06116000  0.60645000  0.58842000  1.0
  H  H17  1  0.93884000  0.89354000  0.08842000  1.0
  H  H18  1  0.93883000  0.39355000  0.41158000  1.0
  H  H19  1  0.06118000  0.10646000  0.91158000  1.0
  H  H20  1  0.24440000  0.74630000  0.57201000  1.0
  H  H21  1  0.75559000  0.75369000  0.07201000  1.0
  H  H22  1  0.75559000  0.25371000  0.42799000  1.0
  H  H23  1  0.24442000  0.24631000  0.92799000  1.0
  C  C24  1  0.50398000  0.92964000  0.64903000  1.0
  C  C25  1  0.49603000  0.57035000  0.14904000  1.0
  C  C26  1  0.49602000  0.07036000  0.35096000  1.0
  C  C27  1  0.50398000  0.42965000  0.85096000  1.0
  C  C28  1  0.72145000  0.02182000  0.66571000  1.0
  C  C29  1  0.27856000  0.47818000  0.16572000  1.0
  C  C30  1  0.27856000  0.97818000  0.33429000  1.0
  C  C31  1  0.72144000  0.52182000  0.83428000  1.0
  C  C32  1  0.78871000  0.04283000  0.72491000  1.0
  C  C33  1  0.21128000  0.45716000  0.22491000  1.0
  C  C34  1  0.21128000  0.95717000  0.27509000  1.0
  C  C35  1  0.78872000  0.54283000  0.77509000  1.0
  C  C36  1  0.64799000  0.97660000  0.77034000  1.0
  C  C37  1  0.35201000  0.52340000  0.27035000  1.0
  C  C38  1  0.35200000  0.02341000  0.22965000  1.0
  C  C39  1  0.64798000  0.47658000  0.72965000  1.0
  C  C40  1  0.43345000  0.88767000  0.75741000  1.0
  C  C41  1  0.56654000  0.61233000  0.25741000  1.0
  C  C42  1  0.56654000  0.11234000  0.24259000  1.0
  C  C43  1  0.43345000  0.38767000  0.74259000  1.0
  C  C44  1  0.36689000  0.86553000  0.69916000  1.0
  C  C45  1  0.63313000  0.63446000  0.19917000  1.0
  C  C46  1  0.63312000  0.13447000  0.30084000  1.0
  C  C47  1  0.36687000  0.36554000  0.80083000  1.0
  N  N48  1  0.87630000  0.09881000  0.62204000  1.0
  N  N49  1  0.12368000  0.40119000  0.12205000  1.0
  N  N50  1  0.12369000  0.90119000  0.37795000  1.0
  N  N51  1  0.87632000  0.59882000  0.87795000  1.0
  N  N52  1  0.72025000  0.00389000  0.83060000  1.0
  N  N53  1  0.27973000  0.49610000  0.33060000  1.0
  N  N54  1  0.27974000  0.99611000  0.16940000  1.0
  N  N55  1  0.72027000  0.50388000  0.66940000  1.0
  O  O56  1  0.43343000  0.90717000  0.59585000  1.0
  O  O57  1  0.56657000  0.59283000  0.09586000  1.0
  O  O58  1  0.56657000  0.09284000  0.40415000  1.0
  O  O59  1  0.43344000  0.40717000  0.90415000  1.0
  O  O60  1  0.84328000  0.07003000  0.56784000  1.0
  O  O61  1  0.15672000  0.42997000  0.06784000  1.0
  O  O62  1  0.15673000  0.92997000  0.43216000  1.0
  O  O63  1  0.84331000  0.57004000  0.93215000  1.0
  O  O64  1  0.04117000  0.19457000  0.63995000  1.0
  O  O65  1  0.95883000  0.30543000  0.13995000  1.0
  O  O66  1  0.95884000  0.80543000  0.36006000  1.0
  O  O67  1  0.04116000  0.69459000  0.86005000  1.0
  O  O68  1  0.90573000  0.09115000  0.84001000  1.0
  O  O69  1  0.09425000  0.40884000  0.34000000  1.0
  O  O70  1  0.09426000  0.90885000  0.15999000  1.0
  O  O71  1  0.90577000  0.59112000  0.66000000  1.0
  O  O72  1  0.59775000  0.94218000  0.87192000  1.0
  O  O73  1  0.40222000  0.55781000  0.37193000  1.0
  O  O74  1  0.40225000  0.05783000  0.12808000  1.0
  O  O75  1  0.59776000  0.44218000  0.62808000  1.0
  O  O76  1  0.15643000  0.64774000  0.55445000  1.0
  O  O77  1  0.84356000  0.85225000  0.05445000  1.0
  O  O78  1  0.84356000  0.35227000  0.44555000  1.0
  O  O79  1  0.15646000  0.14775000  0.94555000  1.0
