# generated using pymatgen
data_CdH34C36(N2O3)2
_symmetry_space_group_name_H-M   'P 1'
_cell_length_a   11.54210000
_cell_length_b   13.06484854
_cell_length_c   42.05590000
_cell_angle_alpha   84.16663943
_cell_angle_beta   89.99490000
_cell_angle_gamma   63.82235765
_symmetry_Int_Tables_number   1
_chemical_formula_structural   CdH34C36(N2O3)2
_chemical_formula_sum   'Cd6 H204 C216 N24 O36'
_cell_volume   5654.78441269
_cell_formula_units_Z   6
loop_
 _symmetry_equiv_pos_site_id
 _symmetry_equiv_pos_as_xyz
  1  'x, y, z'
loop_
 _atom_site_type_symbol
 _atom_site_label
 _atom_site_symmetry_multiplicity
 _atom_site_fract_x
 _atom_site_fract_y
 _atom_site_fract_z
 _atom_site_occupancy
  Cd  Cd0  1  0.97497000  0.59579000  0.35009000  1.0
  Cd  Cd1  1  0.57004000  0.40463000  0.15009000  1.0
  Cd  Cd2  1  0.02502000  0.40421000  0.64991000  1.0
  Cd  Cd3  1  0.42995000  0.59537000  0.84991000  1.0
  Cd  Cd4  1  0.17471000  0.99980000  0.25001000  1.0
  Cd  Cd5  1  0.82529000  0.00020000  0.74999000  1.0
  H  H6  1  0.06500000  0.88391000  0.15004000  1.0
  H  H7  1  0.94824000  0.11638000  0.34992000  1.0
  H  H8  1  0.93501000  0.11608000  0.84996000  1.0
  H  H9  1  0.05175000  0.88363000  0.65008000  1.0
  H  H10  1  0.97310000  0.92380000  0.09471000  1.0
  H  H11  1  0.89662000  0.07659000  0.40532000  1.0
  H  H12  1  0.02690000  0.07620000  0.90529000  1.0
  H  H13  1  0.10337000  0.92341000  0.59468000  1.0
  H  H14  1  0.81230000  0.28785000  0.10242000  1.0
  H  H15  1  0.10017000  0.71251000  0.39775000  1.0
  H  H16  1  0.18770000  0.71215000  0.89759000  1.0
  H  H17  1  0.89984000  0.28749000  0.60226000  1.0
  H  H18  1  0.91286000  0.24506000  0.15761000  1.0
  H  H19  1  0.15772000  0.75519000  0.34251000  1.0
  H  H20  1  0.08714000  0.75494000  0.84240000  1.0
  H  H21  1  0.84228000  0.24482000  0.65749000  1.0
  H  H22  1  0.84111000  0.98724000  0.05090000  1.0
  H  H23  1  0.82871000  0.01303000  0.44927000  1.0
  H  H24  1  0.15889000  0.01276000  0.94910000  1.0
  H  H25  1  0.17128000  0.98698000  0.55073000  1.0
  H  H26  1  0.98321000  0.00411000  0.04610000  1.0
  H  H27  1  0.98776000  0.99598000  0.45403000  1.0
  H  H28  1  0.01680000  0.99589000  0.95390000  1.0
  H  H29  1  0.01224000  0.00403000  0.54597000  1.0
  H  H30  1  0.68833000  0.00551000  0.03320000  1.0
  H  H31  1  0.69436000  0.99454000  0.46690000  1.0
  H  H32  1  0.31167000  0.99450000  0.96680000  1.0
  H  H33  1  0.30565000  0.00546000  0.53310000  1.0
  H  H34  1  0.70012000  0.94281000  0.99727000  1.0
  H  H35  1  0.64367000  0.05728000  0.50285000  1.0
  H  H36  1  0.29988000  0.05719000  0.00274000  1.0
  H  H37  1  0.35633000  0.94272000  0.49715000  1.0
  H  H38  1  0.56523000  0.07383000  0.00295000  1.0
  H  H39  1  0.63929000  0.92642000  0.49716000  1.0
  H  H40  1  0.43477000  0.92617000  0.99705000  1.0
  H  H41  1  0.36072000  0.07357000  0.50284000  1.0
  H  H42  1  0.56897000  0.07615000  0.95472000  1.0
  H  H43  1  0.64547000  0.92333000  0.54536000  1.0
  H  H44  1  0.43103000  0.92385000  0.04528000  1.0
  H  H45  1  0.35454000  0.07665000  0.45464000  1.0
  H  H46  1  0.54457000  0.19533000  0.92642000  1.0
  H  H47  1  0.74023000  0.80419000  0.57368000  1.0
  H  H48  1  0.45544000  0.80466000  0.07358000  1.0
  H  H49  1  0.25979000  0.19580000  0.42632000  1.0
  H  H50  1  0.74521000  0.19045000  0.89672000  1.0
  H  H51  1  0.93579000  0.80949000  0.60336000  1.0
  H  H52  1  0.25477000  0.80956000  0.10328000  1.0
  H  H53  1  0.06421000  0.19051000  0.39664000  1.0
  H  H54  1  0.78749000  0.30192000  0.90238000  1.0
  H  H55  1  0.08941000  0.69796000  0.59772000  1.0
  H  H56  1  0.21249000  0.69809000  0.09762000  1.0
  H  H57  1  0.91060000  0.30203000  0.40229000  1.0
  H  H58  1  0.62760000  0.32119000  0.90817000  1.0
  H  H59  1  0.94877000  0.67869000  0.59196000  1.0
  H  H60  1  0.37239000  0.67882000  0.09183000  1.0
  H  H61  1  0.05124000  0.32130000  0.40804000  1.0
  H  H62  1  0.84609000  0.37369000  0.93307000  1.0
  H  H63  1  0.21968000  0.62622000  0.56702000  1.0
  H  H64  1  0.15391000  0.62631000  0.06692000  1.0
  H  H65  1  0.78032000  0.37378000  0.43298000  1.0
  H  H66  1  0.93220000  0.34851000  0.97027000  1.0
  H  H67  1  0.28043000  0.65117000  0.52976000  1.0
  H  H68  1  0.06780000  0.65149000  0.02973000  1.0
  H  H69  1  0.71957000  0.34883000  0.47024000  1.0
  H  H70  1  0.06183000  0.20419000  0.99991000  1.0
  H  H71  1  0.26609000  0.79562000  0.50018000  1.0
  H  H72  1  0.93818000  0.79580000  0.00009000  1.0
  H  H73  1  0.73391000  0.20438000  0.49982000  1.0
  H  H74  1  0.04836000  0.11537000  0.03266000  1.0
  H  H75  1  0.16399000  0.88446000  0.46742000  1.0
  H  H76  1  0.95165000  0.88462000  0.96734000  1.0
  H  H77  1  0.83601000  0.11554000  0.53258000  1.0
  H  H78  1  0.94739000  0.26384000  0.02939000  1.0
  H  H79  1  0.21133000  0.73600000  0.47068000  1.0
  H  H80  1  0.05262000  0.73615000  0.97061000  1.0
  H  H81  1  0.78867000  0.26400000  0.52932000  1.0
  H  H82  1  0.79944000  0.93629000  0.86967000  1.0
  H  H83  1  0.73586000  0.06347000  0.63045000  1.0
  H  H84  1  0.20056000  0.06371000  0.13033000  1.0
  H  H85  1  0.26412000  0.93654000  0.36955000  1.0
  H  H86  1  0.72181000  0.82262000  0.83899000  1.0
  H  H87  1  0.54442000  0.17735000  0.66102000  1.0
  H  H88  1  0.27820000  0.17738000  0.16101000  1.0
  H  H89  1  0.45557000  0.82265000  0.33897000  1.0
  H  H90  1  0.40472000  0.89615000  0.90066000  1.0
  H  H91  1  0.30098000  0.10377000  0.59934000  1.0
  H  H92  1  0.59529000  0.10384000  0.09934000  1.0
  H  H93  1  0.69902000  0.89621000  0.40067000  1.0
  H  H94  1  0.47073000  0.02134000  0.92877000  1.0
  H  H95  1  0.49214000  0.97857000  0.57125000  1.0
  H  H96  1  0.52927000  0.97865000  0.07123000  1.0
  H  H97  1  0.50786000  0.02142000  0.42875000  1.0
  H  H98  1  0.22980000  0.13128000  0.90534000  1.0
  H  H99  1  0.36134000  0.86866000  0.59455000  1.0
  H  H100  1  0.77021000  0.86872000  0.09466000  1.0
  H  H101  1  0.63866000  0.13134000  0.40545000  1.0
  H  H102  1  0.36005000  0.21780000  0.87642000  1.0
  H  H103  1  0.57807000  0.78213000  0.62344000  1.0
  H  H104  1  0.63995000  0.78220000  0.12357000  1.0
  H  H105  1  0.42194000  0.21788000  0.37656000  1.0
  H  H106  1  0.12411000  0.54134000  0.91056000  1.0
  H  H107  1  0.66505000  0.45854000  0.58934000  1.0
  H  H108  1  0.87589000  0.45866000  0.08944000  1.0
  H  H109  1  0.33498000  0.54146000  0.41066000  1.0
  H  H110  1  0.98882000  0.45921000  0.93810000  1.0
  H  H111  1  0.44771000  0.54069000  0.56184000  1.0
  H  H112  1  0.01117000  0.54080000  0.06190000  1.0
  H  H113  1  0.55230000  0.45931000  0.43817000  1.0
  H  H114  1  0.71256000  0.54665000  0.36432000  1.0
  H  H115  1  0.25869000  0.45353000  0.13573000  1.0
  H  H116  1  0.28744000  0.45336000  0.63568000  1.0
  H  H117  1  0.74130000  0.54648000  0.86427000  1.0
  H  H118  1  0.87994000  0.24963000  0.31561000  1.0
  H  H119  1  0.12886000  0.75071000  0.18437000  1.0
  H  H120  1  0.12005000  0.75038000  0.68439000  1.0
  H  H121  1  0.87114000  0.24929000  0.81563000  1.0
  H  H122  1  0.05908000  0.33611000  0.32372000  1.0
  H  H123  1  0.39439000  0.66440000  0.17637000  1.0
  H  H124  1  0.94092000  0.66388000  0.67628000  1.0
  H  H125  1  0.60561000  0.33560000  0.82363000  1.0
  H  H126  1  0.66886000  0.29616000  0.35820000  1.0
  H  H127  1  0.96464000  0.70395000  0.14175000  1.0
  H  H128  1  0.33114000  0.70384000  0.64180000  1.0
  H  H129  1  0.03536000  0.29605000  0.85825000  1.0
  H  H130  1  0.58460000  0.44298000  0.36116000  1.0
  H  H131  1  0.02712000  0.55716000  0.13876000  1.0
  H  H132  1  0.41541000  0.55701000  0.63884000  1.0
  H  H133  1  0.97287000  0.44285000  0.86124000  1.0
  H  H134  1  0.69907000  0.17173000  0.33839000  1.0
  H  H135  1  0.87093000  0.82838000  0.16162000  1.0
  H  H136  1  0.30093000  0.82827000  0.66162000  1.0
  H  H137  1  0.12906000  0.17163000  0.83838000  1.0
  H  H138  1  0.62422000  0.12050000  0.31229000  1.0
  H  H139  1  0.74487000  0.87948000  0.18770000  1.0
  H  H140  1  0.37578000  0.87950000  0.68771000  1.0
  H  H141  1  0.25513000  0.12052000  0.81230000  1.0
  H  H142  1  0.75849000  0.14413000  0.30011000  1.0
  H  H143  1  0.90268000  0.85577000  0.19991000  1.0
  H  H144  1  0.24151000  0.85587000  0.69989000  1.0
  H  H145  1  0.09731000  0.14424000  0.80009000  1.0
  H  H146  1  0.54994000  0.62701000  0.31672000  1.0
  H  H147  1  0.17697000  0.37320000  0.18331000  1.0
  H  H148  1  0.45006000  0.37299000  0.68328000  1.0
  H  H149  1  0.82303000  0.62680000  0.81668000  1.0
  H  H150  1  0.38020000  0.68955000  0.30944000  1.0
  H  H151  1  0.06992000  0.31035000  0.19055000  1.0
  H  H152  1  0.61980000  0.31045000  0.69056000  1.0
  H  H153  1  0.93007000  0.68965000  0.80945000  1.0
  H  H154  1  0.45130000  0.59435000  0.34402000  1.0
  H  H155  1  0.04601000  0.40555000  0.15596000  1.0
  H  H156  1  0.54870000  0.40565000  0.65598000  1.0
  H  H157  1  0.95398000  0.59445000  0.84404000  1.0
  H  H158  1  0.26652000  0.38991000  0.23867000  1.0
  H  H159  1  0.65684000  0.60975000  0.26139000  1.0
  H  H160  1  0.73348000  0.61009000  0.76133000  1.0
  H  H161  1  0.34315000  0.39025000  0.73861000  1.0
  H  H162  1  0.24660000  0.52882000  0.22544000  1.0
  H  H163  1  0.77572000  0.47086000  0.27460000  1.0
  H  H164  1  0.75340000  0.47118000  0.77456000  1.0
  H  H165  1  0.22426000  0.52915000  0.72540000  1.0
  H  H166  1  0.37079000  0.40776000  0.21046000  1.0
  H  H167  1  0.77900000  0.59194000  0.28957000  1.0
  H  H168  1  0.62921000  0.59224000  0.78954000  1.0
  H  H169  1  0.22099000  0.40806000  0.71043000  1.0
  H  H170  1  0.59652000  0.14172000  0.26222000  1.0
  H  H171  1  0.73846000  0.85810000  0.23780000  1.0
  H  H172  1  0.40346000  0.85829000  0.73778000  1.0
  H  H173  1  0.26154000  0.14190000  0.76220000  1.0
  H  H174  1  0.49139000  0.23688000  0.23038000  1.0
  H  H175  1  0.72847000  0.76286000  0.26963000  1.0
  H  H176  1  0.50861000  0.76312000  0.76962000  1.0
  H  H177  1  0.27153000  0.23714000  0.73037000  1.0
  H  H178  1  0.36713000  0.12638000  0.22411000  1.0
  H  H179  1  0.49405000  0.87296000  0.27596000  1.0
  H  H180  1  0.63288000  0.87361000  0.77589000  1.0
  H  H181  1  0.50596000  0.12703000  0.72404000  1.0
  H  H182  1  0.19610000  0.14423000  0.31345000  1.0
  H  H183  1  0.34046000  0.85593000  0.18657000  1.0
  H  H184  1  0.80391000  0.85576000  0.68655000  1.0
  H  H185  1  0.65954000  0.14407000  0.81343000  1.0
  H  H186  1  0.36868000  0.23936000  0.31505000  1.0
  H  H187  1  0.60802000  0.76071000  0.18494000  1.0
  H  H188  1  0.63132000  0.76064000  0.68495000  1.0
  H  H189  1  0.39198000  0.23930000  0.81506000  1.0
  H  H190  1  0.33223000  0.70994000  0.26513000  1.0
  H  H191  1  0.04225000  0.28988000  0.23487000  1.0
  H  H192  1  0.66778000  0.29006000  0.73486000  1.0
  H  H193  1  0.95774000  0.71012000  0.76513000  1.0
  H  H194  1  0.29737000  0.64882000  0.23328000  1.0
  H  H195  1  0.94631000  0.35103000  0.26673000  1.0
  H  H196  1  0.70264000  0.35118000  0.76672000  1.0
  H  H197  1  0.05368000  0.64897000  0.73327000  1.0
  H  H198  1  0.22668000  0.52003000  0.30721000  1.0
  H  H199  1  0.74684000  0.47987000  0.19288000  1.0
  H  H200  1  0.77333000  0.47998000  0.69279000  1.0
  H  H201  1  0.25316000  0.52013000  0.80712000  1.0
  H  H202  1  0.87662000  0.81911000  0.28736000  1.0
  H  H203  1  0.69560000  0.18070000  0.21269000  1.0
  H  H204  1  0.12338000  0.18089000  0.71264000  1.0
  H  H205  1  0.30439000  0.81931000  0.78731000  1.0
  H  H206  1  0.05971000  0.83251000  0.24560000  1.0
  H  H207  1  0.89226000  0.16721000  0.25440000  1.0
  H  H208  1  0.94029000  0.16749000  0.75440000  1.0
  H  H209  1  0.10772000  0.83280000  0.74560000  1.0
  C  C210  1  0.05481000  0.03455000  0.19059000  1.0
  C  C211  1  0.08871000  0.96571000  0.30942000  1.0
  C  C212  1  0.94520000  0.96544000  0.80941000  1.0
  C  C213  1  0.91128000  0.03429000  0.69058000  1.0
  C  C214  1  0.99410000  0.06116000  0.15777000  1.0
  C  C215  1  0.05476000  0.93910000  0.34227000  1.0
  C  C216  1  0.00590000  0.93883000  0.84223000  1.0
  C  C217  1  0.94523000  0.06090000  0.65773000  1.0
  C  C218  1  0.00882000  0.97232000  0.13971000  1.0
  C  C219  1  0.98060000  0.02798000  0.36030000  1.0
  C  C220  1  0.99119000  0.02767000  0.86029000  1.0
  C  C221  1  0.01939000  0.97203000  0.63970000  1.0
  C  C222  1  0.95727000  0.99470000  0.10845000  1.0
  C  C223  1  0.95164000  0.00566000  0.39159000  1.0
  C  C224  1  0.04273000  0.00530000  0.89155000  1.0
  C  C225  1  0.04836000  0.99434000  0.60841000  1.0
  C  C226  1  0.88645000  0.10908000  0.09513000  1.0
  C  C227  1  0.99534000  0.89128000  0.40496000  1.0
  C  C228  1  0.11356000  0.89092000  0.90487000  1.0
  C  C229  1  0.00467000  0.10872000  0.59504000  1.0
  C  C230  1  0.86879000  0.19951000  0.11304000  1.0
  C  C231  1  0.06821000  0.80082000  0.38707000  1.0
  C  C232  1  0.13122000  0.80049000  0.88696000  1.0
  C  C233  1  0.93180000  0.19918000  0.61293000  1.0
  C  C234  1  0.92390000  0.17530000  0.14385000  1.0
  C  C235  1  0.09895000  0.82499000  0.35624000  1.0
  C  C236  1  0.07610000  0.82470000  0.85616000  1.0
  C  C237  1  0.90105000  0.17501000  0.64376000  1.0
  C  C238  1  0.87690000  0.05063000  0.04365000  1.0
  C  C239  1  0.92780000  0.94956000  0.45648000  1.0
  C  C240  1  0.12310000  0.94937000  0.95635000  1.0
  C  C241  1  0.07220000  0.05044000  0.54352000  1.0
  C  C242  1  0.83374000  0.10670000  0.01009000  1.0
  C  C243  1  0.94069000  0.89328000  0.49001000  1.0
  C  C244  1  0.16626000  0.89330000  0.98991000  1.0
  C  C245  1  0.05931000  0.10672000  0.50999000  1.0
  C  C246  1  0.73937000  0.09191000  0.99247000  1.0
  C  C247  1  0.83160000  0.90797000  0.50763000  1.0
  C  C248  1  0.26063000  0.90809000  0.00753000  1.0
  C  C249  1  0.16840000  0.09203000  0.49237000  1.0
  C  C250  1  0.70913000  0.14075000  0.96029000  1.0
  C  C251  1  0.85006000  0.85903000  0.53981000  1.0
  C  C252  1  0.29086000  0.85926000  0.03971000  1.0
  C  C253  1  0.14993000  0.14097000  0.46019000  1.0
  C  C254  1  0.76538000  0.20958000  0.94628000  1.0
  C  C255  1  0.97503000  0.79021000  0.55380000  1.0
  C  C256  1  0.23462000  0.79042000  0.05372000  1.0
  C  C257  1  0.02497000  0.20979000  0.44620000  1.0
  C  C258  1  0.85372000  0.22908000  0.96486000  1.0
  C  C259  1  0.08276000  0.77074000  0.53520000  1.0
  C  C260  1  0.14628000  0.77092000  0.03514000  1.0
  C  C261  1  0.91723000  0.22927000  0.46480000  1.0
  C  C262  1  0.89148000  0.17491000  0.99638000  1.0
  C  C263  1  0.06651000  0.82493000  0.50369000  1.0
  C  C264  1  0.10852000  0.82509000  0.00362000  1.0
  C  C265  1  0.93349000  0.17507000  0.49631000  1.0
  C  C266  1  0.67040000  0.02492000  0.00727000  1.0
  C  C267  1  0.69581000  0.97516000  0.49284000  1.0
  C  C268  1  0.32959000  0.97509000  0.99273000  1.0
  C  C269  1  0.30420000  0.02483000  0.50716000  1.0
  C  C270  1  0.61871000  0.11674000  0.93996000  1.0
  C  C271  1  0.73568000  0.88284000  0.56013000  1.0
  C  C272  1  0.38129000  0.88326000  0.06004000  1.0
  C  C273  1  0.26432000  0.11715000  0.43986000  1.0
  C  C274  1  0.73016000  0.25876000  0.91172000  1.0
  C  C275  1  0.98898000  0.74111000  0.58838000  1.0
  C  C276  1  0.26982000  0.74125000  0.08828000  1.0
  C  C277  1  0.01102000  0.25889000  0.41163000  1.0
  C  C278  1  0.91127000  0.30615000  0.95131000  1.0
  C  C279  1  0.21726000  0.69367000  0.54872000  1.0
  C  C280  1  0.08873000  0.69385000  0.04868000  1.0
  C  C281  1  0.78273000  0.30634000  0.45128000  1.0
  C  C282  1  0.99249000  0.19042000  0.01540000  1.0
  C  C283  1  0.18302000  0.80942000  0.48468000  1.0
  C  C284  1  0.00751000  0.80958000  0.98460000  1.0
  C  C285  1  0.81698000  0.19058000  0.51532000  1.0
  C  C286  1  0.64198000  0.98430000  0.90138000  1.0
  C  C287  1  0.62644000  0.01538000  0.59871000  1.0
  C  C288  1  0.35802000  0.01570000  0.09863000  1.0
  C  C289  1  0.37356000  0.98462000  0.40129000  1.0
  C  C290  1  0.71138000  0.92900000  0.87575000  1.0
  C  C291  1  0.64054000  0.07074000  0.62434000  1.0
  C  C292  1  0.28862000  0.07100000  0.12425000  1.0
  C  C293  1  0.35946000  0.92927000  0.37566000  1.0
  C  C294  1  0.66826000  0.86504000  0.85898000  1.0
  C  C295  1  0.53339000  0.13482000  0.64105000  1.0
  C  C296  1  0.33174000  0.13496000  0.14102000  1.0
  C  C297  1  0.46661000  0.86517000  0.35895000  1.0
  C  C298  1  0.55830000  0.85151000  0.86807000  1.0
  C  C299  1  0.40992000  0.14842000  0.63193000  1.0
  C  C300  1  0.44170000  0.14849000  0.13193000  1.0
  C  C301  1  0.59006000  0.85157000  0.36807000  1.0
  C  C302  1  0.48918000  0.90804000  0.89346000  1.0
  C  C303  1  0.39732000  0.09188000  0.60655000  1.0
  C  C304  1  0.51082000  0.09196000  0.10654000  1.0
  C  C305  1  0.60268000  0.90811000  0.39345000  1.0
  C  C306  1  0.52808000  0.97647000  0.90963000  1.0
  C  C307  1  0.50467000  0.02334000  0.59042000  1.0
  C  C308  1  0.47193000  0.02352000  0.09037000  1.0
  C  C309  1  0.49533000  0.97665000  0.40958000  1.0
  C  C310  1  0.51962000  0.77246000  0.85249000  1.0
  C  C311  1  0.29219000  0.22752000  0.64748000  1.0
  C  C312  1  0.48039000  0.22754000  0.14750000  1.0
  C  C313  1  0.70781000  0.77246000  0.35253000  1.0
  C  C314  1  0.10053000  0.28947000  0.92326000  1.0
  C  C315  1  0.38997000  0.71044000  0.57666000  1.0
  C  C316  1  0.89949000  0.71052000  0.07674000  1.0
  C  C317  1  0.61005000  0.28956000  0.42334000  1.0
  C  C318  1  0.20718000  0.22121000  0.90633000  1.0
  C  C319  1  0.42853000  0.77871000  0.59356000  1.0
  C  C320  1  0.79282000  0.77879000  0.09366000  1.0
  C  C321  1  0.57149000  0.22129000  0.40644000  1.0
  C  C322  1  0.27911000  0.26974000  0.89018000  1.0
  C  C323  1  0.54894000  0.73018000  0.60970000  1.0
  C  C324  1  0.72088000  0.73026000  0.10981000  1.0
  C  C325  1  0.45106000  0.26983000  0.39030000  1.0
  C  C326  1  0.24932000  0.38574000  0.89132000  1.0
  C  C327  1  0.63494000  0.61412000  0.60857000  1.0
  C  C328  1  0.75068000  0.61426000  0.10867000  1.0
  C  C329  1  0.36508000  0.38589000  0.39143000  1.0
  C  C330  1  0.14601000  0.45173000  0.90927000  1.0
  C  C331  1  0.59747000  0.54816000  0.59063000  1.0
  C  C332  1  0.85399000  0.54827000  0.09072000  1.0
  C  C333  1  0.40254000  0.45184000  0.40937000  1.0
  C  C334  1  0.07038000  0.40521000  0.92490000  1.0
  C  C335  1  0.47539000  0.59471000  0.57500000  1.0
  C  C336  1  0.92962000  0.59479000  0.07510000  1.0
  C  C337  1  0.52462000  0.40529000  0.42500000  1.0
  C  C338  1  0.32531000  0.43833000  0.87315000  1.0
  C  C339  1  0.76345000  0.56141000  0.62674000  1.0
  C  C340  1  0.67469000  0.56167000  0.12685000  1.0
  C  C341  1  0.23655000  0.43861000  0.37326000  1.0
  C  C342  1  0.78419000  0.47749000  0.35258000  1.0
  C  C343  1  0.26117000  0.52272000  0.14746000  1.0
  C  C344  1  0.21581000  0.52252000  0.64742000  1.0
  C  C345  1  0.73883000  0.47728000  0.85254000  1.0
  C  C346  1  0.87268000  0.32273000  0.32712000  1.0
  C  C347  1  0.19473000  0.67762000  0.17287000  1.0
  C  C348  1  0.12731000  0.67728000  0.67288000  1.0
  C  C349  1  0.80527000  0.32238000  0.82713000  1.0
  C  C350  1  0.96016000  0.36633000  0.33084000  1.0
  C  C351  1  0.32577000  0.63410000  0.16922000  1.0
  C  C352  1  0.03984000  0.63367000  0.66916000  1.0
  C  C353  1  0.67423000  0.36590000  0.83078000  1.0
  C  C354  1  0.64271000  0.38059000  0.34511000  1.0
  C  C355  1  0.02287000  0.61952000  0.15482000  1.0
  C  C356  1  0.35729000  0.61941000  0.65489000  1.0
  C  C357  1  0.97712000  0.38049000  0.84518000  1.0
  C  C358  1  0.56705000  0.39648000  0.31427000  1.0
  C  C359  1  0.96332000  0.60349000  0.18568000  1.0
  C  C360  1  0.43295000  0.60352000  0.68573000  1.0
  C  C361  1  0.03668000  0.39651000  0.81432000  1.0
  C  C362  1  0.48011000  0.50903000  0.30123000  1.0
  C  C363  1  0.98914000  0.49090000  0.19874000  1.0
  C  C364  1  0.51988000  0.49098000  0.69876000  1.0
  C  C365  1  0.01084000  0.50911000  0.80126000  1.0
  C  C366  1  0.40453000  0.52445000  0.27319000  1.0
  C  C367  1  0.92919000  0.47537000  0.22682000  1.0
  C  C368  1  0.59547000  0.47555000  0.72681000  1.0
  C  C369  1  0.07079000  0.52464000  0.77318000  1.0
  C  C370  1  0.41092000  0.42883000  0.25916000  1.0
  C  C371  1  0.84002000  0.57095000  0.24086000  1.0
  C  C372  1  0.58907000  0.57118000  0.74084000  1.0
  C  C373  1  0.15998000  0.42905000  0.75914000  1.0
  C  C374  1  0.50003000  0.31808000  0.27206000  1.0
  C  C375  1  0.81824000  0.68174000  0.22794000  1.0
  C  C376  1  0.49997000  0.68192000  0.72794000  1.0
  C  C377  1  0.18176000  0.31826000  0.77206000  1.0
  C  C378  1  0.57838000  0.30005000  0.29971000  1.0
  C  C379  1  0.87837000  0.69987000  0.20026000  1.0
  C  C380  1  0.42162000  0.69995000  0.70029000  1.0
  C  C381  1  0.12162000  0.30014000  0.79974000  1.0
  C  C382  1  0.66909000  0.17882000  0.31327000  1.0
  C  C383  1  0.84797000  0.82113000  0.18672000  1.0
  C  C384  1  0.33091000  0.82118000  0.68673000  1.0
  C  C385  1  0.15203000  0.17887000  0.81328000  1.0
  C  C386  1  0.46465000  0.61005000  0.31839000  1.0
  C  C387  1  0.07482000  0.38993000  0.18160000  1.0
  C  C388  1  0.53535000  0.38995000  0.68161000  1.0
  C  C389  1  0.92518000  0.61007000  0.81840000  1.0
  C  C390  1  0.31933000  0.44062000  0.23197000  1.0
  C  C391  1  0.76032000  0.55908000  0.26806000  1.0
  C  C392  1  0.68068000  0.55938000  0.76803000  1.0
  C  C393  1  0.23968000  0.44092000  0.73193000  1.0
  C  C394  1  0.50398000  0.21790000  0.25654000  1.0
  C  C395  1  0.72207000  0.78187000  0.24347000  1.0
  C  C396  1  0.49602000  0.78210000  0.74346000  1.0
  C  C397  1  0.27793000  0.21813000  0.75653000  1.0
  C  C398  1  0.34354000  0.14122000  0.24876000  1.0
  C  C399  1  0.48508000  0.85837000  0.25130000  1.0
  C  C400  1  0.65646000  0.85878000  0.75124000  1.0
  C  C401  1  0.51493000  0.14162000  0.74870000  1.0
  C  C402  1  0.25754000  0.15422000  0.29515000  1.0
  C  C403  1  0.41191000  0.84575000  0.20489000  1.0
  C  C404  1  0.74245000  0.84578000  0.70485000  1.0
  C  C405  1  0.58809000  0.15425000  0.79511000  1.0
  C  C406  1  0.34545000  0.19846000  0.29653000  1.0
  C  C407  1  0.54400000  0.80152000  0.20349000  1.0
  C  C408  1  0.65454000  0.80155000  0.70347000  1.0
  C  C409  1  0.45600000  0.19848000  0.79651000  1.0
  C  C410  1  0.30634000  0.64248000  0.25943000  1.0
  C  C411  1  0.94897000  0.35731000  0.24058000  1.0
  C  C412  1  0.69367000  0.35752000  0.74057000  1.0
  C  C413  1  0.05102000  0.64269000  0.75942000  1.0
  C  C414  1  0.15595000  0.60304000  0.29618000  1.0
  C  C415  1  0.75914000  0.39676000  0.20386000  1.0
  C  C416  1  0.84406000  0.39696000  0.70382000  1.0
  C  C417  1  0.24085000  0.60324000  0.79613000  1.0
  C  C418  1  0.97609000  0.75852000  0.28475000  1.0
  C  C419  1  0.73445000  0.24134000  0.21531000  1.0
  C  C420  1  0.02392000  0.24148000  0.71525000  1.0
  C  C421  1  0.26553000  0.75867000  0.78469000  1.0
  C  C422  1  0.06527000  0.76668000  0.26432000  1.0
  C  C423  1  0.83185000  0.23314000  0.23573000  1.0
  C  C424  1  0.93474000  0.23332000  0.73568000  1.0
  C  C425  1  0.16814000  0.76686000  0.76427000  1.0
  N  N426  1  0.90337000  0.46281000  0.34659000  1.0
  N  N427  1  0.36560000  0.53748000  0.15350000  1.0
  N  N428  1  0.09663000  0.53719000  0.65341000  1.0
  N  N429  1  0.63440000  0.46252000  0.84650000  1.0
  N  N430  1  0.76189000  0.39402000  0.34125000  1.0
  N  N431  1  0.15535000  0.60625000  0.15872000  1.0
  N  N432  1  0.23811000  0.60599000  0.65875000  1.0
  N  N433  1  0.84463000  0.39376000  0.84128000  1.0
  N  N434  1  0.03361000  0.65582000  0.30426000  1.0
  N  N435  1  0.68942000  0.34405000  0.19581000  1.0
  N  N436  1  0.96639000  0.34418000  0.69575000  1.0
  N  N437  1  0.31057000  0.65595000  0.80419000  1.0
  N  N438  1  0.17877000  0.66791000  0.27210000  1.0
  N  N439  1  0.84679000  0.33185000  0.22793000  1.0
  N  N440  1  0.82124000  0.33208000  0.72791000  1.0
  N  N441  1  0.15321000  0.66815000  0.77206000  1.0
  N  N442  1  0.39946000  0.18873000  0.26695000  1.0
  N  N443  1  0.58839000  0.81103000  0.23308000  1.0
  N  N444  1  0.60053000  0.81128000  0.73305000  1.0
  N  N445  1  0.41161000  0.18897000  0.76693000  1.0
  N  N446  1  0.25699000  0.11931000  0.26529000  1.0
  N  N447  1  0.37658000  0.88042000  0.23478000  1.0
  N  N448  1  0.74301000  0.88069000  0.73471000  1.0
  N  N449  1  0.62342000  0.11957000  0.76522000  1.0
  O  O450  1  0.07738000  0.11112000  0.20244000  1.0
  O  O451  1  0.18774000  0.88905000  0.29757000  1.0
  O  O452  1  0.92262000  0.88887000  0.79756000  1.0
  O  O453  1  0.81226000  0.11095000  0.70243000  1.0
  O  O454  1  0.08462000  0.93601000  0.20619000  1.0
  O  O455  1  0.02009000  0.06420000  0.29381000  1.0
  O  O456  1  0.91538000  0.06399000  0.79381000  1.0
  O  O457  1  0.97991000  0.93580000  0.70619000  1.0
  O  O458  1  0.83265000  0.13988000  0.06472000  1.0
  O  O459  1  0.97245000  0.86044000  0.43537000  1.0
  O  O460  1  0.16736000  0.86012000  0.93528000  1.0
  O  O461  1  0.02754000  0.13957000  0.56463000  1.0
  O  O462  1  0.69565000  0.04028000  0.91738000  1.0
  O  O463  1  0.73607000  0.95937000  0.58272000  1.0
  O  O464  1  0.30435000  0.95971000  0.08262000  1.0
  O  O465  1  0.26392000  0.04064000  0.41728000  1.0
  O  O466  1  0.45290000  0.73327000  0.87017000  1.0
  O  O467  1  0.18642000  0.26679000  0.62975000  1.0
  O  O468  1  0.54711000  0.26672000  0.12983000  1.0
  O  O469  1  0.81357000  0.73317000  0.37026000  1.0
  O  O470  1  0.55497000  0.74563000  0.82489000  1.0
  O  O471  1  0.30053000  0.25434000  0.67509000  1.0
  O  O472  1  0.44504000  0.25438000  0.17511000  1.0
  O  O473  1  0.69947000  0.74567000  0.32491000  1.0
  O  O474  1  0.03079000  0.23614000  0.93680000  1.0
  O  O475  1  0.26695000  0.76378000  0.56314000  1.0
  O  O476  1  0.96922000  0.76386000  0.06320000  1.0
  O  O477  1  0.73306000  0.23621000  0.43686000  1.0
  O  O478  1  0.39065000  0.39081000  0.85026000  1.0
  O  O479  1  0.78151000  0.60902000  0.64958000  1.0
  O  O480  1  0.60933000  0.60920000  0.14974000  1.0
  O  O481  1  0.21850000  0.39098000  0.35042000  1.0
  O  O482  1  0.31630000  0.53296000  0.88234000  1.0
  O  O483  1  0.84879000  0.46659000  0.61759000  1.0
  O  O484  1  0.68369000  0.46704000  0.11766000  1.0
  O  O485  1  0.15122000  0.53342000  0.38241000  1.0
