# generated using pymatgen
data_Tb2CoH28(C8O9)2
_symmetry_space_group_name_H-M   'P 1'
_cell_length_a   8.86825000
_cell_length_b   9.01563000
_cell_length_c   10.39350000
_cell_angle_alpha   82.24080000
_cell_angle_beta   69.65060000
_cell_angle_gamma   77.97280000
_symmetry_Int_Tables_number   1
_chemical_formula_structural   Tb2CoH28(C8O9)2
_chemical_formula_sum   'Tb2 Co1 H28 C16 O18'
_cell_volume   760.24999789
_cell_formula_units_Z   1
loop_
 _symmetry_equiv_pos_site_id
 _symmetry_equiv_pos_as_xyz
  1  'x, y, z'
loop_
 _atom_site_type_symbol
 _atom_site_label
 _atom_site_symmetry_multiplicity
 _atom_site_fract_x
 _atom_site_fract_y
 _atom_site_fract_z
 _atom_site_occupancy
  Tb  Tb0  1  0.91453000  0.07533000  0.68919000  1.0
  Tb  Tb1  1  0.08547000  0.92467000  0.31081000  1.0
  Co  Co2  1  0.00000000  0.00000000  0.00000000  1.0
  H  H3  1  0.85257000  0.34359000  0.08039000  1.0
  H  H4  1  0.14743000  0.65641000  0.91960000  1.0
  H  H5  1  0.66392000  0.43188000  0.04992000  1.0
  H  H6  1  0.33608000  0.56811000  0.95008000  1.0
  H  H7  1  0.85028000  0.49279000  0.94989000  1.0
  H  H8  1  0.14972000  0.50720000  0.05011000  1.0
  H  H9  1  0.73582000  0.73940000  0.09207000  1.0
  H  H10  1  0.26418000  0.26060000  0.90793000  1.0
  H  H11  1  0.59583000  0.72189000  0.00624000  1.0
  H  H12  1  0.40417000  0.27811000  0.99376000  1.0
  H  H13  1  0.55651000  0.88184000  0.09944000  1.0
  H  H14  1  0.44349000  0.11816000  0.90056000  1.0
  H  H15  1  0.50269000  0.87805000  0.58147000  1.0
  H  H16  1  0.49732000  0.12196000  0.41852000  1.0
  H  H17  1  0.44904000  0.72105000  0.69975000  1.0
  H  H18  1  0.55097000  0.27895000  0.30024000  1.0
  H  H19  1  0.51850000  0.86810000  0.75041000  1.0
  H  H20  1  0.48151000  0.13190000  0.24959000  1.0
  H  H21  1  0.18206000  0.32283000  0.24477000  1.0
  H  H22  1  0.81793000  0.67718000  0.75524000  1.0
  H  H23  1  0.25472000  0.40674000  0.35413000  1.0
  H  H24  1  0.74528000  0.59326000  0.64588000  1.0
  H  H25  1  0.05564000  0.47289000  0.35186000  1.0
  H  H26  1  0.94436000  0.52712000  0.64814000  1.0
  H  H27  1  0.60280000  0.16634000  0.63281000  1.0
  H  H28  1  0.39721000  0.83366000  0.36718000  1.0
  H  H29  1  0.73667000  0.12350000  0.48725000  1.0
  H  H30  1  0.26333000  0.87650000  0.51275000  1.0
  C  C31  1  0.27138000  0.92238000  0.74613000  1.0
  C  C32  1  0.72862000  0.07762000  0.25387000  1.0
  C  C33  1  0.79546000  0.39296000  0.00279000  1.0
  C  C34  1  0.20454000  0.60703000  0.99721000  1.0
  C  C35  1  0.65564000  0.80080000  0.03539000  1.0
  C  C36  1  0.34435000  0.19920000  0.96460000  1.0
  C  C37  1  0.82690000  0.28239000  0.89704000  1.0
  C  C38  1  0.17309000  0.71760000  0.10296000  1.0
  C  C39  1  0.74871000  0.88770000  0.91012000  1.0
  C  C40  1  0.25129000  0.11230000  0.08988000  1.0
  C  C41  1  0.44694000  0.84449000  0.69061000  1.0
  C  C42  1  0.55306000  0.15552000  0.30939000  1.0
  C  C43  1  0.14924000  0.36991000  0.34414000  1.0
  C  C44  1  0.85075000  0.63009000  0.65586000  1.0
  C  C45  1  0.08411000  0.25897000  0.46098000  1.0
  C  C46  1  0.91588000  0.74104000  0.53902000  1.0
  O  O47  1  0.18960000  0.96052000  0.66281000  1.0
  O  O48  1  0.81040000  0.03948000  0.33719000  1.0
  O  O49  1  0.04997000  0.29048000  0.58399000  1.0
  O  O50  1  0.95002000  0.70953000  0.41602000  1.0
  O  O51  1  0.90397000  0.88183000  0.87948000  1.0
  O  O52  1  0.09603000  0.11816000  0.12052000  1.0
  O  O53  1  0.95485000  0.17364000  0.87529000  1.0
  O  O54  1  0.04515000  0.82636000  0.12472000  1.0
  O  O55  1  0.67630000  0.96901000  0.83115000  1.0
  O  O56  1  0.32369000  0.03099000  0.16885000  1.0
  O  O57  1  0.73998000  0.29552000  0.82130000  1.0
  O  O58  1  0.26001000  0.70448000  0.17870000  1.0
  O  O59  1  0.05659000  0.13037000  0.43881000  1.0
  O  O60  1  0.94340000  0.86963000  0.56120000  1.0
  O  O61  1  0.71424000  0.17290000  0.57479000  1.0
  O  O62  1  0.28576000  0.82711000  0.42521000  1.0
  O  O63  1  0.21653000  0.94062000  0.87456000  1.0
  O  O64  1  0.78348000  0.05937000  0.12544000  1.0
