# generated using pymatgen
data_CuH11C15(N2O)2
_symmetry_space_group_name_H-M   'P 1'
_cell_length_a   7.74250000
_cell_length_b   13.17028677
_cell_length_c   16.43517683
_cell_angle_alpha   108.61070016
_cell_angle_beta   96.42393622
_cell_angle_gamma   107.05660839
_symmetry_Int_Tables_number   1
_chemical_formula_structural   CuH11C15(N2O)2
_chemical_formula_sum   'Cu4 H44 C60 N16 O8'
_cell_volume   1478.84550562
_cell_formula_units_Z   4
loop_
 _symmetry_equiv_pos_site_id
 _symmetry_equiv_pos_as_xyz
  1  'x, y, z'
loop_
 _atom_site_type_symbol
 _atom_site_label
 _atom_site_symmetry_multiplicity
 _atom_site_fract_x
 _atom_site_fract_y
 _atom_site_fract_z
 _atom_site_occupancy
  Cu  Cu0  1  0.24182000  0.72467000  0.16064000  1.0
  Cu  Cu1  1  0.75817000  0.27532000  0.83935000  1.0
  Cu  Cu2  1  0.27764000  0.34410000  0.31598000  1.0
  Cu  Cu3  1  0.72238000  0.65592000  0.68402000  1.0
  H  H4  1  0.06118000  0.18893000  0.41271000  1.0
  H  H5  1  0.93892000  0.81110000  0.58733000  1.0
  H  H6  1  0.85859000  0.98188000  0.35691000  1.0
  H  H7  1  0.14145000  0.01815000  0.64313000  1.0
  H  H8  1  0.98021000  0.94042000  0.11011000  1.0
  H  H9  1  0.01973000  0.05959000  0.88991000  1.0
  H  H10  1  0.43551000  0.81703000  0.02149000  1.0
  H  H11  1  0.56449000  0.18298000  0.97852000  1.0
  H  H12  1  0.67314000  0.00381000  0.04400000  1.0
  H  H13  1  0.32685000  0.99621000  0.95602000  1.0
  H  H14  1  0.58632000  0.14065000  0.29575000  1.0
  H  H15  1  0.41363000  0.85935000  0.70426000  1.0
  H  H16  1  0.29686000  0.59055000  0.35462000  1.0
  H  H17  1  0.70317000  0.40946000  0.64537000  1.0
  H  H18  1  0.08144000  0.68379000  0.32178000  1.0
  H  H19  1  0.91857000  0.31621000  0.67821000  1.0
  H  H20  1  0.65201000  0.34586000  0.20899000  1.0
  H  H21  1  0.34801000  0.65415000  0.79102000  1.0
  H  H22  1  0.88706000  0.26724000  0.24048000  1.0
  H  H23  1  0.11296000  0.73277000  0.75954000  1.0
  H  H24  1  0.24168000  0.49373000  0.15655000  1.0
  H  H25  1  0.75834000  0.50627000  0.84344000  1.0
  H  H26  1  0.46610000  0.41248000  0.19487000  1.0
  H  H27  1  0.53392000  0.58752000  0.80511000  1.0
  H  H28  1  0.88998000  0.74973000  0.27632000  1.0
  H  H29  1  0.11003000  0.25027000  0.72368000  1.0
  H  H30  1  0.64399000  0.81560000  0.23265000  1.0
  H  H31  1  0.35603000  0.18441000  0.76736000  1.0
  H  H32  1  0.96516000  0.77399000  0.06339000  1.0
  H  H33  1  0.03481000  0.22602000  0.93663000  1.0
  H  H34  1  0.63166000  0.68953000  0.99976000  1.0
  H  H35  1  0.36830000  0.31044000  0.00023000  1.0
  H  H36  1  0.64767000  0.38090000  0.03770000  1.0
  H  H37  1  0.35234000  0.61907000  0.96225000  1.0
  H  H38  1  0.98026000  0.47862000  0.09882000  1.0
  H  H39  1  0.01974000  0.52136000  0.90115000  1.0
  H  H40  1  0.49947000  0.24774000  0.40307000  1.0
  H  H41  1  0.50053000  0.75225000  0.59690000  1.0
  H  H42  1  0.82720000  0.30420000  0.47258000  1.0
  H  H43  1  0.17281000  0.69577000  0.52739000  1.0
  H  H44  1  0.89931000  0.64581000  0.47885000  1.0
  H  H45  1  0.10071000  0.35418000  0.52116000  1.0
  H  H46  1  0.56968000  0.57534000  0.40837000  1.0
  H  H47  1  0.43034000  0.42467000  0.59164000  1.0
  C  C48  1  0.04355000  0.13248000  0.34495000  1.0
  C  C49  1  0.95652000  0.86756000  0.65509000  1.0
  C  C50  1  0.93106000  0.01780000  0.31354000  1.0
  C  C51  1  0.06898000  0.98224000  0.68650000  1.0
  C  C52  1  0.99936000  0.99363000  0.17901000  1.0
  C  C53  1  0.00061000  0.00639000  0.82102000  1.0
  C  C54  1  0.11779000  0.10722000  0.20984000  1.0
  C  C55  1  0.88221000  0.89280000  0.79018000  1.0
  C  C56  1  0.23095000  0.15629000  0.15275000  1.0
  C  C57  1  0.76900000  0.84371000  0.84726000  1.0
  C  C58  1  0.47067000  0.88916000  0.08380000  1.0
  C  C59  1  0.52932000  0.11085000  0.91621000  1.0
  C  C60  1  0.60124000  0.99460000  0.09615000  1.0
  C  C61  1  0.39874000  0.00541000  0.90387000  1.0
  C  C62  1  0.55510000  0.06842000  0.23396000  1.0
  C  C63  1  0.44485000  0.93158000  0.76605000  1.0
  C  C64  1  0.42628000  0.96307000  0.22386000  1.0
  C  C65  1  0.57369000  0.03693000  0.77615000  1.0
  C  C66  1  0.33022000  0.94505000  0.29688000  1.0
  C  C67  1  0.66974000  0.05492000  0.70312000  1.0
  C  C68  1  0.15240000  0.53896000  0.32218000  1.0
  C  C69  1  0.84762000  0.46105000  0.67782000  1.0
  C  C70  1  0.02896000  0.59127000  0.30411000  1.0
  C  C71  1  0.97106000  0.40874000  0.69588000  1.0
  C  C72  1  0.84205000  0.52408000  0.26295000  1.0
  C  C73  1  0.15797000  0.47592000  0.73704000  1.0
  C  C74  1  0.79335000  0.40516000  0.24074000  1.0
  C  C75  1  0.20667000  0.59484000  0.75926000  1.0
  C  C76  1  0.92600000  0.35971000  0.25976000  1.0
  C  C77  1  0.07401000  0.64029000  0.74024000  1.0
  C  C78  1  0.38592000  0.54900000  0.18476000  1.0
  C  C79  1  0.61410000  0.45100000  0.81523000  1.0
  C  C80  1  0.51531000  0.50365000  0.20755000  1.0
  C  C81  1  0.48472000  0.49635000  0.79244000  1.0
  C  C82  1  0.70274000  0.57368000  0.24263000  1.0
  C  C83  1  0.29727000  0.42632000  0.75736000  1.0
  C  C84  1  0.74753000  0.68929000  0.25321000  1.0
  C  C85  1  0.25248000  0.31071000  0.74679000  1.0
  C  C86  1  0.60821000  0.72755000  0.22835000  1.0
  C  C87  1  0.39181000  0.27246000  0.77165000  1.0
  C  C88  1  0.88867000  0.68733000  0.05756000  1.0
  C  C89  1  0.11130000  0.31266000  0.94244000  1.0
  C  C90  1  0.69941000  0.63845000  0.02210000  1.0
  C  C91  1  0.30055000  0.36152000  0.97788000  1.0
  C  C92  1  0.60123000  0.52663000  0.01592000  1.0
  C  C93  1  0.39877000  0.47334000  0.98405000  1.0
  C  C94  1  0.70958000  0.46850000  0.04187000  1.0
  C  C95  1  0.29043000  0.53148000  0.95809000  1.0
  C  C96  1  0.89837000  0.52349000  0.07704000  1.0
  C  C97  1  0.10161000  0.47648000  0.92292000  1.0
  C  C98  1  0.59341000  0.33542000  0.42004000  1.0
  C  C99  1  0.40660000  0.66457000  0.57994000  1.0
  C  C100  1  0.77912000  0.36844000  0.45943000  1.0
  C  C101  1  0.22089000  0.63155000  0.54055000  1.0
  C  C102  1  0.90031000  0.48127000  0.48080000  1.0
  C  C103  1  0.09971000  0.51872000  0.51919000  1.0
  C  C104  1  0.81826000  0.55657000  0.46373000  1.0
  C  C105  1  0.18177000  0.44342000  0.53627000  1.0
  C  C106  1  0.63182000  0.51738000  0.42348000  1.0
  C  C107  1  0.36821000  0.48263000  0.57652000  1.0
  N  N108  1  0.13515000  0.17812000  0.29312000  1.0
  N  N109  1  0.86488000  0.82191000  0.70691000  1.0
  N  N110  1  0.90493000  0.94822000  0.22993000  1.0
  N  N111  1  0.09506000  0.05181000  0.77011000  1.0
  N  N112  1  0.38495000  0.87200000  0.14768000  1.0
  N  N113  1  0.61503000  0.12801000  0.85233000  1.0
  N  N114  1  0.64508000  0.08527000  0.17171000  1.0
  N  N115  1  0.35488000  0.91474000  0.82831000  1.0
  N  N116  1  0.10528000  0.42468000  0.30077000  1.0
  N  N117  1  0.89474000  0.57533000  0.69923000  1.0
  N  N118  1  0.42820000  0.65969000  0.19411000  1.0
  N  N119  1  0.57180000  0.34030000  0.80588000  1.0
  N  N120  1  0.98990000  0.63330000  0.08816000  1.0
  N  N121  1  0.01008000  0.36669000  0.91183000  1.0
  N  N122  1  0.51882000  0.40770000  0.39918000  1.0
  N  N123  1  0.48120000  0.59230000  0.60081000  1.0
  O  O124  1  0.32232000  0.26457000  0.18897000  1.0
  O  O125  1  0.67767000  0.73543000  0.81103000  1.0
  O  O126  1  0.22967000  0.09060000  0.07841000  1.0
  O  O127  1  0.77025000  0.90939000  0.92158000  1.0
  O  O128  1  0.23077000  0.84071000  0.28157000  1.0
  O  O129  1  0.76922000  0.15927000  0.71843000  1.0
  O  O130  1  0.35437000  0.03152000  0.36357000  1.0
  O  O131  1  0.64561000  0.96846000  0.63644000  1.0
