# generated using pymatgen
data_Zn4H38C45N17Cl
_symmetry_space_group_name_H-M   'P 1'
_cell_length_a   14.91940000
_cell_length_b   14.95730000
_cell_length_c   14.96930000
_cell_angle_alpha   105.05300000
_cell_angle_beta   111.38200000
_cell_angle_gamma   111.66500000
_symmetry_Int_Tables_number   1
_chemical_formula_structural   Zn4H38C45N17Cl
_chemical_formula_sum   'Zn4 H38 C45 N17 Cl1'
_cell_volume   2573.28398713
_cell_formula_units_Z   1
loop_
 _symmetry_equiv_pos_site_id
 _symmetry_equiv_pos_as_xyz
  1  'x, y, z'
loop_
 _atom_site_type_symbol
 _atom_site_label
 _atom_site_symmetry_multiplicity
 _atom_site_fract_x
 _atom_site_fract_y
 _atom_site_fract_z
 _atom_site_occupancy
  Zn  Zn0  1  0.13538000  0.63825000  0.99851000  1.0
  Zn  Zn1  1  0.85578000  0.36367000  0.00122000  1.0
  Zn  Zn2  1  0.86192000  0.50098000  0.86387000  1.0
  Zn  Zn3  1  0.12873000  0.49686000  0.13215000  1.0
  H  H4  1  0.17935000  0.85292000  0.17933000  1.0
  H  H5  1  0.80304000  0.14272000  0.83080000  1.0
  H  H6  1  0.81734000  0.53781000  0.64224000  1.0
  H  H7  1  0.17421000  0.32601000  0.22211000  1.0
  H  H8  1  0.81088000  0.15133000  0.05622000  1.0
  H  H9  1  0.18068000  0.72871000  0.82616000  1.0
  H  H10  1  0.15511000  0.31332000  0.99372000  1.0
  H  H11  1  0.80376000  0.32274000  0.64593000  1.0
  H  H12  1  0.41552000  0.96912000  0.40828000  1.0
  H  H13  1  0.57159000  0.13785000  0.54144000  1.0
  H  H14  1  0.81439000  0.50730000  0.16847000  1.0
  H  H15  1  0.56591000  0.08693000  0.63396000  1.0
  H  H16  1  0.54362000  0.81920000  0.50758000  1.0
  H  H17  1  0.66346000  0.97580000  0.66380000  1.0
  H  H18  1  0.62081000  0.94561000  0.33603000  1.0
  H  H19  1  0.55046000  0.01697000  0.34477000  1.0
  H  H20  1  0.72461000  0.15968000  0.49162000  1.0
  H  H21  1  0.78026000  0.07544000  0.50686000  1.0
  H  H22  1  0.77064000  0.99430000  0.63231000  1.0
  H  H23  1  0.16755000  0.76462000  0.67008000  1.0
  H  H24  1  0.60205000  0.46539000  0.77917000  1.0
  H  H25  1  0.91339000  0.60153000  0.52638000  1.0
  H  H26  1  0.17025000  0.73792000  0.50659000  1.0
  H  H27  1  0.91278000  0.62883000  0.38691000  1.0
  H  H28  1  0.39163000  0.22387000  0.88431000  1.0
  H  H29  1  0.42082000  0.40187000  0.81173000  1.0
  H  H30  1  0.25441000  0.24874000  0.91573000  1.0
  H  H31  1  0.25580000  0.37771000  0.78577000  1.0
  H  H32  1  0.82636000  0.00748000  0.10847000  1.0
  H  H33  1  0.08008000  0.11802000  0.19381000  1.0
  H  H34  1  0.82508000  0.84245000  0.08153000  1.0
  H  H35  1  0.37788000  0.66892000  0.35505000  1.0
  H  H36  1  0.08301000  0.97579000  0.20086000  1.0
  H  H37  1  0.59019000  0.27028000  0.94812000  1.0
  H  H38  1  0.38808000  0.85894000  0.18100000  1.0
  H  H39  1  0.17886000  0.68247000  0.34153000  1.0
  H  H40  1  0.81488000  0.66784000  0.99751000  1.0
  H  H41  1  0.15750000  0.49755000  0.81255000  1.0
  C  C42  1  0.09042000  0.79269000  0.12635000  1.0
  C  C43  1  0.99759000  0.61861000  0.29833000  1.0
  C  C44  1  0.54589000  0.35680000  0.85154000  1.0
  C  C45  1  0.42767000  0.80486000  0.31044000  1.0
  C  C46  1  0.15034000  0.46102000  0.86546000  1.0
  C  C47  1  0.81194000  0.20207000  0.80039000  1.0
  C  C48  1  0.90637000  0.58157000  0.70211000  1.0
  C  C49  1  0.08508000  0.29767000  0.17808000  1.0
  C  C50  1  0.89998000  0.20870000  0.09428000  1.0
  C  C51  1  0.09148000  0.67984000  0.79580000  1.0
  C  C52  1  0.14934000  0.36680000  0.95770000  1.0
  C  C53  1  0.90309000  0.54120000  0.19533000  1.0
  C  C54  1  0.81226000  0.29374000  0.70625000  1.0
  C  C55  1  0.17450000  0.38095000  0.87830000  1.0
  C  C56  1  0.77562000  0.18812000  0.69445000  1.0
  C  C57  1  0.99863000  0.64310000  0.69467000  1.0
  C  C58  1  0.99301000  0.20003000  0.15062000  1.0
  C  C59  1  0.47848000  0.96272000  0.46871000  1.0
  C  C60  1  0.57468000  0.07354000  0.56279000  1.0
  C  C61  1  0.59883000  0.87988000  0.49396000  1.0
  C  C62  1  0.59965000  0.98768000  0.38955000  1.0
  C  C63  1  0.52384000  0.90446000  0.41212000  1.0
  C  C64  1  0.61689000  0.42035000  0.82365000  1.0
  C  C65  1  0.69053000  0.08469000  0.59147000  1.0
  C  C66  1  0.68699000  0.98447000  0.60369000  1.0
  C  C67  1  0.70673000  0.08300000  0.49523000  1.0
  C  C68  1  0.08566000  0.71386000  0.59535000  1.0
  C  C69  1  0.99551000  0.65371000  0.60065000  1.0
  C  C70  1  0.08699000  0.70697000  0.49772000  1.0
  C  C71  1  0.99617000  0.65570000  0.39673000  1.0
  C  C72  1  0.37085000  0.27959000  0.85938000  1.0
  C  C73  1  0.44016000  0.34529000  0.83610000  1.0
  C  C74  1  0.28003000  0.28617000  0.86871000  1.0
  C  C75  1  0.36483000  0.70093000  0.29718000  1.0
  C  C76  1  0.23479000  0.34420000  0.83706000  1.0
  C  C77  1  0.90853000  0.01444000  0.13646000  1.0
  C  C78  1  0.99738000  0.10985000  0.16529000  1.0
  C  C79  1  0.90838000  0.91532000  0.12555000  1.0
  C  C80  1  0.99907000  0.90317000  0.15293000  1.0
  C  C81  1  0.60999000  0.31994000  0.90871000  1.0
  C  C82  1  0.36965000  0.79772000  0.20867000  1.0
  C  C83  1  0.08917000  0.63036000  0.28427000  1.0
  C  C84  1  0.90442000  0.69861000  0.03378000  1.0
  C  C85  1  0.99661000  0.80312000  0.11217000  1.0
  C  C86  1  0.65048000  0.83144000  0.44819000  1.0
  N  N87  1  0.05606000  0.69157000  0.06012000  1.0
  N  N88  1  0.86441000  0.30791000  0.86911000  1.0
  N  N89  1  0.94129000  0.58192000  0.79889000  1.0
  N  N90  1  0.04985000  0.35848000  0.14127000  1.0
  N  N91  1  0.93440000  0.30280000  0.08872000  1.0
  N  N92  1  0.05678000  0.64304000  0.85701000  1.0
  N  N93  1  0.11648000  0.43512000  0.99021000  1.0
  N  N94  1  0.86443000  0.36420000  0.81115000  1.0
  N  N95  1  0.93651000  0.50790000  0.12751000  1.0
  N  N96  1  0.71397000  0.42064000  0.86044000  1.0
  N  N97  1  0.27650000  0.63717000  0.19570000  1.0
  N  N98  1  0.70961000  0.35838000  0.91392000  1.0
  N  N99  1  0.27926000  0.69743000  0.14042000  1.0
  N  N100  1  0.05086000  0.56313000  0.18233000  1.0
  N  N101  1  0.94180000  0.63395000  0.00340000  1.0
  N  N102  1  0.11723000  0.49333000  0.93389000  1.0
  N  N103  1  0.69213000  0.79314000  0.41167000  1.0
  Cl  Cl104  1  0.39925000  0.88136000  0.51458000  1.0
