# generated using pymatgen
data_SmH12C14(NO4)2
_symmetry_space_group_name_H-M   'P 1'
_cell_length_a   11.09640000
_cell_length_b   11.19040000
_cell_length_c   16.11300000
_cell_angle_alpha   73.98570000
_cell_angle_beta   82.98620000
_cell_angle_gamma   74.33720000
_symmetry_Int_Tables_number   1
_chemical_formula_structural   SmH12C14(NO4)2
_chemical_formula_sum   'Sm4 H48 C56 N8 O32'
_cell_volume   1849.29086399
_cell_formula_units_Z   4
loop_
 _symmetry_equiv_pos_site_id
 _symmetry_equiv_pos_as_xyz
  1  'x, y, z'
loop_
 _atom_site_type_symbol
 _atom_site_label
 _atom_site_symmetry_multiplicity
 _atom_site_fract_x
 _atom_site_fract_y
 _atom_site_fract_z
 _atom_site_occupancy
  Sm  Sm0  1  0.59911000  0.84132000  0.38280000  1.0
  Sm  Sm1  1  0.40089000  0.15868000  0.61721000  1.0
  Sm  Sm2  1  0.79587000  0.99789000  0.13176000  1.0
  Sm  Sm3  1  0.20412000  0.00212000  0.86824000  1.0
  H  H4  1  0.65729000  0.96029000  0.93742000  1.0
  H  H5  1  0.34271000  0.03971000  0.06258000  1.0
  H  H6  1  0.21639000  0.82736000  0.57449000  1.0
  H  H7  1  0.78361000  0.17264000  0.42551000  1.0
  H  H8  1  0.16950000  0.83734000  0.31004000  1.0
  H  H9  1  0.83050000  0.16266000  0.68996000  1.0
  H  H10  1  0.70418000  0.38082000  0.78275000  1.0
  H  H11  1  0.29582000  0.61919000  0.21726000  1.0
  H  H12  1  0.53874000  0.43657000  0.79503000  1.0
  H  H13  1  0.46126000  0.56344000  0.20497000  1.0
  H  H14  1  0.60482000  0.28674000  0.76863000  1.0
  H  H15  1  0.39518000  0.71326000  0.23137000  1.0
  H  H16  1  0.71744000  0.81616000  0.56723000  1.0
  H  H17  1  0.28256000  0.18384000  0.43277000  1.0
  H  H18  1  0.56947000  0.85831000  0.56821000  1.0
  H  H19  1  0.43053000  0.14169000  0.43179000  1.0
  H  H20  1  0.59700000  0.13197000  0.35218000  1.0
  H  H21  1  0.40300000  0.86803000  0.64782000  1.0
  H  H22  1  0.60768000  0.06474000  0.45314000  1.0
  H  H23  1  0.39232000  0.93527000  0.54686000  1.0
  H  H24  1  0.63958000  0.56338000  0.51611000  1.0
  H  H25  1  0.36043000  0.43662000  0.48389000  1.0
  H  H26  1  0.63790000  0.57092000  0.41617000  1.0
  H  H27  1  0.36210000  0.42908000  0.58383000  1.0
  H  H28  1  0.85317000  0.85605000  0.49145000  1.0
  H  H29  1  0.14683000  0.14393000  0.50855000  1.0
  H  H30  1  0.86307000  0.27934000  0.09507000  1.0
  H  H31  1  0.13694000  0.72067000  0.90493000  1.0
  H  H32  1  0.66310000  0.46610000  0.28933000  1.0
  H  H33  1  0.33691000  0.53390000  0.71067000  1.0
  H  H34  1  0.63417000  0.89525000  0.68951000  1.0
  H  H35  1  0.36582000  0.10475000  0.31048000  1.0
  H  H36  1  0.88798000  0.66020000  0.08714000  1.0
  H  H37  1  0.11203000  0.33981000  0.91286000  1.0
  H  H38  1  0.99420000  0.86594000  0.77914000  1.0
  H  H39  1  0.00580000  0.13405000  0.22086000  1.0
  H  H40  1  0.86565000  0.21825000  0.83716000  1.0
  H  H41  1  0.13435000  0.78174000  0.16284000  1.0
  H  H42  1  0.92272000  0.19783000  0.94030000  1.0
  H  H43  1  0.07728000  0.80216000  0.05971000  1.0
  H  H44  1  0.85517000  0.35419000  0.87726000  1.0
  H  H45  1  0.14484000  0.64580000  0.12274000  1.0
  H  H46  1  0.43280000  0.36730000  0.93408000  1.0
  H  H47  1  0.56720000  0.63270000  0.06591000  1.0
  H  H48  1  0.51212000  0.22338000  0.00913000  1.0
  H  H49  1  0.48787000  0.77662000  0.99087000  1.0
  H  H50  1  0.46094000  0.21442000  0.91102000  1.0
  H  H51  1  0.53906000  0.78558000  0.08898000  1.0
  C  C52  1  0.70736000  0.24578000  0.24024000  1.0
  C  C53  1  0.29265000  0.75422000  0.75976000  1.0
  C  C54  1  0.75824000  0.36040000  0.19747000  1.0
  C  C55  1  0.24177000  0.63961000  0.80253000  1.0
  C  C56  1  0.90925000  0.91970000  0.93453000  1.0
  C  C57  1  0.09075000  0.08030000  0.06547000  1.0
  C  C58  1  0.49079000  0.97776000  0.82029000  1.0
  C  C59  1  0.50921000  0.02224000  0.17971000  1.0
  C  C60  1  0.63071000  0.93385000  0.81379000  1.0
  C  C61  1  0.36929000  0.06615000  0.18620000  1.0
  C  C62  1  0.70285000  0.93558000  0.87840000  1.0
  C  C63  1  0.29715000  0.06443000  0.12160000  1.0
  C  C64  1  0.83396000  0.91013000  0.86601000  1.0
  C  C65  1  0.16603000  0.08987000  0.13399000  1.0
  C  C66  1  0.34010000  0.83531000  0.41575000  1.0
  C  C67  1  0.65990000  0.16468000  0.58425000  1.0
  C  C68  1  0.20736000  0.82930000  0.44014000  1.0
  C  C69  1  0.79265000  0.17070000  0.55985000  1.0
  C  C70  1  0.15743000  0.82978000  0.52434000  1.0
  C  C71  1  0.84257000  0.17022000  0.47566000  1.0
  C  C72  1  0.13064000  0.83409000  0.37582000  1.0
  C  C73  1  0.86935000  0.16590000  0.62417000  1.0
  C  C74  1  0.61755000  0.35079000  0.80607000  1.0
  C  C75  1  0.38245000  0.64921000  0.19393000  1.0
  C  C76  1  0.77351000  0.57456000  0.19284000  1.0
  C  C77  1  0.22649000  0.42544000  0.80717000  1.0
  C  C78  1  0.73632000  0.69104000  0.22762000  1.0
  C  C79  1  0.26368000  0.30896000  0.77238000  1.0
  C  C80  1  0.95343000  0.84314000  0.47902000  1.0
  C  C81  1  0.04657000  0.15685000  0.52098000  1.0
  C  C82  1  0.83779000  0.36132000  0.12318000  1.0
  C  C83  1  0.16221000  0.63868000  0.87682000  1.0
  C  C84  1  0.72655000  0.46693000  0.23220000  1.0
  C  C85  1  0.27345000  0.53307000  0.76781000  1.0
  C  C86  1  0.00273000  0.84263000  0.39530000  1.0
  C  C87  1  0.99727000  0.15736000  0.60470000  1.0
  C  C88  1  0.82092000  0.87150000  0.72700000  1.0
  C  C89  1  0.17908000  0.12850000  0.27299000  1.0
  C  C90  1  0.91317000  0.85995000  0.32760000  1.0
  C  C91  1  0.08683000  0.14004000  0.67240000  1.0
  C  C92  1  0.02973000  0.83515000  0.54441000  1.0
  C  C93  1  0.97027000  0.16484000  0.45559000  1.0
  C  C94  1  0.69025000  0.89812000  0.73951000  1.0
  C  C95  1  0.30975000  0.10189000  0.26049000  1.0
  C  C96  1  0.88691000  0.46775000  0.08485000  1.0
  C  C97  1  0.11310000  0.53226000  0.91515000  1.0
  C  C98  1  0.85354000  0.57553000  0.11891000  1.0
  C  C99  1  0.14647000  0.42447000  0.88110000  1.0
  C  C100  1  0.89315000  0.88046000  0.79004000  1.0
  C  C101  1  0.10685000  0.11954000  0.20996000  1.0
  C  C102  1  0.84908000  0.25366000  0.89570000  1.0
  C  C103  1  0.15092000  0.74633000  0.10430000  1.0
  C  C104  1  0.72511000  0.24166000  0.94239000  1.0
  C  C105  1  0.27489000  0.75834000  0.05761000  1.0
  C  C106  1  0.49910000  0.27271000  0.94099000  1.0
  C  C107  1  0.50089000  0.72730000  0.05901000  1.0
  N  N108  1  0.96779000  0.45881000  0.01073000  1.0
  N  N109  1  0.03222000  0.54119000  0.98927000  1.0
  N  N110  1  0.98418000  0.84480000  0.62894000  1.0
  N  N111  1  0.01583000  0.15519000  0.37106000  1.0
  N  N112  1  0.86912000  0.84684000  0.64594000  1.0
  N  N113  1  0.13088000  0.15316000  0.35406000  1.0
  N  N114  1  0.61983000  0.28814000  0.89832000  1.0
  N  N115  1  0.38017000  0.71186000  0.10168000  1.0
  O  O116  1  0.75011000  0.14512000  0.21283000  1.0
  O  O117  1  0.24989000  0.85489000  0.78717000  1.0
  O  O118  1  0.85434000  0.91977000  0.00868000  1.0
  O  O119  1  0.14566000  0.08022000  0.99132000  1.0
  O  O120  1  0.02175000  0.92589000  0.91534000  1.0
  O  O121  1  0.97825000  0.07412000  0.08466000  1.0
  O  O122  1  0.43424000  0.01459000  0.74926000  1.0
  O  O123  1  0.56575000  0.98542000  0.25074000  1.0
  O  O124  1  0.43174000  0.97776000  0.89241000  1.0
  O  O125  1  0.56826000  0.02224000  0.10759000  1.0
  O  O126  1  0.39457000  0.88245000  0.46096000  1.0
  O  O127  1  0.60543000  0.11755000  0.53904000  1.0
  O  O128  1  0.39760000  0.79882000  0.35071000  1.0
  O  O129  1  0.60240000  0.20117000  0.64929000  1.0
  O  O130  1  0.94660000  0.89274000  0.24849000  1.0
  O  O131  1  0.05339000  0.10726000  0.75151000  1.0
  O  O132  1  0.64566000  0.81065000  0.53961000  1.0
  O  O133  1  0.35433000  0.18935000  0.46039000  1.0
  O  O134  1  0.57402000  0.05644000  0.40087000  1.0
  O  O135  1  0.42598000  0.94356000  0.59913000  1.0
  O  O136  1  0.67038000  0.68477000  0.29896000  1.0
  O  O137  1  0.32961000  0.31524000  0.70103000  1.0
  O  O138  1  0.60081000  0.61336000  0.46231000  1.0
  O  O139  1  0.39920000  0.38664000  0.53769000  1.0
  O  O140  1  0.77182000  0.78911000  0.18389000  1.0
  O  O141  1  0.22818000  0.21090000  0.81611000  1.0
  O  O142  1  0.62610000  0.25478000  0.30218000  1.0
  O  O143  1  0.37391000  0.74522000  0.69782000  1.0
  O  O144  1  0.80499000  0.84289000  0.35636000  1.0
  O  O145  1  0.19501000  0.15710000  0.64364000  1.0
  O  O146  1  0.72042000  0.18933000  0.02259000  1.0
  O  O147  1  0.27958000  0.81067000  0.97741000  1.0
