# generated using pymatgen
data_HgH10C12(IN2)2
_symmetry_space_group_name_H-M   'P 1'
_cell_length_a   6.85296000
_cell_length_b   7.85033000
_cell_length_c   15.03080000
_cell_angle_alpha   82.95570000
_cell_angle_beta   89.99860000
_cell_angle_gamma   89.99960000
_symmetry_Int_Tables_number   1
_chemical_formula_structural   HgH10C12(IN2)2
_chemical_formula_sum   'Hg2 H20 C24 I4 N8'
_cell_volume   802.52312322
_cell_formula_units_Z   2
loop_
 _symmetry_equiv_pos_site_id
 _symmetry_equiv_pos_as_xyz
  1  'x, y, z'
loop_
 _atom_site_type_symbol
 _atom_site_label
 _atom_site_symmetry_multiplicity
 _atom_site_fract_x
 _atom_site_fract_y
 _atom_site_fract_z
 _atom_site_occupancy
  Hg  Hg0  1  0.49615000  0.75002000  0.75002000  1.0
  Hg  Hg1  1  0.50386000  0.24997000  0.24999000  1.0
  H  H2  1  0.71250000  0.61515000  0.94263000  1.0
  H  H3  1  0.71248000  0.88484000  0.55742000  1.0
  H  H4  1  0.28752000  0.38482000  0.05738000  1.0
  H  H5  1  0.28751000  0.11516000  0.44262000  1.0
  H  H6  1  0.01375000  0.64681000  0.03308000  1.0
  H  H7  1  0.01369000  0.85314000  0.46695000  1.0
  H  H8  1  0.98629000  0.35318000  0.96691000  1.0
  H  H9  1  0.98626000  0.14685000  0.53308000  1.0
  H  H10  1  0.17535000  0.07723000  0.83942000  1.0
  H  H11  1  0.17537000  0.42275000  0.66060000  1.0
  H  H12  1  0.82464000  0.92280000  0.16058000  1.0
  H  H13  1  0.82467000  0.57722000  0.33939000  1.0
  H  H14  1  0.86523000  0.02797000  0.75701000  1.0
  H  H15  1  0.86525000  0.47201000  0.74303000  1.0
  H  H16  1  0.13473000  0.97203000  0.24301000  1.0
  H  H17  1  0.13477000  0.52793000  0.25697000  1.0
  H  H18  1  0.32313000  0.78891000  0.05446000  1.0
  H  H19  1  0.32306000  0.71106000  0.44553000  1.0
  H  H20  1  0.67689000  0.21108000  0.94552000  1.0
  H  H21  1  0.67689000  0.28895000  0.55446000  1.0
  C  C22  1  0.81946000  0.71546000  0.92191000  1.0
  C  C23  1  0.81946000  0.78454000  0.57812000  1.0
  C  C24  1  0.18056000  0.28454000  0.07810000  1.0
  C  C25  1  0.18055000  0.21547000  0.42189000  1.0
  C  C26  1  0.98757000  0.73320000  0.97172000  1.0
  C  C27  1  0.98751000  0.76680000  0.52830000  1.0
  C  C28  1  0.01247000  0.26680000  0.02828000  1.0
  C  C29  1  0.01244000  0.23322000  0.47171000  1.0
  C  C30  1  0.12065000  0.86384000  0.94256000  1.0
  C  C31  1  0.12060000  0.63620000  0.55744000  1.0
  C  C32  1  0.87937000  0.13616000  0.05745000  1.0
  C  C33  1  0.87935000  0.36386000  0.44254000  1.0
  C  C34  1  0.07604000  0.97379000  0.86416000  1.0
  C  C35  1  0.07605000  0.52621000  0.63584000  1.0
  C  C36  1  0.92395000  0.02620000  0.13584000  1.0
  C  C37  1  0.92398000  0.47381000  0.36413000  1.0
  C  C38  1  0.90478000  0.94640000  0.81856000  1.0
  C  C39  1  0.90476000  0.55360000  0.68146000  1.0
  C  C40  1  0.09521000  0.05359000  0.18144000  1.0
  C  C41  1  0.09523000  0.44640000  0.31853000  1.0
  C  C42  1  0.29712000  0.88136000  0.99453000  1.0
  C  C43  1  0.29707000  0.61861000  0.50548000  1.0
  C  C44  1  0.70291000  0.11862000  0.00547000  1.0
  C  C45  1  0.70290000  0.38138000  0.49452000  1.0
  I  I46  1  0.39667000  0.44937000  0.84462000  1.0
  I  I47  1  0.39667000  0.05065000  0.65538000  1.0
  I  I48  1  0.60334000  0.55062000  0.15537000  1.0
  I  I49  1  0.60335000  0.94934000  0.34462000  1.0
  N  N50  1  0.77930000  0.81914000  0.84644000  1.0
  N  N51  1  0.77926000  0.68088000  0.65358000  1.0
  N  N52  1  0.22071000  0.18086000  0.15356000  1.0
  N  N53  1  0.22070000  0.31915000  0.34642000  1.0
  N  N54  1  0.42142000  0.00256000  0.97082000  1.0
  N  N55  1  0.42144000  0.49744000  0.52918000  1.0
  N  N56  1  0.57858000  0.99744000  0.02918000  1.0
  N  N57  1  0.57859000  0.50257000  0.47081000  1.0
