# generated using pymatgen
data_EuH20C30N3O10
_symmetry_space_group_name_H-M   'P 1'
_cell_length_a   9.83717000
_cell_length_b   12.00770000
_cell_length_c   25.34870000
_cell_angle_alpha   90.00000000
_cell_angle_beta   90.00000000
_cell_angle_gamma   93.15260000
_symmetry_Int_Tables_number   1
_chemical_formula_structural   EuH20C30N3O10
_chemical_formula_sum   'Eu4 H80 C120 N12 O40'
_cell_volume   2989.70225733
_cell_formula_units_Z   4
loop_
 _symmetry_equiv_pos_site_id
 _symmetry_equiv_pos_as_xyz
  1  'x, y, z'
loop_
 _atom_site_type_symbol
 _atom_site_label
 _atom_site_symmetry_multiplicity
 _atom_site_fract_x
 _atom_site_fract_y
 _atom_site_fract_z
 _atom_site_occupancy
  Eu  Eu0  1  0.60309000  0.45856000  0.92646000  1.0
  Eu  Eu1  1  0.89691000  0.54143000  0.42646000  1.0
  Eu  Eu2  1  0.39691000  0.54143000  0.07354000  1.0
  Eu  Eu3  1  0.10309000  0.45857000  0.57354000  1.0
  H  H4  1  0.72450000  0.19960000  0.85970000  1.0
  H  H5  1  0.77550000  0.80040000  0.35970000  1.0
  H  H6  1  0.27550000  0.80040000  0.14030000  1.0
  H  H7  1  0.22450000  0.19960000  0.64030000  1.0
  H  H8  1  0.77936000  0.12521000  0.77112000  1.0
  H  H9  1  0.72064000  0.87479000  0.27112000  1.0
  H  H10  1  0.22064000  0.87479000  0.22888000  1.0
  H  H11  1  0.27936000  0.12521000  0.72888000  1.0
  H  H12  1  0.00868000  0.16716000  0.73166000  1.0
  H  H13  1  0.49132000  0.83283000  0.23166000  1.0
  H  H14  1  0.99132000  0.83283000  0.26834000  1.0
  H  H15  1  0.50868000  0.16717000  0.76834000  1.0
  H  H16  1  0.18672000  0.27734000  0.78260000  1.0
  H  H17  1  0.31328000  0.72266000  0.28260000  1.0
  H  H18  1  0.81328000  0.72266000  0.21740000  1.0
  H  H19  1  0.68672000  0.27734000  0.71740000  1.0
  H  H20  1  0.99004000  0.40938000  0.99086000  1.0
  H  H21  1  0.50996000  0.59062000  0.49086000  1.0
  H  H22  1  0.00996000  0.59062000  0.00914000  1.0
  H  H23  1  0.49004000  0.40938000  0.50914000  1.0
  H  H24  1  0.43255000  0.66006000  0.57149000  1.0
  H  H25  1  0.06745000  0.33994000  0.07149000  1.0
  H  H26  1  0.56745000  0.33994000  0.42851000  1.0
  H  H27  1  0.93255000  0.66006000  0.92851000  1.0
  H  H28  1  0.62100000  0.80804000  0.55948000  1.0
  H  H29  1  0.87900000  0.19196000  0.05948000  1.0
  H  H30  1  0.37900000  0.19196000  0.44052000  1.0
  H  H31  1  0.12100000  0.80804000  0.94052000  1.0
  H  H32  1  0.77301000  0.86042000  0.63511000  1.0
  H  H33  1  0.72699000  0.13958000  0.13511000  1.0
  H  H34  1  0.22699000  0.13958000  0.36489000  1.0
  H  H35  1  0.27301000  0.86042000  0.86489000  1.0
  H  H36  1  0.74230000  0.76583000  0.72163000  1.0
  H  H37  1  0.75770000  0.23417000  0.22163000  1.0
  H  H38  1  0.25770000  0.23417000  0.27837000  1.0
  H  H39  1  0.24230000  0.76583000  0.77837000  1.0
  H  H40  1  0.28557000  0.42552000  0.71657000  1.0
  H  H41  1  0.21443000  0.57447000  0.21657000  1.0
  H  H42  1  0.71443000  0.57448000  0.28343000  1.0
  H  H43  1  0.78557000  0.42553000  0.78343000  1.0
  H  H44  1  0.32309000  0.19128000  0.93181000  1.0
  H  H45  1  0.17691000  0.80872000  0.43181000  1.0
  H  H46  1  0.67691000  0.80872000  0.06819000  1.0
  H  H47  1  0.82309000  0.19128000  0.56819000  1.0
  H  H48  1  0.14640000  0.22482000  0.99899000  1.0
  H  H49  1  0.35360000  0.77518000  0.49899000  1.0
  H  H50  1  0.85360000  0.77518000  0.00101000  1.0
  H  H51  1  0.64640000  0.22482000  0.50101000  1.0
  H  H52  1  0.07494000  0.07533000  0.06308000  1.0
  H  H53  1  0.42506000  0.92467000  0.56308000  1.0
  H  H54  1  0.92506000  0.92467000  0.93692000  1.0
  H  H55  1  0.57494000  0.07533000  0.43692000  1.0
  H  H56  1  0.17919000  0.89204000  0.05945000  1.0
  H  H57  1  0.32081000  0.10796000  0.55945000  1.0
  H  H58  1  0.82081000  0.10796000  0.94055000  1.0
  H  H59  1  0.67919000  0.89204000  0.44055000  1.0
  H  H60  1  0.58570000  0.86801000  0.89119000  1.0
  H  H61  1  0.91431000  0.13199000  0.39119000  1.0
  H  H62  1  0.41431000  0.13199000  0.10881000  1.0
  H  H63  1  0.08570000  0.86801000  0.60881000  1.0
  H  H64  1  0.24780000  0.37676000  0.86099000  1.0
  H  H65  1  0.25220000  0.62324000  0.36099000  1.0
  H  H66  1  0.75220000  0.62324000  0.13901000  1.0
  H  H67  1  0.74780000  0.37676000  0.63901000  1.0
  H  H68  1  0.50865000  0.20642000  0.88772000  1.0
  H  H69  1  0.99135000  0.79358000  0.38772000  1.0
  H  H70  1  0.49134000  0.79358000  0.11228000  1.0
  H  H71  1  0.00865000  0.20642000  0.61228000  1.0
  H  H72  1  0.32758000  0.77409000  0.01671000  1.0
  H  H73  1  0.17242000  0.22591000  0.51671000  1.0
  H  H74  1  0.67242000  0.22590000  0.98329000  1.0
  H  H75  1  0.82758000  0.77409000  0.48329000  1.0
  H  H76  1  0.61263000  0.62013000  0.77405000  1.0
  H  H77  1  0.88737000  0.37987000  0.27405000  1.0
  H  H78  1  0.38737000  0.37987000  0.22595000  1.0
  H  H79  1  0.11263000  0.62013000  0.72595000  1.0
  H  H80  1  0.45326000  0.31091000  0.85492000  1.0
  H  H81  1  0.04675000  0.68909000  0.35493000  1.0
  H  H82  1  0.54674000  0.68909000  0.14507000  1.0
  H  H83  1  0.95326000  0.31091000  0.64508000  1.0
  C  C84  1  0.89458000  0.32490000  0.92347000  1.0
  C  C85  1  0.60542000  0.67510000  0.42347000  1.0
  C  C86  1  0.10542000  0.67510000  0.07653000  1.0
  C  C87  1  0.39458000  0.32490000  0.57653000  1.0
  C  C88  1  0.92461000  0.27747000  0.87221000  1.0
  C  C89  1  0.57539000  0.72253000  0.37221000  1.0
  C  C90  1  0.07539000  0.72253000  0.12779000  1.0
  C  C91  1  0.42461000  0.27747000  0.62779000  1.0
  C  C92  1  0.82550000  0.21460000  0.84277000  1.0
  C  C93  1  0.67450000  0.78540000  0.34277000  1.0
  C  C94  1  0.17450000  0.78540000  0.15723000  1.0
  C  C95  1  0.32550000  0.21460000  0.65723000  1.0
  C  C96  1  0.85634000  0.17416000  0.79336000  1.0
  C  C97  1  0.64366000  0.82584000  0.29336000  1.0
  C  C98  1  0.14366000  0.82584000  0.20664000  1.0
  C  C99  1  0.35634000  0.17416000  0.70664000  1.0
  C  C100  1  0.98647000  0.19708000  0.77121000  1.0
  C  C101  1  0.51353000  0.80292000  0.27121000  1.0
  C  C102  1  0.01353000  0.80292000  0.22879000  1.0
  C  C103  1  0.48647000  0.19708000  0.72879000  1.0
  C  C104  1  0.08582000  0.25813000  0.79898000  1.0
  C  C105  1  0.41418000  0.74187000  0.29898000  1.0
  C  C106  1  0.91418000  0.74187000  0.20102000  1.0
  C  C107  1  0.58582000  0.25813000  0.70102000  1.0
  C  C108  1  0.05603000  0.29771000  0.84993000  1.0
  C  C109  1  0.44397000  0.70229000  0.34993000  1.0
  C  C110  1  0.94398000  0.70229000  0.15007000  1.0
  C  C111  1  0.55603000  0.29771000  0.65007000  1.0
  C  C112  1  0.25649000  0.44887000  0.95493000  1.0
  C  C113  1  0.24351000  0.55113000  0.45493000  1.0
  C  C114  1  0.74350000  0.55113000  0.04508000  1.0
  C  C115  1  0.75649000  0.44887000  0.54507000  1.0
  C  C116  1  0.13218000  0.39390000  0.92783000  1.0
  C  C117  1  0.36783000  0.60610000  0.42783000  1.0
  C  C118  1  0.86783000  0.60610000  0.07217000  1.0
  C  C119  1  0.63217000  0.39390000  0.57217000  1.0
  C  C120  1  0.00580000  0.37765000  0.95133000  1.0
  C  C121  1  0.49420000  0.62235000  0.45133000  1.0
  C  C122  1  0.99420000  0.62235000  0.04867000  1.0
  C  C123  1  0.50580000  0.37765000  0.54867000  1.0
  C  C124  1  0.37308000  0.54441000  0.65893000  1.0
  C  C125  1  0.12692000  0.45559000  0.15893000  1.0
  C  C126  1  0.62692000  0.45559000  0.34107000  1.0
  C  C127  1  0.87309000  0.54441000  0.84107000  1.0
  C  C128  1  0.48171000  0.63099000  0.65234000  1.0
  C  C129  1  0.01829000  0.36901000  0.15234000  1.0
  C  C130  1  0.51829000  0.36901000  0.34766000  1.0
  C  C131  1  0.98171000  0.63099000  0.84766000  1.0
  C  C132  1  0.50178000  0.68517000  0.60348000  1.0
  C  C133  1  0.99822000  0.31483000  0.10348000  1.0
  C  C134  1  0.49822000  0.31483000  0.39652000  1.0
  C  C135  1  0.00178000  0.68517000  0.89652000  1.0
  C  C136  1  0.60546000  0.76662000  0.59737000  1.0
  C  C137  1  0.89454000  0.23338000  0.09738000  1.0
  C  C138  1  0.39454000  0.23338000  0.40263000  1.0
  C  C139  1  0.10546000  0.76662000  0.90263000  1.0
  C  C140  1  0.69162000  0.79620000  0.64020000  1.0
  C  C141  1  0.80838000  0.20380000  0.14020000  1.0
  C  C142  1  0.30838000  0.20380000  0.35980000  1.0
  C  C143  1  0.19162000  0.79620000  0.85980000  1.0
  C  C144  1  0.67508000  0.74375000  0.68857000  1.0
  C  C145  1  0.82492000  0.25625000  0.18857000  1.0
  C  C146  1  0.32492000  0.25625000  0.31143000  1.0
  C  C147  1  0.17508000  0.74375000  0.81143000  1.0
  C  C148  1  0.56994000  0.66038000  0.69497000  1.0
  C  C149  1  0.93007000  0.33962000  0.19497000  1.0
  C  C150  1  0.43007000  0.33962000  0.30503000  1.0
  C  C151  1  0.06993000  0.66038000  0.80503000  1.0
  C  C152  1  0.45327000  0.46695000  0.80220000  1.0
  C  C153  1  0.04673000  0.53304000  0.30220000  1.0
  C  C154  1  0.54673000  0.53304000  0.19780000  1.0
  C  C155  1  0.95327000  0.46696000  0.69780000  1.0
  C  C156  1  0.45180000  0.52363000  0.74906000  1.0
  C  C157  1  0.04820000  0.47637000  0.24906000  1.0
  C  C158  1  0.54820000  0.47637000  0.25094000  1.0
  C  C159  1  0.95180000  0.52363000  0.75094000  1.0
  C  C160  1  0.36156000  0.49296000  0.70955000  1.0
  C  C161  1  0.13843000  0.50704000  0.20955000  1.0
  C  C162  1  0.63843000  0.50704000  0.29045000  1.0
  C  C163  1  0.86156000  0.49296000  0.79045000  1.0
  C  C164  1  0.45865000  0.00066000  0.91809000  1.0
  C  C165  1  0.04135000  0.99934000  0.41809000  1.0
  C  C166  1  0.54135000  0.99934000  0.08191000  1.0
  C  C167  1  0.95865000  0.00066000  0.58191000  1.0
  C  C168  1  0.35153000  0.02243000  0.95654000  1.0
  C  C169  1  0.14847000  0.97757000  0.45654000  1.0
  C  C170  1  0.64847000  0.97757000  0.04346000  1.0
  C  C171  1  0.85153000  0.02243000  0.54346000  1.0
  C  C172  1  0.28995000  0.12570000  0.95935000  1.0
  C  C173  1  0.21005000  0.87430000  0.45935000  1.0
  C  C174  1  0.71005000  0.87430000  0.04065000  1.0
  C  C175  1  0.78995000  0.12570000  0.54065000  1.0
  C  C176  1  0.19172000  0.14434000  0.99699000  1.0
  C  C177  1  0.30828000  0.85566000  0.49699000  1.0
  C  C178  1  0.80828000  0.85566000  0.00301000  1.0
  C  C179  1  0.69173000  0.14434000  0.50301000  1.0
  C  C180  1  0.15119000  0.05988000  0.03314000  1.0
  C  C181  1  0.34881000  0.94012000  0.53314000  1.0
  C  C182  1  0.84881000  0.94012000  0.96686000  1.0
  C  C183  1  0.65119000  0.05988000  0.46686000  1.0
  C  C184  1  0.20822000  0.95750000  0.03130000  1.0
  C  C185  1  0.29178000  0.04250000  0.53130000  1.0
  C  C186  1  0.79177000  0.04250000  0.96870000  1.0
  C  C187  1  0.70822000  0.95750000  0.46870000  1.0
  C  C188  1  0.30836000  0.93798000  0.99304000  1.0
  C  C189  1  0.19164000  0.06202000  0.49304000  1.0
  C  C190  1  0.69164000  0.06202000  0.00696000  1.0
  C  C191  1  0.80836000  0.93798000  0.50696000  1.0
  C  C192  1  0.50955000  0.69568000  0.95821000  1.0
  C  C193  1  0.99045000  0.30432000  0.45821000  1.0
  C  C194  1  0.49044000  0.30432000  0.04179000  1.0
  C  C195  1  0.00955000  0.69568000  0.54179000  1.0
  C  C196  1  0.46033000  0.81227000  0.95528000  1.0
  C  C197  1  0.03967000  0.18773000  0.45528000  1.0
  C  C198  1  0.53967000  0.18773000  0.04472000  1.0
  C  C199  1  0.96033000  0.81227000  0.54472000  1.0
  C  C200  1  0.50753000  0.89040000  0.91897000  1.0
  C  C201  1  0.99247000  0.10960000  0.41897000  1.0
  C  C202  1  0.49247000  0.10960000  0.08103000  1.0
  C  C203  1  0.00753000  0.89040000  0.58103000  1.0
  N  N204  1  0.15371000  0.35770000  0.87829000  1.0
  N  N205  1  0.34629000  0.64229000  0.37829000  1.0
  N  N206  1  0.84629000  0.64229000  0.12171000  1.0
  N  N207  1  0.65371000  0.35771000  0.62171000  1.0
  N  N208  1  0.55065000  0.60514000  0.74209000  1.0
  N  N209  1  0.94935000  0.39486000  0.24209000  1.0
  N  N210  1  0.44935000  0.39486000  0.25791000  1.0
  N  N211  1  0.05065000  0.60514000  0.75792000  1.0
  N  N212  1  0.36489000  0.83620000  0.99137000  1.0
  N  N213  1  0.13511000  0.16380000  0.49137000  1.0
  N  N214  1  0.63511000  0.16380000  0.00863000  1.0
  N  N215  1  0.86489000  0.83620000  0.50863000  1.0
  O  O216  1  0.77245000  0.31926000  0.94195000  1.0
  O  O217  1  0.72755000  0.68074000  0.44195000  1.0
  O  O218  1  0.22754000  0.68074000  0.05805000  1.0
  O  O219  1  0.27245000  0.31926000  0.55805000  1.0
  O  O220  1  0.24724000  0.46424000  0.00405000  1.0
  O  O221  1  0.25276000  0.53575000  0.50406000  1.0
  O  O222  1  0.75276000  0.53575000  0.99594000  1.0
  O  O223  1  0.74724000  0.46424000  0.49595000  1.0
  O  O224  1  0.35805000  0.47092000  0.92519000  1.0
  O  O225  1  0.14195000  0.52908000  0.42519000  1.0
  O  O226  1  0.64196000  0.52908000  0.07481000  1.0
  O  O227  1  0.85805000  0.47092000  0.57481000  1.0
  O  O228  1  0.51590000  0.29044000  0.88371000  1.0
  O  O229  1  0.98410000  0.70956000  0.38371000  1.0
  O  O230  1  0.48410000  0.70956000  0.11629000  1.0
  O  O231  1  0.01590000  0.29044000  0.61629000  1.0
  O  O232  1  0.54199000  0.50593000  0.83437000  1.0
  O  O233  1  0.95801000  0.49407000  0.33437000  1.0
  O  O234  1  0.45801000  0.49407000  0.16563000  1.0
  O  O235  1  0.04199000  0.50593000  0.66563000  1.0
  O  O236  1  0.36941000  0.38420000  0.80884000  1.0
  O  O237  1  0.13060000  0.61580000  0.30884000  1.0
  O  O238  1  0.63060000  0.61581000  0.19116000  1.0
  O  O239  1  0.86940000  0.38420000  0.69116000  1.0
  O  O240  1  0.29708000  0.51602000  0.62034000  1.0
  O  O241  1  0.20291000  0.48398000  0.12034000  1.0
  O  O242  1  0.70292000  0.48398000  0.37966000  1.0
  O  O243  1  0.79708000  0.51602000  0.87966000  1.0
  O  O244  1  0.57860000  0.66041000  0.92042000  1.0
  O  O245  1  0.92141000  0.33959000  0.42042000  1.0
  O  O246  1  0.42141000  0.33958000  0.07958000  1.0
  O  O247  1  0.07859000  0.66041000  0.57958000  1.0
  O  O248  1  0.47554000  0.63914000  0.99904000  1.0
  O  O249  1  0.02446000  0.36086000  0.49904000  1.0
  O  O250  1  0.52446000  0.36086000  0.00096000  1.0
  O  O251  1  0.97555000  0.63914000  0.50096000  1.0
  O  O252  1  0.50565000  0.07395000  0.88571000  1.0
  O  O253  1  0.99435000  0.92605000  0.38571000  1.0
  O  O254  1  0.49435000  0.92605000  0.11429000  1.0
  O  O255  1  0.00565000  0.07395000  0.61429000  1.0
