# generated using pymatgen
data_CdH20C26(NO5)2
_symmetry_space_group_name_H-M   'P 1'
_cell_length_a   6.74925000
_cell_length_b   8.82732000
_cell_length_c   11.13740000
_cell_angle_alpha   91.71140000
_cell_angle_beta   105.65300000
_cell_angle_gamma   95.16980000
_symmetry_Int_Tables_number   1
_chemical_formula_structural   CdH20C26(NO5)2
_chemical_formula_sum   'Cd1 H20 C26 N2 O10'
_cell_volume   635.31775764
_cell_formula_units_Z   1
loop_
 _symmetry_equiv_pos_site_id
 _symmetry_equiv_pos_as_xyz
  1  'x, y, z'
loop_
 _atom_site_type_symbol
 _atom_site_label
 _atom_site_symmetry_multiplicity
 _atom_site_fract_x
 _atom_site_fract_y
 _atom_site_fract_z
 _atom_site_occupancy
  Cd  Cd0  1  0.00001000  0.99999000  0.49999000  1.0
  H  H1  1  0.34747000  0.88746000  0.52976000  1.0
  H  H2  1  0.65256000  0.11256000  0.47022000  1.0
  H  H3  1  0.35232000  0.93603000  0.67104000  1.0
  H  H4  1  0.64769000  0.06397000  0.32895000  1.0
  H  H5  1  0.86903000  0.93300000  0.18253000  1.0
  H  H6  1  0.13096000  0.06697000  0.81745000  1.0
  H  H7  1  0.72553000  0.59348000  0.95820000  1.0
  H  H8  1  0.27448000  0.40650000  0.04180000  1.0
  H  H9  1  0.81042000  0.04938000  0.88465000  1.0
  H  H10  1  0.18953000  0.95061000  0.11534000  1.0
  H  H11  1  0.66982000  0.40546000  0.10983000  1.0
  H  H12  1  0.33020000  0.59453000  0.89017000  1.0
  H  H13  1  0.58596000  0.68438000  0.76805000  1.0
  H  H14  1  0.41403000  0.31561000  0.23196000  1.0
  H  H15  1  0.14033000  0.65354000  0.56185000  1.0
  H  H16  1  0.85974000  0.34649000  0.43819000  1.0
  H  H17  1  0.07899000  0.44507000  0.69603000  1.0
  H  H18  1  0.92103000  0.55495000  0.30398000  1.0
  H  H19  1  0.67273000  0.88328000  0.63417000  1.0
  H  H20  1  0.32727000  0.11673000  0.36586000  1.0
  C  C21  1  0.80949000  0.27168000  0.80960000  1.0
  C  C22  1  0.19049000  0.72830000  0.19040000  1.0
  C  C23  1  0.73560000  0.47309000  0.93886000  1.0
  C  C24  1  0.26439000  0.52690000  0.06112000  1.0
  C  C25  1  0.78671000  0.42735000  0.82994000  1.0
  C  C26  1  0.21328000  0.57263000  0.17004000  1.0
  C  C27  1  0.73663000  0.21566000  0.00681000  1.0
  C  C28  1  0.26333000  0.78432000  0.99318000  1.0
  C  C29  1  0.78830000  0.16845000  0.89901000  1.0
  C  C30  1  0.21165000  0.83154000  0.10096000  1.0
  C  C31  1  0.70692000  0.36870000  0.02503000  1.0
  C  C32  1  0.29309000  0.63130000  0.97498000  1.0
  C  C33  1  0.83875000  0.21050000  0.68846000  1.0
  C  C34  1  0.16121000  0.78952000  0.31155000  1.0
  C  C35  1  0.72814000  0.11042000  0.10764000  1.0
  C  C36  1  0.27184000  0.88956000  0.89236000  1.0
  C  C37  1  0.71141000  0.67126000  0.72537000  1.0
  C  C38  1  0.28859000  0.32874000  0.27462000  1.0
  C  C39  1  0.82504000  0.54446000  0.74462000  1.0
  C  C40  1  0.17493000  0.45554000  0.25537000  1.0
  C  C41  1  0.01879000  0.65541000  0.60950000  1.0
  C  C42  1  0.98125000  0.34461000  0.39053000  1.0
  C  C43  1  0.98183000  0.53862000  0.68394000  1.0
  C  C44  1  0.01818000  0.46139000  0.31607000  1.0
  C  C45  1  0.75853000  0.78362000  0.64983000  1.0
  C  C46  1  0.24149000  0.21639000  0.35019000  1.0
  N  N47  1  0.90979000  0.77722000  0.59273000  1.0
  N  N48  1  0.09024000  0.22280000  0.40729000  1.0
  O  O49  1  0.34794000  0.97643000  0.58802000  1.0
  O  O50  1  0.65207000  0.02359000  0.41198000  1.0
  O  O51  1  0.98756000  0.12538000  0.69456000  1.0
  O  O52  1  0.01243000  0.87463000  0.30544000  1.0
  O  O53  1  0.71464000  0.24356000  0.58920000  1.0
  O  O54  1  0.28536000  0.75644000  0.41078000  1.0
  O  O55  1  0.81619000  0.98355000  0.09899000  1.0
  O  O56  1  0.18376000  0.01643000  0.90099000  1.0
  O  O57  1  0.65110000  0.14443000  0.19296000  1.0
  O  O58  1  0.34896000  0.85558000  0.80705000  1.0
