# generated using pymatgen
data_Cu4H24C25I4(NO)4
_symmetry_space_group_name_H-M   'P 1'
_cell_length_a   9.92147000
_cell_length_b   10.60600000
_cell_length_c   10.60589619
_cell_angle_alpha   77.36284442
_cell_angle_beta   62.11273893
_cell_angle_gamma   62.11260000
_symmetry_Int_Tables_number   1
_chemical_formula_structural   Cu4H24C25I4(NO)4
_chemical_formula_sum   'Cu4 H24 C25 I4 N4 O4'
_cell_volume   871.86832483
_cell_formula_units_Z   1
loop_
 _symmetry_equiv_pos_site_id
 _symmetry_equiv_pos_as_xyz
  1  'x, y, z'
loop_
 _atom_site_type_symbol
 _atom_site_label
 _atom_site_symmetry_multiplicity
 _atom_site_fract_x
 _atom_site_fract_y
 _atom_site_fract_z
 _atom_site_occupancy
  Cu  Cu0  1  0.69458000  0.91915000  0.89494000  1.0
  Cu  Cu1  1  0.50866000  0.08086000  0.10506000  1.0
  Cu  Cu2  1  0.38627000  0.10506000  0.91915000  1.0
  Cu  Cu3  1  0.41049000  0.89494000  0.08085000  1.0
  H  H4  1  0.52670000  0.47797000  0.66319000  1.0
  H  H5  1  0.66785000  0.52203000  0.33681000  1.0
  H  H6  1  0.99533000  0.33681000  0.47797000  1.0
  H  H7  1  0.81011000  0.66319000  0.52203000  1.0
  H  H8  1  0.56599000  0.61061000  0.70232000  1.0
  H  H9  1  0.87892000  0.38939000  0.29767000  1.0
  H  H10  1  0.82340000  0.29768000  0.61061000  1.0
  H  H11  1  0.73168000  0.70232000  0.38939000  1.0
  H  H12  1  0.29558000  0.63228000  0.83945000  1.0
  H  H13  1  0.76731000  0.36772000  0.16055000  1.0
  H  H14  1  0.07215000  0.16055000  0.63227000  1.0
  H  H15  1  0.86497000  0.83945000  0.36772000  1.0
  H  H16  1  0.98533000  0.74268000  0.96432000  1.0
  H  H17  1  0.69233000  0.25732000  0.03568000  1.0
  H  H18  1  0.27199000  0.03568000  0.74268000  1.0
  H  H19  1  0.05035000  0.96432000  0.25732000  1.0
  H  H20  1  0.93437000  0.94581000  0.59799000  1.0
  H  H21  1  0.47816000  0.05420000  0.40202000  1.0
  H  H22  1  0.11982000  0.40201000  0.94580000  1.0
  H  H23  1  0.46763000  0.59798000  0.05420000  1.0
  H  H24  1  0.24728000  0.84434000  0.45375000  1.0
  H  H25  1  0.54537000  0.15565000  0.54626000  1.0
  H  H26  1  0.90838000  0.54625000  0.84434000  1.0
  H  H27  1  0.29897000  0.45374000  0.15566000  1.0
  C  C28  1  0.75000000  0.50000000  0.50000000  1.0
  C  C29  1  0.57076000  0.56264000  0.61749000  1.0
  C  C30  1  0.75089000  0.43736000  0.38251000  1.0
  C  C31  1  0.86660000  0.38251000  0.56264000  1.0
  C  C32  1  0.81175000  0.61749000  0.43736000  1.0
  C  C33  1  0.29736000  0.72732000  0.63406000  1.0
  C  C34  1  0.65874000  0.27268000  0.36594000  1.0
  C  C35  1  0.97532000  0.36594000  0.72732000  1.0
  C  C36  1  0.06857000  0.63406000  0.27268000  1.0
  C  C37  1  0.22225000  0.69993000  0.78011000  1.0
  C  C38  1  0.70229000  0.30007000  0.21989000  1.0
  C  C39  1  0.07782000  0.21989000  0.69993000  1.0
  C  C40  1  0.99764000  0.78011000  0.30007000  1.0
  C  C41  1  0.04804000  0.76197000  0.85065000  1.0
  C  C42  1  0.66065000  0.23803000  0.14935000  1.0
  C  C43  1  0.19001000  0.14934000  0.76196000  1.0
  C  C44  1  0.10131000  0.85065000  0.23804000  1.0
  C  C45  1  0.01981000  0.87524000  0.64663000  1.0
  C  C46  1  0.54169000  0.12477000  0.35337000  1.0
  C  C47  1  0.10494000  0.35337000  0.87524000  1.0
  C  C48  1  0.33355000  0.64662000  0.12477000  1.0
  C  C49  1  0.19271000  0.81938000  0.56680000  1.0
  C  C50  1  0.57889000  0.18062000  0.43320000  1.0
  C  C51  1  0.98791000  0.43320000  0.81938000  1.0
  C  C52  1  0.24049000  0.56680000  0.18062000  1.0
  I  I53  1  0.65973000  0.78650000  0.15310000  1.0
  I  I54  1  0.59933000  0.21350000  0.84689000  1.0
  I  I55  1  0.55377000  0.84689000  0.78650000  1.0
  I  I56  1  0.18716000  0.15311000  0.21350000  1.0
  N  N57  1  0.94587000  0.84668000  0.78694000  1.0
  N  N58  1  0.57949000  0.15333000  0.21306000  1.0
  N  N59  1  0.20745000  0.21306000  0.84668000  1.0
  N  N60  1  0.26719000  0.78694000  0.15333000  1.0
  O  O61  1  0.46496000  0.67039000  0.55274000  1.0
  O  O62  1  0.68810000  0.32960000  0.44726000  1.0
  O  O63  1  0.86465000  0.44726000  0.67039000  1.0
  O  O64  1  0.98229000  0.55274000  0.32961000  1.0
