# generated using pymatgen
data_ZnH7C6SN3O4
_symmetry_space_group_name_H-M   'P 1'
_cell_length_a   6.55959000
_cell_length_b   9.69466000
_cell_length_c   16.51930000
_cell_angle_alpha   90.00000000
_cell_angle_beta   89.99950000
_cell_angle_gamma   90.00000000
_symmetry_Int_Tables_number   1
_chemical_formula_structural   ZnH7C6SN3O4
_chemical_formula_sum   'Zn4 H28 C24 S4 N12 O16'
_cell_volume   1050.51175878
_cell_formula_units_Z   4
loop_
 _symmetry_equiv_pos_site_id
 _symmetry_equiv_pos_as_xyz
  1  'x, y, z'
loop_
 _atom_site_type_symbol
 _atom_site_label
 _atom_site_symmetry_multiplicity
 _atom_site_fract_x
 _atom_site_fract_y
 _atom_site_fract_z
 _atom_site_occupancy
  Zn  Zn0  1  0.21577000  0.65381000  0.63534000  1.0
  Zn  Zn1  1  0.28422000  0.34619000  0.13533000  1.0
  Zn  Zn2  1  0.78423000  0.15381000  0.86467000  1.0
  Zn  Zn3  1  0.71577000  0.84619000  0.36466000  1.0
  H  H4  1  0.78589000  0.29716000  0.69413000  1.0
  H  H5  1  0.71411000  0.70284000  0.19413000  1.0
  H  H6  1  0.21411000  0.79716000  0.80587000  1.0
  H  H7  1  0.28589000  0.20284000  0.30587000  1.0
  H  H8  1  0.38016000  0.31999000  0.88776000  1.0
  H  H9  1  0.11984000  0.68001000  0.38775000  1.0
  H  H10  1  0.61985000  0.81999000  0.61224000  1.0
  H  H11  1  0.88015000  0.18001000  0.11225000  1.0
  H  H12  1  0.16252000  0.48692000  0.80866000  1.0
  H  H13  1  0.33749000  0.51308000  0.30866000  1.0
  H  H14  1  0.83748000  0.98692000  0.69134000  1.0
  H  H15  1  0.66251000  0.01308000  0.19134000  1.0
  H  H16  1  0.18989000  0.46470000  0.52090000  1.0
  H  H17  1  0.31011000  0.53530000  0.02090000  1.0
  H  H18  1  0.81011000  0.96470000  0.97910000  1.0
  H  H19  1  0.68989000  0.03530000  0.47910000  1.0
  H  H20  1  0.95973000  0.50002000  0.54221000  1.0
  H  H21  1  0.54028000  0.49998000  0.04221000  1.0
  H  H22  1  0.04028000  0.00002000  0.95779000  1.0
  H  H23  1  0.45972000  0.99998000  0.45779000  1.0
  H  H24  1  0.08606000  0.85003000  0.51726000  1.0
  H  H25  1  0.41394000  0.14997000  0.01726000  1.0
  H  H26  1  0.91394000  0.35003000  0.98274000  1.0
  H  H27  1  0.58606000  0.64997000  0.48274000  1.0
  H  H28  1  0.17093000  0.92493000  0.59595000  1.0
  H  H29  1  0.32907000  0.07507000  0.09595000  1.0
  H  H30  1  0.82906000  0.42494000  0.90405000  1.0
  H  H31  1  0.67094000  0.57507000  0.40405000  1.0
  C  C32  1  0.60126000  0.49167000  0.59780000  1.0
  C  C33  1  0.89873000  0.50832000  0.09780000  1.0
  C  C34  1  0.39874000  0.99167000  0.90220000  1.0
  C  C35  1  0.10126000  0.00832000  0.40220000  1.0
  C  C36  1  0.53284000  0.43762000  0.67874000  1.0
  C  C37  1  0.96715000  0.56238000  0.17874000  1.0
  C  C38  1  0.46716000  0.93762000  0.82126000  1.0
  C  C39  1  0.03284000  0.06237000  0.32126000  1.0
  C  C40  1  0.64768000  0.34004000  0.72068000  1.0
  C  C41  1  0.85232000  0.65996000  0.22068000  1.0
  C  C42  1  0.35232000  0.84005000  0.77932000  1.0
  C  C43  1  0.14768000  0.15995000  0.27932000  1.0
  C  C44  1  0.42261000  0.35254000  0.82702000  1.0
  C  C45  1  0.07739000  0.64745000  0.32702000  1.0
  C  C46  1  0.57739000  0.85255000  0.67298000  1.0
  C  C47  1  0.92261000  0.14746000  0.17298000  1.0
  C  C48  1  0.30395000  0.44624000  0.78366000  1.0
  C  C49  1  0.19605000  0.55376000  0.28366000  1.0
  C  C50  1  0.69605000  0.94624000  0.71634000  1.0
  C  C51  1  0.80394000  0.05376000  0.21634000  1.0
  C  C52  1  0.88993000  0.64688000  0.77395000  1.0
  C  C53  1  0.61006000  0.35312000  0.27396000  1.0
  C  C54  1  0.11007000  0.14689000  0.72605000  1.0
  C  C55  1  0.38993000  0.85310000  0.22604000  1.0
  S  S56  1  0.78539000  0.64576000  0.86279000  1.0
  S  S57  1  0.71462000  0.35425000  0.36279000  1.0
  S  S58  1  0.21462000  0.14575000  0.63721000  1.0
  S  S59  1  0.28539000  0.85425000  0.13721000  1.0
  N  N60  1  0.36045000  0.48904000  0.71012000  1.0
  N  N61  1  0.13956000  0.51095000  0.21012000  1.0
  N  N62  1  0.63956000  0.98905000  0.78988000  1.0
  N  N63  1  0.86044000  0.01096000  0.28988000  1.0
  N  N64  1  0.59285000  0.29871000  0.79489000  1.0
  N  N65  1  0.90715000  0.70130000  0.29489000  1.0
  N  N66  1  0.40715000  0.79871000  0.70511000  1.0
  N  N67  1  0.09285000  0.20129000  0.20511000  1.0
  N  N68  1  0.96785000  0.64814000  0.70889000  1.0
  N  N69  1  0.53216000  0.35186000  0.20889000  1.0
  N  N70  1  0.03217000  0.14813000  0.79111000  1.0
  N  N71  1  0.46784000  0.85187000  0.29111000  1.0
  O  O72  1  0.50285000  0.59656000  0.57078000  1.0
  O  O73  1  0.99715000  0.40344000  0.07078000  1.0
  O  O74  1  0.49715000  0.09656000  0.92922000  1.0
  O  O75  1  0.00284000  0.90344000  0.42922000  1.0
  O  O76  1  0.74736000  0.43118000  0.56413000  1.0
  O  O77  1  0.75264000  0.56882000  0.06413000  1.0
  O  O78  1  0.25263000  0.93118000  0.93587000  1.0
  O  O79  1  0.24736000  0.06882000  0.43587000  1.0
  O  O80  1  0.09995000  0.54104000  0.53449000  1.0
  O  O81  1  0.40005000  0.45896000  0.03449000  1.0
  O  O82  1  0.90005000  0.04104000  0.96551000  1.0
  O  O83  1  0.59995000  0.95896000  0.46551000  1.0
  O  O84  1  0.13552000  0.83343000  0.57394000  1.0
  O  O85  1  0.36447000  0.16657000  0.07394000  1.0
  O  O86  1  0.86447000  0.33343000  0.92606000  1.0
  O  O87  1  0.63553000  0.66657000  0.42606000  1.0
