# generated using pymatgen
data_NiH34C40(NO2)4
_symmetry_space_group_name_H-M   'P 1'
_cell_length_a   10.57480000
_cell_length_b   12.13310000
_cell_length_c   17.37636465
_cell_angle_alpha   69.91580866
_cell_angle_beta   82.28390172
_cell_angle_gamma   77.94200000
_symmetry_Int_Tables_number   1
_chemical_formula_structural   NiH34C40(NO2)4
_chemical_formula_sum   'Ni2 H68 C80 N8 O16'
_cell_volume   2042.95052991
_cell_formula_units_Z   2
loop_
 _symmetry_equiv_pos_site_id
 _symmetry_equiv_pos_as_xyz
  1  'x, y, z'
loop_
 _atom_site_type_symbol
 _atom_site_label
 _atom_site_symmetry_multiplicity
 _atom_site_fract_x
 _atom_site_fract_y
 _atom_site_fract_z
 _atom_site_occupancy
  Ni  Ni0  1  0.50000000  0.50000000  0.00000000  1.0
  Ni  Ni1  1  1.00000000  0.50000000  0.00000000  1.0
  H  H2  1  0.40411000  0.70500000  0.93242000  1.0
  H  H3  1  0.59589000  0.29499000  0.06758000  1.0
  H  H4  1  0.28786000  0.62872000  0.94283000  1.0
  H  H5  1  0.71214000  0.37127000  0.05717000  1.0
  H  H6  1  0.90736000  0.70779000  0.93880000  1.0
  H  H7  1  0.09263000  0.29220000  0.06121000  1.0
  H  H8  1  0.78624000  0.63751000  0.94746000  1.0
  H  H9  1  0.21375000  0.36247000  0.05255000  1.0
  H  H10  1  0.87127000  0.33823000  0.78801000  1.0
  H  H11  1  0.12873000  0.66175000  0.21200000  1.0
  H  H12  1  0.62490000  0.62110000  0.23225000  1.0
  H  H13  1  0.37511000  0.37890000  0.76775000  1.0
  H  H14  1  0.15924000  0.34463000  0.18427000  1.0
  H  H15  1  0.84076000  0.65538000  0.81571000  1.0
  H  H16  1  0.35030000  0.46152000  0.16784000  1.0
  H  H17  1  0.64971000  0.53847000  0.83217000  1.0
  H  H18  1  0.68203000  0.61898000  0.07268000  1.0
  H  H19  1  0.31797000  0.38102000  0.92732000  1.0
  H  H20  1  0.99138000  0.21739000  0.44461000  1.0
  H  H21  1  0.00862000  0.78262000  0.55538000  1.0
  H  H22  1  0.81431000  0.36529000  0.94170000  1.0
  H  H23  1  0.18569000  0.63471000  0.05830000  1.0
  H  H24  1  0.02325000  0.25395000  0.30809000  1.0
  H  H25  1  0.97677000  0.74606000  0.69190000  1.0
  H  H26  1  0.34056000  0.96809000  0.39274000  1.0
  H  H27  1  0.65945000  0.03192000  0.60726000  1.0
  H  H28  1  0.54688000  0.27080000  0.32940000  1.0
  H  H29  1  0.45311000  0.72920000  0.67061000  1.0
  H  H30  1  0.82726000  0.94609000  0.37796000  1.0
  H  H31  1  0.17274000  0.05392000  0.62204000  1.0
  H  H32  1  0.47646000  0.05805000  0.26626000  1.0
  H  H33  1  0.52355000  0.94195000  0.73373000  1.0
  H  H34  1  0.67916000  0.36183000  0.20276000  1.0
  H  H35  1  0.32083000  0.63816000  0.79725000  1.0
  H  H36  1  0.51354000  0.61979000  0.34024000  1.0
  H  H37  1  0.48647000  0.38019000  0.65976000  1.0
  H  H38  1  0.23880000  0.64303000  0.54870000  1.0
  H  H39  1  0.76120000  0.35697000  0.45130000  1.0
  H  H40  1  0.95832000  0.03971000  0.24998000  1.0
  H  H41  1  0.04168000  0.96030000  0.75003000  1.0
  H  H42  1  0.15592000  0.38668000  0.42406000  1.0
  H  H43  1  0.84408000  0.61333000  0.57593000  1.0
  H  H44  1  0.54284000  0.20362000  0.46962000  1.0
  H  H45  1  0.45716000  0.79639000  0.53038000  1.0
  H  H46  1  0.39865000  0.59485000  0.47510000  1.0
  H  H47  1  0.60136000  0.40515000  0.52490000  1.0
  H  H48  1  0.14335000  0.61661000  0.68841000  1.0
  H  H49  1  0.85665000  0.38339000  0.31159000  1.0
  H  H50  1  0.13819000  0.31071000  0.55929000  1.0
  H  H51  1  0.86179000  0.68931000  0.44070000  1.0
  H  H52  1  0.27528000  0.40490000  0.29191000  1.0
  H  H53  1  0.72473000  0.59509000  0.70810000  1.0
  H  H54  1  0.13473000  0.53187000  0.82758000  1.0
  H  H55  1  0.86527000  0.46812000  0.17242000  1.0
  H  H56  1  0.03698000  0.28697000  0.69849000  1.0
  H  H57  1  0.96301000  0.71304000  0.30150000  1.0
  H  H58  1  0.57592000  0.69644000  0.45395000  1.0
  H  H59  1  0.42408000  0.30355000  0.54607000  1.0
  H  H60  1  0.61850000  0.74894000  0.34607000  1.0
  H  H61  1  0.38149000  0.25105000  0.65394000  1.0
  H  H62  1  0.46343000  0.80784000  0.38644000  1.0
  H  H63  1  0.53656000  0.19215000  0.61358000  1.0
  H  H64  1  0.04435000  0.80987000  0.37179000  1.0
  H  H65  1  0.95565000  0.19013000  0.62821000  1.0
  H  H66  1  0.21341000  0.76491000  0.34725000  1.0
  H  H67  1  0.78659000  0.23510000  0.65275000  1.0
  H  H68  1  0.14096000  0.91974000  0.31166000  1.0
  H  H69  1  0.85904000  0.08026000  0.68833000  1.0
  C  C70  1  0.91736000  0.38083000  0.81929000  1.0
  C  C71  1  0.08265000  0.61916000  0.18071000  1.0
  C  C72  1  0.57616000  0.58864000  0.19573000  1.0
  C  C73  1  0.42383000  0.41136000  0.80426000  1.0
  C  C74  1  0.19942000  0.26250000  0.23058000  1.0
  C  C75  1  0.80059000  0.73750000  0.76941000  1.0
  C  C76  1  0.90214000  0.26026000  0.13920000  1.0
  C  C77  1  0.09786000  0.73974000  0.86081000  1.0
  C  C78  1  0.59144000  0.04673000  0.43420000  1.0
  C  C79  1  0.40856000  0.95326000  0.56581000  1.0
  C  C80  1  0.43270000  0.50334000  0.16442000  1.0
  C  C81  1  0.56730000  0.49665000  0.83558000  1.0
  C  C82  1  0.60425000  0.58673000  0.11683000  1.0
  C  C83  1  0.39574000  0.41327000  0.88317000  1.0
  C  C84  1  0.08782000  0.04862000  0.43157000  1.0
  C  C85  1  0.91217000  0.95141000  0.56841000  1.0
  C  C86  1  0.99576000  0.12111000  0.46772000  1.0
  C  C87  1  0.00423000  0.87891000  0.53227000  1.0
  C  C88  1  0.40114000  0.51754000  0.30484000  1.0
  C  C89  1  0.59885000  0.48247000  0.69515000  1.0
  C  C90  1  0.08135000  0.45065000  0.70269000  1.0
  C  C91  1  0.91865000  0.54935000  0.29730000  1.0
  C  C92  1  0.09012000  0.92456000  0.46644000  1.0
  C  C93  1  0.90987000  0.07546000  0.53355000  1.0
  C  C94  1  0.88971000  0.39559000  0.89488000  1.0
  C  C95  1  0.11029000  0.60441000  0.10512000  1.0
  C  C96  1  0.67682000  0.10117000  0.36271000  1.0
  C  C97  1  0.32318000  0.89882000  0.63730000  1.0
  C  C98  1  0.12364000  0.21213000  0.30073000  1.0
  C  C99  1  0.87636000  0.78788000  0.69926000  1.0
  C  C100  1  0.26554000  0.49104000  0.46068000  1.0
  C  C101  1  0.73446000  0.50897000  0.53931000  1.0
  C  C102  1  0.30086000  0.04987000  0.34644000  1.0
  C  C103  1  0.69915000  0.95012000  0.65356000  1.0
  C  C104  1  0.63866000  0.22018000  0.31354000  1.0
  C  C105  1  0.36134000  0.77980000  0.68648000  1.0
  C  C106  1  0.79422000  0.03716000  0.33950000  1.0
  C  C107  1  0.20579000  0.96284000  0.66051000  1.0
  C  C108  1  0.32598000  0.20617000  0.21662000  1.0
  C  C109  1  0.67402000  0.79383000  0.78337000  1.0
  C  C110  1  0.19759000  0.47852000  0.54243000  1.0
  C  C111  1  0.80241000  0.52149000  0.45756000  1.0
  C  C112  1  0.17208000  0.10361000  0.35954000  1.0
  C  C113  1  0.82793000  0.89641000  0.64046000  1.0
  C  C114  1  0.82613000  0.20577000  0.21802000  1.0
  C  C115  1  0.17387000  0.79424000  0.78199000  1.0
  C  C116  1  0.37673000  0.10005000  0.27626000  1.0
  C  C117  1  0.62328000  0.89994000  0.72373000  1.0
  C  C118  1  0.71177000  0.27123000  0.24219000  1.0
  C  C119  1  0.28822000  0.72878000  0.75782000  1.0
  C  C120  1  0.43508000  0.56885000  0.35819000  1.0
  C  C121  1  0.56493000  0.43114000  0.64181000  1.0
  C  C122  1  0.19788000  0.56279000  0.58146000  1.0
  C  C123  1  0.80211000  0.43721000  0.41854000  1.0
  C  C124  1  0.86771000  0.08884000  0.26852000  1.0
  C  C125  1  0.13230000  0.91117000  0.73148000  1.0
  C  C126  1  0.23466000  0.43785000  0.40690000  1.0
  C  C127  1  0.76534000  0.56215000  0.59310000  1.0
  C  C128  1  0.52274000  0.11436000  0.48254000  1.0
  C  C129  1  0.47725000  0.88563000  0.51748000  1.0
  C  C130  1  0.56649000  0.92998000  0.45314000  1.0
  C  C131  1  0.43351000  0.07002000  0.54686000  1.0
  C  C132  1  0.36865000  0.55522000  0.43457000  1.0
  C  C133  1  0.63135000  0.44478000  0.56543000  1.0
  C  C134  1  0.14145000  0.54922000  0.66043000  1.0
  C  C135  1  0.85854000  0.45077000  0.33957000  1.0
  C  C136  1  0.40540000  0.25833000  0.13889000  1.0
  C  C137  1  0.59461000  0.74166000  0.86110000  1.0
  C  C138  1  0.13630000  0.38040000  0.58591000  1.0
  C  C139  1  0.86369000  0.61960000  0.41409000  1.0
  C  C140  1  0.30153000  0.44962000  0.33057000  1.0
  C  C141  1  0.69847000  0.55038000  0.66942000  1.0
  C  C142  1  0.05453000  0.48470000  0.83702000  1.0
  C  C143  1  0.94547000  0.51531000  0.16298000  1.0
  C  C144  1  0.07943000  0.36599000  0.66499000  1.0
  C  C145  1  0.92057000  0.63401000  0.33501000  1.0
  C  C146  1  0.56666000  0.77480000  0.39791000  1.0
  C  C147  1  0.43333000  0.22518000  0.60211000  1.0
  C  C148  1  0.14103000  0.83491000  0.36220000  1.0
  C  C149  1  0.85897000  0.16510000  0.63779000  1.0
  N  N150  1  0.97580000  0.46072000  0.90465000  1.0
  N  N151  1  0.02421000  0.53927000  0.09535000  1.0
  N  N152  1  0.51423000  0.53275000  0.09873000  1.0
  N  N153  1  0.48576000  0.46724000  0.90127000  1.0
  N  N154  1  0.02193000  0.43792000  0.78268000  1.0
  N  N155  1  0.97807000  0.56207000  0.21732000  1.0
  N  N156  1  0.46699000  0.53513000  0.22599000  1.0
  N  N157  1  0.53301000  0.46488000  0.77401000  1.0
  O  O158  1  0.35088000  0.35218000  0.08472000  1.0
  O  O159  1  0.64913000  0.64783000  0.91527000  1.0
  O  O160  1  0.52261000  0.20912000  0.13236000  1.0
  O  O161  1  0.47741000  0.79086000  0.86764000  1.0
  O  O162  1  0.35931000  0.63612000  0.97301000  1.0
  O  O163  1  0.64070000  0.36387000  0.02699000  1.0
  O  O164  1  0.86143000  0.63938000  0.97721000  1.0
  O  O165  1  0.13857000  0.36061000  0.02280000  1.0
  O  O166  1  0.01366000  0.20494000  0.12540000  1.0
  O  O167  1  0.98632000  0.79508000  0.87459000  1.0
  O  O168  1  0.84996000  0.36227000  0.09139000  1.0
  O  O169  1  0.15004000  0.63773000  0.90861000  1.0
  O  O170  1  0.62782000  0.86614000  0.40261000  1.0
  O  O171  1  0.37217000  0.13386000  0.59739000  1.0
  O  O172  1  0.17684000  0.84258000  0.43685000  1.0
  O  O173  1  0.82316000  0.15745000  0.56314000  1.0
