# generated using pymatgen
data_CoH30C32(NO5)2
_symmetry_space_group_name_H-M   'P 1'
_cell_length_a   5.41472000
_cell_length_b   10.17920000
_cell_length_c   13.23780000
_cell_angle_alpha   97.09030000
_cell_angle_beta   96.37630000
_cell_angle_gamma   99.60370000
_symmetry_Int_Tables_number   1
_chemical_formula_structural   CoH30C32(NO5)2
_chemical_formula_sum   'Co1 H30 C32 N2 O10'
_cell_volume   707.41583674
_cell_formula_units_Z   1
loop_
 _symmetry_equiv_pos_site_id
 _symmetry_equiv_pos_as_xyz
  1  'x, y, z'
loop_
 _atom_site_type_symbol
 _atom_site_label
 _atom_site_symmetry_multiplicity
 _atom_site_fract_x
 _atom_site_fract_y
 _atom_site_fract_z
 _atom_site_occupancy
  Co  Co0  1  0.50000000  0.50000000  0.50001000  1.0
  H  H1  1  0.88245000  0.07259000  0.53995000  1.0
  H  H2  1  0.11759000  0.92742000  0.46004000  1.0
  H  H3  1  0.03843000  0.21654000  0.62634000  1.0
  H  H4  1  0.96157000  0.78347000  0.37366000  1.0
  H  H5  1  0.58283000  0.01451000  0.66293000  1.0
  H  H6  1  0.41718000  0.98548000  0.33705000  1.0
  H  H7  1  0.24345000  0.03528000  0.98066000  1.0
  H  H8  1  0.75651000  0.96472000  0.01933000  1.0
  H  H9  1  0.44379000  0.85098000  0.89865000  1.0
  H  H10  1  0.55620000  0.14903000  0.10136000  1.0
  H  H11  1  0.34590000  0.77371000  0.71149000  1.0
  H  H12  1  0.65413000  0.22630000  0.28851000  1.0
  H  H13  1  0.03281000  0.86762000  0.60397000  1.0
  H  H14  1  0.96725000  0.13239000  0.39602000  1.0
  H  H15  1  0.91578000  0.56105000  0.37349000  1.0
  H  H16  1  0.08423000  0.43894000  0.62652000  1.0
  H  H17  1  0.95484000  0.56034000  0.19149000  1.0
  H  H18  1  0.04519000  0.43964000  0.80852000  1.0
  H  H19  1  0.17608000  0.35915000  0.12190000  1.0
  H  H20  1  0.82392000  0.64088000  0.87811000  1.0
  H  H21  1  0.15983000  0.37973000  0.30940000  1.0
  H  H22  1  0.84016000  0.62030000  0.69061000  1.0
  H  H23  1  0.78480000  0.49761000  0.01692000  1.0
  H  H24  1  0.21521000  0.50238000  0.98309000  1.0
  H  H25  1  0.54496000  0.35392000  0.98743000  1.0
  H  H26  1  0.45505000  0.64607000  0.01258000  1.0
  H  H27  1  0.04432000  0.35626000  0.49288000  1.0
  H  H28  1  0.95568000  0.64374000  0.50713000  1.0
  H  H29  1  0.28469000  0.27430000  0.49864000  1.0
  H  H30  1  0.71531000  0.72569000  0.50136000  1.0
  C  C31  1  0.66298000  0.22710000  0.55321000  1.0
  C  C32  1  0.33702000  0.77289000  0.44678000  1.0
  C  C33  1  0.85466000  0.15080000  0.60075000  1.0
  C  C34  1  0.14535000  0.84920000  0.39924000  1.0
  C  C35  1  0.76978000  0.07836000  0.68789000  1.0
  C  C36  1  0.23021000  0.92163000  0.31209000  1.0
  C  C37  1  0.96123000  0.00282000  0.73221000  1.0
  C  C38  1  0.03876000  0.99717000  0.26778000  1.0
  C  C39  1  0.02576000  0.05057000  0.83679000  1.0
  C  C40  1  0.97422000  0.94943000  0.16320000  1.0
  C  C41  1  0.19954000  0.99822000  0.89879000  1.0
  C  C42  1  0.80043000  0.00178000  0.10120000  1.0
  C  C43  1  0.31126000  0.89661000  0.85262000  1.0
  C  C44  1  0.68873000  0.10340000  0.14738000  1.0
  C  C45  1  0.25277000  0.85123000  0.74681000  1.0
  C  C46  1  0.74725000  0.14878000  0.25318000  1.0
  C  C47  1  0.07739000  0.90402000  0.68562000  1.0
  C  C48  1  0.92264000  0.09598000  0.31438000  1.0
  C  C49  1  0.88869000  0.16076000  0.86276000  1.0
  C  C50  1  0.11127000  0.83923000  0.13723000  1.0
  C  C51  1  0.75047000  0.52193000  0.31700000  1.0
  C  C52  1  0.24954000  0.47808000  0.68302000  1.0
  C  C53  1  0.77289000  0.51877000  0.21331000  1.0
  C  C54  1  0.22713000  0.48123000  0.78670000  1.0
  C  C55  1  0.56697000  0.46239000  0.13863000  1.0
  C  C56  1  0.43304000  0.53761000  0.86138000  1.0
  C  C57  1  0.34349000  0.40919000  0.17510000  1.0
  C  C58  1  0.65651000  0.59083000  0.82492000  1.0
  C  C59  1  0.33174000  0.41984000  0.28011000  1.0
  C  C60  1  0.66826000  0.58018000  0.71991000  1.0
  C  C61  1  0.58812000  0.45874000  0.02617000  1.0
  C  C62  1  0.41189000  0.54126000  0.97384000  1.0
  N  N63  1  0.53111000  0.47725000  0.35226000  1.0
  N  N64  1  0.46889000  0.52276000  0.64775000  1.0
  O  O65  1  0.75003000  0.33922000  0.52340000  1.0
  O  O66  1  0.24996000  0.66078000  0.47660000  1.0
  O  O67  1  0.43092000  0.17519000  0.54347000  1.0
  O  O68  1  0.56908000  0.82480000  0.45651000  1.0
  O  O69  1  0.74024000  0.17596000  0.77494000  1.0
  O  O70  1  0.25972000  0.82402000  0.22504000  1.0
  O  O71  1  0.89579000  0.23311000  0.94425000  1.0
  O  O72  1  0.10414000  0.76688000  0.05575000  1.0
  O  O73  1  0.21284000  0.35167000  0.46918000  1.0
  O  O74  1  0.78715000  0.64833000  0.53083000  1.0
