# generated using pymatgen
data_ZnH8C20N4(O3F2)2
_symmetry_space_group_name_H-M   'P 1'
_cell_length_a   5.34201000
_cell_length_b   11.63260000
_cell_length_c   16.61260000
_cell_angle_alpha   95.65090000
_cell_angle_beta   90.00000000
_cell_angle_gamma   90.00000000
_symmetry_Int_Tables_number   1
_chemical_formula_structural   ZnH8C20N4(O3F2)2
_chemical_formula_sum   'Zn2 H16 C40 N8 O12 F8'
_cell_volume   1027.31450759
_cell_formula_units_Z   2
loop_
 _symmetry_equiv_pos_site_id
 _symmetry_equiv_pos_as_xyz
  1  'x, y, z'
loop_
 _atom_site_type_symbol
 _atom_site_label
 _atom_site_symmetry_multiplicity
 _atom_site_fract_x
 _atom_site_fract_y
 _atom_site_fract_z
 _atom_site_occupancy
  Zn  Zn0  1  0.68949000  0.50000000  0.75000000  1.0
  Zn  Zn1  1  0.31051000  0.50000000  0.25000000  1.0
  H  H2  1  0.03969000  0.31516000  0.68283000  1.0
  H  H3  1  0.96032000  0.31516000  0.18283000  1.0
  H  H4  1  0.96031000  0.68484000  0.31717000  1.0
  H  H5  1  0.03969000  0.68484000  0.81717000  1.0
  H  H6  1  0.36437000  0.18889000  0.73792000  1.0
  H  H7  1  0.63563000  0.18888000  0.23792000  1.0
  H  H8  1  0.63564000  0.81112000  0.26208000  1.0
  H  H9  1  0.36437000  0.81112000  0.76208000  1.0
  H  H10  1  0.80512000  0.43672000  0.91402000  1.0
  H  H11  1  0.19488000  0.43672000  0.41402000  1.0
  H  H12  1  0.19486000  0.56327000  0.08598000  1.0
  H  H13  1  0.80513000  0.56327000  0.58598000  1.0
  H  H14  1  0.12091000  0.31913000  0.97850000  1.0
  H  H15  1  0.87910000  0.31913000  0.47850000  1.0
  H  H16  1  0.87909000  0.68088000  0.02150000  1.0
  H  H17  1  0.12091000  0.68087000  0.52150000  1.0
  C  C18  1  0.06472000  0.31256000  0.74760000  1.0
  C  C19  1  0.93528000  0.31256000  0.24759000  1.0
  C  C20  1  0.93527000  0.68744000  0.25241000  1.0
  C  C21  1  0.06473000  0.68744000  0.75241000  1.0
  C  C22  1  0.24401000  0.24306000  0.77852000  1.0
  C  C23  1  0.75599000  0.24306000  0.27853000  1.0
  C  C24  1  0.75600000  0.75695000  0.22148000  1.0
  C  C25  1  0.24400000  0.75695000  0.72147000  1.0
  C  C26  1  0.93221000  0.38124000  0.87685000  1.0
  C  C27  1  0.06779000  0.38124000  0.37685000  1.0
  C  C28  1  0.06778000  0.61877000  0.12315000  1.0
  C  C29  1  0.93222000  0.61876000  0.62315000  1.0
  C  C30  1  0.10720000  0.31494000  0.91286000  1.0
  C  C31  1  0.89280000  0.31494000  0.41286000  1.0
  C  C32  1  0.89280000  0.68507000  0.08715000  1.0
  C  C33  1  0.10720000  0.68506000  0.58714000  1.0
  C  C34  1  0.26926000  0.24410000  0.86299000  1.0
  C  C35  1  0.73074000  0.24410000  0.36299000  1.0
  C  C36  1  0.73075000  0.75591000  0.13701000  1.0
  C  C37  1  0.26926000  0.75591000  0.63701000  1.0
  C  C38  1  0.45319000  0.17619000  0.89662000  1.0
  C  C39  1  0.54681000  0.17619000  0.39662000  1.0
  C  C40  1  0.54683000  0.82382000  0.10339000  1.0
  C  C41  1  0.45317000  0.82381000  0.60339000  1.0
  C  C42  1  0.61489000  0.11943000  0.92602000  1.0
  C  C43  1  0.38511000  0.11943000  0.42602000  1.0
  C  C44  1  0.38510000  0.88058000  0.07398000  1.0
  C  C45  1  0.61490000  0.88058000  0.57397000  1.0
  C  C46  1  0.80386000  0.05896000  0.96251000  1.0
  C  C47  1  0.19614000  0.05896000  0.46251000  1.0
  C  C48  1  0.19614000  0.94104000  0.03750000  1.0
  C  C49  1  0.80386000  0.94104000  0.53749000  1.0
  C  C50  1  0.97255000  0.98609000  0.91644000  1.0
  C  C51  1  0.02744000  0.98609000  0.41643000  1.0
  C  C52  1  0.02743000  0.01392000  0.08357000  1.0
  C  C53  1  0.97256000  0.01391000  0.58356000  1.0
  C  C54  1  0.83661000  0.07053000  0.04715000  1.0
  C  C55  1  0.16338000  0.07053000  0.54715000  1.0
  C  C56  1  0.16338000  0.92947000  0.95285000  1.0
  C  C57  1  0.83662000  0.92947000  0.45285000  1.0
  N  N58  1  0.48957000  0.39855000  0.60241000  1.0
  N  N59  1  0.51043000  0.39855000  0.10241000  1.0
  N  N60  1  0.51043000  0.60144000  0.39758000  1.0
  N  N61  1  0.48957000  0.60144000  0.89758000  1.0
  N  N62  1  0.91090000  0.38113000  0.79581000  1.0
  N  N63  1  0.08910000  0.38113000  0.29581000  1.0
  N  N64  1  0.08909000  0.61887000  0.20419000  1.0
  N  N65  1  0.91091000  0.61887000  0.70419000  1.0
  O  O66  1  0.42239000  0.47014000  0.66503000  1.0
  O  O67  1  0.57761000  0.47014000  0.16503000  1.0
  O  O68  1  0.57760000  0.52985000  0.33497000  1.0
  O  O69  1  0.42240000  0.52985000  0.83497000  1.0
  O  O70  1  0.34130000  0.38164000  0.54522000  1.0
  O  O71  1  0.65870000  0.38165000  0.04522000  1.0
  O  O72  1  0.65872000  0.61835000  0.45478000  1.0
  O  O73  1  0.34129000  0.61835000  0.95478000  1.0
  O  O74  1  0.70152000  0.35148000  0.60443000  1.0
  O  O75  1  0.29848000  0.35148000  0.10443000  1.0
  O  O76  1  0.29849000  0.64852000  0.39557000  1.0
  O  O77  1  0.70151000  0.64852000  0.89557000  1.0
  F  F78  1  0.95026000  0.97307000  0.83525000  1.0
  F  F79  1  0.04974000  0.97307000  0.33524000  1.0
  F  F80  1  0.04972000  0.02694000  0.16476000  1.0
  F  F81  1  0.95027000  0.02693000  0.66475000  1.0
  F  F82  1  0.67492000  0.13640000  0.09381000  1.0
  F  F83  1  0.32507000  0.13640000  0.59381000  1.0
  F  F84  1  0.32507000  0.86360000  0.90619000  1.0
  F  F85  1  0.67493000  0.86360000  0.40618000  1.0
