# generated using pymatgen
data_CuH13C16NO4
_symmetry_space_group_name_H-M   'P 1'
_cell_length_a   9.87701000
_cell_length_b   24.15540000
_cell_length_c   24.15400000
_cell_angle_alpha   118.17200000
_cell_angle_beta   97.83130000
_cell_angle_gamma   97.83660000
_symmetry_Int_Tables_number   1
_chemical_formula_structural   CuH13C16NO4
_chemical_formula_sum   'Cu6 H78 C96 N6 O24'
_cell_volume   4897.99890110
_cell_formula_units_Z   6
loop_
 _symmetry_equiv_pos_site_id
 _symmetry_equiv_pos_as_xyz
  1  'x, y, z'
loop_
 _atom_site_type_symbol
 _atom_site_label
 _atom_site_symmetry_multiplicity
 _atom_site_fract_x
 _atom_site_fract_y
 _atom_site_fract_z
 _atom_site_occupancy
  Cu  Cu0  1  0.08143000  0.55360000  0.51456000  1.0
  Cu  Cu1  1  0.52782000  0.96096000  0.44640000  1.0
  Cu  Cu2  1  0.56683000  0.48543000  0.03904000  1.0
  Cu  Cu3  1  0.91857000  0.44640000  0.48544000  1.0
  Cu  Cu4  1  0.47218000  0.03904000  0.55360000  1.0
  Cu  Cu5  1  0.43317000  0.51457000  0.96096000  1.0
  H  H6  1  0.21693000  0.32431000  0.44595000  1.0
  H  H7  1  0.89259000  0.12160000  0.67568000  1.0
  H  H8  1  0.77099000  0.55409000  0.87840000  1.0
  H  H9  1  0.78306000  0.67569000  0.55404000  1.0
  H  H10  1  0.10741000  0.87840000  0.32432000  1.0
  H  H11  1  0.22901000  0.44591000  0.12161000  1.0
  H  H12  1  0.42159000  0.27367000  0.42256000  1.0
  H  H13  1  0.14787000  0.14885000  0.72631000  1.0
  H  H14  1  0.99904000  0.57742000  0.85112000  1.0
  H  H15  1  0.57841000  0.72633000  0.57744000  1.0
  H  H16  1  0.85213000  0.85115000  0.27369000  1.0
  H  H17  1  0.00095000  0.42258000  0.14888000  1.0
  H  H18  1  0.62065000  0.42884000  0.39933000  1.0
  H  H19  1  0.19178000  0.97048000  0.57114000  1.0
  H  H20  1  0.22133000  0.60066000  0.02952000  1.0
  H  H21  1  0.37935000  0.57116000  0.60067000  1.0
  H  H22  1  0.80822000  0.02953000  0.42885000  1.0
  H  H23  1  0.77867000  0.39934000  0.97048000  1.0
  H  H24  1  0.41866000  0.48070000  0.42560000  1.0
  H  H25  1  0.93793000  0.94488000  0.51927000  1.0
  H  H26  1  0.99308000  0.57438000  0.05511000  1.0
  H  H27  1  0.58133000  0.51930000  0.57439000  1.0
  H  H28  1  0.06206000  0.05512000  0.48073000  1.0
  H  H29  1  0.00693000  0.42562000  0.94490000  1.0
  H  H30  1  0.63054000  0.26760000  0.38314000  1.0
  H  H31  1  0.36291000  0.11550000  0.73240000  1.0
  H  H32  1  0.24740000  0.61685000  0.88447000  1.0
  H  H33  1  0.36946000  0.73240000  0.61685000  1.0
  H  H34  1  0.63708000  0.88449000  0.26760000  1.0
  H  H35  1  0.75258000  0.38315000  0.11553000  1.0
  H  H36  1  0.70602000  0.32444000  0.36205000  1.0
  H  H37  1  0.38159000  0.03759000  0.67557000  1.0
  H  H38  1  0.34398000  0.63794000  0.96239000  1.0
  H  H39  1  0.29397000  0.67557000  0.63795000  1.0
  H  H40  1  0.61841000  0.96240000  0.32443000  1.0
  H  H41  1  0.65602000  0.36206000  0.03761000  1.0
  H  H42  1  0.72721000  0.36703000  0.49796000  1.0
  H  H43  1  0.36009000  0.13089000  0.63297000  1.0
  H  H44  1  0.22926000  0.50205000  0.86909000  1.0
  H  H45  1  0.27279000  0.63297000  0.50204000  1.0
  H  H46  1  0.63992000  0.86911000  0.36704000  1.0
  H  H47  1  0.77074000  0.49796000  0.13091000  1.0
  H  H48  1  0.91324000  0.29411000  0.42114000  1.0
  H  H49  1  0.61907000  0.12705000  0.70591000  1.0
  H  H50  1  0.49210000  0.57887000  0.87297000  1.0
  H  H51  1  0.08676000  0.70590000  0.57886000  1.0
  H  H52  1  0.38092000  0.87294000  0.29410000  1.0
  H  H53  1  0.50790000  0.42113000  0.12703000  1.0
  H  H54  1  0.95419000  0.34156000  0.50602000  1.0
  H  H55  1  0.61257000  0.16444000  0.65842000  1.0
  H  H56  1  0.44816000  0.49398000  0.83554000  1.0
  H  H57  1  0.04582000  0.65844000  0.49397000  1.0
  H  H58  1  0.38744000  0.83556000  0.34159000  1.0
  H  H59  1  0.55184000  0.50602000  0.16446000  1.0
  H  H60  1  0.75910000  0.31655000  0.56275000  1.0
  H  H61  1  0.44250000  0.24623000  0.68342000  1.0
  H  H62  1  0.19635000  0.43725000  0.75381000  1.0
  H  H63  1  0.24090000  0.68345000  0.43725000  1.0
  H  H64  1  0.55751000  0.75377000  0.31658000  1.0
  H  H65  1  0.80365000  0.56274000  0.24619000  1.0
  H  H66  1  0.63412000  0.22547000  0.57210000  1.0
  H  H67  1  0.40857000  0.34663000  0.77452000  1.0
  H  H68  1  0.06200000  0.42792000  0.65341000  1.0
  H  H69  1  0.36588000  0.77453000  0.42790000  1.0
  H  H70  1  0.59144000  0.65337000  0.22549000  1.0
  H  H71  1  0.93799000  0.57208000  0.34659000  1.0
  H  H72  1  0.68604000  0.09042000  0.38539000  1.0
  H  H73  1  0.59558000  0.29497000  0.90956000  1.0
  H  H74  1  0.30062000  0.61461000  0.70502000  1.0
  H  H75  1  0.31397000  0.90958000  0.61461000  1.0
  H  H76  1  0.40443000  0.70503000  0.09044000  1.0
  H  H77  1  0.69937000  0.38538000  0.29497000  1.0
  H  H78  1  0.81027000  0.18124000  0.37529000  1.0
  H  H79  1  0.62898000  0.19410000  0.81874000  1.0
  H  H80  1  0.43497000  0.62469000  0.80591000  1.0
  H  H81  1  0.18974000  0.81877000  0.62470000  1.0
  H  H82  1  0.37102000  0.80590000  0.18126000  1.0
  H  H83  1  0.56502000  0.37531000  0.19409000  1.0
  C  C84  1  0.18916000  0.43899000  0.45675000  1.0
  C  C85  1  0.75013000  0.01773000  0.56100000  1.0
  C  C86  1  0.73243000  0.54330000  0.98230000  1.0
  C  C87  1  0.81083000  0.56100000  0.54325000  1.0
  C  C88  1  0.24987000  0.98227000  0.43900000  1.0
  C  C89  1  0.26757000  0.45670000  0.01770000  1.0
  C  C90  1  0.30593000  0.40576000  0.43746000  1.0
  C  C91  1  0.90011000  0.03166000  0.59423000  1.0
  C  C92  1  0.86849000  0.56258000  0.96835000  1.0
  C  C93  1  0.69407000  0.59424000  0.56254000  1.0
  C  C94  1  0.09989000  0.96835000  0.40577000  1.0
  C  C95  1  0.13151000  0.43742000  0.03165000  1.0
  C  C96  1  0.30602000  0.34693000  0.43579000  1.0
  C  C97  1  0.95903000  0.08881000  0.65306000  1.0
  C  C98  1  0.87024000  0.56425000  0.91119000  1.0
  C  C99  1  0.69398000  0.65307000  0.56421000  1.0
  C  C100  1  0.04097000  0.91120000  0.34694000  1.0
  C  C101  1  0.12976000  0.43576000  0.08882000  1.0
  C  C102  1  0.42049000  0.31886000  0.42259000  1.0
  C  C103  1  0.10159000  0.10369000  0.68114000  1.0
  C  C104  1  0.99791000  0.57741000  0.89629000  1.0
  C  C105  1  0.57951000  0.68114000  0.57741000  1.0
  C  C106  1  0.89841000  0.89631000  0.31886000  1.0
  C  C107  1  0.00208000  0.42259000  0.10372000  1.0
  C  C108  1  0.53503000  0.34815000  0.40953000  1.0
  C  C109  1  0.18683000  0.06134000  0.65185000  1.0
  C  C110  1  0.12550000  0.59046000  0.93863000  1.0
  C  C111  1  0.46497000  0.65185000  0.59047000  1.0
  C  C112  1  0.81317000  0.93866000  0.34815000  1.0
  C  C113  1  0.87450000  0.40954000  0.06137000  1.0
  C  C114  1  0.53183000  0.40584000  0.40920000  1.0
  C  C115  1  0.12595000  0.00333000  0.59415000  1.0
  C  C116  1  0.12265000  0.59079000  0.99665000  1.0
  C  C117  1  0.46817000  0.59416000  0.59080000  1.0
  C  C118  1  0.87405000  0.99667000  0.40584000  1.0
  C  C119  1  0.87735000  0.40921000  0.00335000  1.0
  C  C120  1  0.41932000  0.43481000  0.42375000  1.0
  C  C121  1  0.98445000  0.98890000  0.56517000  1.0
  C  C122  1  0.99559000  0.57625000  0.01109000  1.0
  C  C123  1  0.58068000  0.56519000  0.57625000  1.0
  C  C124  1  0.01555000  0.01110000  0.43483000  1.0
  C  C125  1  0.00442000  0.42375000  0.98892000  1.0
  C  C126  1  0.66198000  0.31950000  0.39936000  1.0
  C  C127  1  0.34244000  0.07983000  0.68050000  1.0
  C  C128  1  0.26263000  0.60064000  0.92015000  1.0
  C  C129  1  0.33802000  0.68050000  0.60064000  1.0
  C  C130  1  0.65755000  0.92017000  0.31950000  1.0
  C  C131  1  0.73736000  0.39936000  0.07985000  1.0
  C  C132  1  0.86725000  0.31083000  0.46355000  1.0
  C  C133  1  0.55635000  0.15272000  0.68916000  1.0
  C  C134  1  0.40369000  0.53645000  0.84728000  1.0
  C  C135  1  0.13276000  0.68917000  0.53644000  1.0
  C  C136  1  0.44366000  0.84727000  0.31084000  1.0
  C  C137  1  0.59630000  0.46355000  0.15272000  1.0
  C  C138  1  0.79342000  0.25494000  0.46835000  1.0
  C  C139  1  0.53838000  0.21341000  0.74503000  1.0
  C  C140  1  0.32503000  0.53166000  0.78660000  1.0
  C  C141  1  0.20659000  0.74506000  0.53165000  1.0
  C  C142  1  0.46162000  0.78658000  0.25497000  1.0
  C  C143  1  0.67496000  0.46834000  0.21340000  1.0
  C  C144  1  0.74240000  0.26688000  0.52350000  1.0
  C  C145  1  0.47542000  0.25662000  0.73310000  1.0
  C  C146  1  0.21886000  0.47652000  0.74341000  1.0
  C  C147  1  0.25761000  0.73312000  0.47650000  1.0
  C  C148  1  0.52458000  0.74338000  0.26691000  1.0
  C  C149  1  0.78114000  0.52348000  0.25659000  1.0
  C  C150  1  0.67260000  0.21641000  0.52910000  1.0
  C  C151  1  0.45607000  0.31269000  0.78359000  1.0
  C  C152  1  0.14343000  0.47093000  0.68734000  1.0
  C  C153  1  0.32740000  0.78360000  0.47090000  1.0
  C  C154  1  0.54393000  0.68730000  0.21642000  1.0
  C  C155  1  0.85657000  0.52907000  0.31266000  1.0
  C  C156  1  0.65317000  0.15245000  0.47942000  1.0
  C  C157  1  0.50056000  0.32697000  0.84754000  1.0
  C  C158  1  0.17363000  0.52059000  0.67304000  1.0
  C  C159  1  0.34684000  0.84755000  0.52057000  1.0
  C  C160  1  0.49945000  0.67303000  0.15246000  1.0
  C  C161  1  0.82636000  0.47940000  0.32695000  1.0
  C  C162  1  0.70216000  0.14016000  0.42387000  1.0
  C  C163  1  0.56189000  0.28371000  0.85982000  1.0
  C  C164  1  0.27822000  0.57614000  0.71629000  1.0
  C  C165  1  0.29785000  0.85984000  0.57613000  1.0
  C  C166  1  0.43812000  0.71629000  0.14019000  1.0
  C  C167  1  0.72177000  0.42386000  0.28370000  1.0
  C  C168  1  0.77139000  0.19108000  0.41850000  1.0
  C  C169  1  0.58022000  0.22745000  0.80891000  1.0
  C  C170  1  0.35285000  0.58150000  0.77256000  1.0
  C  C171  1  0.22862000  0.80893000  0.58150000  1.0
  C  C172  1  0.41978000  0.77255000  0.19110000  1.0
  C  C173  1  0.64714000  0.41850000  0.22743000  1.0
  C  C174  1  0.58769000  0.09761000  0.48711000  1.0
  C  C175  1  0.49002000  0.38950000  0.90239000  1.0
  C  C176  1  0.10048000  0.51289000  0.61052000  1.0
  C  C177  1  0.41231000  0.90239000  0.51289000  1.0
  C  C178  1  0.50999000  0.61050000  0.09761000  1.0
  C  C179  1  0.89951000  0.48711000  0.38948000  1.0
  N  N180  1  0.77455000  0.35294000  0.45980000  1.0
  N  N181  1  0.42156000  0.10683000  0.64705000  1.0
  N  N182  1  0.31477000  0.54020000  0.89316000  1.0
  N  N183  1  0.22545000  0.64706000  0.54020000  1.0
  N  N184  1  0.57844000  0.89317000  0.35295000  1.0
  N  N185  1  0.68523000  0.45980000  0.10684000  1.0
  O  O186  1  0.21473000  0.49930000  0.47604000  1.0
  O  O187  1  0.71538000  0.97672000  0.50069000  1.0
  O  O188  1  0.73868000  0.52402000  0.02333000  1.0
  O  O189  1  0.78527000  0.50070000  0.52396000  1.0
  O  O190  1  0.28461000  0.02328000  0.49931000  1.0
  O  O191  1  0.26132000  0.47598000  0.97667000  1.0
  O  O192  1  0.07487000  0.40495000  0.45393000  1.0
  O  O193  1  0.66990000  0.04898000  0.59504000  1.0
  O  O194  1  0.62097000  0.54612000  0.95107000  1.0
  O  O195  1  0.92513000  0.59505000  0.54607000  1.0
  O  O196  1  0.33009000  0.95103000  0.40496000  1.0
  O  O197  1  0.37903000  0.45388000  0.04894000  1.0
  O  O198  1  0.54256000  0.11139000  0.53804000  1.0
  O  O199  1  0.43130000  0.42670000  0.88862000  1.0
  O  O200  1  0.00442000  0.46195000  0.57336000  1.0
  O  O201  1  0.45744000  0.88862000  0.46195000  1.0
  O  O202  1  0.56871000  0.57330000  0.11138000  1.0
  O  O203  1  0.99557000  0.53804000  0.42664000  1.0
  O  O204  1  0.58609000  0.04102000  0.44236000  1.0
  O  O205  1  0.54492000  0.40132000  0.95899000  1.0
  O  O206  1  0.14362000  0.55762000  0.59864000  1.0
  O  O207  1  0.41391000  0.95899000  0.55763000  1.0
  O  O208  1  0.45508000  0.59868000  0.04102000  1.0
  O  O209  1  0.85637000  0.44238000  0.40136000  1.0
