# generated using pymatgen
data_H14PbC18S(NO4)2
_symmetry_space_group_name_H-M   'P 1'
_cell_length_a   7.68571000
_cell_length_b   9.76790000
_cell_length_c   12.32990000
_cell_angle_alpha   76.12670000
_cell_angle_beta   86.06440000
_cell_angle_gamma   89.57470000
_symmetry_Int_Tables_number   1
_chemical_formula_structural   H14PbC18S(NO4)2
_chemical_formula_sum   'H28 Pb2 C36 S2 N4 O16'
_cell_volume   896.48483066
_cell_formula_units_Z   2
loop_
 _symmetry_equiv_pos_site_id
 _symmetry_equiv_pos_as_xyz
  1  'x, y, z'
loop_
 _atom_site_type_symbol
 _atom_site_label
 _atom_site_symmetry_multiplicity
 _atom_site_fract_x
 _atom_site_fract_y
 _atom_site_fract_z
 _atom_site_occupancy
  H  H0  1  0.21685000  0.32462000  0.45812000  1.0
  H  H1  1  0.78314000  0.67540000  0.54189000  1.0
  H  H2  1  0.90120000  0.97532000  0.11078000  1.0
  H  H3  1  0.09881000  0.02469000  0.88922000  1.0
  H  H4  1  0.80640000  0.98941000  0.99972000  1.0
  H  H5  1  0.19362000  0.01062000  0.00028000  1.0
  H  H6  1  0.88606000  0.46281000  0.33049000  1.0
  H  H7  1  0.11395000  0.53716000  0.66950000  1.0
  H  H8  1  0.02201000  0.24125000  0.30224000  1.0
  H  H9  1  0.97799000  0.75871000  0.69773000  1.0
  H  H10  1  0.99924000  0.17926000  0.11683000  1.0
  H  H11  1  0.00073000  0.82074000  0.88313000  1.0
  H  H12  1  0.83974000  0.33997000  0.96901000  1.0
  H  H13  1  0.16020000  0.66001000  0.03097000  1.0
  H  H14  1  0.70445000  0.47790000  0.85592000  1.0
  H  H15  1  0.29550000  0.52210000  0.14408000  1.0
  H  H16  1  0.56790000  0.66496000  0.72041000  1.0
  H  H17  1  0.43200000  0.33503000  0.27960000  1.0
  H  H18  1  0.46816000  0.88866000  0.77909000  1.0
  H  H19  1  0.53180000  0.11133000  0.22093000  1.0
  H  H20  1  0.50825000  0.90237000  0.97351000  1.0
  H  H21  1  0.49179000  0.09766000  0.02648000  1.0
  H  H22  1  0.16135000  0.05255000  0.31694000  1.0
  H  H23  1  0.83875000  0.94747000  0.68306000  1.0
  H  H24  1  0.36279000  0.87401000  0.63620000  1.0
  H  H25  1  0.63725000  0.12599000  0.36380000  1.0
  H  H26  1  0.39708000  0.64269000  0.58489000  1.0
  H  H27  1  0.60290000  0.35732000  0.41510000  1.0
  Pb  Pb28  1  0.65956000  0.73448000  0.21831000  1.0
  Pb  Pb29  1  0.34050000  0.26556000  0.78175000  1.0
  C  C30  1  0.87566000  0.43044000  0.25228000  1.0
  C  C31  1  0.12433000  0.56954000  0.74770000  1.0
  C  C32  1  0.95141000  0.30675000  0.23569000  1.0
  C  C33  1  0.04857000  0.69321000  0.76428000  1.0
  C  C34  1  0.93815000  0.27385000  0.13273000  1.0
  C  C35  1  0.06180000  0.72613000  0.86725000  1.0
  C  C36  1  0.84983000  0.36427000  0.04998000  1.0
  C  C37  1  0.15017000  0.63576000  0.94999000  1.0
  C  C38  1  0.77585000  0.48670000  0.07247000  1.0
  C  C39  1  0.22413000  0.51331000  0.92752000  1.0
  C  C40  1  0.68659000  0.59183000  0.98764000  1.0
  C  C41  1  0.31337000  0.40816000  0.01238000  1.0
  C  C42  1  0.66313000  0.57370000  0.88036000  1.0
  C  C43  1  0.33678000  0.42630000  0.11967000  1.0
  C  C44  1  0.58492000  0.68027000  0.80348000  1.0
  C  C45  1  0.41505000  0.31973000  0.19651000  1.0
  C  C46  1  0.53080000  0.80218000  0.83525000  1.0
  C  C47  1  0.46919000  0.19782000  0.16475000  1.0
  C  C48  1  0.55448000  0.81138000  0.94399000  1.0
  C  C49  1  0.44554000  0.18862000  0.05601000  1.0
  C  C50  1  0.31591000  0.56680000  0.40654000  1.0
  C  C51  1  0.68406000  0.43318000  0.59348000  1.0
  C  C52  1  0.29170000  0.71459000  0.42473000  1.0
  C  C53  1  0.70831000  0.28541000  0.57528000  1.0
  C  C54  1  0.22790000  0.83353000  0.34913000  1.0
  C  C55  1  0.77219000  0.16647000  0.65084000  1.0
  C  C56  1  0.21111000  0.96361000  0.37741000  1.0
  C  C57  1  0.78888000  0.03637000  0.62259000  1.0
  C  C58  1  0.25839000  0.97861000  0.48170000  1.0
  C  C59  1  0.74161000  0.02138000  0.51831000  1.0
  C  C60  1  0.24606000  0.11477000  0.51747000  1.0
  C  C61  1  0.75399000  0.88523000  0.48253000  1.0
  C  C62  1  0.32502000  0.86161000  0.55571000  1.0
  C  C63  1  0.67502000  0.13839000  0.44429000  1.0
  C  C64  1  0.34211000  0.73271000  0.52750000  1.0
  C  C65  1  0.65783000  0.26730000  0.47251000  1.0
  S  S66  1  0.17075000  0.82353000  0.21295000  1.0
  S  S67  1  0.82930000  0.17648000  0.78703000  1.0
  N  N68  1  0.78900000  0.51671000  0.17305000  1.0
  N  N69  1  0.21097000  0.48326000  0.82697000  1.0
  N  N70  1  0.63049000  0.70961000  0.01798000  1.0
  N  N71  1  0.36953000  0.29042000  0.98202000  1.0
  O  O72  1  0.43735000  0.54599000  0.33715000  1.0
  O  O73  1  0.56257000  0.45401000  0.66285000  1.0
  O  O74  1  0.21800000  0.47209000  0.46963000  1.0
  O  O75  1  0.78196000  0.52788000  0.53041000  1.0
  O  O76  1  0.11382000  0.96684000  0.15596000  1.0
  O  O77  1  0.88615000  0.03316000  0.84404000  1.0
  O  O78  1  0.33136000  0.78500000  0.15533000  1.0
  O  O79  1  0.66878000  0.21509000  0.84469000  1.0
  O  O80  1  0.03180000  0.71738000  0.22772000  1.0
  O  O81  1  0.96826000  0.28263000  0.77222000  1.0
  O  O82  1  0.27274000  0.11916000  0.61461000  1.0
  O  O83  1  0.72732000  0.88084000  0.38540000  1.0
  O  O84  1  0.20853000  0.22531000  0.43734000  1.0
  O  O85  1  0.79151000  0.77470000  0.56268000  1.0
  O  O86  1  0.78447000  0.97429000  0.08144000  1.0
  O  O87  1  0.21554000  0.02571000  0.91856000  1.0
