# generated using pymatgen
data_MoH48Rh4C24(N2O3)4
_symmetry_space_group_name_H-M   'P 1'
_cell_length_a   12.87360000
_cell_length_b   13.76280000
_cell_length_c   14.54640000
_cell_angle_alpha   112.60400000
_cell_angle_beta   99.02110000
_cell_angle_gamma   108.49400000
_symmetry_Int_Tables_number   1
_chemical_formula_structural   MoH48Rh4C24(N2O3)4
_chemical_formula_sum   'Mo2 H96 Rh8 C48 N16 O24'
_cell_volume   2139.03528140
_cell_formula_units_Z   2
loop_
 _symmetry_equiv_pos_site_id
 _symmetry_equiv_pos_as_xyz
  1  'x, y, z'
loop_
 _atom_site_type_symbol
 _atom_site_label
 _atom_site_symmetry_multiplicity
 _atom_site_fract_x
 _atom_site_fract_y
 _atom_site_fract_z
 _atom_site_occupancy
  Mo  Mo0  1  0.22913000  0.89119000  0.67259000  1.0
  Mo  Mo1  1  0.77088000  0.10881000  0.32741000  1.0
  H  H2  1  0.25160000  0.11654000  0.66577000  1.0
  H  H3  1  0.09497000  0.80340000  0.45138000  1.0
  H  H4  1  0.18779000  0.69397000  0.72006000  1.0
  H  H5  1  0.96790000  0.73728000  0.58615000  1.0
  H  H6  1  0.45052000  0.77253000  0.79078000  1.0
  H  H7  1  0.47861000  0.05822000  0.80687000  1.0
  H  H8  1  0.27193000  0.04456000  0.48558000  1.0
  H  H9  1  0.29055000  0.78703000  0.48090000  1.0
  H  H10  1  0.34428000  0.29685000  0.55991000  1.0
  H  H11  1  0.37779000  0.27455000  0.67081000  1.0
  H  H12  1  0.22894000  0.40549000  0.64214000  1.0
  H  H13  1  0.26803000  0.38779000  0.75558000  1.0
  H  H14  1  0.37633000  0.47250000  0.72218000  1.0
  H  H15  1  0.15820000  0.81039000  0.26167000  1.0
  H  H16  1  0.06782000  0.69975000  0.28308000  1.0
  H  H17  1  0.89350000  0.68077000  0.15496000  1.0
  H  H18  1  0.98601000  0.79075000  0.13386000  1.0
  H  H19  1  0.99852000  0.65613000  0.09400000  1.0
  H  H20  1  0.19924000  0.64859000  0.85143000  1.0
  H  H21  1  0.14097000  0.49755000  0.81358000  1.0
  H  H22  1  0.01071000  0.65525000  0.86362000  1.0
  H  H23  1  0.94528000  0.50286000  0.81672000  1.0
  H  H24  1  0.05383000  0.59360000  0.94157000  1.0
  H  H25  1  0.79775000  0.72374000  0.60524000  1.0
  H  H26  1  0.79333000  0.65782000  0.68848000  1.0
  H  H27  1  0.62479000  0.47654000  0.54363000  1.0
  H  H28  1  0.59167000  0.59978000  0.58464000  1.0
  H  H29  1  0.62338000  0.54742000  0.46502000  1.0
  H  H30  1  0.72378000  0.80194000  0.88685000  1.0
  H  H31  1  0.58596000  0.69991000  0.79343000  1.0
  H  H32  1  0.66362000  0.74755000  0.02444000  1.0
  H  H33  1  0.53097000  0.63747000  0.92712000  1.0
  H  H34  1  0.66370000  0.62871000  0.91642000  1.0
  H  H35  1  0.65151000  0.18928000  0.81560000  1.0
  H  H36  1  0.77175000  0.25381000  0.93181000  1.0
  H  H37  1  0.56027000  0.31337000  0.90876000  1.0
  H  H38  1  0.66983000  0.37274000  0.03058000  1.0
  H  H39  1  0.70423000  0.40369000  0.92846000  1.0
  H  H40  1  0.34139000  0.18087000  0.35552000  1.0
  H  H41  1  0.21358000  0.08571000  0.35890000  1.0
  H  H42  1  0.32463000  0.02568000  0.18323000  1.0
  H  H43  1  0.19577000  0.92892000  0.18466000  1.0
  H  H44  1  0.19842000  0.05392000  0.17534000  1.0
  H  H45  1  0.24326000  0.64335000  0.23582000  1.0
  H  H46  1  0.24216000  0.61904000  0.34685000  1.0
  H  H47  1  0.41929000  0.60371000  0.22684000  1.0
  H  H48  1  0.42460000  0.58378000  0.34080000  1.0
  H  H49  1  0.30688000  0.48534000  0.22360000  1.0
  H  H50  1  0.74839000  0.88346000  0.33423000  1.0
  H  H51  1  0.90503000  0.19661000  0.54861000  1.0
  H  H52  1  0.81221000  0.30603000  0.27994000  1.0
  H  H53  1  0.03210000  0.26272000  0.41385000  1.0
  H  H54  1  0.54948000  0.22748000  0.20922000  1.0
  H  H55  1  0.52139000  0.94178000  0.19313000  1.0
  H  H56  1  0.72808000  0.95544000  0.51442000  1.0
  H  H57  1  0.70945000  0.21297000  0.51910000  1.0
  H  H58  1  0.65571000  0.70315000  0.44009000  1.0
  H  H59  1  0.62221000  0.72545000  0.32918000  1.0
  H  H60  1  0.77105000  0.59451000  0.35787000  1.0
  H  H61  1  0.73196000  0.61221000  0.24442000  1.0
  H  H62  1  0.62367000  0.52751000  0.27782000  1.0
  H  H63  1  0.84180000  0.18961000  0.73833000  1.0
  H  H64  1  0.93218000  0.30025000  0.71691000  1.0
  H  H65  1  0.10651000  0.31923000  0.84503000  1.0
  H  H66  1  0.01399000  0.20926000  0.86614000  1.0
  H  H67  1  0.00150000  0.34388000  0.90600000  1.0
  H  H68  1  0.80076000  0.35141000  0.14857000  1.0
  H  H69  1  0.85903000  0.50245000  0.18642000  1.0
  H  H70  1  0.98930000  0.34475000  0.13638000  1.0
  H  H71  1  0.05471000  0.49714000  0.18328000  1.0
  H  H72  1  0.94617000  0.40640000  0.05843000  1.0
  H  H73  1  0.20225000  0.27626000  0.39476000  1.0
  H  H74  1  0.20667000  0.34218000  0.31152000  1.0
  H  H75  1  0.37521000  0.52346000  0.45638000  1.0
  H  H76  1  0.40833000  0.40023000  0.41536000  1.0
  H  H77  1  0.37662000  0.45258000  0.53498000  1.0
  H  H78  1  0.27622000  0.19806000  0.11315000  1.0
  H  H79  1  0.41404000  0.30009000  0.20657000  1.0
  H  H80  1  0.33638000  0.25245000  0.97556000  1.0
  H  H81  1  0.46903000  0.36253000  0.07288000  1.0
  H  H82  1  0.33630000  0.37128000  0.08358000  1.0
  H  H83  1  0.34849000  0.81072000  0.18440000  1.0
  H  H84  1  0.22825000  0.74619000  0.06819000  1.0
  H  H85  1  0.43973000  0.68663000  0.09124000  1.0
  H  H86  1  0.33017000  0.62726000  0.96942000  1.0
  H  H87  1  0.29577000  0.59631000  0.07154000  1.0
  H  H88  1  0.65861000  0.81913000  0.64448000  1.0
  H  H89  1  0.78642000  0.91429000  0.64110000  1.0
  H  H90  1  0.67537000  0.97432000  0.81677000  1.0
  H  H91  1  0.80423000  0.07109000  0.81534000  1.0
  H  H92  1  0.80158000  0.94608000  0.82466000  1.0
  H  H93  1  0.75674000  0.35665000  0.76418000  1.0
  H  H94  1  0.75784000  0.38096000  0.65315000  1.0
  H  H95  1  0.58071000  0.39628000  0.77316000  1.0
  H  H96  1  0.57540000  0.41622000  0.65920000  1.0
  H  H97  1  0.69313000  0.51465000  0.77640000  1.0
  Rh  Rh98  1  0.03477000  0.96805000  0.56109000  1.0
  Rh  Rh99  1  0.06889000  0.59467000  0.51923000  1.0
  Rh  Rh100  1  0.41899000  0.95088000  0.91955000  1.0
  Rh  Rh101  1  0.44265000  0.00063000  0.55913000  1.0
  Rh  Rh102  1  0.96523000  0.03195000  0.43891000  1.0
  Rh  Rh103  1  0.93111000  0.40533000  0.48077000  1.0
  Rh  Rh104  1  0.58101000  0.04912000  0.08045000  1.0
  Rh  Rh105  1  0.55735000  0.99937000  0.44087000  1.0
  C  C106  1  0.20097000  0.17988000  0.57304000  1.0
  C  C107  1  0.31282000  0.28693000  0.62324000  1.0
  C  C108  1  0.29533000  0.39451000  0.68953000  1.0
  C  C109  1  0.05012000  0.85857000  0.34951000  1.0
  C  C110  1  0.06977000  0.76907000  0.26236000  1.0
  C  C111  1  0.98208000  0.72147000  0.15493000  1.0
  C  C112  1  0.08004000  0.53856000  0.69520000  1.0
  C  C113  1  0.12032000  0.56784000  0.80950000  1.0
  C  C114  1  0.02676000  0.58046000  0.86071000  1.0
  C  C115  1  0.85264000  0.58633000  0.56182000  1.0
  C  C116  1  0.77395000  0.63979000  0.60545000  1.0
  C  C117  1  0.64608000  0.56157000  0.54650000  1.0
  C  C118  1  0.58709000  0.84891000  0.91909000  1.0
  C  C119  1  0.63235000  0.75731000  0.87777000  1.0
  C  C120  1  0.62196000  0.68843000  0.94005000  1.0
  C  C121  1  0.61708000  0.14213000  0.93543000  1.0
  C  C122  1  0.67861000  0.22935000  0.90176000  1.0
  C  C123  1  0.65168000  0.33612000  0.94514000  1.0
  C  C124  1  0.36321000  0.05082000  0.38797000  1.0
  C  C125  1  0.28860000  0.08907000  0.33117000  1.0
  C  C126  1  0.25009000  0.02041000  0.21159000  1.0
  C  C127  1  0.37600000  0.77715000  0.37559000  1.0
  C  C128  1  0.29907000  0.65025000  0.30593000  1.0
  C  C129  1  0.36666000  0.57671000  0.27228000  1.0
  C  C130  1  0.79902000  0.82012000  0.42696000  1.0
  C  C131  1  0.68717000  0.71307000  0.37676000  1.0
  C  C132  1  0.70467000  0.60549000  0.31047000  1.0
  C  C133  1  0.94987000  0.14144000  0.65048000  1.0
  C  C134  1  0.93023000  0.23093000  0.73764000  1.0
  C  C135  1  0.01793000  0.27854000  0.84507000  1.0
  C  C136  1  0.91996000  0.46143000  0.30481000  1.0
  C  C137  1  0.87968000  0.43216000  0.19051000  1.0
  C  C138  1  0.97324000  0.41954000  0.13929000  1.0
  C  C139  1  0.14736000  0.41367000  0.43818000  1.0
  C  C140  1  0.22605000  0.36021000  0.39455000  1.0
  C  C141  1  0.35392000  0.43843000  0.45351000  1.0
  C  C142  1  0.41291000  0.15109000  0.08091000  1.0
  C  C143  1  0.36765000  0.24269000  0.12223000  1.0
  C  C144  1  0.37804000  0.31157000  0.05994000  1.0
  C  C145  1  0.38292000  0.85787000  0.06457000  1.0
  C  C146  1  0.32138000  0.77065000  0.09824000  1.0
  C  C147  1  0.34832000  0.66388000  0.05486000  1.0
  C  C148  1  0.63679000  0.94918000  0.61203000  1.0
  C  C149  1  0.71140000  0.91093000  0.66883000  1.0
  C  C150  1  0.74991000  0.97959000  0.78841000  1.0
  C  C151  1  0.62400000  0.22285000  0.62441000  1.0
  C  C152  1  0.70093000  0.34975000  0.69407000  1.0
  C  C153  1  0.63334000  0.42329000  0.72772000  1.0
  N  N154  1  0.18289000  0.10343000  0.60902000  1.0
  N  N155  1  0.07003000  0.86444000  0.44362000  1.0
  N  N156  1  0.12670000  0.61417000  0.66290000  1.0
  N  N157  1  0.95115000  0.65149000  0.55923000  1.0
  N  N158  1  0.49044000  0.84145000  0.86397000  1.0
  N  N159  1  0.51298000  0.06078000  0.87694000  1.0
  N  N160  1  0.34399000  0.03666000  0.46944000  1.0
  N  N161  1  0.35717000  0.83360000  0.46256000  1.0
  N  N162  1  0.81710000  0.89657000  0.39097000  1.0
  N  N163  1  0.92996000  0.13555000  0.55638000  1.0
  N  N164  1  0.87330000  0.38583000  0.33711000  1.0
  N  N165  1  0.04885000  0.34851000  0.44077000  1.0
  N  N166  1  0.50956000  0.15855000  0.13604000  1.0
  N  N167  1  0.48702000  0.93922000  0.12306000  1.0
  N  N168  1  0.65601000  0.96334000  0.53057000  1.0
  N  N169  1  0.64283000  0.16639000  0.53744000  1.0
  O  O170  1  0.12515000  0.16747000  0.49476000  1.0
  O  O171  1  0.01493000  0.92776000  0.32784000  1.0
  O  O172  1  0.99667000  0.43782000  0.63289000  1.0
  O  O173  1  0.81968000  0.47652000  0.53032000  1.0
  O  O174  1  0.64692000  0.93245000  0.01218000  1.0
  O  O175  1  0.67040000  0.15471000  0.02531000  1.0
  O  O176  1  0.44756000  0.03634000  0.35522000  1.0
  O  O177  1  0.45754000  0.82573000  0.34473000  1.0
  O  O178  1  0.10208000  0.91587000  0.67793000  1.0
  O  O179  1  0.19195000  0.76747000  0.54898000  1.0
  O  O180  1  0.27095000  0.85710000  0.77448000  1.0
  O  O181  1  0.34286000  0.01307000  0.68069000  1.0
  O  O182  1  0.87484000  0.83253000  0.50524000  1.0
  O  O183  1  0.98506000  0.07223000  0.67216000  1.0
  O  O184  1  0.00333000  0.56218000  0.36712000  1.0
  O  O185  1  0.18033000  0.52348000  0.46969000  1.0
  O  O186  1  0.35308000  0.06756000  0.98783000  1.0
  O  O187  1  0.32960000  0.84529000  0.97470000  1.0
  O  O188  1  0.55244000  0.96366000  0.64478000  1.0
  O  O189  1  0.54246000  0.17427000  0.65527000  1.0
  O  O190  1  0.89792000  0.08414000  0.32206000  1.0
  O  O191  1  0.80805000  0.23253000  0.45102000  1.0
  O  O192  1  0.72905000  0.14290000  0.22552000  1.0
  O  O193  1  0.65714000  0.98693000  0.31931000  1.0
