# generated using pymatgen
data_CdH5C6SN3Cl2
_symmetry_space_group_name_H-M   'P 1'
_cell_length_a   3.84635000
_cell_length_b   10.82890000
_cell_length_c   22.26930000
_cell_angle_alpha   90.00020000
_cell_angle_beta   90.00020000
_cell_angle_gamma   89.99980000
_symmetry_Int_Tables_number   1
_chemical_formula_structural   CdH5C6SN3Cl2
_chemical_formula_sum   'Cd4 H20 C24 S4 N12 Cl8'
_cell_volume   927.55508276
_cell_formula_units_Z   4
loop_
 _symmetry_equiv_pos_site_id
 _symmetry_equiv_pos_as_xyz
  1  'x, y, z'
loop_
 _atom_site_type_symbol
 _atom_site_label
 _atom_site_symmetry_multiplicity
 _atom_site_fract_x
 _atom_site_fract_y
 _atom_site_fract_z
 _atom_site_occupancy
  Cd  Cd0  1  0.30303000  0.32247000  0.42760000  1.0
  Cd  Cd1  1  0.19697000  0.67752000  0.92760000  1.0
  Cd  Cd2  1  0.80304000  0.17753000  0.57240000  1.0
  Cd  Cd3  1  0.69697000  0.82247000  0.07240000  1.0
  H  H4  1  0.65634000  0.01476000  0.33245000  1.0
  H  H5  1  0.84366000  0.98524000  0.83245000  1.0
  H  H6  1  0.15635000  0.48524000  0.66755000  1.0
  H  H7  1  0.34365000  0.51476000  0.16755000  1.0
  H  H8  1  0.43182000  0.97017000  0.39542000  1.0
  H  H9  1  0.06818000  0.02983000  0.89542000  1.0
  H  H10  1  0.93182000  0.52983000  0.60458000  1.0
  H  H11  1  0.56817000  0.47017000  0.10458000  1.0
  H  H12  1  0.62261000  0.46770000  0.29791000  1.0
  H  H13  1  0.87737000  0.53230000  0.79791000  1.0
  H  H14  1  0.12263000  0.03230000  0.70209000  1.0
  H  H15  1  0.37737000  0.96770000  0.20209000  1.0
  H  H16  1  0.85998000  0.63180000  0.23058000  1.0
  H  H17  1  0.64002000  0.36820000  0.73058000  1.0
  H  H18  1  0.35999000  0.86820000  0.76942000  1.0
  H  H19  1  0.14002000  0.13180000  0.26942000  1.0
  H  H20  1  0.83051000  0.85035000  0.25484000  1.0
  H  H21  1  0.66950000  0.14965000  0.75484000  1.0
  H  H22  1  0.33052000  0.64965000  0.74516000  1.0
  H  H23  1  0.16948000  0.35035000  0.24516000  1.0
  C  C24  1  0.43952000  0.60410000  0.36261000  1.0
  C  C25  1  0.06047000  0.39590000  0.86262000  1.0
  C  C26  1  0.93953000  0.89590000  0.63739000  1.0
  C  C27  1  0.56048000  0.10410000  0.13738000  1.0
  C  C28  1  0.59738000  0.56518000  0.30881000  1.0
  C  C29  1  0.90261000  0.43482000  0.80881000  1.0
  C  C30  1  0.09739000  0.93482000  0.69119000  1.0
  C  C31  1  0.40261000  0.06518000  0.19119000  1.0
  C  C32  1  0.73054000  0.65747000  0.27230000  1.0
  C  C33  1  0.76945000  0.34253000  0.77230000  1.0
  C  C34  1  0.23055000  0.84253000  0.72770000  1.0
  C  C35  1  0.26945000  0.15747000  0.22770000  1.0
  C  C36  1  0.71329000  0.78472000  0.28598000  1.0
  C  C37  1  0.78671000  0.21528000  0.78598000  1.0
  C  C38  1  0.21330000  0.71528000  0.71402000  1.0
  C  C39  1  0.28671000  0.28473000  0.21402000  1.0
  C  C40  1  0.55260000  0.82766000  0.33810000  1.0
  C  C41  1  0.94740000  0.17234000  0.83810000  1.0
  C  C42  1  0.05260000  0.67233000  0.66190000  1.0
  C  C43  1  0.44740000  0.32766000  0.16190000  1.0
  C  C44  1  0.41549000  0.73418000  0.37725000  1.0
  C  C45  1  0.08450000  0.26582000  0.87725000  1.0
  C  C46  1  0.91549000  0.76582000  0.62275000  1.0
  C  C47  1  0.58451000  0.23418000  0.12275000  1.0
  S  S48  1  0.15725000  0.62652000  0.46004000  1.0
  S  S49  1  0.34275000  0.37348000  0.96004000  1.0
  S  S50  1  0.65725000  0.87348000  0.53996000  1.0
  S  S51  1  0.84274000  0.12652000  0.03996000  1.0
  N  N52  1  0.29833000  0.53397000  0.40700000  1.0
  N  N53  1  0.20167000  0.46603000  0.90700000  1.0
  N  N54  1  0.79834000  0.96603000  0.59300000  1.0
  N  N55  1  0.70166000  0.03397000  0.09300000  1.0
  N  N56  1  0.26274000  0.75682000  0.43042000  1.0
  N  N57  1  0.23727000  0.24317000  0.93042000  1.0
  N  N58  1  0.76273000  0.74318000  0.56958000  1.0
  N  N59  1  0.73727000  0.25683000  0.06958000  1.0
  N  N60  1  0.51462000  0.94856000  0.35338000  1.0
  N  N61  1  0.98538000  0.05144000  0.85338000  1.0
  N  N62  1  0.01461000  0.55144000  0.64662000  1.0
  N  N63  1  0.48538000  0.44856000  0.14662000  1.0
  Cl  Cl64  1  0.30056000  0.11257000  0.48826000  1.0
  Cl  Cl65  1  0.19944000  0.88743000  0.98826000  1.0
  Cl  Cl66  1  0.80056000  0.38743000  0.51174000  1.0
  Cl  Cl67  1  0.69944000  0.61257000  0.01174000  1.0
  Cl  Cl68  1  0.80204000  0.25342000  0.35805000  1.0
  Cl  Cl69  1  0.69796000  0.74658000  0.85805000  1.0
  Cl  Cl70  1  0.30204000  0.24658000  0.64195000  1.0
  Cl  Cl71  1  0.19797000  0.75342000  0.14195000  1.0
