# generated using pymatgen
data_AlH7C13BrO6
_symmetry_space_group_name_H-M   'P 1'
_cell_length_a   6.60441000
_cell_length_b   10.99411531
_cell_length_c   15.24980000
_cell_angle_alpha   88.92239552
_cell_angle_beta   78.43180000
_cell_angle_gamma   74.10345285
_symmetry_Int_Tables_number   1
_chemical_formula_structural   AlH7C13BrO6
_chemical_formula_sum   'Al2 H14 C26 Br2 O12'
_cell_volume   1042.53838221
_cell_formula_units_Z   2
loop_
 _symmetry_equiv_pos_site_id
 _symmetry_equiv_pos_as_xyz
  1  'x, y, z'
loop_
 _atom_site_type_symbol
 _atom_site_label
 _atom_site_symmetry_multiplicity
 _atom_site_fract_x
 _atom_site_fract_y
 _atom_site_fract_z
 _atom_site_occupancy
  Al  Al0  1  0.00120000  0.49549000  0.49952000  1.0
  Al  Al1  1  0.50557000  0.48879000  0.49653000  1.0
  H  H2  1  0.32995000  0.41285000  0.39397000  1.0
  H  H3  1  0.64664000  0.64400000  0.54810000  1.0
  H  H4  1  0.54848000  0.55994000  0.22227000  1.0
  H  H5  1  0.42793000  0.37052000  0.76897000  1.0
  H  H6  1  0.84093000  0.66146000  0.76806000  1.0
  H  H7  1  0.76606000  0.67475000  0.93295000  1.0
  H  H8  1  0.22000000  0.45803000  0.23002000  1.0
  H  H9  1  0.30863000  0.46518000  0.06466000  1.0
  H  H10  1  0.51463000  0.22213000  0.61791000  1.0
  H  H11  1  0.78286000  0.75293000  0.61768000  1.0
  H  H12  1  0.36875000  0.88329000  0.44298000  1.0
  H  H13  1  0.24608000  0.12037000  0.45437000  1.0
  H  H14  1  0.46452000  0.59672000  0.08916000  1.0
  H  H15  1  0.47858000  0.29682000  0.89921000  1.0
  C  C16  1  0.86085000  0.26841000  0.51605000  1.0
  C  C17  1  0.82404000  0.49475000  0.33535000  1.0
  C  C18  1  0.14086000  0.72165000  0.49819000  1.0
  C  C19  1  0.18721000  0.50143000  0.65858000  1.0
  C  C20  1  0.87806000  0.50759000  0.23680000  1.0
  C  C21  1  0.13885000  0.51361000  0.75789000  1.0
  C  C22  1  0.71596000  0.54141000  0.18730000  1.0
  C  C23  1  0.76479000  0.55104000  0.09443000  1.0
  C  C24  1  0.28033000  0.43592000  0.80560000  1.0
  C  C25  1  0.23037000  0.43659000  0.89888000  1.0
  C  C26  1  0.95184000  0.59969000  0.80462000  1.0
  C  C27  1  0.90894000  0.60534000  0.89765000  1.0
  C  C28  1  0.09276000  0.48398000  0.19190000  1.0
  C  C29  1  0.14125000  0.49031000  0.09939000  1.0
  C  C30  1  0.98187000  0.52271000  0.04702000  1.0
  C  C31  1  0.04108000  0.52240000  0.94819000  1.0
  C  C32  1  0.92723000  0.12806000  0.52316000  1.0
  C  C33  1  0.78321000  0.05898000  0.56659000  1.0
  C  C34  1  0.13697000  0.06508000  0.48343000  1.0
  C  C35  1  0.57464000  0.11943000  0.61666000  1.0
  C  C36  1  0.44652000  0.05014000  0.66409000  1.0
  C  C37  1  0.06794000  0.86173000  0.51429000  1.0
  C  C38  1  0.20658000  0.93221000  0.47804000  1.0
  C  C39  1  0.85733000  0.92334000  0.56395000  1.0
  C  C40  1  0.72321000  0.85515000  0.61470000  1.0
  C  C41  1  0.52219000  0.91612000  0.66366000  1.0
  Br  Br42  1  0.17228000  0.13799000  0.73127000  1.0
  Br  Br43  1  0.35523000  0.81656000  0.72985000  1.0
  O  O44  1  0.99518000  0.32699000  0.52774000  1.0
  O  O45  1  0.62757000  0.50590000  0.37175000  1.0
  O  O46  1  0.33305000  0.66548000  0.50494000  1.0
  O  O47  1  0.02794000  0.52777000  0.61936000  1.0
  O  O48  1  0.00539000  0.66905000  0.47825000  1.0
  O  O49  1  0.38406000  0.46556000  0.61897000  1.0
  O  O50  1  0.67995000  0.31822000  0.49479000  1.0
  O  O51  1  0.97967000  0.47175000  0.37677000  1.0
  O  O52  1  0.29673000  0.43448000  0.45756000  1.0
  O  O53  1  0.70538000  0.55381000  0.53454000  1.0
  O  O54  1  0.60228000  0.58492000  0.04766000  1.0
  O  O55  1  0.36285000  0.35049000  0.94347000  1.0
