# generated using pymatgen
data_ZnH12C18S2(IN3)2
_symmetry_space_group_name_H-M   'P 1'
_cell_length_a   9.88359000
_cell_length_b   10.34680000
_cell_length_c   11.69310000
_cell_angle_alpha   93.20780000
_cell_angle_beta   108.53100000
_cell_angle_gamma   99.53940000
_symmetry_Int_Tables_number   1
_chemical_formula_structural   ZnH12C18S2(IN3)2
_chemical_formula_sum   'Zn2 H24 C36 S4 I4 N12'
_cell_volume   1110.52987566
_cell_formula_units_Z   2
loop_
 _symmetry_equiv_pos_site_id
 _symmetry_equiv_pos_as_xyz
  1  'x, y, z'
loop_
 _atom_site_type_symbol
 _atom_site_label
 _atom_site_symmetry_multiplicity
 _atom_site_fract_x
 _atom_site_fract_y
 _atom_site_fract_z
 _atom_site_occupancy
  Zn  Zn0  1  0.69345000  0.82485000  0.51412000  1.0
  Zn  Zn1  1  0.30655000  0.17515000  0.48588000  1.0
  H  H2  1  0.27303000  0.16575000  0.08518000  1.0
  H  H3  1  0.72697000  0.83425000  0.91482000  1.0
  H  H4  1  0.22900000  0.32885000  0.93514000  1.0
  H  H5  1  0.77100000  0.67115000  0.06486000  1.0
  H  H6  1  0.31830000  0.00552000  0.18202000  1.0
  H  H7  1  0.68170000  0.99448000  0.81798000  1.0
  H  H8  1  0.20266000  0.48722000  0.37778000  1.0
  H  H9  1  0.79734000  0.51278000  0.62222000  1.0
  H  H10  1  0.28053000  0.34290000  0.24162000  1.0
  H  H11  1  0.71947000  0.65710000  0.75838000  1.0
  H  H12  1  0.76359000  0.11703000  0.19069000  1.0
  H  H13  1  0.23642000  0.88298000  0.80931000  1.0
  H  H14  1  0.70284000  0.44180000  0.22405000  1.0
  H  H15  1  0.29716000  0.55820000  0.77595000  1.0
  H  H16  1  0.12619000  0.67888000  0.42413000  1.0
  H  H17  1  0.87381000  0.32112000  0.57587000  1.0
  H  H18  1  0.40538000  0.87627000  0.35285000  1.0
  H  H19  1  0.59462000  0.12373000  0.64716000  1.0
  H  H20  1  0.83365000  0.98340000  0.36379000  1.0
  H  H21  1  0.16635000  0.01660000  0.63621000  1.0
  H  H22  1  0.59735000  0.58056000  0.34304000  1.0
  H  H23  1  0.40265000  0.41944000  0.65696000  1.0
  H  H24  1  0.00295000  0.80792000  0.53321000  1.0
  H  H25  1  0.99705000  0.19208000  0.46679000  1.0
  C  C26  1  0.49112000  0.16226000  0.07720000  1.0
  C  C27  1  0.50888000  0.83774000  0.92280000  1.0
  C  C28  1  0.55395000  0.29374000  0.94561000  1.0
  C  C29  1  0.44605000  0.70626000  0.05439000  1.0
  C  C30  1  0.95185000  0.34599000  0.06535000  1.0
  C  C31  1  0.04814000  0.65401000  0.93465000  1.0
  C  C32  1  0.35584000  0.20084000  0.04526000  1.0
  C  C33  1  0.64416000  0.79916000  0.95474000  1.0
  C  C34  1  0.33058000  0.29196000  0.96099000  1.0
  C  C35  1  0.66942000  0.70804000  0.03901000  1.0
  C  C36  1  0.53477000  0.07456000  0.17243000  1.0
  C  C37  1  0.46522000  0.92544000  0.82757000  1.0
  C  C38  1  0.43381000  0.00402000  0.21812000  1.0
  C  C39  1  0.56619000  0.99598000  0.78188000  1.0
  C  C40  1  0.98611000  0.46902000  0.24318000  1.0
  C  C41  1  0.01389000  0.53098000  0.75681000  1.0
  C  C42  1  0.12813000  0.44620000  0.28771000  1.0
  C  C43  1  0.87187000  0.55380000  0.71228000  1.0
  C  C44  1  0.17163000  0.36615000  0.21134000  1.0
  C  C45  1  0.82836000  0.63385000  0.78865000  1.0
  C  C46  1  0.68129000  0.06517000  0.22429000  1.0
  C  C47  1  0.31871000  0.93483000  0.77572000  1.0
  C  C48  1  0.92315000  0.54771000  0.31528000  1.0
  C  C49  1  0.07685000  0.45229000  0.68471000  1.0
  C  C50  1  0.77290000  0.52089000  0.29299000  1.0
  C  C51  1  0.22710000  0.47911000  0.70700000  1.0
  C  C52  1  0.00898000  0.65151000  0.40443000  1.0
  C  C53  1  0.99102000  0.34849000  0.59557000  1.0
  C  C54  1  0.48108000  0.93108000  0.31405000  1.0
  C  C55  1  0.51892000  0.06892000  0.68595000  1.0
  C  C56  1  0.72022000  0.99091000  0.32046000  1.0
  C  C57  1  0.27978000  0.00910000  0.67955000  1.0
  C  C58  1  0.71382000  0.59817000  0.35794000  1.0
  C  C59  1  0.28619000  0.40183000  0.64206000  1.0
  C  C60  1  0.94156000  0.72468000  0.46498000  1.0
  C  C61  1  0.05844000  0.27533000  0.53502000  1.0
  S  S62  1  0.84453000  0.27370000  0.91559000  1.0
  S  S63  1  0.15547000  0.72630000  0.08441000  1.0
  S  S64  1  0.67381000  0.36772000  0.87219000  1.0
  S  S65  1  0.32618000  0.63228000  0.12781000  1.0
  I  I66  1  0.46604000  0.69918000  0.54964000  1.0
  I  I67  1  0.53396000  0.30082000  0.45036000  1.0
  I  I68  1  0.89217000  0.98384000  0.68474000  1.0
  I  I69  1  0.10784000  0.01616000  0.31526000  1.0
  N  N70  1  0.59151000  0.20942000  0.02612000  1.0
  N  N71  1  0.40849000  0.79057000  0.97388000  1.0
  N  N72  1  0.89671000  0.41772000  0.13063000  1.0
  N  N73  1  0.10329000  0.58228000  0.86937000  1.0
  N  N74  1  0.08453000  0.31524000  0.09918000  1.0
  N  N75  1  0.91547000  0.68476000  0.90082000  1.0
  N  N76  1  0.42942000  0.33962000  0.91022000  1.0
  N  N77  1  0.57058000  0.66038000  0.08978000  1.0
  N  N78  1  0.62224000  0.92551000  0.36552000  1.0
  N  N79  1  0.37776000  0.07450000  0.63448000  1.0
  N  N80  1  0.79643000  0.69902000  0.44198000  1.0
  N  N81  1  0.20357000  0.30099000  0.55802000  1.0
