# generated using pymatgen
data_ZnH10C16NO6
_symmetry_space_group_name_H-M   'P 1'
_cell_length_a   9.96365000
_cell_length_b   10.85700000
_cell_length_c   14.45180000
_cell_angle_alpha   89.81890000
_cell_angle_beta   88.24530000
_cell_angle_gamma   89.55870000
_symmetry_Int_Tables_number   1
_chemical_formula_structural   ZnH10C16NO6
_chemical_formula_sum   'Zn2 H20 C32 N2 O12'
_cell_volume   1562.54238332
_cell_formula_units_Z   2
loop_
 _symmetry_equiv_pos_site_id
 _symmetry_equiv_pos_as_xyz
  1  'x, y, z'
loop_
 _atom_site_type_symbol
 _atom_site_label
 _atom_site_symmetry_multiplicity
 _atom_site_fract_x
 _atom_site_fract_y
 _atom_site_fract_z
 _atom_site_occupancy
  Zn  Zn0  1  0.35996000  0.50046000  0.50887000  1.0
  Zn  Zn1  1  0.64664000  0.50661000  0.49976000  1.0
  H  H2  1  0.86253000  0.55373000  0.70911000  1.0
  H  H3  1  0.31964000  0.09533000  0.67433000  1.0
  H  H4  1  0.20652000  0.11173000  0.58132000  1.0
  H  H5  1  0.31838000  0.86799000  0.65559000  1.0
  H  H6  1  0.68094000  0.78610000  0.34488000  1.0
  H  H7  1  0.68280000  0.92352000  0.27883000  1.0
  H  H8  1  0.80260000  0.90062000  0.36501000  1.0
  H  H9  1  0.13831000  0.66335000  0.69996000  1.0
  H  H10  1  0.78143000  0.36405000  0.77416000  1.0
  H  H11  1  0.66348000  0.24139000  0.35324000  1.0
  H  H12  1  0.79578000  0.16148000  0.40536000  1.0
  H  H13  1  0.72599000  0.10220000  0.30350000  1.0
  H  H14  1  0.13671000  0.92033000  0.49035000  1.0
  H  H15  1  0.17871000  0.77191000  0.53091000  1.0
  H  H16  1  0.08044000  0.87454000  0.60340000  1.0
  H  H17  1  0.76900000  0.54862000  0.32500000  1.0
  H  H18  1  0.18112000  0.51765000  0.27806000  1.0
  H  H19  1  0.24033000  0.34334000  0.68733000  1.0
  H  H20  1  0.12120000  0.33563000  0.78186000  1.0
  H  H21  1  0.08465000  0.26705000  0.67289000  1.0
  C  C22  1  0.51784000  0.73633000  0.47811000  1.0
  C  C23  1  0.46943000  0.46319000  0.22446000  1.0
  C  C24  1  0.41243000  0.93508000  0.52487000  1.0
  C  C25  1  0.50913000  0.87314000  0.47081000  1.0
  C  C26  1  0.60149000  0.94594000  0.41802000  1.0
  C  C27  1  0.60222000  0.07608000  0.42754000  1.0
  C  C28  1  0.51037000  0.13582000  0.49073000  1.0
  C  C29  1  0.41406000  0.06224000  0.53509000  1.0
  C  C30  1  0.29687000  0.06336000  0.60447000  1.0
  C  C31  1  0.29283000  0.91834000  0.59210000  1.0
  C  C32  1  0.92870000  0.49373000  0.57043000  1.0
  C  C33  1  0.49104000  0.52175000  0.68593000  1.0
  C  C34  1  0.94245000  0.53323000  0.41771000  1.0
  C  C35  1  0.08399000  0.53801000  0.42102000  1.0
  C  C36  1  0.06814000  0.49309000  0.57368000  1.0
  C  C37  1  0.07161000  0.46692000  0.67666000  1.0
  C  C38  1  0.90575000  0.47314000  0.67282000  1.0
  C  C39  1  0.51256000  0.27006000  0.51063000  1.0
  C  C40  1  0.47545000  0.46908000  0.32380000  1.0
  C  C41  1  0.48858000  0.50956000  0.78527000  1.0
  C  C42  1  0.48266000  0.49634000  0.86969000  1.0
  C  C43  1  0.47670000  0.48317000  0.96191000  1.0
  C  C44  1  0.47227000  0.47295000  0.04698000  1.0
  C  C45  1  0.46963000  0.46611000  0.13957000  1.0
  C  C46  1  0.69691000  0.88540000  0.34852000  1.0
  C  C47  1  0.11975000  0.57447000  0.73654000  1.0
  C  C48  1  0.83295000  0.35722000  0.70489000  1.0
  C  C49  1  0.70133000  0.14908000  0.36890000  1.0
  C  C50  1  0.16446000  0.86806000  0.55232000  1.0
  C  C51  1  0.87929000  0.55812000  0.32740000  1.0
  C  C52  1  0.16380000  0.58317000  0.33543000  1.0
  C  C53  1  0.13296000  0.34472000  0.70637000  1.0
  N  N54  1  0.86119000  0.50979000  0.49364000  1.0
  N  N55  1  0.14983000  0.51460000  0.50073000  1.0
  O  O56  1  0.40840000  0.67675000  0.47930000  1.0
  O  O57  1  0.63451000  0.68856000  0.48798000  1.0
  O  O58  1  0.37777000  0.54009000  0.64898000  1.0
  O  O59  1  0.60536000  0.51205000  0.64446000  1.0
  O  O60  1  0.40276000  0.32124000  0.53919000  1.0
  O  O61  1  0.62416000  0.32613000  0.49875000  1.0
  O  O62  1  0.36930000  0.44342000  0.37115000  1.0
  O  O63  1  0.58722000  0.50067000  0.35605000  1.0
  O  O64  1  0.13026000  0.56382000  0.81963000  1.0
  O  O65  1  0.83391000  0.26258000  0.66003000  1.0
  O  O66  1  0.94823000  0.58710000  0.25904000  1.0
  O  O67  1  0.20655000  0.68801000  0.33680000  1.0
