# generated using pymatgen
data_HgH9C11N3Cl2
_symmetry_space_group_name_H-M   'P 1'
_cell_length_a   7.50718000
_cell_length_b   12.62600000
_cell_length_c   13.10570000
_cell_angle_alpha   90.00000000
_cell_angle_beta   90.00000000
_cell_angle_gamma   96.06710000
_symmetry_Int_Tables_number   1
_chemical_formula_structural   HgH9C11N3Cl2
_chemical_formula_sum   'Hg4 H36 C44 N12 Cl8'
_cell_volume   1235.27436075
_cell_formula_units_Z   4
loop_
 _symmetry_equiv_pos_site_id
 _symmetry_equiv_pos_as_xyz
  1  'x, y, z'
loop_
 _atom_site_type_symbol
 _atom_site_label
 _atom_site_symmetry_multiplicity
 _atom_site_fract_x
 _atom_site_fract_y
 _atom_site_fract_z
 _atom_site_occupancy
  Hg  Hg0  1  0.74256000  0.74976000  0.84972000  1.0
  Hg  Hg1  1  0.75744000  0.75024000  0.34973000  1.0
  Hg  Hg2  1  0.25744000  0.25024000  0.15028000  1.0
  Hg  Hg3  1  0.24256000  0.24976000  0.65028000  1.0
  H  H4  1  0.61972000  0.65289000  0.08265000  1.0
  H  H5  1  0.88028000  0.84711000  0.58265000  1.0
  H  H6  1  0.38028000  0.34711000  0.91735000  1.0
  H  H7  1  0.11972000  0.15289000  0.41735000  1.0
  H  H8  1  0.61569000  0.48963000  0.18736000  1.0
  H  H9  1  0.88431000  0.01036000  0.68736000  1.0
  H  H10  1  0.38431000  0.51036000  0.81264000  1.0
  H  H11  1  0.11569000  0.98964000  0.31264000  1.0
  H  H12  1  0.74821000  0.33060000  0.11486000  1.0
  H  H13  1  0.75179000  0.16940000  0.61486000  1.0
  H  H14  1  0.25179000  0.66940000  0.88514000  1.0
  H  H15  1  0.24821000  0.83060000  0.38514000  1.0
  H  H16  1  0.86422000  0.34186000  0.93282000  1.0
  H  H17  1  0.63578000  0.15814000  0.43282000  1.0
  H  H18  1  0.13578000  0.65814000  0.06718000  1.0
  H  H19  1  0.36422000  0.84186000  0.56718000  1.0
  H  H20  1  0.92521000  0.43862000  0.78098000  1.0
  H  H21  1  0.57479000  0.06138000  0.28098000  1.0
  H  H22  1  0.07479000  0.56138000  0.21902000  1.0
  H  H23  1  0.42520000  0.93861000  0.71902000  1.0
  H  H24  1  0.19192000  0.54194000  0.69755000  1.0
  H  H25  1  0.30809000  0.95806000  0.19755000  1.0
  H  H26  1  0.80808000  0.45806000  0.30245000  1.0
  H  H27  1  0.69191000  0.04194000  0.80245000  1.0
  H  H28  1  0.31912000  0.57590000  0.52227000  1.0
  H  H29  1  0.18088000  0.92411000  0.02228000  1.0
  H  H30  1  0.68088000  0.42411000  0.47772000  1.0
  H  H31  1  0.81911000  0.07589000  0.97772000  1.0
  H  H32  1  0.13630000  0.66010000  0.39181000  1.0
  H  H33  1  0.36369000  0.83990000  0.89181000  1.0
  H  H34  1  0.86370000  0.33990000  0.60819000  1.0
  H  H35  1  0.63630000  0.16010000  0.10819000  1.0
  H  H36  1  0.71277000  0.67137000  0.59543000  1.0
  H  H37  1  0.78723000  0.82863000  0.09543000  1.0
  H  H38  1  0.28723000  0.32863000  0.40457000  1.0
  H  H39  1  0.21277000  0.17137000  0.90457000  1.0
  C  C40  1  0.67470000  0.58298000  0.05217000  1.0
  C  C41  1  0.82530000  0.91702000  0.55217000  1.0
  C  C42  1  0.32530000  0.41702000  0.94783000  1.0
  C  C43  1  0.17470000  0.08298000  0.44783000  1.0
  C  C44  1  0.67384000  0.49069000  0.11105000  1.0
  C  C45  1  0.82616000  0.00931000  0.61105000  1.0
  C  C46  1  0.32616000  0.50931000  0.88895000  1.0
  C  C47  1  0.17384000  0.99069000  0.38895000  1.0
  C  C48  1  0.74474000  0.40268000  0.06958000  1.0
  C  C49  1  0.75526000  0.09732000  0.56958000  1.0
  C  C50  1  0.25526000  0.59732000  0.93042000  1.0
  C  C51  1  0.24474000  0.90268000  0.43042000  1.0
  C  C52  1  0.80913000  0.40875000  0.96975000  1.0
  C  C53  1  0.69087000  0.09125000  0.46975000  1.0
  C  C54  1  0.19087000  0.59125000  0.03025000  1.0
  C  C55  1  0.30913000  0.90875000  0.53025000  1.0
  C  C56  1  0.80388000  0.50385000  0.91535000  1.0
  C  C57  1  0.69612000  0.99615000  0.41535000  1.0
  C  C58  1  0.19612000  0.49615000  0.08465000  1.0
  C  C59  1  0.30388000  0.00385000  0.58465000  1.0
  C  C60  1  0.87186000  0.51066000  0.81049000  1.0
  C  C61  1  0.62814000  0.98934000  0.31048000  1.0
  C  C62  1  0.12814000  0.48934000  0.18952000  1.0
  C  C63  1  0.37186000  0.01066000  0.68951000  1.0
  C  C64  1  0.94266000  0.60508000  0.65967000  1.0
  C  C65  1  0.55734000  0.89492000  0.15967000  1.0
  C  C66  1  0.05734000  0.39492000  0.34033000  1.0
  C  C67  1  0.44266000  0.10508000  0.84033000  1.0
  C  C68  1  0.11441000  0.57668000  0.63850000  1.0
  C  C69  1  0.38559000  0.92333000  0.13850000  1.0
  C  C70  1  0.88559000  0.42333000  0.36150000  1.0
  C  C71  1  0.61441000  0.07668000  0.86150000  1.0
  C  C72  1  0.18570000  0.59592000  0.54160000  1.0
  C  C73  1  0.31431000  0.90408000  0.04160000  1.0
  C  C74  1  0.81431000  0.40408000  0.45840000  1.0
  C  C75  1  0.68569000  0.09592000  0.95840000  1.0
  C  C76  1  0.08441000  0.64240000  0.46843000  1.0
  C  C77  1  0.41559000  0.85760000  0.96843000  1.0
  C  C78  1  0.91559000  0.35760000  0.53157000  1.0
  C  C79  1  0.58441000  0.14240000  0.03157000  1.0
  C  C80  1  0.84822000  0.65059000  0.58131000  1.0
  C  C81  1  0.65178000  0.84941000  0.08131000  1.0
  C  C82  1  0.15179000  0.34941000  0.41869000  1.0
  C  C83  1  0.34822000  0.15059000  0.91869000  1.0
  N  N84  1  0.73953000  0.58998000  0.95714000  1.0
  N  N85  1  0.76048000  0.91002000  0.45714000  1.0
  N  N86  1  0.26047000  0.41002000  0.04286000  1.0
  N  N87  1  0.23952000  0.08998000  0.54286000  1.0
  N  N88  1  0.86607000  0.59529000  0.75688000  1.0
  N  N89  1  0.63393000  0.90471000  0.25688000  1.0
  N  N90  1  0.13393000  0.40471000  0.24312000  1.0
  N  N91  1  0.36606000  0.09529000  0.74312000  1.0
  N  N92  1  0.91881000  0.66873000  0.48834000  1.0
  N  N93  1  0.58119000  0.83127000  0.98834000  1.0
  N  N94  1  0.08119000  0.33127000  0.51166000  1.0
  N  N95  1  0.41881000  0.16873000  0.01166000  1.0
  Cl  Cl96  1  0.00414000  0.88490000  0.83195000  1.0
  Cl  Cl97  1  0.49586000  0.61510000  0.33194000  1.0
  Cl  Cl98  1  0.99586000  0.11510000  0.16806000  1.0
  Cl  Cl99  1  0.50414000  0.38490000  0.66806000  1.0
  Cl  Cl100  1  0.48451000  0.74363000  0.72512000  1.0
  Cl  Cl101  1  0.01549000  0.75637000  0.22512000  1.0
  Cl  Cl102  1  0.51549000  0.25637000  0.27487000  1.0
  Cl  Cl103  1  0.98451000  0.24363000  0.77487000  1.0
