# generated using pymatgen
data_NaP2H11(C2O)6
_symmetry_space_group_name_H-M   'P 1'
_cell_length_a   5.65703000
_cell_length_b   7.83986000
_cell_length_c   14.21420000
_cell_angle_alpha   87.89850000
_cell_angle_beta   87.62180000
_cell_angle_gamma   82.94960000
_symmetry_Int_Tables_number   1
_chemical_formula_structural   NaP2H11(C2O)6
_chemical_formula_sum   'Na2 P4 H22 C24 O12'
_cell_volume   624.78170512
_cell_formula_units_Z   2
loop_
 _symmetry_equiv_pos_site_id
 _symmetry_equiv_pos_as_xyz
  1  'x, y, z'
loop_
 _atom_site_type_symbol
 _atom_site_label
 _atom_site_symmetry_multiplicity
 _atom_site_fract_x
 _atom_site_fract_y
 _atom_site_fract_z
 _atom_site_occupancy
  Na  Na0  1  0.30031000  0.68722000  0.99304000  1.0
  Na  Na1  1  0.69968000  0.31277000  0.00696000  1.0
  P  P2  1  0.77561000  0.89230000  0.86712000  1.0
  P  P3  1  0.22438000  0.10769000  0.13288000  1.0
  P  P4  1  0.77616000  0.65338000  0.14313000  1.0
  P  P5  1  0.22385000  0.34661000  0.85687000  1.0
  H  H6  1  0.39195000  0.99856000  0.87687000  1.0
  H  H7  1  0.60805000  0.00143000  0.12312000  1.0
  H  H8  1  0.49640000  0.05905000  0.70882000  1.0
  H  H9  1  0.50359000  0.94098000  0.29118000  1.0
  H  H10  1  0.99090000  0.10195000  0.89201000  1.0
  H  H11  1  0.00910000  0.89803000  0.10800000  1.0
  H  H12  1  0.60469000  0.11398000  0.54442000  1.0
  H  H13  1  0.39531000  0.88603000  0.45558000  1.0
  H  H14  1  0.06864000  0.44850000  0.11510000  1.0
  H  H15  1  0.93137000  0.55149000  0.88490000  1.0
  H  H16  1  0.30217000  0.83280000  0.58530000  1.0
  H  H17  1  0.69781000  0.16719000  0.41470000  1.0
  H  H18  1  0.19234000  0.77939000  0.75003000  1.0
  H  H19  1  0.80763000  0.22059000  0.24997000  1.0
  H  H20  1  0.39246000  0.47805000  0.22258000  1.0
  H  H21  1  0.60754000  0.52196000  0.77742000  1.0
  H  H22  1  0.26296000  0.40418000  0.38383000  1.0
  H  H23  1  0.73704000  0.59582000  0.61617000  1.0
  H  H24  1  0.84374000  0.64581000  0.48900000  1.0
  H  H25  1  0.15625000  0.35421000  0.51100000  1.0
  H  H26  1  0.97219000  0.71497000  0.32759000  1.0
  H  H27  1  0.02783000  0.28502000  0.67241000  1.0
  C  C28  1  0.83750000  0.91656000  0.74234000  1.0
  C  C29  1  0.16249000  0.08344000  0.25766000  1.0
  C  C30  1  0.67395000  0.00929000  0.68226000  1.0
  C  C31  1  0.32606000  0.99073000  0.31774000  1.0
  C  C32  1  0.73691000  0.04015000  0.58798000  1.0
  C  C33  1  0.26308000  0.95986000  0.41202000  1.0
  C  C34  1  0.96518000  0.98096000  0.54987000  1.0
  C  C35  1  0.03482000  0.01905000  0.45013000  1.0
  C  C36  1  0.12477000  0.88443000  0.61067000  1.0
  C  C37  1  0.87524000  0.11556000  0.38933000  1.0
  C  C38  1  0.06306000  0.85287000  0.70493000  1.0
  C  C39  1  0.93691000  0.14713000  0.29507000  1.0
  C  C40  1  0.69131000  0.60004000  0.26334000  1.0
  C  C41  1  0.30870000  0.39996000  0.73666000  1.0
  C  C42  1  0.49209000  0.51242000  0.28150000  1.0
  C  C43  1  0.50791000  0.48759000  0.71851000  1.0
  C  C44  1  0.41862000  0.47275000  0.37347000  1.0
  C  C45  1  0.58139000  0.52725000  0.62653000  1.0
  C  C46  1  0.54046000  0.51997000  0.45101000  1.0
  C  C47  1  0.45954000  0.48004000  0.54899000  1.0
  C  C48  1  0.74216000  0.60703000  0.43168000  1.0
  C  C49  1  0.25784000  0.39298000  0.56832000  1.0
  C  C50  1  0.81635000  0.64664000  0.33976000  1.0
  C  C51  1  0.18365000  0.35336000  0.66023000  1.0
  O  O52  1  0.92878000  0.73829000  0.90699000  1.0
  O  O53  1  0.07121000  0.26170000  0.09301000  1.0
  O  O54  1  0.50167000  0.88092000  0.88496000  1.0
  O  O55  1  0.49833000  0.11907000  0.11504000  1.0
  O  O56  1  0.81989000  0.06508000  0.91183000  1.0
  O  O57  1  0.18011000  0.93490000  0.08818000  1.0
  O  O58  1  0.04950000  0.57838000  0.12716000  1.0
  O  O59  1  0.95051000  0.42161000  0.87284000  1.0
  O  O60  1  0.61736000  0.57724000  0.07856000  1.0
  O  O61  1  0.38265000  0.42275000  0.92144000  1.0
  O  O62  1  0.78318000  0.85027000  0.13581000  1.0
  O  O63  1  0.21682000  0.14973000  0.86419000  1.0
