# generated using pymatgen
data_SnH30C32N2(ClO)2
_symmetry_space_group_name_H-M   'P 1'
_cell_length_a   7.18613000
_cell_length_b   14.02570000
_cell_length_c   14.54730000
_cell_angle_alpha   89.99960000
_cell_angle_beta   89.35610000
_cell_angle_gamma   89.99980000
_symmetry_Int_Tables_number   1
_chemical_formula_structural   SnH30C32N2(ClO)2
_chemical_formula_sum   'Sn2 H60 C64 N4 Cl4 O4'
_cell_volume   1466.13710320
_cell_formula_units_Z   2
loop_
 _symmetry_equiv_pos_site_id
 _symmetry_equiv_pos_as_xyz
  1  'x, y, z'
loop_
 _atom_site_type_symbol
 _atom_site_label
 _atom_site_symmetry_multiplicity
 _atom_site_fract_x
 _atom_site_fract_y
 _atom_site_fract_z
 _atom_site_occupancy
  Sn  Sn0  1  0.49998000  0.50001000  0.49999000  1.0
  Sn  Sn1  1  0.50002000  0.00000000  0.00000000  1.0
  H  H2  1  0.92151000  0.65987000  0.59522000  1.0
  H  H3  1  0.07850000  0.15987000  0.90477000  1.0
  H  H4  1  0.07850000  0.34013000  0.40477000  1.0
  H  H5  1  0.92149000  0.84012000  0.09523000  1.0
  H  H6  1  0.93672000  0.75583000  0.73948000  1.0
  H  H7  1  0.06330000  0.25583000  0.76051000  1.0
  H  H8  1  0.06329000  0.24417000  0.26051000  1.0
  H  H9  1  0.93671000  0.74416000  0.23949000  1.0
  H  H10  1  0.66393000  0.85221000  0.78940000  1.0
  H  H11  1  0.33609000  0.35221000  0.71060000  1.0
  H  H12  1  0.33608000  0.14778000  0.21060000  1.0
  H  H13  1  0.66392000  0.64778000  0.28940000  1.0
  H  H14  1  0.37567000  0.85173000  0.69699000  1.0
  H  H15  1  0.62435000  0.35173000  0.80302000  1.0
  H  H16  1  0.62435000  0.14827000  0.30302000  1.0
  H  H17  1  0.37565000  0.64827000  0.19699000  1.0
  H  H18  1  0.35896000  0.75435000  0.55409000  1.0
  H  H19  1  0.64104000  0.25435000  0.94591000  1.0
  H  H20  1  0.64104000  0.24566000  0.44591000  1.0
  H  H21  1  0.35895000  0.74566000  0.05410000  1.0
  H  H22  1  0.77031000  0.62458000  0.45273000  1.0
  H  H23  1  0.22969000  0.12458000  0.04726000  1.0
  H  H24  1  0.22968000  0.37542000  0.54726000  1.0
  H  H25  1  0.77031000  0.87542000  0.95274000  1.0
  H  H26  1  0.54198000  0.67175000  0.42800000  1.0
  H  H27  1  0.45802000  0.17175000  0.07200000  1.0
  H  H28  1  0.45802000  0.32826000  0.57199000  1.0
  H  H29  1  0.54197000  0.82825000  0.92800000  1.0
  H  H30  1  0.64815000  0.53832000  0.70588000  1.0
  H  H31  1  0.35185000  0.03832000  0.79411000  1.0
  H  H32  1  0.35185000  0.46168000  0.29412000  1.0
  H  H33  1  0.64815000  0.96168000  0.20589000  1.0
  H  H34  1  0.19183000  0.60260000  0.89148000  1.0
  H  H35  1  0.80817000  0.10260000  0.60852000  1.0
  H  H36  1  0.80817000  0.39740000  0.10852000  1.0
  H  H37  1  0.19183000  0.89740000  0.39148000  1.0
  H  H38  1  0.97592000  0.57168000  0.76040000  1.0
  H  H39  1  0.02408000  0.07168000  0.73960000  1.0
  H  H40  1  0.02407000  0.42831000  0.23960000  1.0
  H  H41  1  0.97593000  0.92831000  0.26040000  1.0
  H  H42  1  0.11068000  0.53116000  0.60606000  1.0
  H  H43  1  0.88932000  0.03116000  0.89394000  1.0
  H  H44  1  0.88931000  0.46884000  0.39394000  1.0
  H  H45  1  0.11069000  0.96884000  0.10606000  1.0
  H  H46  1  0.65181000  0.65706000  0.87534000  1.0
  H  H47  1  0.34819000  0.15707000  0.62465000  1.0
  H  H48  1  0.34819000  0.34293000  0.12466000  1.0
  H  H49  1  0.65181000  0.84293000  0.37534000  1.0
  H  H50  1  0.50476000  0.59201000  0.95259000  1.0
  H  H51  1  0.49524000  0.09201000  0.54741000  1.0
  H  H52  1  0.49523000  0.40799000  0.04741000  1.0
  H  H53  1  0.50477000  0.90799000  0.45259000  1.0
  H  H54  1  0.79402000  0.64230000  0.01363000  1.0
  H  H55  1  0.20597000  0.14230000  0.48637000  1.0
  H  H56  1  0.20597000  0.35770000  0.98637000  1.0
  H  H57  1  0.79404000  0.85770000  0.51363000  1.0
  H  H58  1  0.93586000  0.37398000  0.88511000  1.0
  H  H59  1  0.06415000  0.87398000  0.61489000  1.0
  H  H60  1  0.06413000  0.62602000  0.11490000  1.0
  H  H61  1  0.93586000  0.12602000  0.38511000  1.0
  C  C62  1  0.80158000  0.70130000  0.61852000  1.0
  C  C63  1  0.19843000  0.20130000  0.88148000  1.0
  C  C64  1  0.19843000  0.29870000  0.38148000  1.0
  C  C65  1  0.80157000  0.79870000  0.11852000  1.0
  C  C66  1  0.80969000  0.75504000  0.69903000  1.0
  C  C67  1  0.19033000  0.25503000  0.80096000  1.0
  C  C68  1  0.19032000  0.24497000  0.30096000  1.0
  C  C69  1  0.80967000  0.74496000  0.19904000  1.0
  C  C70  1  0.65625000  0.80899000  0.72749000  1.0
  C  C71  1  0.34377000  0.30899000  0.77251000  1.0
  C  C72  1  0.34376000  0.19100000  0.27251000  1.0
  C  C73  1  0.65624000  0.69100000  0.22749000  1.0
  C  C74  1  0.49429000  0.80863000  0.67520000  1.0
  C  C75  1  0.50572000  0.30863000  0.82480000  1.0
  C  C76  1  0.50571000  0.19137000  0.32480000  1.0
  C  C77  1  0.49428000  0.69137000  0.17520000  1.0
  C  C78  1  0.48602000  0.75494000  0.59468000  1.0
  C  C79  1  0.51398000  0.25494000  0.90532000  1.0
  C  C80  1  0.51398000  0.24507000  0.40532000  1.0
  C  C81  1  0.48601000  0.74507000  0.09468000  1.0
  C  C82  1  0.63960000  0.70007000  0.56506000  1.0
  C  C83  1  0.36041000  0.20007000  0.93493000  1.0
  C  C84  1  0.36040000  0.29993000  0.43493000  1.0
  C  C85  1  0.63959000  0.79993000  0.06507000  1.0
  C  C86  1  0.63174000  0.64120000  0.48083000  1.0
  C  C87  1  0.36827000  0.14120000  0.01916000  1.0
  C  C88  1  0.36826000  0.35880000  0.51916000  1.0
  C  C89  1  0.63173000  0.85880000  0.98084000  1.0
  C  C90  1  0.50110000  0.54977000  0.72120000  1.0
  C  C91  1  0.49890000  0.04976000  0.77880000  1.0
  C  C92  1  0.49890000  0.45024000  0.27880000  1.0
  C  C93  1  0.50110000  0.95024000  0.22120000  1.0
  C  C94  1  0.43831000  0.57494000  0.80912000  1.0
  C  C95  1  0.56169000  0.07494000  0.69088000  1.0
  C  C96  1  0.56169000  0.42506000  0.19088000  1.0
  C  C97  1  0.43832000  0.92506000  0.30912000  1.0
  C  C98  1  0.24690000  0.58444000  0.82355000  1.0
  C  C99  1  0.75310000  0.08444000  0.67645000  1.0
  C  C100  1  0.75310000  0.41556000  0.17645000  1.0
  C  C101  1  0.24690000  0.91556000  0.32355000  1.0
  C  C102  1  0.12616000  0.56799000  0.75085000  1.0
  C  C103  1  0.87384000  0.06800000  0.74915000  1.0
  C  C104  1  0.87384000  0.43200000  0.24915000  1.0
  C  C105  1  0.12616000  0.93200000  0.25085000  1.0
  C  C106  1  0.19959000  0.54464000  0.66504000  1.0
  C  C107  1  0.80041000  0.04464000  0.83496000  1.0
  C  C108  1  0.80040000  0.45536000  0.33496000  1.0
  C  C109  1  0.19960000  0.95536000  0.16504000  1.0
  C  C110  1  0.57566000  0.58929000  0.88500000  1.0
  C  C111  1  0.42434000  0.08930000  0.61500000  1.0
  C  C112  1  0.42433000  0.41070000  0.11501000  1.0
  C  C113  1  0.57566000  0.91070000  0.38500000  1.0
  C  C114  1  0.88341000  0.58009000  0.00638000  1.0
  C  C115  1  0.11659000  0.08009000  0.49361000  1.0
  C  C116  1  0.11659000  0.41991000  0.99362000  1.0
  C  C117  1  0.88342000  0.91991000  0.50638000  1.0
  C  C118  1  0.84707000  0.50849000  0.94193000  1.0
  C  C119  1  0.15293000  0.00850000  0.55807000  1.0
  C  C120  1  0.15292000  0.49150000  0.05808000  1.0
  C  C121  1  0.84708000  0.99150000  0.44193000  1.0
  C  C122  1  0.96359000  0.42877000  0.93618000  1.0
  C  C123  1  0.03642000  0.92877000  0.56383000  1.0
  C  C124  1  0.03640000  0.57122000  0.06383000  1.0
  C  C125  1  0.96359000  0.07123000  0.43617000  1.0
  N  N126  1  0.38451000  0.53619000  0.65094000  1.0
  N  N127  1  0.61549000  0.03619000  0.84906000  1.0
  N  N128  1  0.61549000  0.46381000  0.34906000  1.0
  N  N129  1  0.38451000  0.96381000  0.15094000  1.0
  Cl  Cl130  1  0.20175000  0.56926000  0.42748000  1.0
  Cl  Cl131  1  0.79825000  0.06925000  0.07252000  1.0
  Cl  Cl132  1  0.79823000  0.43075000  0.57252000  1.0
  Cl  Cl133  1  0.20177000  0.93075000  0.92748000  1.0
  O  O134  1  0.70306000  0.51065000  0.88063000  1.0
  O  O135  1  0.29693000  0.01065000  0.61937000  1.0
  O  O136  1  0.29692000  0.48934000  0.11938000  1.0
  O  O137  1  0.70308000  0.98934000  0.38063000  1.0
