# generated using pymatgen
data_CoH13C18N3O4
_symmetry_space_group_name_H-M   'P 1'
_cell_length_a   11.29980000
_cell_length_b   14.30700000
_cell_length_c   16.80260000
_cell_angle_alpha   89.99990000
_cell_angle_beta   90.00000000
_cell_angle_gamma   89.99980000
_symmetry_Int_Tables_number   1
_chemical_formula_structural   CoH13C18N3O4
_chemical_formula_sum   'Co4 H52 C72 N12 O16'
_cell_volume   2716.41314068
_cell_formula_units_Z   4
loop_
 _symmetry_equiv_pos_site_id
 _symmetry_equiv_pos_as_xyz
  1  'x, y, z'
loop_
 _atom_site_type_symbol
 _atom_site_label
 _atom_site_symmetry_multiplicity
 _atom_site_fract_x
 _atom_site_fract_y
 _atom_site_fract_z
 _atom_site_occupancy
  Co  Co0  1  0.00000000  0.86383000  0.02758000  1.0
  Co  Co1  1  0.00000000  0.13617000  0.97242000  1.0
  Co  Co2  1  0.00000000  0.36383000  0.47242000  1.0
  Co  Co3  1  0.00000000  0.63617000  0.52758000  1.0
  H  H4  1  0.00000000  0.90028000  0.21529000  1.0
  H  H5  1  0.00000000  0.09972000  0.78471000  1.0
  H  H6  1  0.00000000  0.40029000  0.28472000  1.0
  H  H7  1  0.00000000  0.59972000  0.71528000  1.0
  H  H8  1  0.00000000  0.03045000  0.44746000  1.0
  H  H9  1  0.00000000  0.96955000  0.55254000  1.0
  H  H10  1  0.00000000  0.53045000  0.05254000  1.0
  H  H11  1  0.00000000  0.46955000  0.94746000  1.0
  H  H12  1  0.00000000  0.20077000  0.23724000  1.0
  H  H13  1  0.00000000  0.79923000  0.76276000  1.0
  H  H14  1  0.00000000  0.70077000  0.26276000  1.0
  H  H15  1  0.00000000  0.29923000  0.73724000  1.0
  H  H16  1  0.19204000  0.80209000  0.91368000  1.0
  H  H17  1  0.19204000  0.19791000  0.08631000  1.0
  H  H18  1  0.80796000  0.30210000  0.58632000  1.0
  H  H19  1  0.80796000  0.69790000  0.41368000  1.0
  H  H20  1  0.80796000  0.19791000  0.08632000  1.0
  H  H21  1  0.80796000  0.80209000  0.91368000  1.0
  H  H22  1  0.19204000  0.69790000  0.41368000  1.0
  H  H23  1  0.19204000  0.30210000  0.58632000  1.0
  H  H24  1  0.41057000  0.80017000  0.90680000  1.0
  H  H25  1  0.41056000  0.19983000  0.09320000  1.0
  H  H26  1  0.58943000  0.30017000  0.59320000  1.0
  H  H27  1  0.58943000  0.69983000  0.40680000  1.0
  H  H28  1  0.58943000  0.19983000  0.09320000  1.0
  H  H29  1  0.58943000  0.80017000  0.90680000  1.0
  H  H30  1  0.41057000  0.69983000  0.40680000  1.0
  H  H31  1  0.41057000  0.30017000  0.59320000  1.0
  H  H32  1  0.41237000  0.93050000  0.13968000  1.0
  H  H33  1  0.41237000  0.06950000  0.86032000  1.0
  H  H34  1  0.58763000  0.43050000  0.36032000  1.0
  H  H35  1  0.58763000  0.56950000  0.63968000  1.0
  H  H36  1  0.58763000  0.06949000  0.86032000  1.0
  H  H37  1  0.58763000  0.93050000  0.13968000  1.0
  H  H38  1  0.41237000  0.56949000  0.63968000  1.0
  H  H39  1  0.41238000  0.43050000  0.36032000  1.0
  H  H40  1  0.19426000  0.92596000  0.13580000  1.0
  H  H41  1  0.19427000  0.07403000  0.86420000  1.0
  H  H42  1  0.80573000  0.42597000  0.36421000  1.0
  H  H43  1  0.80574000  0.57403000  0.63579000  1.0
  H  H44  1  0.80574000  0.07403000  0.86421000  1.0
  H  H45  1  0.80573000  0.92597000  0.13580000  1.0
  H  H46  1  0.19427000  0.57403000  0.63579000  1.0
  H  H47  1  0.19427000  0.42597000  0.36420000  1.0
  H  H48  1  0.00000000  0.85589000  0.43058000  1.0
  H  H49  1  0.00000000  0.14411000  0.56942000  1.0
  H  H50  1  0.00000000  0.35589000  0.06942000  1.0
  H  H51  1  0.00000000  0.64411000  0.93057000  1.0
  H  H52  1  0.00000000  0.80821000  0.33625000  1.0
  H  H53  1  0.00000000  0.19179000  0.66375000  1.0
  H  H54  1  0.00000000  0.30821000  0.16375000  1.0
  H  H55  1  0.00000000  0.69179000  0.83625000  1.0
  C  C56  1  0.00000000  0.05816000  0.12835000  1.0
  C  C57  1  0.00000000  0.94185000  0.87165000  1.0
  C  C58  1  0.00000000  0.55816000  0.37165000  1.0
  C  C59  1  0.99999000  0.44184000  0.62835000  1.0
  C  C60  1  0.00000000  0.05101000  0.21705000  1.0
  C  C61  1  0.00000000  0.94899000  0.78295000  1.0
  C  C62  1  0.00000000  0.55101000  0.28295000  1.0
  C  C63  1  0.00000000  0.44899000  0.71705000  1.0
  C  C64  1  0.00000000  0.96262000  0.25259000  1.0
  C  C65  1  0.00000000  0.03739000  0.74741000  1.0
  C  C66  1  0.00000000  0.46262000  0.24741000  1.0
  C  C67  1  0.00000000  0.53739000  0.75259000  1.0
  C  C68  1  0.00000000  0.95265000  0.33624000  1.0
  C  C69  1  0.00000000  0.04735000  0.66376000  1.0
  C  C70  1  0.00000000  0.45266000  0.16376000  1.0
  C  C71  1  0.00000000  0.54734000  0.83623000  1.0
  C  C72  1  0.00000000  0.03482000  0.38277000  1.0
  C  C73  1  0.00000000  0.96518000  0.61722000  1.0
  C  C74  1  0.00000000  0.53482000  0.11723000  1.0
  C  C75  1  0.00000000  0.46518000  0.88277000  1.0
  C  C76  1  0.00000000  0.12290000  0.34704000  1.0
  C  C77  1  0.00000000  0.87710000  0.65296000  1.0
  C  C78  1  0.00000000  0.62290000  0.15296000  1.0
  C  C79  1  0.00000000  0.37710000  0.84704000  1.0
  C  C80  1  0.00000000  0.13178000  0.26405000  1.0
  C  C81  1  0.00000000  0.86822000  0.73595000  1.0
  C  C82  1  0.00000000  0.63179000  0.23595000  1.0
  C  C83  1  0.00000000  0.36822000  0.76405000  1.0
  C  C84  1  0.00000000  0.20885000  0.39693000  1.0
  C  C85  1  0.00000000  0.79115000  0.60307000  1.0
  C  C86  1  0.00000000  0.70886000  0.10307000  1.0
  C  C87  1  0.00000000  0.29115000  0.89693000  1.0
  C  C88  1  0.24527000  0.82981000  0.96236000  1.0
  C  C89  1  0.24527000  0.17018000  0.03764000  1.0
  C  C90  1  0.75473000  0.32982000  0.53764000  1.0
  C  C91  1  0.75473000  0.67018000  0.46236000  1.0
  C  C92  1  0.75473000  0.17019000  0.03764000  1.0
  C  C93  1  0.75473000  0.82982000  0.96236000  1.0
  C  C94  1  0.24527000  0.67018000  0.46236000  1.0
  C  C95  1  0.24528000  0.32982000  0.53764000  1.0
  C  C96  1  0.36808000  0.82940000  0.95936000  1.0
  C  C97  1  0.36808000  0.17060000  0.04064000  1.0
  C  C98  1  0.63192000  0.32941000  0.54064000  1.0
  C  C99  1  0.63192000  0.67059000  0.45936000  1.0
  C  C100  1  0.63192000  0.17060000  0.04064000  1.0
  C  C101  1  0.63192000  0.82941000  0.95936000  1.0
  C  C102  1  0.36808000  0.67060000  0.45936000  1.0
  C  C103  1  0.36809000  0.32940000  0.54064000  1.0
  C  C104  1  0.43458000  0.86573000  0.02304000  1.0
  C  C105  1  0.43458000  0.13427000  0.97696000  1.0
  C  C106  1  0.56542000  0.36573000  0.47696000  1.0
  C  C107  1  0.56542000  0.63426000  0.52303000  1.0
  C  C108  1  0.56542000  0.13427000  0.97696000  1.0
  C  C109  1  0.56541000  0.86573000  0.02304000  1.0
  C  C110  1  0.43459000  0.63426000  0.52304000  1.0
  C  C111  1  0.43459000  0.36573000  0.47696000  1.0
  C  C112  1  0.36903000  0.90116000  0.08750000  1.0
  C  C113  1  0.36903000  0.09884000  0.91250000  1.0
  C  C114  1  0.63097000  0.40117000  0.41250000  1.0
  C  C115  1  0.63097000  0.59883000  0.58750000  1.0
  C  C116  1  0.63097000  0.09883000  0.91250000  1.0
  C  C117  1  0.63096000  0.90116000  0.08750000  1.0
  C  C118  1  0.36903000  0.59883000  0.58750000  1.0
  C  C119  1  0.36904000  0.40117000  0.41250000  1.0
  C  C120  1  0.24631000  0.89919000  0.08615000  1.0
  C  C121  1  0.24631000  0.10081000  0.91385000  1.0
  C  C122  1  0.75369000  0.39919000  0.41385000  1.0
  C  C123  1  0.75369000  0.60081000  0.58615000  1.0
  C  C124  1  0.75369000  0.10081000  0.91385000  1.0
  C  C125  1  0.75369000  0.89919000  0.08615000  1.0
  C  C126  1  0.24631000  0.60081000  0.58615000  1.0
  C  C127  1  0.24631000  0.39919000  0.41385000  1.0
  N  N128  1  0.18392000  0.86448000  0.02453000  1.0
  N  N129  1  0.18392000  0.13552000  0.97547000  1.0
  N  N130  1  0.81607000  0.36448000  0.47547000  1.0
  N  N131  1  0.81607000  0.63552000  0.52453000  1.0
  N  N132  1  0.81608000  0.13552000  0.97547000  1.0
  N  N133  1  0.81607000  0.86448000  0.02453000  1.0
  N  N134  1  0.18393000  0.63552000  0.52453000  1.0
  N  N135  1  0.18393000  0.36448000  0.47547000  1.0
  N  N136  1  0.00000000  0.86626000  0.37046000  1.0
  N  N137  1  0.00000000  0.13374000  0.62954000  1.0
  N  N138  1  0.00000000  0.36626000  0.12954000  1.0
  N  N139  1  0.00000000  0.63374000  0.87046000  1.0
  O  O140  1  0.99999000  0.98374000  0.08686000  1.0
  O  O141  1  0.00001000  0.01626000  0.91314000  1.0
  O  O142  1  0.00000000  0.48374000  0.41314000  1.0
  O  O143  1  0.99999000  0.51626000  0.58686000  1.0
  O  O144  1  0.00000000  0.13940000  0.09617000  1.0
  O  O145  1  0.00000000  0.86060000  0.90383000  1.0
  O  O146  1  0.00000000  0.63941000  0.40383000  1.0
  O  O147  1  0.00000000  0.36059000  0.59617000  1.0
  O  O148  1  0.99999000  0.28899000  0.36305000  1.0
  O  O149  1  0.00001000  0.71101000  0.63695000  1.0
  O  O150  1  0.00000000  0.78899000  0.13695000  1.0
  O  O151  1  0.00000000  0.21101000  0.86305000  1.0
  O  O152  1  0.00000000  0.20561000  0.47295000  1.0
  O  O153  1  0.00000000  0.79438000  0.52705000  1.0
  O  O154  1  0.00000000  0.70562000  0.02705000  1.0
  O  O155  1  0.00000000  0.29438000  0.97295000  1.0
