# generated using pymatgen
data_CdH8(C4O3)2
_symmetry_space_group_name_H-M   'P 1'
_cell_length_a   6.19020000
_cell_length_b   10.33470000
_cell_length_c   13.95780000
_cell_angle_alpha   79.36800000
_cell_angle_beta   90.00110000
_cell_angle_gamma   90.00010000
_symmetry_Int_Tables_number   1
_chemical_formula_structural   CdH8(C4O3)2
_chemical_formula_sum   'Cd4 H32 C32 O24'
_cell_volume   877.60485432
_cell_formula_units_Z   4
loop_
 _symmetry_equiv_pos_site_id
 _symmetry_equiv_pos_as_xyz
  1  'x, y, z'
loop_
 _atom_site_type_symbol
 _atom_site_label
 _atom_site_symmetry_multiplicity
 _atom_site_fract_x
 _atom_site_fract_y
 _atom_site_fract_z
 _atom_site_occupancy
  Cd  Cd0  1  0.92425000  0.92067000  0.33258000  1.0
  Cd  Cd1  1  0.42424000  0.57933000  0.66741000  1.0
  Cd  Cd2  1  0.07574000  0.07934000  0.66742000  1.0
  Cd  Cd3  1  0.57576000  0.42067000  0.33258000  1.0
  H  H4  1  0.07056000  0.30816000  0.11545000  1.0
  H  H5  1  0.57055000  0.19185000  0.88455000  1.0
  H  H6  1  0.92944000  0.69185000  0.88454000  1.0
  H  H7  1  0.42945000  0.80814000  0.11545000  1.0
  H  H8  1  0.88137000  0.06791000  0.09014000  1.0
  H  H9  1  0.38137000  0.43211000  0.90987000  1.0
  H  H10  1  0.11861000  0.93211000  0.90986000  1.0
  H  H11  1  0.61864000  0.56789000  0.09014000  1.0
  H  H12  1  0.19590000  0.15283000  0.95828000  1.0
  H  H13  1  0.69592000  0.34717000  0.04172000  1.0
  H  H14  1  0.80409000  0.84715000  0.04172000  1.0
  H  H15  1  0.30409000  0.65283000  0.95829000  1.0
  H  H16  1  0.56831000  0.10345000  0.05987000  1.0
  H  H17  1  0.06833000  0.39654000  0.94013000  1.0
  H  H18  1  0.43167000  0.89654000  0.94013000  1.0
  H  H19  1  0.93170000  0.60344000  0.05987000  1.0
  H  H20  1  0.44719000  0.99103000  0.24148000  1.0
  H  H21  1  0.94717000  0.50897000  0.75852000  1.0
  H  H22  1  0.55279000  0.00897000  0.75853000  1.0
  H  H23  1  0.05283000  0.49102000  0.24148000  1.0
  H  H24  1  0.38174000  0.26311000  0.20376000  1.0
  H  H25  1  0.88172000  0.23689000  0.79623000  1.0
  H  H26  1  0.61825000  0.73690000  0.79623000  1.0
  H  H27  1  0.11827000  0.76310000  0.20377000  1.0
  H  H28  1  0.49681000  0.83652000  0.41356000  1.0
  H  H29  1  0.99680000  0.66347000  0.58643000  1.0
  H  H30  1  0.50318000  0.16347000  0.58643000  1.0
  H  H31  1  0.00319000  0.33654000  0.41356000  1.0
  H  H32  1  0.66265000  0.81542000  0.50314000  1.0
  H  H33  1  0.16264000  0.68458000  0.49685000  1.0
  H  H34  1  0.33735000  0.18458000  0.49685000  1.0
  H  H35  1  0.83736000  0.31543000  0.50314000  1.0
  C  C36  1  0.84760000  0.22741000  0.22650000  1.0
  C  C37  1  0.34756000  0.27258000  0.77352000  1.0
  C  C38  1  0.15241000  0.77258000  0.77349000  1.0
  C  C39  1  0.65244000  0.72743000  0.22648000  1.0
  C  C40  1  0.05093000  0.21504000  0.16671000  1.0
  C  C41  1  0.55095000  0.28496000  0.83329000  1.0
  C  C42  1  0.94905000  0.78497000  0.83329000  1.0
  C  C43  1  0.44907000  0.71503000  0.16671000  1.0
  C  C44  1  0.04152000  0.09608000  0.11169000  1.0
  C  C45  1  0.54153000  0.40394000  0.88832000  1.0
  C  C46  1  0.95847000  0.90393000  0.88831000  1.0
  C  C47  1  0.45849000  0.59607000  0.11167000  1.0
  C  C48  1  0.21917000  0.11818000  0.03603000  1.0
  C  C49  1  0.71918000  0.38183000  0.96398000  1.0
  C  C50  1  0.78081000  0.88181000  0.96399000  1.0
  C  C51  1  0.28086000  0.61817000  0.03602000  1.0
  C  C52  1  0.40357000  0.09327000  0.08657000  1.0
  C  C53  1  0.90357000  0.40674000  0.91343000  1.0
  C  C54  1  0.59642000  0.90673000  0.91344000  1.0
  C  C55  1  0.09647000  0.59327000  0.08656000  1.0
  C  C56  1  0.33905000  0.05489000  0.19255000  1.0
  C  C57  1  0.83905000  0.44511000  0.80745000  1.0
  C  C58  1  0.66093000  0.94510000  0.80745000  1.0
  C  C59  1  0.16098000  0.55488000  0.19255000  1.0
  C  C60  1  0.26611000  0.18362000  0.22661000  1.0
  C  C61  1  0.76608000  0.31638000  0.77339000  1.0
  C  C62  1  0.73388000  0.81638000  0.77339000  1.0
  C  C63  1  0.23391000  0.68361000  0.22662000  1.0
  C  C64  1  0.24222000  0.16455000  0.33720000  1.0
  C  C65  1  0.74219000  0.33544000  0.66279000  1.0
  C  C66  1  0.75777000  0.83544000  0.66279000  1.0
  C  C67  1  0.25781000  0.66457000  0.33721000  1.0
  O  O68  1  0.76156000  0.12757000  0.27832000  1.0
  O  O69  1  0.26152000  0.37241000  0.72167000  1.0
  O  O70  1  0.23843000  0.87242000  0.72166000  1.0
  O  O71  1  0.73849000  0.62758000  0.27833000  1.0
  O  O72  1  0.64092000  0.85970000  0.43379000  1.0
  O  O73  1  0.14090000  0.64029000  0.56621000  1.0
  O  O74  1  0.35907000  0.14031000  0.56620000  1.0
  O  O75  1  0.85909000  0.35971000  0.43379000  1.0
  O  O76  1  0.77319000  0.34467000  0.21711000  1.0
  O  O77  1  0.27318000  0.15532000  0.78289000  1.0
  O  O78  1  0.22680000  0.65532000  0.78289000  1.0
  O  O79  1  0.72683000  0.84467000  0.21711000  1.0
  O  O80  1  0.16418000  0.06049000  0.38612000  1.0
  O  O81  1  0.66415000  0.43951000  0.61388000  1.0
  O  O82  1  0.83582000  0.93951000  0.61387000  1.0
  O  O83  1  0.33586000  0.56050000  0.38613000  1.0
  O  O84  1  0.30447000  0.26004000  0.37936000  1.0
  O  O85  1  0.80444000  0.23995000  0.62064000  1.0
  O  O86  1  0.69555000  0.73997000  0.62063000  1.0
  O  O87  1  0.19556000  0.76004000  0.37936000  1.0
  O  O88  1  0.13231000  0.99052000  0.18362000  1.0
  O  O89  1  0.63229000  0.50949000  0.81639000  1.0
  O  O90  1  0.86768000  0.00949000  0.81639000  1.0
  O  O91  1  0.36772000  0.49051000  0.18362000  1.0
