# generated using pymatgen
data_Zn2H13C43N2Cl11O8
_symmetry_space_group_name_H-M   'P 1'
_cell_length_a   17.04230000
_cell_length_b   17.81740000
_cell_length_c   32.71850000
_cell_angle_alpha   89.89050000
_cell_angle_beta   88.99410000
_cell_angle_gamma   89.90440000
_symmetry_Int_Tables_number   1
_chemical_formula_structural   Zn2H13C43N2Cl11O8
_chemical_formula_sum   'Zn4 H26 C86 N4 Cl22 O16'
_cell_volume   9933.39291045
_cell_formula_units_Z   2
loop_
 _symmetry_equiv_pos_site_id
 _symmetry_equiv_pos_as_xyz
  1  'x, y, z'
loop_
 _atom_site_type_symbol
 _atom_site_label
 _atom_site_symmetry_multiplicity
 _atom_site_fract_x
 _atom_site_fract_y
 _atom_site_fract_z
 _atom_site_occupancy
  Zn  Zn0  1  0.41908000  0.50481000  0.49769000  1.0
  Zn  Zn1  1  0.59525000  0.50922000  0.49984000  1.0
  Zn  Zn2  1  0.58075000  0.50179000  0.96510000  1.0
  Zn  Zn3  1  0.40442000  0.50730000  0.96245000  1.0
  H  H4  1  0.87708000  0.41668000  0.54114000  1.0
  H  H5  1  0.87566000  0.58528000  0.44559000  1.0
  H  H6  1  0.13438000  0.43864000  0.54825000  1.0
  H  H7  1  0.14300000  0.55913000  0.43309000  1.0
  H  H8  1  0.43082000  0.11776000  0.54603000  1.0
  H  H9  1  0.61923000  0.14208000  0.45703000  1.0
  H  H10  1  0.48110000  0.88896000  0.42947000  1.0
  H  H11  1  0.54728000  0.87761000  0.55639000  1.0
  H  H12  1  0.38827000  0.58306000  0.70212000  1.0
  H  H13  1  0.61302000  0.58173000  0.76058000  1.0
  H  H14  1  0.37793000  0.48518000  0.83432000  1.0
  H  H15  1  0.38212000  0.48354000  0.75810000  1.0
  H  H16  1  0.62320000  0.48685000  0.62795000  1.0
  H  H17  1  0.61900000  0.48372000  0.70416000  1.0
  H  H18  1  0.53783000  0.31899000  0.15046000  1.0
  H  H19  1  0.43834000  0.53642000  0.17926000  1.0
  H  H20  1  0.55893000  0.53846000  0.28301000  1.0
  H  H21  1  0.46407000  0.31955000  0.31249000  1.0
  H  H22  1  0.12240000  0.41381000  0.92252000  1.0
  H  H23  1  0.12433000  0.58499000  0.01633000  1.0
  H  H24  1  0.86636000  0.43679000  0.91539000  1.0
  H  H25  1  0.85573000  0.55555000  0.03080000  1.0
  H  H26  1  0.56760000  0.11557000  0.91588000  1.0
  H  H27  1  0.38195000  0.13924000  0.00655000  1.0
  H  H28  1  0.51967000  0.88552000  0.03303000  1.0
  H  H29  1  0.45375000  0.87593000  0.90607000  1.0
  C  C30  1  0.50109000  0.36302000  0.50671000  1.0
  C  C31  1  0.51493000  0.52792000  0.57619000  1.0
  C  C32  1  0.49161000  0.65042000  0.49121000  1.0
  C  C33  1  0.52282000  0.47972000  0.42179000  1.0
  C  C34  1  0.49847000  0.36044000  0.95623000  1.0
  C  C35  1  0.48574000  0.52528000  0.88626000  1.0
  C  C36  1  0.50919000  0.64777000  0.97097000  1.0
  C  C37  1  0.47528000  0.47771000  0.04070000  1.0
  C  C38  1  0.76559000  0.46121000  0.52279000  1.0
  C  C39  1  0.84706000  0.45523000  0.52093000  1.0
  C  C40  1  0.88886000  0.50008000  0.49274000  1.0
  C  C41  1  0.84630000  0.54890000  0.46770000  1.0
  C  C42  1  0.76486000  0.55066000  0.47197000  1.0
  C  C43  1  0.97181000  0.49747000  0.49042000  1.0
  C  C44  1  0.04332000  0.49700000  0.48953000  1.0
  C  C45  1  0.12630000  0.49817000  0.49032000  1.0
  C  C46  1  0.16601000  0.46589000  0.52322000  1.0
  C  C47  1  0.24751000  0.47041000  0.52367000  1.0
  C  C48  1  0.25223000  0.53455000  0.46248000  1.0
  C  C49  1  0.17079000  0.53308000  0.45920000  1.0
  C  C50  1  0.51121000  0.27878000  0.50590000  1.0
  C  C51  1  0.46325000  0.23059000  0.52958000  1.0
  C  C52  1  0.46921000  0.15289000  0.52726000  1.0
  C  C53  1  0.52437000  0.11981000  0.50033000  1.0
  C  C54  1  0.57512000  0.16638000  0.47750000  1.0
  C  C55  1  0.56910000  0.24415000  0.48090000  1.0
  C  C56  1  0.52672000  0.04049000  0.49664000  1.0
  C  C57  1  0.52276000  0.97228000  0.49435000  1.0
  C  C58  1  0.51549000  0.89301000  0.49300000  1.0
  C  C59  1  0.49228000  0.85665000  0.45703000  1.0
  C  C60  1  0.48303000  0.77899000  0.45704000  1.0
  C  C61  1  0.49707000  0.73512000  0.49180000  1.0
  C  C62  1  0.52044000  0.77266000  0.52729000  1.0
  C  C63  1  0.52944000  0.85022000  0.52835000  1.0
  C  C64  1  0.50850000  0.53374000  0.62193000  1.0
  C  C65  1  0.49260000  0.53150000  0.84055000  1.0
  C  C66  1  0.44241000  0.56128000  0.64360000  1.0
  C  C67  1  0.43957000  0.55992000  0.68627000  1.0
  C  C68  1  0.55883000  0.55902000  0.81901000  1.0
  C  C69  1  0.56169000  0.55848000  0.77634000  1.0
  C  C70  1  0.42930000  0.50578000  0.81751000  1.0
  C  C71  1  0.43160000  0.50543000  0.77506000  1.0
  C  C72  1  0.57183000  0.50733000  0.64484000  1.0
  C  C73  1  0.56956000  0.50618000  0.68730000  1.0
  C  C74  1  0.50263000  0.53204000  0.70866000  1.0
  C  C75  1  0.49855000  0.53147000  0.75382000  1.0
  C  C76  1  0.47706000  0.45799000  0.08559000  1.0
  C  C77  1  0.50837000  0.38966000  0.09947000  1.0
  C  C78  1  0.51317000  0.37250000  0.14094000  1.0
  C  C79  1  0.48831000  0.42557000  0.17016000  1.0
  C  C80  1  0.45704000  0.49454000  0.15695000  1.0
  C  C81  1  0.45163000  0.50955000  0.11542000  1.0
  C  C82  1  0.49681000  0.41463000  0.21280000  1.0
  C  C83  1  0.50328000  0.41520000  0.24987000  1.0
  C  C84  1  0.51130000  0.42685000  0.29245000  1.0
  C  C85  1  0.54091000  0.49645000  0.30544000  1.0
  C  C86  1  0.54561000  0.51183000  0.34694000  1.0
  C  C87  1  0.52122000  0.46001000  0.37691000  1.0
  C  C88  1  0.49157000  0.39107000  0.36324000  1.0
  C  C89  1  0.48740000  0.37357000  0.32184000  1.0
  C  C90  1  0.23394000  0.45917000  0.93991000  1.0
  C  C91  1  0.15252000  0.45298000  0.94222000  1.0
  C  C92  1  0.11090000  0.49842000  0.97015000  1.0
  C  C93  1  0.15354000  0.54808000  0.99446000  1.0
  C  C94  1  0.23489000  0.55009000  0.98977000  1.0
  C  C95  1  0.02798000  0.49568000  0.97292000  1.0
  C  C96  1  0.95649000  0.49516000  0.97419000  1.0
  C  C97  1  0.87348000  0.49568000  0.97343000  1.0
  C  C98  1  0.83430000  0.46352000  0.94041000  1.0
  C  C99  1  0.75274000  0.46734000  0.93988000  1.0
  C  C100  1  0.74697000  0.53070000  0.00117000  1.0
  C  C101  1  0.82840000  0.52971000  0.00458000  1.0
  C  C102  1  0.48836000  0.27625000  0.95700000  1.0
  C  C103  1  0.53559000  0.22828000  0.93279000  1.0
  C  C104  1  0.52972000  0.15056000  0.93501000  1.0
  C  C105  1  0.47546000  0.11732000  0.96239000  1.0
  C  C106  1  0.42537000  0.16370000  0.98575000  1.0
  C  C107  1  0.43126000  0.24150000  0.98243000  1.0
  C  C108  1  0.47348000  0.03799000  0.96606000  1.0
  C  C109  1  0.47781000  0.96977000  0.96827000  1.0
  C  C110  1  0.48547000  0.89048000  0.96949000  1.0
  C  C111  1  0.50862000  0.85359000  0.00540000  1.0
  C  C112  1  0.51783000  0.77589000  0.00529000  1.0
  C  C113  1  0.50389000  0.73249000  0.97044000  1.0
  C  C114  1  0.48058000  0.77054000  0.93501000  1.0
  C  C115  1  0.47162000  0.84814000  0.93407000  1.0
  N  N116  1  0.72380000  0.50757000  0.49876000  1.0
  N  N117  1  0.29127000  0.50365000  0.49396000  1.0
  N  N118  1  0.27582000  0.50629000  0.96329000  1.0
  N  N119  1  0.70847000  0.50000000  0.96956000  1.0
  Cl  Cl120  1  0.71642000  0.40672000  0.55780000  1.0
  Cl  Cl121  1  0.71426000  0.61131000  0.44181000  1.0
  Cl  Cl122  1  0.29470000  0.43290000  0.56441000  1.0
  Cl  Cl123  1  0.30490000  0.57893000  0.42479000  1.0
  Cl  Cl124  1  0.39540000  0.26654000  0.56437000  1.0
  Cl  Cl125  1  0.63516000  0.29649000  0.45201000  1.0
  Cl  Cl126  1  0.45481000  0.73571000  0.41226000  1.0
  Cl  Cl127  1  0.53858000  0.72188000  0.57123000  1.0
  Cl  Cl128  1  0.54431000  0.32471000  0.06464000  1.0
  Cl  Cl129  1  0.41664000  0.59670000  0.10083000  1.0
  Cl  Cl130  1  0.57868000  0.59956000  0.36135000  1.0
  Cl  Cl131  1  0.45715000  0.32570000  0.39833000  1.0
  Cl  Cl132  1  0.28296000  0.40416000  0.90513000  1.0
  Cl  Cl133  1  0.28551000  0.61210000  0.01885000  1.0
  Cl  Cl134  1  0.70614000  0.42955000  0.89916000  1.0
  Cl  Cl135  1  0.69361000  0.57413000  0.03890000  1.0
  Cl  Cl136  1  0.60222000  0.26462000  0.89748000  1.0
  Cl  Cl137  1  0.36608000  0.29383000  0.01187000  1.0
  Cl  Cl138  1  0.54553000  0.73195000  0.05009000  1.0
  Cl  Cl139  1  0.46235000  0.72032000  0.89100000  1.0
  Cl  Cl140  1  0.36357000  0.60247000  0.61944000  1.0
  Cl  Cl141  1  0.63781000  0.59924000  0.84332000  1.0
  O  O142  1  0.43288000  0.38867000  0.50025000  1.0
  O  O143  1  0.56271000  0.40047000  0.51322000  1.0
  O  O144  1  0.58368000  0.53359000  0.56053000  1.0
  O  O145  1  0.45213000  0.51504000  0.55715000  1.0
  O  O146  1  0.55706000  0.61698000  0.48767000  1.0
  O  O147  1  0.42406000  0.62131000  0.49456000  1.0
  O  O148  1  0.45645000  0.49419000  0.43791000  1.0
  O  O149  1  0.58912000  0.48035000  0.43875000  1.0
  O  O150  1  0.56677000  0.38575000  0.96256000  1.0
  O  O151  1  0.43681000  0.39815000  0.94983000  1.0
  O  O152  1  0.41675000  0.53077000  0.90169000  1.0
  O  O153  1  0.54835000  0.51240000  0.90551000  1.0
  O  O154  1  0.44359000  0.61469000  0.97413000  1.0
  O  O155  1  0.57672000  0.61829000  0.96803000  1.0
  O  O156  1  0.54170000  0.49162000  0.02453000  1.0
  O  O157  1  0.40896000  0.47899000  0.02375000  1.0
