# generated using pymatgen
data_Cu3H6C9I2N3O2
_symmetry_space_group_name_H-M   'P 1'
_cell_length_a   9.79678000
_cell_length_b   10.83750000
_cell_length_c   13.02530000
_cell_angle_alpha   94.88240000
_cell_angle_beta   89.99990000
_cell_angle_gamma   89.99980000
_symmetry_Int_Tables_number   1
_chemical_formula_structural   Cu3H6C9I2N3O2
_chemical_formula_sum   'Cu12 H24 C36 I8 N12 O8'
_cell_volume   1377.91203011
_cell_formula_units_Z   4
loop_
 _symmetry_equiv_pos_site_id
 _symmetry_equiv_pos_as_xyz
  1  'x, y, z'
loop_
 _atom_site_type_symbol
 _atom_site_label
 _atom_site_symmetry_multiplicity
 _atom_site_fract_x
 _atom_site_fract_y
 _atom_site_fract_z
 _atom_site_occupancy
  Cu  Cu0  1  0.32215000  0.47382000  0.46429000  1.0
  Cu  Cu1  1  0.82216000  0.52618000  0.03571000  1.0
  Cu  Cu2  1  0.67784000  0.52619000  0.53572000  1.0
  Cu  Cu3  1  0.17785000  0.47382000  0.96429000  1.0
  Cu  Cu4  1  0.06223000  0.38623000  0.49618000  1.0
  Cu  Cu5  1  0.56224000  0.61377000  0.00382000  1.0
  Cu  Cu6  1  0.93776000  0.61378000  0.50382000  1.0
  Cu  Cu7  1  0.43776000  0.38622000  0.99618000  1.0
  Cu  Cu8  1  0.10217000  0.51765000  0.35507000  1.0
  Cu  Cu9  1  0.60218000  0.48235000  0.14493000  1.0
  Cu  Cu10  1  0.89782000  0.48236000  0.64493000  1.0
  Cu  Cu11  1  0.39782000  0.51765000  0.85507000  1.0
  H  H12  1  0.12194000  0.82576000  0.69849000  1.0
  H  H13  1  0.62193000  0.17424000  0.80152000  1.0
  H  H14  1  0.87807000  0.17424000  0.30151000  1.0
  H  H15  1  0.37806000  0.82576000  0.19848000  1.0
  H  H16  1  0.11590000  0.01429000  0.60164000  1.0
  H  H17  1  0.61589000  0.98571000  0.89837000  1.0
  H  H18  1  0.88411000  0.98571000  0.39837000  1.0
  H  H19  1  0.38410000  0.01429000  0.10163000  1.0
  H  H20  1  0.88046000  0.20479000  0.84420000  1.0
  H  H21  1  0.38046000  0.79522000  0.65581000  1.0
  H  H22  1  0.11955000  0.79521000  0.15580000  1.0
  H  H23  1  0.61954000  0.20478000  0.34419000  1.0
  H  H24  1  0.88780000  0.01712000  0.94334000  1.0
  H  H25  1  0.38780000  0.98289000  0.55667000  1.0
  H  H26  1  0.11221000  0.98288000  0.05666000  1.0
  H  H27  1  0.61220000  0.01711000  0.44333000  1.0
  H  H28  1  0.80098000  0.79355000  0.94162000  1.0
  H  H29  1  0.30098000  0.20646000  0.55839000  1.0
  H  H30  1  0.19903000  0.20646000  0.05839000  1.0
  H  H31  1  0.69902000  0.79355000  0.44161000  1.0
  H  H32  1  0.21132000  0.72656000  0.84474000  1.0
  H  H33  1  0.71132000  0.27344000  0.65525000  1.0
  H  H34  1  0.78868000  0.27343000  0.15525000  1.0
  H  H35  1  0.28868000  0.72656000  0.34474000  1.0
  C  C36  1  0.00677000  0.91156000  0.82674000  1.0
  C  C37  1  0.50677000  0.08844000  0.67326000  1.0
  C  C38  1  0.99324000  0.08843000  0.17325000  1.0
  C  C39  1  0.49323000  0.91156000  0.32674000  1.0
  C  C40  1  0.07228000  0.91004000  0.73135000  1.0
  C  C41  1  0.57227000  0.08996000  0.76866000  1.0
  C  C42  1  0.92773000  0.08996000  0.26865000  1.0
  C  C43  1  0.42772000  0.91004000  0.23135000  1.0
  C  C44  1  0.06757000  0.01476000  0.67696000  1.0
  C  C45  1  0.56757000  0.98523000  0.82304000  1.0
  C  C46  1  0.93243000  0.98524000  0.32304000  1.0
  C  C47  1  0.43243000  0.01477000  0.17696000  1.0
  C  C48  1  0.99751000  0.12090000  0.71685000  1.0
  C  C49  1  0.49751000  0.87910000  0.78315000  1.0
  C  C50  1  0.00249000  0.87910000  0.28315000  1.0
  C  C51  1  0.50248000  0.12090000  0.21685000  1.0
  C  C52  1  0.93289000  0.12110000  0.81304000  1.0
  C  C53  1  0.43289000  0.87890000  0.68696000  1.0
  C  C54  1  0.06712000  0.87890000  0.18696000  1.0
  C  C55  1  0.56711000  0.12110000  0.31304000  1.0
  C  C56  1  0.93728000  0.01692000  0.86836000  1.0
  C  C57  1  0.43728000  0.98308000  0.63165000  1.0
  C  C58  1  0.06273000  0.98308000  0.13164000  1.0
  C  C59  1  0.56272000  0.01692000  0.36835000  1.0
  C  C60  1  0.90164000  0.75234000  0.93106000  1.0
  C  C61  1  0.40164000  0.24766000  0.56895000  1.0
  C  C62  1  0.09837000  0.24766000  0.06894000  1.0
  C  C63  1  0.59836000  0.75234000  0.43105000  1.0
  C  C64  1  0.11103000  0.71638000  0.87878000  1.0
  C  C65  1  0.61103000  0.28361000  0.62122000  1.0
  C  C66  1  0.88898000  0.28361000  0.12122000  1.0
  C  C67  1  0.38897000  0.71638000  0.37877000  1.0
  C  C68  1  0.99119000  0.23318000  0.65775000  1.0
  C  C69  1  0.49119000  0.76682000  0.84225000  1.0
  C  C70  1  0.00881000  0.76682000  0.34225000  1.0
  C  C71  1  0.50881000  0.23318000  0.15774000  1.0
  I  I72  1  0.83460000  0.42232000  0.38567000  1.0
  I  I73  1  0.33460000  0.57768000  0.11433000  1.0
  I  I74  1  0.16539000  0.57769000  0.61433000  1.0
  I  I75  1  0.66540000  0.42232000  0.88567000  1.0
  I  I76  1  0.22293000  0.31230000  0.32295000  1.0
  I  I77  1  0.72294000  0.68770000  0.17706000  1.0
  I  I78  1  0.77706000  0.68771000  0.67705000  1.0
  I  I79  1  0.27706000  0.31230000  0.82294000  1.0
  N  N80  1  0.00801000  0.80188000  0.87976000  1.0
  N  N81  1  0.50801000  0.19812000  0.62024000  1.0
  N  N82  1  0.99200000  0.19812000  0.12023000  1.0
  N  N83  1  0.49199000  0.80187000  0.37976000  1.0
  N  N84  1  0.07092000  0.62095000  0.92772000  1.0
  N  N85  1  0.57091000  0.37905000  0.57228000  1.0
  N  N86  1  0.92909000  0.37905000  0.07228000  1.0
  N  N87  1  0.42908000  0.62095000  0.42772000  1.0
  N  N88  1  0.93836000  0.64378000  0.96073000  1.0
  N  N89  1  0.43836000  0.35622000  0.53927000  1.0
  N  N90  1  0.06164000  0.35622000  0.03927000  1.0
  N  N91  1  0.56163000  0.64378000  0.46073000  1.0
  O  O92  1  0.90993000  0.31918000  0.69360000  1.0
  O  O93  1  0.40994000  0.68082000  0.80640000  1.0
  O  O94  1  0.09007000  0.68082000  0.30640000  1.0
  O  O95  1  0.59006000  0.31917000  0.19359000  1.0
  O  O96  1  0.06352000  0.23558000  0.57678000  1.0
  O  O97  1  0.56352000  0.76442000  0.92322000  1.0
  O  O98  1  0.93648000  0.76443000  0.42322000  1.0
  O  O99  1  0.43648000  0.23558000  0.07678000  1.0
