# generated using pymatgen
data_CuH2C2N3
_symmetry_space_group_name_H-M   'P 1'
_cell_length_a   7.66913000
_cell_length_b   8.64828000
_cell_length_c   10.52060000
_cell_angle_alpha   80.10540000
_cell_angle_beta   78.80840000
_cell_angle_gamma   80.28880000
_symmetry_Int_Tables_number   1
_chemical_formula_structural   CuH2C2N3
_chemical_formula_sum   'Cu8 H16 C16 N24'
_cell_volume   667.68106330
_cell_formula_units_Z   8
loop_
 _symmetry_equiv_pos_site_id
 _symmetry_equiv_pos_as_xyz
  1  'x, y, z'
loop_
 _atom_site_type_symbol
 _atom_site_label
 _atom_site_symmetry_multiplicity
 _atom_site_fract_x
 _atom_site_fract_y
 _atom_site_fract_z
 _atom_site_occupancy
  Cu  Cu0  1  0.42083000  0.82369000  0.76110000  1.0
  Cu  Cu1  1  0.57917000  0.17631000  0.23890000  1.0
  Cu  Cu2  1  0.64298000  0.58363000  0.52504000  1.0
  Cu  Cu3  1  0.35702000  0.41637000  0.47495000  1.0
  Cu  Cu4  1  0.17128000  0.10124000  0.25520000  1.0
  Cu  Cu5  1  0.82872000  0.89877000  0.74480000  1.0
  Cu  Cu6  1  0.92190000  0.33322000  0.02445000  1.0
  Cu  Cu7  1  0.07810000  0.66678000  0.97555000  1.0
  H  H8  1  0.46886000  0.79221000  0.28133000  1.0
  H  H9  1  0.53114000  0.20780000  0.71867000  1.0
  H  H10  1  0.16113000  0.05311000  0.56837000  1.0
  H  H11  1  0.83886000  0.94688000  0.43163000  1.0
  H  H12  1  0.63169000  0.63788000  0.99302000  1.0
  H  H13  1  0.36830000  0.36212000  0.00698000  1.0
  H  H14  1  0.83844000  0.30921000  0.73255000  1.0
  H  H15  1  0.16157000  0.69079000  0.26744000  1.0
  H  H16  1  0.68072000  0.56530000  0.22158000  1.0
  H  H17  1  0.31928000  0.43470000  0.77842000  1.0
  H  H18  1  0.00090000  0.31515000  0.49144000  1.0
  H  H19  1  0.99911000  0.68485000  0.50855000  1.0
  H  H20  1  0.39353000  0.85352000  0.06235000  1.0
  H  H21  1  0.60647000  0.14648000  0.93765000  1.0
  H  H22  1  0.13853000  0.15266000  0.77496000  1.0
  H  H23  1  0.86147000  0.84734000  0.22504000  1.0
  C  C24  1  0.41485000  0.83517000  0.37378000  1.0
  C  C25  1  0.58515000  0.16483000  0.62622000  1.0
  C  C26  1  0.26001000  0.96798000  0.51925000  1.0
  C  C27  1  0.73999000  0.03202000  0.48075000  1.0
  C  C28  1  0.65894000  0.57749000  0.90781000  1.0
  C  C29  1  0.34105000  0.42251000  0.09220000  1.0
  C  C30  1  0.76521000  0.41183000  0.77543000  1.0
  C  C31  1  0.23480000  0.58817000  0.22457000  1.0
  C  C32  1  0.78149000  0.48236000  0.26633000  1.0
  C  C33  1  0.21852000  0.51764000  0.73367000  1.0
  C  C34  1  0.94215000  0.35399000  0.40350000  1.0
  C  C35  1  0.05786000  0.64601000  0.59650000  1.0
  C  C36  1  0.30997000  0.94979000  0.01313000  1.0
  C  C37  1  0.69004000  0.05021000  0.98687000  1.0
  C  C38  1  0.18052000  0.10102000  0.86757000  1.0
  C  C39  1  0.81948000  0.89897000  0.13243000  1.0
  N  N40  1  0.37571000  0.86193000  0.57949000  1.0
  N  N41  1  0.62429000  0.13807000  0.42051000  1.0
  N  N42  1  0.47617000  0.77475000  0.48463000  1.0
  N  N43  1  0.52383000  0.22526000  0.51537000  1.0
  N  N44  1  0.27858000  0.95646000  0.38999000  1.0
  N  N45  1  0.72142000  0.04354000  0.61001000  1.0
  N  N46  1  0.65760000  0.52524000  0.71301000  1.0
  N  N47  1  0.34240000  0.47476000  0.28699000  1.0
  N  N48  1  0.58795000  0.63291000  0.79991000  1.0
  N  N49  1  0.41205000  0.36709000  0.20009000  1.0
  N  N50  1  0.77049000  0.43912000  0.89786000  1.0
  N  N51  1  0.22951000  0.56088000  0.10214000  1.0
  N  N52  1  0.99721000  0.28832000  0.29416000  1.0
  N  N53  1  0.00279000  0.71168000  0.70584000  1.0
  N  N54  1  0.89241000  0.37210000  0.20480000  1.0
  N  N55  1  0.10759000  0.62790000  0.79520000  1.0
  N  N56  1  0.80680000  0.47627000  0.39134000  1.0
  N  N57  1  0.19320000  0.52373000  0.60866000  1.0
  N  N58  1  0.11906000  0.16257000  0.97859000  1.0
  N  N59  1  0.88094000  0.83742000  0.02141000  1.0
  N  N60  1  0.20445000  0.06380000  0.07360000  1.0
  N  N61  1  0.79555000  0.93620000  0.92640000  1.0
  N  N62  1  0.30082000  0.96769000  0.88384000  1.0
  N  N63  1  0.69918000  0.03231000  0.11616000  1.0
