# generated using pymatgen
data_MgH22C20(NO4)2
_symmetry_space_group_name_H-M   'P 1'
_cell_length_a   7.94575000
_cell_length_b   17.79706384
_cell_length_c   17.79550000
_cell_angle_alpha   59.99672120
_cell_angle_beta   89.99020000
_cell_angle_gamma   90.00019993
_symmetry_Int_Tables_number   1
_chemical_formula_structural   MgH22C20(NO4)2
_chemical_formula_sum   'Mg3 H66 C60 N6 O24'
_cell_volume   2179.26339033
_cell_formula_units_Z   3
loop_
 _symmetry_equiv_pos_site_id
 _symmetry_equiv_pos_as_xyz
  1  'x, y, z'
loop_
 _atom_site_type_symbol
 _atom_site_label
 _atom_site_symmetry_multiplicity
 _atom_site_fract_x
 _atom_site_fract_y
 _atom_site_fract_z
 _atom_site_occupancy
  Mg  Mg0  1  0.33352000  0.00001000  0.45951000  1.0
  Mg  Mg1  1  0.66647000  0.45952000  0.54050000  1.0
  Mg  Mg2  1  0.00001000  0.54044000  0.00000000  1.0
  H  H3  1  0.45146000  0.88421000  0.30799000  1.0
  H  H4  1  0.33141000  0.57602000  0.44999000  1.0
  H  H5  1  0.47372000  0.03496000  0.76010000  1.0
  H  H6  1  0.66486000  0.44999000  0.97401000  1.0
  H  H7  1  0.11792000  0.80778000  0.88420000  1.0
  H  H8  1  0.14724000  0.55160000  0.86955000  1.0
  H  H9  1  0.85942000  0.23989000  0.96510000  1.0
  H  H10  1  0.18607000  0.35894000  0.38460000  1.0
  H  H11  1  0.51925000  0.44840000  0.42120000  1.0
  H  H12  1  0.85287000  0.25647000  0.35891000  1.0
  H  H13  1  0.65337000  0.27923000  0.39090000  1.0
  H  H14  1  0.00416000  0.78368000  0.55391000  1.0
  H  H15  1  0.66288000  0.45254000  0.31079000  1.0
  H  H16  1  0.84422000  0.09065000  0.59149000  1.0
  H  H17  1  0.33744000  0.55402000  0.66234000  1.0
  H  H18  1  0.18614000  0.13039000  0.44836000  1.0
  H  H19  1  0.32919000  0.44605000  0.21633000  1.0
  H  H20  1  0.54853000  0.19220000  0.69201000  1.0
  H  H21  1  0.45990000  0.24980000  0.20225000  1.0
  H  H22  1  0.15576000  0.68215000  0.40850000  1.0
  H  H23  1  0.68012000  0.60915000  0.72079000  1.0
  H  H24  1  0.99642000  0.31072000  0.23671000  1.0
  H  H25  1  0.98644000  0.39086000  0.32997000  1.0
  H  H26  1  0.33516000  0.42399000  0.02600000  1.0
  H  H27  1  0.00360000  0.54743000  0.76329000  1.0
  H  H28  1  0.80719000  0.76009000  0.20493000  1.0
  H  H29  1  0.97443000  0.17215000  0.50927000  1.0
  H  H30  1  0.01356000  0.72084000  0.67003000  1.0
  H  H31  1  0.82252000  0.90943000  0.68201000  1.0
  H  H32  1  0.99584000  0.33757000  0.44610000  1.0
  H  H33  1  0.17747000  0.59143000  0.31801000  1.0
  H  H34  1  0.21572000  0.11587000  0.19209000  1.0
  H  H35  1  0.64105000  0.31865000  0.17214000  1.0
  H  H36  1  0.51095000  0.31791000  0.09064000  1.0
  H  H37  1  0.02557000  0.68142000  0.49074000  1.0
  H  H38  1  0.87358000  0.79785000  0.75017000  1.0
  H  H39  1  0.19282000  0.96501000  0.79506000  1.0
  H  H40  1  0.79325000  0.20225000  0.54801000  1.0
  H  H41  1  0.66857000  0.02601000  0.55001000  1.0
  H  H42  1  0.48075000  0.86960000  0.57879000  1.0
  H  H43  1  0.34663000  0.67015000  0.60908000  1.0
  H  H44  1  0.33712000  0.76333000  0.68920000  1.0
  H  H45  1  0.54010000  0.45205000  0.79776000  1.0
  H  H46  1  0.35896000  0.49079000  0.82787000  1.0
  H  H47  1  0.69241000  0.82789000  0.68134000  1.0
  H  H48  1  0.52628000  0.79507000  0.23990000  1.0
  H  H49  1  0.78427000  0.30797000  0.80790000  1.0
  H  H50  1  0.67082000  0.66238000  0.78368000  1.0
  H  H51  1  0.51944000  0.38463000  0.25646000  1.0
  H  H52  1  0.31988000  0.32994000  0.27921000  1.0
  H  H53  1  0.32955000  0.23667000  0.45253000  1.0
  H  H54  1  0.20675000  0.75026000  0.45198000  1.0
  H  H55  1  0.30758000  0.50922000  0.31867000  1.0
  H  H56  1  0.85277000  0.42116000  0.13045000  1.0
  H  H57  1  0.14057000  0.20499000  0.03489000  1.0
  H  H58  1  0.66256000  0.21636000  0.33765000  1.0
  H  H59  1  0.00166000  0.54993000  0.42410000  1.0
  H  H60  1  0.88210000  0.69199000  0.11580000  1.0
  H  H61  1  0.48056000  0.64109000  0.74355000  1.0
  H  H62  1  0.12642000  0.54801000  0.24984000  1.0
  H  H63  1  0.81386000  0.57876000  0.55162000  1.0
  H  H64  1  0.14713000  0.61539000  0.64109000  1.0
  H  H65  1  0.81393000  0.74354000  0.61540000  1.0
  H  H66  1  0.67046000  0.68921000  0.54746000  1.0
  H  H67  1  0.48906000  0.40855000  0.90937000  1.0
  H  H68  1  0.99831000  0.97404000  0.57590000  1.0
  C  C69  1  0.02380000  0.30765000  0.04646000  1.0
  C  C70  1  0.97620000  0.35411000  0.95355000  1.0
  C  C71  1  0.72675000  0.23108000  0.38313000  1.0
  C  C72  1  0.35708000  0.04646000  0.64587000  1.0
  C  C73  1  0.94007000  0.76896000  0.61415000  1.0
  C  C74  1  0.97353000  0.47951000  0.80730000  1.0
  C  C75  1  0.84994000  0.34461000  0.83291000  1.0
  C  C76  1  0.10759000  0.22744000  0.07993000  1.0
  C  C77  1  0.48878000  0.46781000  0.84562000  1.0
  C  C78  1  0.50662000  0.84376000  0.47373000  1.0
  C  C79  1  0.17314000  0.68249000  0.84376000  1.0
  C  C80  1  0.83957000  0.47369000  0.68255000  1.0
  C  C81  1  0.64037000  0.71315000  0.47955000  1.0
  C  C82  1  0.89240000  0.30736000  0.92008000  1.0
  C  C83  1  0.27324000  0.61423000  0.61685000  1.0
  C  C84  1  0.69297000  0.52045000  0.28684000  1.0
  C  C85  1  0.64836000  0.55830000  0.33663000  1.0
  C  C86  1  0.84458000  0.15440000  0.53224000  1.0
  C  C87  1  0.34930000  0.56526000  0.51617000  1.0
  C  C88  1  0.15006000  0.17752000  0.16708000  1.0
  C  C89  1  0.44294000  0.22417000  0.56817000  1.0
  C  C90  1  0.22364000  0.77581000  0.79234000  1.0
  C  C91  1  0.31724000  0.43475000  0.08141000  1.0
  C  C92  1  0.18352000  0.83283000  0.82252000  1.0
  C  C93  1  0.01622000  0.91861000  0.56517000  1.0
  C  C94  1  0.30703000  0.80730000  0.71314000  1.0
  C  C95  1  0.51123000  0.31342000  0.15439000  1.0
  C  C96  1  0.82223000  0.84567000  0.68654000  1.0
  C  C97  1  0.65070000  0.08143000  0.48383000  1.0
  C  C98  1  0.98374000  0.48377000  0.43484000  1.0
  C  C99  1  0.35963000  0.19270000  0.52044000  1.0
  C  C100  1  0.01820000  0.44168000  0.89491000  1.0
  C  C101  1  0.15541000  0.68664000  0.46776000  1.0
  C  C102  1  0.22586000  0.92000000  0.77258000  1.0
  C  C103  1  0.60668000  0.61689000  0.76895000  1.0
  C  C104  1  0.48301000  0.16714000  0.65538000  1.0
  C  C105  1  0.77638000  0.56816000  0.20766000  1.0
  C  C106  1  0.44073000  0.07997000  0.69260000  1.0
  C  C107  1  0.02647000  0.28681000  0.19271000  1.0
  C  C108  1  0.16043000  0.15624000  0.31745000  1.0
  C  C109  1  0.30959000  0.95352000  0.69233000  1.0
  C  C110  1  0.05993000  0.38310000  0.38586000  1.0
  C  C111  1  0.68490000  0.66335000  0.44171000  1.0
  C  C112  1  0.98180000  0.33660000  0.10508000  1.0
  C  C113  1  0.49338000  0.31748000  0.52628000  1.0
  C  C114  1  0.64292000  0.69233000  0.35414000  1.0
  C  C115  1  0.81650000  0.65536000  0.17749000  1.0
  C  C116  1  0.39333000  0.38584000  0.23105000  1.0
  C  C117  1  0.51698000  0.82252000  0.34462000  1.0
  C  C118  1  0.35164000  0.89493000  0.66336000  1.0
  C  C119  1  0.89005000  0.43180000  0.77586000  1.0
  C  C120  1  0.31509000  0.10505000  0.55829000  1.0
  C  C121  1  0.77415000  0.69259000  0.22742000  1.0
  C  C122  1  0.68278000  0.51616000  0.91860000  1.0
  C  C123  1  0.55927000  0.77258000  0.30740000  1.0
  C  C124  1  0.82688000  0.52625000  0.15625000  1.0
  C  C125  1  0.10995000  0.20766000  0.22413000  1.0
  C  C126  1  0.55706000  0.79234000  0.43183000  1.0
  C  C127  1  0.17776000  0.53220000  0.31347000  1.0
  C  C128  1  0.69042000  0.64586000  0.30767000  1.0
  N  N129  1  0.25773000  0.61743000  0.53388000  1.0
  N  N130  1  0.74226000  0.15130000  0.46612000  1.0
  N  N131  1  0.40887000  0.38262000  0.15129000  1.0
  N  N132  1  0.59115000  0.53391000  0.84872000  1.0
  N  N133  1  0.07540000  0.46606000  0.38268000  1.0
  N  N134  1  0.92458000  0.84875000  0.61733000  1.0
  O  O135  1  0.77149000  0.58786000  0.48879000  1.0
  O  O136  1  0.13159000  0.18939000  0.36611000  1.0
  O  O137  1  0.88341000  0.43172000  0.49132000  1.0
  O  O138  1  0.10488000  0.48877000  0.92330000  1.0
  O  O139  1  0.56167000  0.51121000  0.41211000  1.0
  O  O140  1  0.44954000  0.50875000  0.56821000  1.0
  O  O141  1  0.89513000  0.41207000  0.07670000  1.0
  O  O142  1  0.21692000  0.49122000  0.07694000  1.0
  O  O143  1  0.22851000  0.07666000  0.51120000  1.0
  O  O144  1  0.23074000  0.08342000  0.34349000  1.0
  O  O145  1  0.55045000  0.07695000  0.43180000  1.0
  O  O146  1  0.76926000  0.42691000  0.65651000  1.0
  O  O147  1  0.43832000  0.92332000  0.58788000  1.0
  O  O148  1  0.89710000  0.57304000  0.08338000  1.0
  O  O149  1  0.78310000  0.56817000  0.92306000  1.0
  O  O150  1  0.79819000  0.44443000  0.18946000  1.0
  O  O151  1  0.10294000  0.65642000  0.91662000  1.0
  O  O152  1  0.53531000  0.81057000  0.55556000  1.0
  O  O153  1  0.56356000  0.34354000  0.57308000  1.0
  O  O154  1  0.11654000  0.92305000  0.50869000  1.0
  O  O155  1  0.46470000  0.36613000  0.44444000  1.0
  O  O156  1  0.43642000  0.91662000  0.42692000  1.0
  O  O157  1  0.86842000  0.55550000  0.63389000  1.0
  O  O158  1  0.20182000  0.63388000  0.81054000  1.0
