# generated using pymatgen
data_Al2H15C30(ClO4)3
_symmetry_space_group_name_H-M   'P 1'
_cell_length_a   4.00313000
_cell_length_b   17.23060000
_cell_length_c   17.23060000
_cell_angle_alpha   120.00000000
_cell_angle_beta   90.00000000
_cell_angle_gamma   90.00000000
_symmetry_Int_Tables_number   1
_chemical_formula_structural   Al2H15C30(ClO4)3
_chemical_formula_sum   'Al2 H15 C30 Cl3 O12'
_cell_volume   1029.27429479
_cell_formula_units_Z   1
loop_
 _symmetry_equiv_pos_site_id
 _symmetry_equiv_pos_as_xyz
  1  'x, y, z'
loop_
 _atom_site_type_symbol
 _atom_site_label
 _atom_site_symmetry_multiplicity
 _atom_site_fract_x
 _atom_site_fract_y
 _atom_site_fract_z
 _atom_site_occupancy
  Al  Al0  1  0.99060000  0.50000000  0.00000000  1.0
  Al  Al1  1  0.99855000  0.83333000  0.66666000  1.0
  H  H2  1  0.53498000  0.83610000  0.41791000  1.0
  H  H3  1  0.26140000  0.52630000  0.41255000  1.0
  H  H4  1  0.70635000  0.52816000  0.41597000  1.0
  H  H5  1  0.72596000  0.44731000  0.24755000  1.0
  H  H6  1  0.28167000  0.44471000  0.24352000  1.0
  H  H7  1  0.53497000  0.58180000  0.66389000  1.0
  H  H8  1  0.26140000  0.88625000  0.97369000  1.0
  H  H9  1  0.70634000  0.88781000  0.97183000  1.0
  H  H10  1  0.72596000  0.80023000  0.05268000  1.0
  H  H11  1  0.28167000  0.79881000  0.05529000  1.0
  H  H12  1  0.53496000  0.08209000  0.91819000  1.0
  H  H13  1  0.26139000  0.08744000  0.61374000  1.0
  H  H14  1  0.70634000  0.08402000  0.61219000  1.0
  H  H15  1  0.72596000  0.25245000  0.69976000  1.0
  H  H16  1  0.28166000  0.25648000  0.70119000  1.0
  C  C17  1  0.49339000  0.36293000  0.93448000  1.0
  C  C18  1  0.49338000  0.57155000  0.13707000  1.0
  C  C19  1  0.49338000  0.56551000  0.92844000  1.0
  C  C20  1  0.49914000  0.76681000  0.52938000  1.0
  C  C21  1  0.49914000  0.76258000  0.73319000  1.0
  C  C22  1  0.49915000  0.97061000  0.73742000  1.0
  C  C23  1  0.50094000  0.71714000  0.42981000  1.0
  C  C24  1  0.50126000  0.62308000  0.23680000  1.0
  C  C25  1  0.48811000  0.62406000  0.37936000  1.0
  C  C26  1  0.50893000  0.71751000  0.28813000  1.0
  C  C27  1  0.49929000  0.57908000  0.28605000  1.0
  C  C28  1  0.51838000  0.76324000  0.38185000  1.0
  C  C29  1  0.48684000  0.53815000  0.38365000  1.0
  C  C30  1  0.49918000  0.48702000  0.27763000  1.0
  C  C31  1  0.50094000  0.71267000  0.78286000  1.0
  C  C32  1  0.50126000  0.61372000  0.87692000  1.0
  C  C33  1  0.48812000  0.75530000  0.87594000  1.0
  C  C34  1  0.50893000  0.57062000  0.78249000  1.0
  C  C35  1  0.49928000  0.70697000  0.92091000  1.0
  C  C36  1  0.51838000  0.61861000  0.73676000  1.0
  C  C37  1  0.48684000  0.84550000  0.96185000  1.0
  C  C38  1  0.49918000  0.79061000  0.01298000  1.0
  C  C39  1  0.50095000  0.07019000  0.78733000  1.0
  C  C40  1  0.50126000  0.26320000  0.88628000  1.0
  C  C41  1  0.48812000  0.12064000  0.74470000  1.0
  C  C42  1  0.50893000  0.21187000  0.92938000  1.0
  C  C43  1  0.49928000  0.21394000  0.79302000  1.0
  C  C44  1  0.51838000  0.11815000  0.88139000  1.0
  C  C45  1  0.48684000  0.11635000  0.65450000  1.0
  C  C46  1  0.49918000  0.22237000  0.70939000  1.0
  Cl  Cl47  1  0.52341000  0.78054000  0.23518000  1.0
  Cl  Cl48  1  0.52343000  0.45464000  0.71946000  1.0
  Cl  Cl49  1  0.52342000  0.26482000  0.04536000  1.0
  O  O50  1  0.72492000  0.58460000  0.98601000  1.0
  O  O51  1  0.72492000  0.40141000  0.91540000  1.0
  O  O52  1  0.72492000  0.51399000  0.09859000  1.0
  O  O53  1  0.25380000  0.51140000  0.91351000  1.0
  O  O54  1  0.25380000  0.58650000  0.09789000  1.0
  O  O55  1  0.25381000  0.40211000  0.98861000  1.0
  O  O56  1  0.73230000  0.93053000  0.75399000  1.0
  O  O57  1  0.73230000  0.82346000  0.56947000  1.0
  O  O58  1  0.73230000  0.74601000  0.67654000  1.0
  O  O59  1  0.26339000  0.93243000  0.68101000  1.0
  O  O60  1  0.26339000  0.81899000  0.75142000  1.0
  O  O61  1  0.26338000  0.74858000  0.56757000  1.0
