# generated using pymatgen
data_ZnH28C22(N2O3)2
_symmetry_space_group_name_H-M   'P 1'
_cell_length_a   8.31539000
_cell_length_b   11.39420000
_cell_length_c   13.29460000
_cell_angle_alpha   98.94150000
_cell_angle_beta   105.57700000
_cell_angle_gamma   96.46170000
_symmetry_Int_Tables_number   1
_chemical_formula_structural   ZnH28C22(N2O3)2
_chemical_formula_sum   'Zn2 H56 C44 N8 O12'
_cell_volume   1182.75734838
_cell_formula_units_Z   2
loop_
 _symmetry_equiv_pos_site_id
 _symmetry_equiv_pos_as_xyz
  1  'x, y, z'
loop_
 _atom_site_type_symbol
 _atom_site_label
 _atom_site_symmetry_multiplicity
 _atom_site_fract_x
 _atom_site_fract_y
 _atom_site_fract_z
 _atom_site_occupancy
  Zn  Zn0  1  0.43420000  0.29276000  0.29315000  1.0
  Zn  Zn1  1  0.56580000  0.70724000  0.70685000  1.0
  H  H2  1  0.17835000  0.08650000  0.30401000  1.0
  H  H3  1  0.82165000  0.91350000  0.69599000  1.0
  H  H4  1  0.74645000  0.38649000  0.22017000  1.0
  H  H5  1  0.25355000  0.61351000  0.77983000  1.0
  H  H6  1  0.87396000  0.09928000  0.21891000  1.0
  H  H7  1  0.12604000  0.90072000  0.78109000  1.0
  H  H8  1  0.76089000  0.07501000  0.08315000  1.0
  H  H9  1  0.23912000  0.92499000  0.91685000  1.0
  H  H10  1  0.81637000  0.87924000  0.11834000  1.0
  H  H11  1  0.18364000  0.12077000  0.88166000  1.0
  H  H12  1  0.76007000  0.90202000  0.23796000  1.0
  H  H13  1  0.23993000  0.09799000  0.76204000  1.0
  H  H14  1  0.53063000  0.76298000  0.08668000  1.0
  H  H15  1  0.46938000  0.23702000  0.91332000  1.0
  H  H16  1  0.51352000  0.88116000  0.01559000  1.0
  H  H17  1  0.48648000  0.11884000  0.98441000  1.0
  H  H18  1  0.29094000  0.88668000  0.10478000  1.0
  H  H19  1  0.70906000  0.11332000  0.89522000  1.0
  H  H20  1  0.42522000  0.86395000  0.22344000  1.0
  H  H21  1  0.57478000  0.13605000  0.77656000  1.0
  H  H22  1  0.73626000  0.73427000  0.31176000  1.0
  H  H23  1  0.26375000  0.26573000  0.68824000  1.0
  H  H24  1  0.60674000  0.70363000  0.39630000  1.0
  H  H25  1  0.39326000  0.29637000  0.60370000  1.0
  H  H26  1  0.51169000  0.69915000  0.25977000  1.0
  H  H27  1  0.48831000  0.30085000  0.74023000  1.0
  H  H28  1  0.11151000  0.41590000  0.50813000  1.0
  H  H29  1  0.88849000  0.58410000  0.49187000  1.0
  H  H30  1  0.00176000  0.27185000  0.51200000  1.0
  H  H31  1  0.99825000  0.72815000  0.48800000  1.0
  H  H32  1  0.92570000  0.34587000  0.40512000  1.0
  H  H33  1  0.07431000  0.65413000  0.59488000  1.0
  H  H34  1  0.63115000  0.46588000  0.49661000  1.0
  H  H35  1  0.36885000  0.53412000  0.50339000  1.0
  H  H36  1  0.81582000  0.47184000  0.67514000  1.0
  H  H37  1  0.18418000  0.52816000  0.32486000  1.0
  H  H38  1  0.75836000  0.08294000  0.59696000  1.0
  H  H39  1  0.24164000  0.91706000  0.40304000  1.0
  H  H40  1  0.57343000  0.09414000  0.41834000  1.0
  H  H41  1  0.42657000  0.90586000  0.58166000  1.0
  H  H42  1  0.05543000  0.27735000  0.75045000  1.0
  H  H43  1  0.94458000  0.72265000  0.24956000  1.0
  H  H44  1  0.89613000  0.18414000  0.77926000  1.0
  H  H45  1  0.10387000  0.81586000  0.22074000  1.0
  H  H46  1  0.97643000  0.46110000  0.83243000  1.0
  H  H47  1  0.02356000  0.53890000  0.16757000  1.0
  H  H48  1  0.80237000  0.37785000  0.85717000  1.0
  H  H49  1  0.19762000  0.62214000  0.14283000  1.0
  H  H50  1  0.84848000  0.28600000  0.01647000  1.0
  H  H51  1  0.15151000  0.71400000  0.98353000  1.0
  H  H52  1  0.04976000  0.25090000  0.17930000  1.0
  H  H53  1  0.95023000  0.74910000  0.82070000  1.0
  H  H54  1  0.46337000  0.38760000  0.09148000  1.0
  H  H55  1  0.53662000  0.61240000  0.90852000  1.0
  H  H56  1  0.27662000  0.42619000  0.92083000  1.0
  H  H57  1  0.72337000  0.57381000  0.07917000  1.0
  C  C58  1  0.46322000  0.04139000  0.19762000  1.0
  C  C59  1  0.53678000  0.95861000  0.80238000  1.0
  C  C60  1  0.61514000  0.11413000  0.18989000  1.0
  C  C61  1  0.38487000  0.88587000  0.81011000  1.0
  C  C62  1  0.75310000  0.05522000  0.16058000  1.0
  C  C63  1  0.24690000  0.94478000  0.83942000  1.0
  C  C64  1  0.72789000  0.91932000  0.15619000  1.0
  C  C65  1  0.27211000  0.08068000  0.84381000  1.0
  C  C66  1  0.54539000  0.86154000  0.09650000  1.0
  C  C67  1  0.45461000  0.13846000  0.90350000  1.0
  C  C68  1  0.42339000  0.90837000  0.15507000  1.0
  C  C69  1  0.57662000  0.09163000  0.84493000  1.0
  C  C70  1  0.62825000  0.54610000  0.29007000  1.0
  C  C71  1  0.37175000  0.45390000  0.70993000  1.0
  C  C72  1  0.62308000  0.67951000  0.31705000  1.0
  C  C73  1  0.37692000  0.32049000  0.68296000  1.0
  C  C74  1  0.14052000  0.26565000  0.39622000  1.0
  C  C75  1  0.85948000  0.73435000  0.60378000  1.0
  C  C76  1  0.04070000  0.32898000  0.46101000  1.0
  C  C77  1  0.95930000  0.67102000  0.53899000  1.0
  C  C78  1  0.66320000  0.38258000  0.52101000  1.0
  C  C79  1  0.33680000  0.61741000  0.47898000  1.0
  C  C80  1  0.76823000  0.38458000  0.62236000  1.0
  C  C81  1  0.23177000  0.61542000  0.37764000  1.0
  C  C82  1  0.80753000  0.27673000  0.65262000  1.0
  C  C83  1  0.19247000  0.72326000  0.34738000  1.0
  C  C84  1  0.73430000  0.17008000  0.57761000  1.0
  C  C85  1  0.26571000  0.82991000  0.42239000  1.0
  C  C86  1  0.63108000  0.17578000  0.47781000  1.0
  C  C87  1  0.36892000  0.82422000  0.52219000  1.0
  C  C88  1  0.92663000  0.27219000  0.75883000  1.0
  C  C89  1  0.07337000  0.72781000  0.24117000  1.0
  C  C90  1  0.93071000  0.37467000  0.85013000  1.0
  C  C91  1  0.06929000  0.62533000  0.14987000  1.0
  C  C92  1  0.04608000  0.35747000  0.95316000  1.0
  C  C93  1  0.95391000  0.64252000  0.04684000  1.0
  C  C94  1  0.98398000  0.30777000  0.02781000  1.0
  C  C95  1  0.01601000  0.69223000  0.97219000  1.0
  C  C96  1  0.09624000  0.28809000  0.11985000  1.0
  C  C97  1  0.90376000  0.71191000  0.88015000  1.0
  C  C98  1  0.32592000  0.36502000  0.07071000  1.0
  C  C99  1  0.67408000  0.63498000  0.92929000  1.0
  C  C100  1  0.22238000  0.38699000  0.97673000  1.0
  C  C101  1  0.77762000  0.61301000  0.02327000  1.0
  N  N102  1  0.36865000  0.09715000  0.24593000  1.0
  N  N103  1  0.63136000  0.90285000  0.75406000  1.0
  N  N104  1  0.62215000  0.23034000  0.21083000  1.0
  N  N105  1  0.37785000  0.76966000  0.78917000  1.0
  N  N106  1  0.59623000  0.28039000  0.44859000  1.0
  N  N107  1  0.40377000  0.71961000  0.55141000  1.0
  N  N108  1  0.26498000  0.31581000  0.14154000  1.0
  N  N109  1  0.73502000  0.68419000  0.85846000  1.0
  O  O110  1  0.22776000  0.02796000  0.25098000  1.0
  O  O111  1  0.77224000  0.97204000  0.74902000  1.0
  O  O112  1  0.76591000  0.29606000  0.20464000  1.0
  O  O113  1  0.23409000  0.70394000  0.79536000  1.0
  O  O114  1  0.52936000  0.47659000  0.32103000  1.0
  O  O115  1  0.47064000  0.52341000  0.67897000  1.0
  O  O116  1  0.72750000  0.51297000  0.23642000  1.0
  O  O117  1  0.27250000  0.48703000  0.76358000  1.0
  O  O118  1  0.24650000  0.33071000  0.36614000  1.0
  O  O119  1  0.75351000  0.66930000  0.63386000  1.0
  O  O120  1  0.10722000  0.15059000  0.37320000  1.0
  O  O121  1  0.89279000  0.84941000  0.62680000  1.0
