# generated using pymatgen
data_ZnH11C20(NO2)2
_symmetry_space_group_name_H-M   'P 1'
_cell_length_a   14.83390000
_cell_length_b   15.26130000
_cell_length_c   16.21920000
_cell_angle_alpha   89.58440000
_cell_angle_beta   90.00800000
_cell_angle_gamma   89.87600000
_symmetry_Int_Tables_number   1
_chemical_formula_structural   ZnH11C20(NO2)2
_chemical_formula_sum   'Zn2 H22 C40 N4 O8'
_cell_volume   3671.67183601
_cell_formula_units_Z   2
loop_
 _symmetry_equiv_pos_site_id
 _symmetry_equiv_pos_as_xyz
  1  'x, y, z'
loop_
 _atom_site_type_symbol
 _atom_site_label
 _atom_site_symmetry_multiplicity
 _atom_site_fract_x
 _atom_site_fract_y
 _atom_site_fract_z
 _atom_site_occupancy
  Zn  Zn0  1  0.59346000  0.50047000  0.49926000  1.0
  Zn  Zn1  1  0.40654000  0.49954000  0.50073000  1.0
  H  H2  1  0.63861000  0.77636000  0.47078000  1.0
  H  H3  1  0.36140000  0.22364000  0.52923000  1.0
  H  H4  1  0.35509000  0.77866000  0.52059000  1.0
  H  H5  1  0.64491000  0.22134000  0.47942000  1.0
  H  H6  1  0.27551000  0.08471000  0.53424000  1.0
  H  H7  1  0.72450000  0.91529000  0.46580000  1.0
  H  H8  1  0.64382000  0.51544000  0.07770000  1.0
  H  H9  1  0.35618000  0.48457000  0.92230000  1.0
  H  H10  1  0.64498000  0.51521000  0.92395000  1.0
  H  H11  1  0.35502000  0.48480000  0.07605000  1.0
  H  H12  1  0.08334000  0.35789000  0.50738000  1.0
  H  H13  1  0.91667000  0.64211000  0.49262000  1.0
  H  H14  1  0.08533000  0.64074000  0.49291000  1.0
  H  H15  1  0.91468000  0.35926000  0.50709000  1.0
  H  H16  1  0.20289000  0.95367000  0.55105000  1.0
  H  H17  1  0.19816000  0.92129000  0.40304000  1.0
  H  H18  1  0.15419000  0.83466000  0.46630000  1.0
  H  H19  1  0.26525000  0.82745000  0.42571000  1.0
  H  H20  1  0.79713000  0.04633000  0.44901000  1.0
  H  H21  1  0.80182000  0.07874000  0.59701000  1.0
  H  H22  1  0.73474000  0.17256000  0.57432000  1.0
  H  H23  1  0.84581000  0.16535000  0.53376000  1.0
  C  C24  1  0.49963000  0.49995000  0.33861000  1.0
  C  C25  1  0.50037000  0.50005000  0.66139000  1.0
  C  C26  1  0.33752000  0.04697000  0.52564000  1.0
  C  C27  1  0.66248000  0.95303000  0.47440000  1.0
  C  C28  1  0.58180000  0.50858000  0.95770000  1.0
  C  C29  1  0.41820000  0.49143000  0.04230000  1.0
  C  C30  1  0.58116000  0.50872000  0.04320000  1.0
  C  C31  1  0.41884000  0.49129000  0.95679000  1.0
  C  C32  1  0.50066000  0.49987000  0.91296000  1.0
  C  C33  1  0.49934000  0.50013000  0.08703000  1.0
  C  C34  1  0.50116000  0.49980000  0.82569000  1.0
  C  C35  1  0.49884000  0.50020000  0.17430000  1.0
  C  C36  1  0.49885000  0.50017000  0.24946000  1.0
  C  C37  1  0.50115000  0.49983000  0.75054000  1.0
  C  C38  1  0.95265000  0.42020000  0.50405000  1.0
  C  C39  1  0.04735000  0.57981000  0.49595000  1.0
  C  C40  1  0.95380000  0.58056000  0.49581000  1.0
  C  C41  1  0.04620000  0.41944000  0.50419000  1.0
  C  C42  1  0.90660000  0.50079000  0.49987000  1.0
  C  C43  1  0.09340000  0.49922000  0.50012000  1.0
  C  C44  1  0.81077000  0.50169000  0.49978000  1.0
  C  C45  1  0.18924000  0.49831000  0.50022000  1.0
  C  C46  1  0.50339000  0.32911000  0.50244000  1.0
  C  C47  1  0.49661000  0.67089000  0.49756000  1.0
  C  C48  1  0.57717000  0.81404000  0.48111000  1.0
  C  C49  1  0.42283000  0.18596000  0.51890000  1.0
  C  C50  1  0.49663000  0.76912000  0.49521000  1.0
  C  C51  1  0.50338000  0.23088000  0.50480000  1.0
  C  C52  1  0.41638000  0.81541000  0.50802000  1.0
  C  C53  1  0.58363000  0.18459000  0.49199000  1.0
  C  C54  1  0.41521000  0.90730000  0.50753000  1.0
  C  C55  1  0.58480000  0.09271000  0.49250000  1.0
  C  C56  1  0.49829000  0.95358000  0.49722000  1.0
  C  C57  1  0.50172000  0.04643000  0.50280000  1.0
  C  C58  1  0.57976000  0.90587000  0.48244000  1.0
  C  C59  1  0.42024000  0.09413000  0.51758000  1.0
  C  C60  1  0.33312000  0.95737000  0.51959000  1.0
  C  C61  1  0.66688000  0.04263000  0.48044000  1.0
  C  C62  1  0.21512000  0.87246000  0.45140000  1.0
  C  C63  1  0.78488000  0.12756000  0.54865000  1.0
  N  N64  1  0.26744000  0.49748000  0.50027000  1.0
  N  N65  1  0.73256000  0.50252000  0.49972000  1.0
  N  N66  1  0.25011000  0.91260000  0.52690000  1.0
  N  N67  1  0.74989000  0.08740000  0.47315000  1.0
  O  O68  1  0.57698000  0.50005000  0.37278000  1.0
  O  O69  1  0.42302000  0.49995000  0.62721000  1.0
  O  O70  1  0.57699000  0.50030000  0.62580000  1.0
  O  O71  1  0.42302000  0.49970000  0.37420000  1.0
  O  O72  1  0.57976000  0.36723000  0.50010000  1.0
  O  O73  1  0.42024000  0.63278000  0.49989000  1.0
  O  O74  1  0.57328000  0.63290000  0.49708000  1.0
  O  O75  1  0.42672000  0.36711000  0.50293000  1.0
