# generated using pymatgen
data_CoH28C32(SN7)2
_symmetry_space_group_name_H-M   'P 1'
_cell_length_a   9.12776000
_cell_length_b   9.16812000
_cell_length_c   11.23809576
_cell_angle_alpha   81.93589773
_cell_angle_beta   67.50198722
_cell_angle_gamma   79.54580000
_symmetry_Int_Tables_number   1
_chemical_formula_structural   CoH28C32(SN7)2
_chemical_formula_sum   'Co1 H28 C32 S2 N14'
_cell_volume   851.85301753
_cell_formula_units_Z   1
loop_
 _symmetry_equiv_pos_site_id
 _symmetry_equiv_pos_as_xyz
  1  'x, y, z'
loop_
 _atom_site_type_symbol
 _atom_site_label
 _atom_site_symmetry_multiplicity
 _atom_site_fract_x
 _atom_site_fract_y
 _atom_site_fract_z
 _atom_site_occupancy
  Co  Co0  1  0.00001000  0.00000000  0.00000000  1.0
  H  H1  1  0.29008000  0.59362000  0.94329000  1.0
  H  H2  1  0.70992000  0.40638000  0.05671000  1.0
  H  H3  1  0.33583000  0.62290000  0.70716000  1.0
  H  H4  1  0.66418000  0.37709000  0.29284000  1.0
  H  H5  1  0.25331000  0.44803000  0.60760000  1.0
  H  H6  1  0.74669000  0.55196000  0.39240000  1.0
  H  H7  1  0.12122000  0.22903000  0.73807000  1.0
  H  H8  1  0.87878000  0.77097000  0.26193000  1.0
  H  H9  1  0.16085000  0.51762000  0.18275000  1.0
  H  H10  1  0.83915000  0.48238000  0.81725000  1.0
  H  H11  1  0.07557000  0.36684000  0.28948000  1.0
  H  H12  1  0.92443000  0.63316000  0.71052000  1.0
  H  H13  1  0.95181000  0.03974000  0.32608000  1.0
  H  H14  1  0.04818000  0.96026000  0.67393000  1.0
  H  H15  1  0.81467000  0.13465000  0.54914000  1.0
  H  H16  1  0.18532000  0.86536000  0.45086000  1.0
  H  H17  1  0.52822000  0.22445000  0.63288000  1.0
  H  H18  1  0.47177000  0.77556000  0.36712000  1.0
  H  H19  1  0.35746000  0.22380000  0.50395000  1.0
  H  H20  1  0.64255000  0.77621000  0.49604000  1.0
  H  H21  1  0.26407000  0.13775000  0.33238000  1.0
  H  H22  1  0.73593000  0.86225000  0.66762000  1.0
  H  H23  1  0.34646000  0.09979000  0.16715000  1.0
  H  H24  1  0.65355000  0.90021000  0.83285000  1.0
  H  H25  1  0.35889000  0.39433000  0.26668000  1.0
  H  H26  1  0.64111000  0.60567000  0.73332000  1.0
  H  H27  1  0.42798000  0.35491000  0.10322000  1.0
  H  H28  1  0.57201000  0.64509000  0.89678000  1.0
  C  C29  1  0.18196000  0.39209000  0.96918000  1.0
  C  C30  1  0.81804000  0.60791000  0.03082000  1.0
  C  C31  1  0.25507000  0.51498000  0.89826000  1.0
  C  C32  1  0.74493000  0.48501000  0.10174000  1.0
  C  C33  1  0.27923000  0.53027000  0.76787000  1.0
  C  C34  1  0.72077000  0.46973000  0.23213000  1.0
  C  C35  1  0.23156000  0.42867000  0.71057000  1.0
  C  C36  1  0.76845000  0.57133000  0.28942000  1.0
  C  C37  1  0.15909000  0.30714000  0.78102000  1.0
  C  C38  1  0.84091000  0.69286000  0.21898000  1.0
  C  C39  1  0.13501000  0.28898000  0.91300000  1.0
  C  C40  1  0.86499000  0.71102000  0.08700000  1.0
  C  C41  1  0.17104000  0.39592000  0.19822000  1.0
  C  C42  1  0.82898000  0.60408000  0.80177000  1.0
  C  C43  1  0.72915000  0.08187000  0.29209000  1.0
  C  C44  1  0.27085000  0.91813000  0.70791000  1.0
  C  C45  1  0.82404000  0.07905000  0.36591000  1.0
  C  C46  1  0.17596000  0.92096000  0.63409000  1.0
  C  C47  1  0.74730000  0.13202000  0.48771000  1.0
  C  C48  1  0.25269000  0.86798000  0.51229000  1.0
  C  C49  1  0.58126000  0.18537000  0.53622000  1.0
  C  C50  1  0.41874000  0.81464000  0.46378000  1.0
  C  C51  1  0.48565000  0.18591000  0.46535000  1.0
  C  C52  1  0.51435000  0.81411000  0.53465000  1.0
  C  C53  1  0.56281000  0.13219000  0.34267000  1.0
  C  C54  1  0.43719000  0.86782000  0.65732000  1.0
  C  C55  1  0.35529000  0.16557000  0.23790000  1.0
  C  C56  1  0.64471000  0.83444000  0.76210000  1.0
  C  C57  1  0.33684000  0.33274000  0.19933000  1.0
  C  C58  1  0.66316000  0.66726000  0.80067000  1.0
  C  C59  1  0.21074000  0.82640000  0.13833000  1.0
  C  C60  1  0.78924000  0.17360000  0.86169000  1.0
  S  S61  1  0.35134000  0.72829000  0.18169000  1.0
  S  S62  1  0.64866000  0.27171000  0.81833000  1.0
  N  N63  1  0.07062000  0.18226000  0.01062000  1.0
  N  N64  1  0.92938000  0.81774000  0.98938000  1.0
  N  N65  1  0.07504000  0.21446000  0.11921000  1.0
  N  N66  1  0.92496000  0.78554000  0.88079000  1.0
  N  N67  1  0.13981000  0.34078000  0.09638000  1.0
  N  N68  1  0.86019000  0.65922000  0.90362000  1.0
  N  N69  1  0.76631000  0.04247000  0.16857000  1.0
  N  N70  1  0.23369000  0.95753000  0.83143000  1.0
  N  N71  1  0.63557000  0.06234000  0.14297000  1.0
  N  N72  1  0.36443000  0.93766000  0.85703000  1.0
  N  N73  1  0.51147000  0.11558000  0.24651000  1.0
  N  N74  1  0.48853000  0.88442000  0.75349000  1.0
  N  N75  1  0.10677000  0.89661000  0.10711000  1.0
  N  N76  1  0.89323000  0.10338000  0.89290000  1.0
