# generated using pymatgen
data_LiBH12C4O
_symmetry_space_group_name_H-M   'P 1'
_cell_length_a   4.35379000
_cell_length_b   10.82500000
_cell_length_c   13.08829901
_cell_angle_alpha   89.99993257
_cell_angle_beta   98.35082348
_cell_angle_gamma   89.99990000
_symmetry_Int_Tables_number   1
_chemical_formula_structural   LiBH12C4O
_chemical_formula_sum   'Li4 B4 H48 C16 O4'
_cell_volume   610.30838095
_cell_formula_units_Z   4
loop_
 _symmetry_equiv_pos_site_id
 _symmetry_equiv_pos_as_xyz
  1  'x, y, z'
loop_
 _atom_site_type_symbol
 _atom_site_label
 _atom_site_symmetry_multiplicity
 _atom_site_fract_x
 _atom_site_fract_y
 _atom_site_fract_z
 _atom_site_occupancy
  Li  Li0  1  0.22203000  0.45079000  0.41874000  1.0
  Li  Li1  1  0.27797000  0.95079000  0.08126000  1.0
  Li  Li2  1  0.77797000  0.54921000  0.58126000  1.0
  Li  Li3  1  0.72203000  0.04921000  0.91874000  1.0
  B  B4  1  0.26421000  0.63218000  0.52775000  1.0
  B  B5  1  0.23579000  0.13219000  0.97225000  1.0
  B  B6  1  0.73579000  0.36782000  0.47225000  1.0
  B  B7  1  0.76421000  0.86782000  0.02775000  1.0
  H  H8  1  0.27207000  0.52584000  0.56227000  1.0
  H  H9  1  0.22793000  0.02584000  0.93773000  1.0
  H  H10  1  0.72792000  0.47416000  0.43773000  1.0
  H  H11  1  0.77208000  0.97416000  0.06227000  1.0
  H  H12  1  0.49408000  0.68854000  0.56781000  1.0
  H  H13  1  0.00592000  0.18854000  0.93219000  1.0
  H  H14  1  0.50592000  0.31146000  0.43219000  1.0
  H  H15  1  0.99408000  0.81146000  0.06781000  1.0
  H  H16  1  0.03672000  0.68617000  0.54960000  1.0
  H  H17  1  0.46329000  0.18617000  0.95040000  1.0
  H  H18  1  0.96328000  0.31383000  0.45040000  1.0
  H  H19  1  0.53672000  0.81383000  0.04960000  1.0
  H  H20  1  0.25663000  0.63160000  0.43383000  1.0
  H  H21  1  0.24337000  0.13160000  0.06616000  1.0
  H  H22  1  0.74337000  0.36840000  0.56617000  1.0
  H  H23  1  0.75663000  0.86840000  0.93384000  1.0
  H  H24  1  0.77569000  0.31354000  0.26034000  1.0
  H  H25  1  0.72432000  0.81354000  0.23966000  1.0
  H  H26  1  0.22431000  0.68646000  0.73966000  1.0
  H  H27  1  0.27569000  0.18646000  0.76034000  1.0
  H  H28  1  0.14537000  0.28073000  0.22123000  1.0
  H  H29  1  0.35463000  0.78073000  0.27877000  1.0
  H  H30  1  0.85464000  0.71927000  0.77877000  1.0
  H  H31  1  0.64537000  0.21927000  0.72123000  1.0
  H  H32  1  0.01557000  0.39816000  0.06250000  1.0
  H  H33  1  0.48442000  0.89816000  0.43750000  1.0
  H  H34  1  0.98442000  0.60184000  0.93750000  1.0
  H  H35  1  0.51558000  0.10184000  0.56250000  1.0
  H  H36  1  0.65296000  0.32804000  0.07169000  1.0
  H  H37  1  0.84703000  0.82804000  0.42830000  1.0
  H  H38  1  0.34703000  0.67196000  0.92830000  1.0
  H  H39  1  0.15297000  0.17196000  0.57170000  1.0
  H  H40  1  0.45681000  0.51217000  0.14468000  1.0
  H  H41  1  0.04319000  0.01216000  0.35532000  1.0
  H  H42  1  0.54319000  0.48783000  0.85532000  1.0
  H  H43  1  0.95681000  0.98784000  0.64468000  1.0
  H  H44  1  0.70475000  0.58484000  0.06673000  1.0
  H  H45  1  0.79525000  0.08484000  0.43327000  1.0
  H  H46  1  0.29525000  0.41516000  0.93327000  1.0
  H  H47  1  0.20475000  0.91516000  0.56673000  1.0
  H  H48  1  0.06535000  0.63798000  0.21362000  1.0
  H  H49  1  0.43465000  0.13798000  0.28639000  1.0
  H  H50  1  0.93465000  0.36202000  0.78639000  1.0
  H  H51  1  0.56535000  0.86202000  0.71361000  1.0
  H  H52  1  0.76735000  0.59688000  0.28825000  1.0
  H  H53  1  0.73265000  0.09688000  0.21175000  1.0
  H  H54  1  0.23265000  0.40312000  0.71175000  1.0
  H  H55  1  0.26735000  0.90312000  0.78825000  1.0
  C  C56  1  0.95862000  0.34921000  0.21827000  1.0
  C  C57  1  0.54138000  0.84921000  0.28173000  1.0
  C  C58  1  0.04138000  0.65079000  0.78173000  1.0
  C  C59  1  0.45863000  0.15079000  0.71827000  1.0
  C  C60  1  0.82847000  0.39183000  0.11021000  1.0
  C  C61  1  0.67152000  0.89183000  0.38979000  1.0
  C  C62  1  0.17153000  0.60817000  0.88979000  1.0
  C  C63  1  0.32847000  0.10817000  0.61021000  1.0
  C  C64  1  0.69816000  0.52003000  0.13065000  1.0
  C  C65  1  0.80184000  0.02003000  0.36935000  1.0
  C  C66  1  0.30184000  0.47997000  0.86935000  1.0
  C  C67  1  0.19816000  0.97997000  0.63065000  1.0
  C  C68  1  0.90372000  0.56463000  0.22895000  1.0
  C  C69  1  0.59627000  0.06463000  0.27105000  1.0
  C  C70  1  0.09627000  0.43537000  0.77105000  1.0
  C  C71  1  0.40373000  0.93538000  0.72895000  1.0
  O  O72  1  0.09166000  0.45954000  0.26993000  1.0
  O  O73  1  0.40834000  0.95954000  0.23008000  1.0
  O  O74  1  0.90834000  0.54047000  0.73008000  1.0
  O  O75  1  0.59166000  0.04047000  0.76992000  1.0
