# generated using pymatgen
data_ZnH13C22O5
_symmetry_space_group_name_H-M   'P 1'
_cell_length_a   6.58352000
_cell_length_b   11.89170000
_cell_length_c   15.65790000
_cell_angle_alpha   88.94110000
_cell_angle_beta   89.18860000
_cell_angle_gamma   78.91950000
_symmetry_Int_Tables_number   1
_chemical_formula_structural   ZnH13C22O5
_chemical_formula_sum   'Zn2 H26 C44 O10'
_cell_volume   1202.71736398
_cell_formula_units_Z   2
loop_
 _symmetry_equiv_pos_site_id
 _symmetry_equiv_pos_as_xyz
  1  'x, y, z'
loop_
 _atom_site_type_symbol
 _atom_site_label
 _atom_site_symmetry_multiplicity
 _atom_site_fract_x
 _atom_site_fract_y
 _atom_site_fract_z
 _atom_site_occupancy
  Zn  Zn0  1  0.86645000  0.41820000  0.50196000  1.0
  Zn  Zn1  1  0.13644000  0.57526000  0.49806000  1.0
  H  H2  1  0.08465000  0.22648000  0.27263000  1.0
  H  H3  1  0.92625000  0.76723000  0.26510000  1.0
  H  H4  1  0.90488000  0.78259000  0.71638000  1.0
  H  H5  1  0.09789000  0.21215000  0.72635000  1.0
  H  H6  1  0.26743000  0.13911000  0.14239000  1.0
  H  H7  1  0.74431000  0.85712000  0.13510000  1.0
  H  H8  1  0.72896000  0.86791000  0.84869000  1.0
  H  H9  1  0.27785000  0.12660000  0.85808000  1.0
  H  H10  1  0.77869000  0.30534000  0.19332000  1.0
  H  H11  1  0.23910000  0.68358000  0.19060000  1.0
  H  H12  1  0.23286000  0.68573000  0.81017000  1.0
  H  H13  1  0.76078000  0.31886000  0.81100000  1.0
  H  H14  1  0.59477000  0.39413000  0.32154000  1.0
  H  H15  1  0.42223000  0.59233000  0.31850000  1.0
  H  H16  1  0.41675000  0.59253000  0.68318000  1.0
  H  H17  1  0.57280000  0.41189000  0.68444000  1.0
  H  H18  1  0.40123000  0.26911000  0.00243000  1.0
  H  H19  1  0.60803000  0.72778000  0.99559000  1.0
  H  H20  1  0.85130000  0.06941000  0.21814000  1.0
  H  H21  1  0.16905000  0.92240000  0.21633000  1.0
  H  H22  1  0.15676000  0.92639000  0.78098000  1.0
  H  H23  1  0.83860000  0.07364000  0.78281000  1.0
  H  H24  1  0.39864000  0.68797000  0.55227000  1.0
  H  H25  1  0.60055000  0.30569000  0.56032000  1.0
  H  H26  1  0.51283000  0.36600000  0.47333000  1.0
  H  H27  1  0.49297000  0.62549000  0.46773000  1.0
  C  C28  1  0.21090000  0.37307000  0.37999000  1.0
  C  C29  1  0.80057000  0.61666000  0.37526000  1.0
  C  C30  1  0.79119000  0.62081000  0.61820000  1.0
  C  C31  1  0.20399000  0.37768000  0.62328000  1.0
  C  C32  1  0.32660000  0.31627000  0.30506000  1.0
  C  C33  1  0.68723000  0.67371000  0.29972000  1.0
  C  C34  1  0.67360000  0.68186000  0.69172000  1.0
  C  C35  1  0.32218000  0.31779000  0.69740000  1.0
  C  C36  1  0.23606000  0.24378000  0.25427000  1.0
  C  C37  1  0.77658000  0.74873000  0.24769000  1.0
  C  C38  1  0.75873000  0.76100000  0.73794000  1.0
  C  C39  1  0.24179000  0.23602000  0.74598000  1.0
  C  C40  1  0.33862000  0.19512000  0.18176000  1.0
  C  C41  1  0.67445000  0.79885000  0.17533000  1.0
  C  C42  1  0.65978000  0.80870000  0.81160000  1.0
  C  C43  1  0.34302000  0.18817000  0.81929000  1.0
  C  C44  1  0.53535000  0.21598000  0.15920000  1.0
  C  C45  1  0.47948000  0.77673000  0.15425000  1.0
  C  C46  1  0.47006000  0.78215000  0.83850000  1.0
  C  C47  1  0.53041000  0.21730000  0.84351000  1.0
  C  C48  1  0.62730000  0.28697000  0.21101000  1.0
  C  C49  1  0.38915000  0.70276000  0.20711000  1.0
  C  C50  1  0.38054000  0.70684000  0.78982000  1.0
  C  C51  1  0.61490000  0.29573000  0.79277000  1.0
  C  C52  1  0.52367000  0.33722000  0.28297000  1.0
  C  C53  1  0.49225000  0.65120000  0.27891000  1.0
  C  C54  1  0.48311000  0.65529000  0.71800000  1.0
  C  C55  1  0.51000000  0.34727000  0.72122000  1.0
  C  C56  1  0.54432000  0.20514000  0.00173000  1.0
  C  C57  1  0.46473000  0.79163000  0.99653000  1.0
  C  C58  1  0.63720000  0.16715000  0.07950000  1.0
  C  C59  1  0.37573000  0.82783000  0.07535000  1.0
  C  C60  1  0.37121000  0.83006000  0.91907000  1.0
  C  C61  1  0.63319000  0.16798000  0.92321000  1.0
  C  C62  1  0.82280000  0.08403000  0.07989000  1.0
  C  C63  1  0.19015000  0.91086000  0.07784000  1.0
  C  C64  1  0.18528000  0.91256000  0.91919000  1.0
  C  C65  1  0.81842000  0.08501000  0.92124000  1.0
  C  C66  1  0.91244000  0.04142000  0.00009000  1.0
  C  C67  1  0.09587000  0.95483000  0.99907000  1.0
  C  C68  1  0.92068000  0.03788000  0.15743000  1.0
  C  C69  1  0.09645000  0.95524000  0.15645000  1.0
  C  C70  1  0.08724000  0.95812000  0.84163000  1.0
  C  C71  1  0.91161000  0.04069000  0.84263000  1.0
  O  O72  1  0.30440000  0.43469000  0.42701000  1.0
  O  O73  1  0.70475000  0.55546000  0.42449000  1.0
  O  O74  1  0.74945000  0.52314000  0.60126000  1.0
  O  O75  1  0.24407000  0.47552000  0.60255000  1.0
  O  O76  1  0.02606000  0.35998000  0.39338000  1.0
  O  O77  1  0.98511000  0.62954000  0.38730000  1.0
  O  O78  1  0.92318000  0.66878000  0.57871000  1.0
  O  O79  1  0.07371000  0.32838000  0.58673000  1.0
  O  O80  1  0.64162000  0.32292000  0.50220000  1.0
  O  O81  1  0.36217000  0.66992000  0.49468000  1.0
