# generated using pymatgen
data_Pr2B5H7(C2O7)2
_symmetry_space_group_name_H-M   'P 1'
_cell_length_a   6.44999000
_cell_length_b   10.81870000
_cell_length_c   11.39780000
_cell_angle_alpha   61.67830000
_cell_angle_beta   89.82350000
_cell_angle_gamma   89.62110000
_symmetry_Int_Tables_number   1
_chemical_formula_structural   Pr2B5H7(C2O7)2
_chemical_formula_sum   'Pr4 B10 H14 C8 O28'
_cell_volume   700.12444099
_cell_formula_units_Z   2
loop_
 _symmetry_equiv_pos_site_id
 _symmetry_equiv_pos_as_xyz
  1  'x, y, z'
loop_
 _atom_site_type_symbol
 _atom_site_label
 _atom_site_symmetry_multiplicity
 _atom_site_fract_x
 _atom_site_fract_y
 _atom_site_fract_z
 _atom_site_occupancy
  Pr  Pr0  1  0.83432000  0.38592000  0.47700000  1.0
  Pr  Pr1  1  0.33446000  0.86299000  0.52294000  1.0
  Pr  Pr2  1  0.66374000  0.81192000  0.13579000  1.0
  Pr  Pr3  1  0.16378000  0.94758000  0.86430000  1.0
  B  B4  1  0.31946000  0.59056000  0.40760000  1.0
  B  B5  1  0.81948000  0.99823000  0.59241000  1.0
  B  B6  1  0.21099000  0.80077000  0.19216000  1.0
  B  B7  1  0.71101000  0.99294000  0.80793000  1.0
  B  B8  1  0.97150000  0.69287000  0.38679000  1.0
  B  B9  1  0.47148000  0.07962000  0.61335000  1.0
  B  B10  1  0.36802000  0.33143000  0.46587000  1.0
  B  B11  1  0.86807000  0.79723000  0.53428000  1.0
  B  B12  1  0.62783000  0.62959000  0.51679000  1.0
  B  B13  1  0.12785000  0.14635000  0.48330000  1.0
  H  H14  1  0.07661000  0.37096000  0.18171000  1.0
  H  H15  1  0.57557000  0.55249000  0.81808000  1.0
  H  H16  1  0.26032000  0.51034000  0.12269000  1.0
  H  H17  1  0.75976000  0.63254000  0.87720000  1.0
  H  H18  1  0.09292000  0.49499000  0.00717000  1.0
  H  H19  1  0.59216000  0.50188000  0.99265000  1.0
  H  H20  1  0.71479000  0.26511000  0.14117000  1.0
  H  H21  1  0.21504000  0.40615000  0.85866000  1.0
  H  H22  1  0.67116000  0.17725000  0.31867000  1.0
  H  H23  1  0.17137000  0.49575000  0.68116000  1.0
  H  H24  1  0.45698000  0.23438000  0.21017000  1.0
  H  H25  1  0.95722000  0.44461000  0.78971000  1.0
  H  H26  1  0.58023000  0.43563000  0.68206000  1.0
  H  H27  1  0.08020000  0.11766000  0.31804000  1.0
  C  C28  1  0.95176000  0.57771000  0.12530000  1.0
  C  C29  1  0.45146000  0.70289000  0.87467000  1.0
  C  C30  1  0.10321000  0.48065000  0.10903000  1.0
  C  C31  1  0.60249000  0.58941000  0.89082000  1.0
  C  C32  1  0.60876000  0.05215000  0.22300000  1.0
  C  C33  1  0.10862000  0.27508000  0.77691000  1.0
  C  C34  1  0.61506000  0.19203000  0.22188000  1.0
  C  C35  1  0.11522000  0.41388000  0.77794000  1.0
  O  O36  1  0.43449000  0.46387000  0.42824000  1.0
  O  O37  1  0.93452000  0.89217000  0.57178000  1.0
  O  O38  1  0.35368000  0.69504000  0.26679000  1.0
  O  O39  1  0.85369000  0.96202000  0.73319000  1.0
  O  O40  1  0.09747000  0.56537000  0.43260000  1.0
  O  O41  1  0.59746000  0.99799000  0.56747000  1.0
  O  O42  1  0.28099000  0.90075000  0.07436000  1.0
  O  O43  1  0.78104000  0.97503000  0.92577000  1.0
  O  O44  1  0.01295000  0.79333000  0.24434000  1.0
  O  O45  1  0.51290000  0.03759000  0.75582000  1.0
  O  O46  1  0.51818000  0.23164000  0.53404000  1.0
  O  O47  1  0.01823000  0.76555000  0.46615000  1.0
  O  O48  1  0.75119000  0.65684000  0.39673000  1.0
  O  O49  1  0.25118000  0.05351000  0.60338000  1.0
  O  O50  1  0.67813000  0.73426000  0.56396000  1.0
  O  O51  1  0.17808000  0.29815000  0.43619000  1.0
  O  O52  1  0.69076000  0.48500000  0.61938000  1.0
  O  O53  1  0.19080000  0.10439000  0.38067000  1.0
  O  O54  1  0.40726000  0.64341000  0.49505000  1.0
  O  O55  1  0.90725000  0.13847000  0.50491000  1.0
  O  O56  1  0.95146000  0.70795000  0.03971000  1.0
  O  O57  1  0.45152000  0.74751000  0.96033000  1.0
  O  O58  1  0.82364000  0.53056000  0.22319000  1.0
  O  O59  1  0.32334000  0.75382000  0.77679000  1.0
  O  O60  1  0.71166000  0.03602000  0.13670000  1.0
  O  O61  1  0.21136000  0.17264000  0.86328000  1.0
  O  O62  1  0.50071000  0.95135000  0.31199000  1.0
  O  O63  1  0.00043000  0.26322000  0.68800000  1.0
