# generated using pymatgen
data_ZnCo4H12C36N18(Cl2O3)2
_symmetry_space_group_name_H-M   'P 1'
_cell_length_a   22.07490000
_cell_length_b   22.07518347
_cell_length_c   22.07486673
_cell_angle_alpha   60.00007493
_cell_angle_beta   59.99945044
_cell_angle_gamma   60.00047433
_symmetry_Int_Tables_number   1
_chemical_formula_structural   ZnCo4H12C36N18(Cl2O3)2
_chemical_formula_sum   'Zn2 Co8 H24 C72 N36 Cl8 O12'
_cell_volume   7606.52256720
_cell_formula_units_Z   2
loop_
 _symmetry_equiv_pos_site_id
 _symmetry_equiv_pos_as_xyz
  1  'x, y, z'
loop_
 _atom_site_type_symbol
 _atom_site_label
 _atom_site_symmetry_multiplicity
 _atom_site_fract_x
 _atom_site_fract_y
 _atom_site_fract_z
 _atom_site_occupancy
  Zn  Zn0  1  0.74999000  0.75001000  0.75000000  1.0
  Zn  Zn1  1  0.25000000  0.24999000  0.25001000  1.0
  Co  Co2  1  0.81426000  0.81426000  0.55722000  1.0
  Co  Co3  1  0.81426000  0.81426000  0.81425000  1.0
  Co  Co4  1  0.81426000  0.55724000  0.81425000  1.0
  Co  Co5  1  0.55722000  0.81426000  0.81426000  1.0
  Co  Co6  1  0.18574000  0.18574000  0.18575000  1.0
  Co  Co7  1  0.18574000  0.18574000  0.44278000  1.0
  Co  Co8  1  0.18575000  0.44275000  0.18575000  1.0
  Co  Co9  1  0.44277000  0.18574000  0.18575000  1.0
  H  H10  1  0.68993000  0.92505000  0.45997000  1.0
  H  H11  1  0.92505000  0.68992000  0.92505000  1.0
  H  H12  1  0.92505000  0.45998000  0.92505000  1.0
  H  H13  1  0.45998000  0.92505000  0.68992000  1.0
  H  H14  1  0.92504000  0.45999000  0.68992000  1.0
  H  H15  1  0.68991000  0.92506000  0.92505000  1.0
  H  H16  1  0.45997000  0.92506000  0.92505000  1.0
  H  H17  1  0.92506000  0.68991000  0.45997000  1.0
  H  H18  1  0.45998000  0.68991000  0.92505000  1.0
  H  H19  1  0.92505000  0.92505000  0.68992000  1.0
  H  H20  1  0.92505000  0.92506000  0.45997000  1.0
  H  H21  1  0.68992000  0.45998000  0.92505000  1.0
  H  H22  1  0.31009000  0.07495000  0.07494000  1.0
  H  H23  1  0.07495000  0.31008000  0.54004000  1.0
  H  H24  1  0.07496000  0.54001000  0.31008000  1.0
  H  H25  1  0.54003000  0.07494000  0.07495000  1.0
  H  H26  1  0.07494000  0.54002000  0.07495000  1.0
  H  H27  1  0.31009000  0.07494000  0.54003000  1.0
  H  H28  1  0.54002000  0.07495000  0.31008000  1.0
  H  H29  1  0.07494000  0.31009000  0.07494000  1.0
  H  H30  1  0.54003000  0.31008000  0.07495000  1.0
  H  H31  1  0.07495000  0.07494000  0.54003000  1.0
  H  H32  1  0.07495000  0.07495000  0.31008000  1.0
  H  H33  1  0.31009000  0.54001000  0.07495000  1.0
  C  C34  1  0.64576000  0.88636000  0.58152000  1.0
  C  C35  1  0.64102000  0.92459000  0.50980000  1.0
  C  C36  1  0.57031000  0.96205000  0.50559000  1.0
  C  C37  1  0.88636000  0.64576000  0.88636000  1.0
  C  C38  1  0.92459000  0.64103000  0.92458000  1.0
  C  C39  1  0.96205000  0.57030000  0.96206000  1.0
  C  C40  1  0.88636000  0.58152000  0.88636000  1.0
  C  C41  1  0.92459000  0.50980000  0.92459000  1.0
  C  C42  1  0.96205000  0.50559000  0.96205000  1.0
  C  C43  1  0.58152000  0.88636000  0.64576000  1.0
  C  C44  1  0.50981000  0.92458000  0.64103000  1.0
  C  C45  1  0.50559000  0.96205000  0.57031000  1.0
  C  C46  1  0.88636000  0.58153000  0.64575000  1.0
  C  C47  1  0.92459000  0.50981000  0.64102000  1.0
  C  C48  1  0.96205000  0.50559000  0.57031000  1.0
  C  C49  1  0.64576000  0.88636000  0.88636000  1.0
  C  C50  1  0.64103000  0.92459000  0.92458000  1.0
  C  C51  1  0.57030000  0.96206000  0.96205000  1.0
  C  C52  1  0.58151000  0.88637000  0.88636000  1.0
  C  C53  1  0.50980000  0.92459000  0.92458000  1.0
  C  C54  1  0.50558000  0.96206000  0.96205000  1.0
  C  C55  1  0.88637000  0.64576000  0.58151000  1.0
  C  C56  1  0.92458000  0.64104000  0.50979000  1.0
  C  C57  1  0.96205000  0.57030000  0.50559000  1.0
  C  C58  1  0.58152000  0.64576000  0.88636000  1.0
  C  C59  1  0.50980000  0.64103000  0.92458000  1.0
  C  C60  1  0.50559000  0.57030000  0.96205000  1.0
  C  C61  1  0.88636000  0.88636000  0.64575000  1.0
  C  C62  1  0.92458000  0.92459000  0.64103000  1.0
  C  C63  1  0.96205000  0.96205000  0.57031000  1.0
  C  C64  1  0.88636000  0.88636000  0.58152000  1.0
  C  C65  1  0.92459000  0.92459000  0.50979000  1.0
  C  C66  1  0.96205000  0.96206000  0.50559000  1.0
  C  C67  1  0.64575000  0.58153000  0.88636000  1.0
  C  C68  1  0.64102000  0.50980000  0.92459000  1.0
  C  C69  1  0.57031000  0.50559000  0.96205000  1.0
  C  C70  1  0.35424000  0.11364000  0.11364000  1.0
  C  C71  1  0.35897000  0.07542000  0.07541000  1.0
  C  C72  1  0.42969000  0.03795000  0.03795000  1.0
  C  C73  1  0.11363000  0.35424000  0.41850000  1.0
  C  C74  1  0.07541000  0.35898000  0.49020000  1.0
  C  C75  1  0.03796000  0.42969000  0.49441000  1.0
  C  C76  1  0.11365000  0.41846000  0.35425000  1.0
  C  C77  1  0.07541000  0.49020000  0.35897000  1.0
  C  C78  1  0.03794000  0.49441000  0.42970000  1.0
  C  C79  1  0.41849000  0.11363000  0.11364000  1.0
  C  C80  1  0.49020000  0.07541000  0.07541000  1.0
  C  C81  1  0.49441000  0.03795000  0.03795000  1.0
  C  C82  1  0.11365000  0.41846000  0.11364000  1.0
  C  C83  1  0.07542000  0.49020000  0.07541000  1.0
  C  C84  1  0.03794000  0.49441000  0.03795000  1.0
  C  C85  1  0.35424000  0.11364000  0.41848000  1.0
  C  C86  1  0.35897000  0.07541000  0.49021000  1.0
  C  C87  1  0.42970000  0.03795000  0.49441000  1.0
  C  C88  1  0.41847000  0.11364000  0.35425000  1.0
  C  C89  1  0.49021000  0.07541000  0.35897000  1.0
  C  C90  1  0.49441000  0.03795000  0.42969000  1.0
  C  C91  1  0.11364000  0.35424000  0.11363000  1.0
  C  C92  1  0.07542000  0.35897000  0.07541000  1.0
  C  C93  1  0.03795000  0.42970000  0.03794000  1.0
  C  C94  1  0.41849000  0.35424000  0.11364000  1.0
  C  C95  1  0.49019000  0.35897000  0.07542000  1.0
  C  C96  1  0.49441000  0.42969000  0.03795000  1.0
  C  C97  1  0.11364000  0.11363000  0.41849000  1.0
  C  C98  1  0.07542000  0.07541000  0.49020000  1.0
  C  C99  1  0.03795000  0.03795000  0.49441000  1.0
  C  C100  1  0.11364000  0.11364000  0.35424000  1.0
  C  C101  1  0.07541000  0.07542000  0.35897000  1.0
  C  C102  1  0.03795000  0.03795000  0.42969000  1.0
  C  C103  1  0.35425000  0.41846000  0.11365000  1.0
  C  C104  1  0.35897000  0.49020000  0.07541000  1.0
  C  C105  1  0.42969000  0.49441000  0.03795000  1.0
  N  N106  1  0.70544000  0.84450000  0.60556000  1.0
  N  N107  1  0.84450000  0.70543000  0.84450000  1.0
  N  N108  1  0.84449000  0.60558000  0.84450000  1.0
  N  N109  1  0.60557000  0.84450000  0.70543000  1.0
  N  N110  1  0.84450000  0.60558000  0.70542000  1.0
  N  N111  1  0.70542000  0.84451000  0.84450000  1.0
  N  N112  1  0.60556000  0.84451000  0.84450000  1.0
  N  N113  1  0.84450000  0.70544000  0.60556000  1.0
  N  N114  1  0.60557000  0.70543000  0.84450000  1.0
  N  N115  1  0.84450000  0.84450000  0.70543000  1.0
  N  N116  1  0.84451000  0.84450000  0.60556000  1.0
  N  N117  1  0.70542000  0.60558000  0.84450000  1.0
  N  N118  1  0.29457000  0.15550000  0.15550000  1.0
  N  N119  1  0.15550000  0.29456000  0.39444000  1.0
  N  N120  1  0.15550000  0.39442000  0.29458000  1.0
  N  N121  1  0.39444000  0.15549000  0.15550000  1.0
  N  N122  1  0.15549000  0.39443000  0.15550000  1.0
  N  N123  1  0.29457000  0.15549000  0.39444000  1.0
  N  N124  1  0.39444000  0.15549000  0.29457000  1.0
  N  N125  1  0.15549000  0.29457000  0.15550000  1.0
  N  N126  1  0.39444000  0.29456000  0.15550000  1.0
  N  N127  1  0.15549000  0.15550000  0.39444000  1.0
  N  N128  1  0.15550000  0.15550000  0.29457000  1.0
  N  N129  1  0.29458000  0.39442000  0.15550000  1.0
  N  N130  1  0.67975000  0.82026000  0.67974000  1.0
  N  N131  1  0.82026000  0.67975000  0.82025000  1.0
  N  N132  1  0.82025000  0.67976000  0.67974000  1.0
  N  N133  1  0.67974000  0.82026000  0.82025000  1.0
  N  N134  1  0.67974000  0.67975000  0.82025000  1.0
  N  N135  1  0.82025000  0.82026000  0.67974000  1.0
  N  N136  1  0.32026000  0.17974000  0.17975000  1.0
  N  N137  1  0.17974000  0.32024000  0.32027000  1.0
  N  N138  1  0.17974000  0.32025000  0.17975000  1.0
  N  N139  1  0.32025000  0.17974000  0.32026000  1.0
  N  N140  1  0.32025000  0.32025000  0.17975000  1.0
  N  N141  1  0.17975000  0.17974000  0.32026000  1.0
  Cl  Cl142  1  0.85422000  0.85422000  0.43734000  1.0
  Cl  Cl143  1  0.85422000  0.85422000  0.85421000  1.0
  Cl  Cl144  1  0.85422000  0.43736000  0.85421000  1.0
  Cl  Cl145  1  0.43735000  0.85422000  0.85421000  1.0
  Cl  Cl146  1  0.14578000  0.14577000  0.14580000  1.0
  Cl  Cl147  1  0.14577000  0.14578000  0.56266000  1.0
  Cl  Cl148  1  0.14579000  0.56264000  0.14580000  1.0
  Cl  Cl149  1  0.56265000  0.14579000  0.14577000  1.0
  O  O150  1  0.56424000  1.00000000  0.43576000  1.0
  O  O151  1  0.00000000  0.56424000  0.00000000  1.0
  O  O152  1  0.00000000  0.43576000  0.00000000  1.0
  O  O153  1  0.43576000  1.00000000  0.56424000  1.0
  O  O154  1  0.00000000  0.43576000  0.56424000  1.0
  O  O155  1  0.56424000  1.00000000  0.00000000  1.0
  O  O156  1  0.43576000  1.00000000  1.00000000  1.0
  O  O157  1  0.00000000  0.56424000  0.43576000  1.0
  O  O158  1  0.43576000  0.56424000  0.00000000  1.0
  O  O159  1  0.00000000  1.00000000  0.56424000  1.0
  O  O160  1  0.00000000  0.00000000  0.43576000  1.0
  O  O161  1  0.56424000  0.43576000  0.00000000  1.0
