# generated using pymatgen
data_AlH6C14BrO5F
_symmetry_space_group_name_H-M   'P 1'
_cell_length_a   6.65651000
_cell_length_b   11.06076810
_cell_length_c   17.55970000
_cell_angle_alpha   93.14757855
_cell_angle_beta   96.74020000
_cell_angle_gamma   106.34975705
_symmetry_Int_Tables_number   1
_chemical_formula_structural   AlH6C14BrO5F
_chemical_formula_sum   'Al2 H12 C28 Br2 O10 F2'
_cell_volume   1226.73881671
_cell_formula_units_Z   2
loop_
 _symmetry_equiv_pos_site_id
 _symmetry_equiv_pos_as_xyz
  1  'x, y, z'
loop_
 _atom_site_type_symbol
 _atom_site_label
 _atom_site_symmetry_multiplicity
 _atom_site_fract_x
 _atom_site_fract_y
 _atom_site_fract_z
 _atom_site_occupancy
  Al  Al0  1  0.99694000  0.49915000  0.50034000  1.0
  Al  Al1  1  0.49851000  0.50257000  0.50113000  1.0
  H  H2  1  0.33038000  0.64975000  0.55543000  1.0
  H  H3  1  0.65348000  0.34532000  0.45933000  1.0
  H  H4  1  0.85649000  0.50920000  0.28293000  1.0
  H  H5  1  0.76667000  0.51363000  0.14158000  1.0
  H  H6  1  0.39297000  0.49494000  0.11149000  1.0
  H  H7  1  0.60942000  0.50944000  0.89034000  1.0
  H  H8  1  0.13888000  0.48784000  0.71727000  1.0
  H  H9  1  0.23096000  0.48379000  0.85851000  1.0
  H  H10  1  0.57920000  0.75829000  0.39429000  1.0
  H  H11  1  0.38293000  0.86992000  0.31081000  1.0
  H  H12  1  0.83283000  0.22744000  0.39627000  1.0
  H  H13  1  0.51202000  0.10556000  0.31132000  1.0
  C  C14  1  0.86278000  0.72507000  0.49527000  1.0
  C  C15  1  0.78546000  0.50574000  0.63860000  1.0
  C  C16  1  0.13712000  0.27549000  0.50539000  1.0
  C  C17  1  0.21229000  0.49644000  0.36258000  1.0
  C  C18  1  0.17196000  0.50165000  0.27762000  1.0
  C  C19  1  0.97234000  0.50728000  0.24442000  1.0
  C  C20  1  0.92250000  0.50941000  0.16572000  1.0
  C  C21  1  0.07267000  0.50429000  0.11600000  1.0
  C  C22  1  0.27396000  0.49951000  0.14819000  1.0
  C  C23  1  0.31944000  0.49887000  0.22718000  1.0
  C  C24  1  0.02257000  0.50219000  0.03529000  1.0
  C  C25  1  0.97849000  0.49859000  0.96555000  1.0
  C  C26  1  0.92750000  0.49665000  0.88490000  1.0
  C  C27  1  0.72699000  0.50345000  0.85330000  1.0
  C  C28  1  0.68060000  0.50478000  0.77440000  1.0
  C  C29  1  0.82617000  0.49985000  0.72350000  1.0
  C  C30  1  0.02470000  0.49164000  0.75615000  1.0
  C  C31  1  0.07580000  0.48963000  0.83480000  1.0
  C  C32  1  0.93406000  0.86685000  0.49769000  1.0
  C  C33  1  0.81758000  0.92906000  0.44790000  1.0
  C  C34  1  0.11020000  0.93665000  0.54803000  1.0
  C  C35  1  0.63467000  0.86096000  0.39609000  1.0
  C  C36  1  0.52495000  0.92364000  0.34912000  1.0
  C  C37  1  0.06989000  0.13360000  0.50243000  1.0
  C  C38  1  0.17804000  0.07086000  0.55082000  1.0
  C  C39  1  0.88824000  0.06442000  0.44966000  1.0
  C  C40  1  0.77606000  0.12533000  0.39800000  1.0
  C  C41  1  0.59706000  0.05666000  0.34968000  1.0
  Br  Br42  1  0.40994000  0.16462000  0.62395000  1.0
  Br  Br43  1  0.25377000  0.85464000  0.61910000  1.0
  O  O44  1  0.99269000  0.66678000  0.47799000  1.0
  O  O45  1  0.59653000  0.48921000  0.60712000  1.0
  O  O46  1  0.32118000  0.32965000  0.49012000  1.0
  O  O47  1  0.04786000  0.46704000  0.39649000  1.0
  O  O48  1  0.00043000  0.33023000  0.52046000  1.0
  O  O49  1  0.40235000  0.52033000  0.39484000  1.0
  O  O50  1  0.67724000  0.67426000  0.51048000  1.0
  O  O51  1  0.94861000  0.52821000  0.60410000  1.0
  O  O52  1  0.28550000  0.56234000  0.53322000  1.0
  O  O53  1  0.70666000  0.43692000  0.46778000  1.0
  F  F54  1  0.51473000  0.49147000  0.25438000  1.0
  F  F55  1  0.48665000  0.51484000  0.74790000  1.0
