# generated using pymatgen
data_Zn4H28C32Br2O13
_symmetry_space_group_name_H-M   'P 1'
_cell_length_a   17.96730000
_cell_length_b   18.49460000
_cell_length_c   19.49376570
_cell_angle_alpha   63.72329166
_cell_angle_beta   63.66850001
_cell_angle_gamma   89.90840000
_symmetry_Int_Tables_number   1
_chemical_formula_structural   Zn4H28C32Br2O13
_chemical_formula_sum   'Zn8 H56 C64 Br4 O26'
_cell_volume   5050.50675399
_cell_formula_units_Z   2
loop_
 _symmetry_equiv_pos_site_id
 _symmetry_equiv_pos_as_xyz
  1  'x, y, z'
loop_
 _atom_site_type_symbol
 _atom_site_label
 _atom_site_symmetry_multiplicity
 _atom_site_fract_x
 _atom_site_fract_y
 _atom_site_fract_z
 _atom_site_occupancy
  Zn  Zn0  1  0.94551000  0.53243000  0.92378000  1.0
  Zn  Zn1  1  0.97124000  0.38264000  0.06844000  1.0
  Zn  Zn2  1  0.96959000  0.55873000  0.06220000  1.0
  Zn  Zn3  1  0.13123000  0.54313000  0.91287000  1.0
  Zn  Zn4  1  0.56107000  0.96871000  0.06207000  1.0
  Zn  Zn5  1  0.53633000  0.95156000  0.91926000  1.0
  Zn  Zn6  1  0.54531000  0.12604000  0.91442000  1.0
  Zn  Zn7  1  0.37826000  0.97138000  0.06759000  1.0
  H  H8  1  0.22298000  0.82908000  0.34791000  1.0
  H  H9  1  0.47320000  0.83931000  0.32300000  1.0
  H  H10  1  0.27857000  0.68087000  0.63556000  1.0
  H  H11  1  0.02828000  0.66866000  0.66083000  1.0
  H  H12  1  0.68363000  0.27608000  0.63889000  1.0
  H  H13  1  0.67832000  0.03669000  0.65487000  1.0
  H  H14  1  0.83433000  0.23337000  0.34367000  1.0
  H  H15  1  0.83919000  0.47273000  0.32764000  1.0
  H  H16  1  0.89870000  0.80036000  0.88424000  1.0
  H  H17  1  0.88180000  0.78494000  0.98687000  1.0
  H  H18  1  0.79506000  0.87962000  0.98124000  1.0
  H  H19  1  0.80987000  0.89186000  0.88039000  1.0
  H  H20  1  0.67537000  0.76623000  0.12494000  1.0
  H  H21  1  0.60247000  0.70086000  0.12652000  1.0
  H  H22  1  0.76100000  0.67033000  0.12850000  1.0
  H  H23  1  0.68913000  0.60732000  0.12646000  1.0
  H  H24  1  0.79655000  0.70823000  0.88092000  1.0
  H  H25  1  0.71246000  0.62807000  0.97962000  1.0
  H  H26  1  0.62215000  0.71915000  0.98136000  1.0
  H  H27  1  0.70543000  0.79840000  0.88109000  1.0
  H  H28  1  0.21531000  0.30708000  0.87606000  1.0
  H  H29  1  0.13247000  0.22899000  0.97975000  1.0
  H  H30  1  0.22204000  0.13723000  0.97912000  1.0
  H  H31  1  0.30479000  0.21623000  0.87610000  1.0
  H  H32  1  0.20727000  0.12181000  0.11948000  1.0
  H  H33  1  0.28005000  0.18772000  0.11730000  1.0
  H  H34  1  0.11917000  0.21514000  0.11950000  1.0
  H  H35  1  0.19341000  0.28146000  0.11524000  1.0
  H  H36  1  0.32137000  0.40417000  0.86879000  1.0
  H  H37  1  0.31252000  0.39516000  0.96578000  1.0
  H  H38  1  0.40059000  0.30201000  0.96842000  1.0
  H  H39  1  0.41055000  0.31221000  0.87058000  1.0
  H  H40  1  0.90554000  0.27228000  0.91738000  1.0
  H  H41  1  0.86872000  0.35638000  0.86334000  1.0
  H  H42  1  0.78252000  0.26572000  0.85914000  1.0
  H  H43  1  0.81897000  0.18194000  0.91412000  1.0
  H  H44  1  0.65322000  0.30418000  0.94521000  1.0
  H  H45  1  0.59621000  0.24693000  0.06131000  1.0
  H  H46  1  0.73867000  0.39393000  0.95163000  1.0
  H  H47  1  0.68251000  0.33466000  0.06769000  1.0
  H  H48  1  0.82582000  0.18853000  0.08484000  1.0
  H  H49  1  0.73533000  0.21460000  0.14588000  1.0
  H  H50  1  0.64767000  0.12521000  0.14178000  1.0
  H  H51  1  0.73810000  0.09855000  0.08141000  1.0
  H  H52  1  0.17947000  0.81288000  0.90597000  1.0
  H  H53  1  0.27232000  0.78530000  0.84896000  1.0
  H  H54  1  0.35477000  0.87993000  0.85236000  1.0
  H  H55  1  0.26108000  0.90406000  0.91305000  1.0
  H  H56  1  0.40667000  0.76061000  0.93115000  1.0
  H  H57  1  0.35283000  0.70336000  0.04722000  1.0
  H  H58  1  0.32028000  0.66593000  0.93107000  1.0
  H  H59  1  0.26522000  0.61087000  0.04718000  1.0
  H  H60  1  0.09857000  0.73446000  0.07348000  1.0
  H  H61  1  0.13112000  0.65025000  0.13186000  1.0
  H  H62  1  0.21979000  0.73966000  0.13491000  1.0
  H  H63  1  0.18382000  0.82312000  0.08054000  1.0
  C  C64  1  0.85744000  0.35897000  0.00339000  1.0
  C  C65  1  0.89185000  0.39793000  0.22895000  1.0
  C  C66  1  0.85507000  0.63641000  0.99815000  1.0
  C  C67  1  0.14904000  0.64600000  0.98665000  1.0
  C  C68  1  0.10974000  0.61986000  0.75516000  1.0
  C  C69  1  0.15007000  0.36921000  0.98749000  1.0
  C  C70  1  0.64014000  0.85949000  0.99486000  1.0
  C  C71  1  0.62799000  0.11145000  0.75371000  1.0
  C  C72  1  0.64562000  0.14102000  0.99498000  1.0
  C  C73  1  0.36671000  0.14602000  0.98903000  1.0
  C  C74  1  0.39295000  0.88832000  0.22839000  1.0
  C  C75  1  0.35964000  0.86865000  0.99179000  1.0
  C  C76  1  0.26283000  0.81286000  0.37874000  1.0
  C  C77  1  0.40408000  0.81825000  0.36550000  1.0
  C  C78  1  0.36774000  0.77277000  0.45540000  1.0
  C  C79  1  0.27721000  0.74415000  0.51228000  1.0
  C  C80  1  0.23865000  0.69681000  0.60483000  1.0
  C  C81  1  0.09738000  0.69030000  0.61835000  1.0
  C  C82  1  0.13365000  0.73646000  0.52844000  1.0
  C  C83  1  0.22419000  0.76542000  0.47136000  1.0
  C  C84  1  0.35100000  0.83869000  0.32674000  1.0
  C  C85  1  0.15056000  0.67026000  0.65699000  1.0
  C  C86  1  0.70077000  0.23932000  0.60581000  1.0
  C  C87  1  0.69813000  0.10404000  0.61418000  1.0
  C  C88  1  0.74285000  0.14181000  0.52396000  1.0
  C  C89  1  0.76973000  0.23010000  0.46948000  1.0
  C  C90  1  0.81691000  0.27012000  0.37675000  1.0
  C  C91  1  0.81931000  0.40539000  0.36837000  1.0
  C  C92  1  0.77349000  0.36761000  0.45856000  1.0
  C  C93  1  0.74704000  0.27932000  0.51304000  1.0
  C  C94  1  0.67703000  0.15351000  0.65542000  1.0
  C  C95  1  0.84150000  0.35589000  0.32721000  1.0
  C  C96  1  0.84894000  0.78378000  0.95130000  1.0
  C  C97  1  0.79054000  0.84548000  0.94876000  1.0
  C  C98  1  0.69634000  0.79787000  0.99561000  1.0
  C  C99  1  0.67020000  0.73340000  0.09155000  1.0
  C  C100  1  0.72779000  0.67093000  0.09273000  1.0
  C  C101  1  0.79490000  0.69431000  0.99765000  1.0
  C  C102  1  0.74876000  0.69203000  0.94834000  1.0
  C  C103  1  0.68917000  0.75240000  0.94846000  1.0
  C  C104  1  0.19989000  0.26259000  0.94376000  1.0
  C  C105  1  0.25933000  0.20161000  0.94379000  1.0
  C  C106  1  0.31006000  0.20766000  0.98858000  1.0
  C  C107  1  0.24510000  0.18594000  0.08364000  1.0
  C  C108  1  0.18685000  0.24778000  0.08297000  1.0
  C  C109  1  0.21062000  0.31124000  0.98753000  1.0
  C  C110  1  0.30469000  0.35881000  0.93649000  1.0
  C  C111  1  0.36348000  0.29747000  0.93770000  1.0
  C  C112  1  0.84763000  0.29362000  0.92003000  1.0
  C  C113  1  0.79013000  0.23361000  0.91752000  1.0
  C  C114  1  0.70068000  0.19812000  0.00090000  1.0
  C  C115  1  0.66081000  0.27152000  0.00352000  1.0
  C  C116  1  0.71805000  0.33063000  0.00727000  1.0
  C  C117  1  0.79789000  0.29853000  0.00559000  1.0
  C  C118  1  0.76920000  0.21107000  0.08508000  1.0
  C  C119  1  0.71120000  0.15161000  0.08253000  1.0
  C  C120  1  0.23570000  0.79088000  0.90818000  1.0
  C  C121  1  0.29099000  0.85252000  0.91118000  1.0
  C  C122  1  0.30133000  0.80721000  0.99373000  1.0
  C  C123  1  0.34305000  0.73485000  0.99005000  1.0
  C  C124  1  0.28553000  0.67298000  0.98951000  1.0
  C  C125  1  0.20553000  0.70396000  0.99050000  1.0
  C  C126  1  0.15527000  0.71221000  0.07331000  1.0
  C  C127  1  0.21259000  0.77182000  0.07623000  1.0
  Br  Br128  1  0.05871000  0.76137000  0.48038000  1.0
  Br  Br129  1  0.44257000  0.74794000  0.50356000  1.0
  Br  Br130  1  0.74524000  0.43709000  0.51065000  1.0
  Br  Br131  1  0.76890000  0.07238000  0.47177000  1.0
  O  O132  1  0.00641000  0.50370000  0.99092000  1.0
  O  O133  1  0.87559000  0.43537000  0.94601000  1.0
  O  O134  1  0.91313000  0.35167000  0.19400000  1.0
  O  O135  1  0.89067000  0.62831000  0.04429000  1.0
  O  O136  1  0.88627000  0.32930000  0.05677000  1.0
  O  O137  1  0.86675000  0.60153000  0.95181000  1.0
  O  O138  1  0.90922000  0.47718000  0.18857000  1.0
  O  O139  1  0.06867000  0.62983000  0.03715000  1.0
  O  O140  1  0.15915000  0.60343000  0.78818000  1.0
  O  O141  1  0.18551000  0.61922000  0.93261000  1.0
  O  O142  1  0.02812000  0.59768000  0.79730000  1.0
  O  O143  1  0.07042000  0.33451000  0.04076000  1.0
  O  O144  1  0.18272000  0.44685000  0.93427000  1.0
  O  O145  1  0.50347000  0.00523000  0.99178000  1.0
  O  O146  1  0.63830000  0.89819000  0.03582000  1.0
  O  O147  1  0.61135000  0.03219000  0.79420000  1.0
  O  O148  1  0.62312000  0.17540000  0.93654000  1.0
  O  O149  1  0.59939000  0.86840000  0.95338000  1.0
  O  O150  1  0.62707000  0.06327000  0.04779000  1.0
  O  O151  1  0.60688000  0.15767000  0.78874000  1.0
  O  O152  1  0.44685000  0.17605000  0.93613000  1.0
  O  O153  1  0.34496000  0.91150000  0.19417000  1.0
  O  O154  1  0.32921000  0.06891000  0.04190000  1.0
  O  O155  1  0.47444000  0.90299000  0.18725000  1.0
  O  O156  1  0.43752000  0.89393000  0.93015000  1.0
  O  O157  1  0.32737000  0.89090000  0.05008000  1.0
