# generated using pymatgen
data_Zn4H15C15N3O13
_symmetry_space_group_name_H-M   'P 1'
_cell_length_a   15.92180000
_cell_length_b   16.40430000
_cell_length_c   16.42254808
_cell_angle_alpha   62.63888831
_cell_angle_beta   61.92360778
_cell_angle_gamma   62.05670000
_symmetry_Int_Tables_number   1
_chemical_formula_structural   Zn4H15C15N3O13
_chemical_formula_sum   'Zn8 H30 C30 N6 O26'
_cell_volume   3182.21671254
_cell_formula_units_Z   2
loop_
 _symmetry_equiv_pos_site_id
 _symmetry_equiv_pos_as_xyz
  1  'x, y, z'
loop_
 _atom_site_type_symbol
 _atom_site_label
 _atom_site_symmetry_multiplicity
 _atom_site_fract_x
 _atom_site_fract_y
 _atom_site_fract_z
 _atom_site_occupancy
  Zn  Zn0  1  0.03642000  0.01992000  0.04734000  1.0
  Zn  Zn1  1  0.83655000  0.02514000  0.05221000  1.0
  Zn  Zn2  1  0.03037000  0.83004000  0.04234000  1.0
  Zn  Zn3  1  0.02488000  0.02926000  0.85633000  1.0
  Zn  Zn4  1  0.42648000  0.42257000  0.44692000  1.0
  Zn  Zn5  1  0.62852000  0.42124000  0.45039000  1.0
  Zn  Zn6  1  0.43252000  0.42586000  0.63858000  1.0
  Zn  Zn7  1  0.43520000  0.61199000  0.45229000  1.0
  H  H8  1  0.80843000  0.29645000  0.11062000  1.0
  H  H9  1  0.82581000  0.25994000  0.26682000  1.0
  H  H10  1  0.85362000  0.13406000  0.28830000  1.0
  H  H11  1  0.67128000  0.15446000  0.36436000  1.0
  H  H12  1  0.64808000  0.21547000  0.21199000  1.0
  H  H13  1  0.08837000  0.79172000  0.32448000  1.0
  H  H14  1  0.24817000  0.81186000  0.28761000  1.0
  H  H15  1  0.27100000  0.84032000  0.16165000  1.0
  H  H16  1  0.35276000  0.66589000  0.17519000  1.0
  H  H17  1  0.19617000  0.63813000  0.23887000  1.0
  H  H18  1  0.31248000  0.09460000  0.82526000  1.0
  H  H19  1  0.25419000  0.25925000  0.83582000  1.0
  H  H20  1  0.12816000  0.26902000  0.86058000  1.0
  H  H21  1  0.15487000  0.33193000  0.68381000  1.0
  H  H22  1  0.23513000  0.17405000  0.66868000  1.0
  H  H23  1  0.71882000  0.79568000  0.11148000  1.0
  H  H24  1  0.58775000  0.80776000  0.26957000  1.0
  H  H25  1  0.66650000  0.83830000  0.29295000  1.0
  H  H26  1  0.75112000  0.66396000  0.36291000  1.0
  H  H27  1  0.85535000  0.63802000  0.20815000  1.0
  H  H28  1  0.73351000  0.30235000  0.82484000  1.0
  H  H29  1  0.58627000  0.27499000  0.83923000  1.0
  H  H30  1  0.65230000  0.14772000  0.87077000  1.0
  H  H31  1  0.73150000  0.15833000  0.69656000  1.0
  H  H32  1  0.85307000  0.22415000  0.66679000  1.0
  H  H33  1  0.30330000  0.80198000  0.76106000  1.0
  H  H34  1  0.29329000  0.81233000  0.61038000  1.0
  H  H35  1  0.15974000  0.84761000  0.66449000  1.0
  H  H36  1  0.16781000  0.67542000  0.74072000  1.0
  H  H37  1  0.23192000  0.64074000  0.86425000  1.0
  C  C38  1  0.84189000  0.15034000  0.12648000  1.0
  C  C39  1  0.78674000  0.23344000  0.16839000  1.0
  C  C40  1  0.80346000  0.20747000  0.26469000  1.0
  C  C41  1  0.69001000  0.22125000  0.31397000  1.0
  C  C42  1  0.62656000  0.29955000  0.36403000  1.0
  C  C43  1  0.10351000  0.82728000  0.17881000  1.0
  C  C44  1  0.14878000  0.77255000  0.25966000  1.0
  C  C45  1  0.24722000  0.79047000  0.23411000  1.0
  C  C46  1  0.30025000  0.68146000  0.24402000  1.0
  C  C47  1  0.35437000  0.61963000  0.31917000  1.0
  C  C48  1  0.16662000  0.09658000  0.85682000  1.0
  C  C49  1  0.24628000  0.14549000  0.80219000  1.0
  C  C50  1  0.20647000  0.24753000  0.81412000  1.0
  C  C51  1  0.22373000  0.28887000  0.70408000  1.0
  C  C52  1  0.29864000  0.34473000  0.64205000  1.0
  C  C53  1  0.82067000  0.82889000  0.12847000  1.0
  C  C54  1  0.74730000  0.77425000  0.17053000  1.0
  C  C55  1  0.66431000  0.78851000  0.26744000  1.0
  C  C56  1  0.71235000  0.67932000  0.31414000  1.0
  C  C57  1  0.64427000  0.61639000  0.36854000  1.0
  C  C58  1  0.82235000  0.15558000  0.85593000  1.0
  C  C59  1  0.75124000  0.23987000  0.80349000  1.0
  C  C60  1  0.65808000  0.21882000  0.82002000  1.0
  C  C61  1  0.70213000  0.22776000  0.71119000  1.0
  C  C62  1  0.63610000  0.30203000  0.64839000  1.0
  C  C63  1  0.14994000  0.83115000  0.83998000  1.0
  C  C64  1  0.24247000  0.77978000  0.77101000  1.0
  C  C65  1  0.23097000  0.79549000  0.67589000  1.0
  C  C66  1  0.24019000  0.68704000  0.71624000  1.0
  C  C67  1  0.31697000  0.62349000  0.65139000  1.0
  N  N68  1  0.67724000  0.25549000  0.21783000  1.0
  N  N69  1  0.20163000  0.66733000  0.27854000  1.0
  N  N70  1  0.27064000  0.18867000  0.69595000  1.0
  N  N71  1  0.78044000  0.66830000  0.21665000  1.0
  N  N72  1  0.78073000  0.26203000  0.69784000  1.0
  N  N73  1  0.27025000  0.67391000  0.79555000  1.0
  O  O74  1  0.98290000  0.97205000  0.99767000  1.0
  O  O75  1  0.79317000  0.09912000  0.14017000  1.0
  O  O76  1  0.93556000  0.13789000  0.08056000  1.0
  O  O77  1  0.67232000  0.34455000  0.36583000  1.0
  O  O78  1  0.53225000  0.31386000  0.39847000  1.0
  O  O79  1  0.10406000  0.78011000  0.13464000  1.0
  O  O80  1  0.06765000  0.91896000  0.16263000  1.0
  O  O81  1  0.37165000  0.66421000  0.35307000  1.0
  O  O82  1  0.37700000  0.52853000  0.34131000  1.0
  O  O83  1  0.11643000  0.10319000  0.81100000  1.0
  O  O84  1  0.15553000  0.05363000  0.94702000  1.0
  O  O85  1  0.33868000  0.35541000  0.68623000  1.0
  O  O86  1  0.31574000  0.37413000  0.55096000  1.0
  O  O87  1  0.91398000  0.78083000  0.11350000  1.0
  O  O88  1  0.77994000  0.92068000  0.10995000  1.0
  O  O89  1  0.54987000  0.66023000  0.39438000  1.0
  O  O90  1  0.68837000  0.52550000  0.38380000  1.0
  O  O91  1  0.91239000  0.11894000  0.80555000  1.0
  O  O92  1  0.78448000  0.12990000  0.94791000  1.0
  O  O93  1  0.54251000  0.33542000  0.69200000  1.0
  O  O94  1  0.68125000  0.32397000  0.55741000  1.0
  O  O95  1  0.12271000  0.78176000  0.92924000  1.0
  O  O96  1  0.11043000  0.92122000  0.80154000  1.0
  O  O97  1  0.33654000  0.66546000  0.56019000  1.0
  O  O98  1  0.35287000  0.53407000  0.69408000  1.0
  O  O99  1  0.48075000  0.47032000  0.49665000  1.0
