# generated using pymatgen
data_VH10C10N3Cl2
_symmetry_space_group_name_H-M   'P 1'
_cell_length_a   8.46148000
_cell_length_b   8.96852000
_cell_length_c   15.22900000
_cell_angle_alpha   90.00000000
_cell_angle_beta   90.00000000
_cell_angle_gamma   90.00000000
_symmetry_Int_Tables_number   1
_chemical_formula_structural   VH10C10N3Cl2
_chemical_formula_sum   'V4 H40 C40 N12 Cl8'
_cell_volume   1155.68240129
_cell_formula_units_Z   4
loop_
 _symmetry_equiv_pos_site_id
 _symmetry_equiv_pos_as_xyz
  1  'x, y, z'
loop_
 _atom_site_type_symbol
 _atom_site_label
 _atom_site_symmetry_multiplicity
 _atom_site_fract_x
 _atom_site_fract_y
 _atom_site_fract_z
 _atom_site_occupancy
  V  V0  1  0.50023000  0.25000000  0.75000000  1.0
  V  V1  1  0.99974000  0.75000000  0.25000000  1.0
  V  V2  1  0.49978000  0.75000000  0.25000000  1.0
  V  V3  1  0.00025000  0.25000000  0.75000000  1.0
  H  H4  1  0.72392000  0.34750000  0.60167000  1.0
  H  H5  1  0.72392000  0.15250000  0.89833000  1.0
  H  H6  1  0.77607000  0.65252000  0.10167000  1.0
  H  H7  1  0.77607000  0.84748000  0.39833000  1.0
  H  H8  1  0.27608000  0.65251000  0.39834000  1.0
  H  H9  1  0.27608000  0.84749000  0.10166000  1.0
  H  H10  1  0.22394000  0.34749000  0.89833000  1.0
  H  H11  1  0.22393000  0.15251000  0.60166000  1.0
  H  H12  1  0.76513000  0.56814000  0.50302000  1.0
  H  H13  1  0.76512000  0.93185000  0.99698000  1.0
  H  H14  1  0.73485000  0.43186000  0.00303000  1.0
  H  H15  1  0.73484000  0.06814000  0.49697000  1.0
  H  H16  1  0.23488000  0.43187000  0.49699000  1.0
  H  H17  1  0.23488000  0.06813000  0.00300000  1.0
  H  H18  1  0.26516000  0.56815000  0.99698000  1.0
  H  H19  1  0.26515000  0.93185000  0.50302000  1.0
  H  H20  1  0.58640000  0.79137000  0.52154000  1.0
  H  H21  1  0.58640000  0.70862000  0.97846000  1.0
  H  H22  1  0.91358000  0.20862000  0.02154000  1.0
  H  H23  1  0.91358000  0.29138000  0.47846000  1.0
  H  H24  1  0.41359000  0.20863000  0.47847000  1.0
  H  H25  1  0.41359000  0.29138000  0.02153000  1.0
  H  H26  1  0.08642000  0.79138000  0.97847000  1.0
  H  H27  1  0.08641000  0.70862000  0.52154000  1.0
  H  H28  1  0.37457000  0.78052000  0.63581000  1.0
  H  H29  1  0.37458000  0.71948000  0.86418000  1.0
  H  H30  1  0.12540000  0.21949000  0.13580000  1.0
  H  H31  1  0.12540000  0.28051000  0.36421000  1.0
  H  H32  1  0.62541000  0.21948000  0.36419000  1.0
  H  H33  1  0.62541000  0.28052000  0.13581000  1.0
  H  H34  1  0.87459000  0.78051000  0.86420000  1.0
  H  H35  1  0.87459000  0.71949000  0.63580000  1.0
  H  H36  1  0.33937000  0.54479000  0.72228000  1.0
  H  H37  1  0.33937000  0.95521000  0.77772000  1.0
  H  H38  1  0.16063000  0.45521000  0.22226000  1.0
  H  H39  1  0.16063000  0.04479000  0.27774000  1.0
  H  H40  1  0.66062000  0.45521000  0.27772000  1.0
  H  H41  1  0.66062000  0.04480000  0.22228000  1.0
  H  H42  1  0.83938000  0.54479000  0.77774000  1.0
  H  H43  1  0.83938000  0.95522000  0.72227000  1.0
  C  C44  1  0.64771000  0.44494000  0.60513000  1.0
  C  C45  1  0.64771000  0.05505000  0.89487000  1.0
  C  C46  1  0.85228000  0.55505000  0.10513000  1.0
  C  C47  1  0.85227000  0.94495000  0.39487000  1.0
  C  C48  1  0.35230000  0.55506000  0.39488000  1.0
  C  C49  1  0.35230000  0.94494000  0.10512000  1.0
  C  C50  1  0.14773000  0.44495000  0.89487000  1.0
  C  C51  1  0.14773000  0.05505000  0.60513000  1.0
  C  C52  1  0.67072000  0.56894000  0.55173000  1.0
  C  C53  1  0.67071000  0.93105000  0.94827000  1.0
  C  C54  1  0.82927000  0.43105000  0.05173000  1.0
  C  C55  1  0.82927000  0.06895000  0.44827000  1.0
  C  C56  1  0.32929000  0.43107000  0.44828000  1.0
  C  C57  1  0.32929000  0.06894000  0.05172000  1.0
  C  C58  1  0.17073000  0.56896000  0.94827000  1.0
  C  C59  1  0.17073000  0.93105000  0.55173000  1.0
  C  C60  1  0.57222000  0.69221000  0.56216000  1.0
  C  C61  1  0.57221000  0.80778000  0.93784000  1.0
  C  C62  1  0.92778000  0.30778000  0.06217000  1.0
  C  C63  1  0.92777000  0.19222000  0.43783000  1.0
  C  C64  1  0.42778000  0.30779000  0.43785000  1.0
  C  C65  1  0.42778000  0.19221000  0.06215000  1.0
  C  C66  1  0.07223000  0.69222000  0.93784000  1.0
  C  C67  1  0.07223000  0.80778000  0.56216000  1.0
  C  C68  1  0.45287000  0.68616000  0.62524000  1.0
  C  C69  1  0.45288000  0.81383000  0.87475000  1.0
  C  C70  1  0.04713000  0.31384000  0.12524000  1.0
  C  C71  1  0.04712000  0.18616000  0.37476000  1.0
  C  C72  1  0.54712000  0.31384000  0.37476000  1.0
  C  C73  1  0.54712000  0.18616000  0.12524000  1.0
  C  C74  1  0.95288000  0.68616000  0.87476000  1.0
  C  C75  1  0.95288000  0.81384000  0.62524000  1.0
  C  C76  1  0.43360000  0.55699000  0.67426000  1.0
  C  C77  1  0.43360000  0.94301000  0.82574000  1.0
  C  C78  1  0.06640000  0.44299000  0.17425000  1.0
  C  C79  1  0.06639000  0.05700000  0.32574000  1.0
  C  C80  1  0.56639000  0.44301000  0.32575000  1.0
  C  C81  1  0.56639000  0.05699000  0.17425000  1.0
  C  C82  1  0.93361000  0.55701000  0.82574000  1.0
  C  C83  1  0.93361000  0.94300000  0.67426000  1.0
  N  N84  1  0.31299000  0.25000000  0.75000000  1.0
  N  N85  1  0.18698000  0.75000000  0.25000000  1.0
  N  N86  1  0.68700000  0.75000000  0.25000000  1.0
  N  N87  1  0.81302000  0.25000000  0.75000000  1.0
  N  N88  1  0.53046000  0.43837000  0.66494000  1.0
  N  N89  1  0.53046000  0.06163000  0.83507000  1.0
  N  N90  1  0.96955000  0.56163000  0.16494000  1.0
  N  N91  1  0.96955000  0.93838000  0.33507000  1.0
  N  N92  1  0.46954000  0.56164000  0.33507000  1.0
  N  N93  1  0.46954000  0.93836000  0.16493000  1.0
  N  N94  1  0.03046000  0.43837000  0.83507000  1.0
  N  N95  1  0.03046000  0.06163000  0.66493000  1.0
  Cl  Cl96  1  0.54932000  0.40873000  0.86653000  1.0
  Cl  Cl97  1  0.54932000  0.09127000  0.63347000  1.0
  Cl  Cl98  1  0.95068000  0.59124000  0.36653000  1.0
  Cl  Cl99  1  0.95068000  0.90875000  0.13347000  1.0
  Cl  Cl100  1  0.45068000  0.59126000  0.13347000  1.0
  Cl  Cl101  1  0.45069000  0.90874000  0.36653000  1.0
  Cl  Cl102  1  0.04932000  0.40875000  0.63347000  1.0
  Cl  Cl103  1  0.04933000  0.09125000  0.86653000  1.0
