# generated using pymatgen
data_ZnH20C30N6O7
_symmetry_space_group_name_H-M   'P 1'
_cell_length_a   7.47771000
_cell_length_b   10.89050000
_cell_length_c   19.04600000
_cell_angle_alpha   79.95050000
_cell_angle_beta   79.47070000
_cell_angle_gamma   73.21820000
_symmetry_Int_Tables_number   1
_chemical_formula_structural   ZnH20C30N6O7
_chemical_formula_sum   'Zn2 H40 C60 N12 O14'
_cell_volume   1447.70760717
_cell_formula_units_Z   2
loop_
 _symmetry_equiv_pos_site_id
 _symmetry_equiv_pos_as_xyz
  1  'x, y, z'
loop_
 _atom_site_type_symbol
 _atom_site_label
 _atom_site_symmetry_multiplicity
 _atom_site_fract_x
 _atom_site_fract_y
 _atom_site_fract_z
 _atom_site_occupancy
  Zn  Zn0  1  0.27702000  0.71771000  0.03369000  1.0
  Zn  Zn1  1  0.62126000  0.21199000  0.55301000  1.0
  H  H2  1  0.27017000  0.99519000  0.91502000  1.0
  H  H3  1  0.84813000  0.81847000  0.02874000  1.0
  H  H4  1  0.67798000  0.04797000  0.94636000  1.0
  H  H5  1  0.81283000  0.54016000  0.08979000  1.0
  H  H6  1  0.13501000  0.09603000  0.78084000  1.0
  H  H7  1  0.76299000  0.27492000  0.95707000  1.0
  H  H8  1  0.58554000  0.41878000  0.16092000  1.0
  H  H9  1  0.68291000  0.25653000  0.26463000  1.0
  H  H10  1  0.88397000  0.50852000  0.75479000  1.0
  H  H11  1  0.40207000  0.20802000  0.71021000  1.0
  H  H12  1  0.89593000  0.42946000  0.62990000  1.0
  H  H13  1  0.78910000  0.66639000  0.80997000  1.0
  H  H14  1  0.52767000  0.44313000  0.98358000  1.0
  H  H15  1  0.96240000  0.08936000  0.19329000  1.0
  H  H16  1  0.09650000  0.00375000  0.41068000  1.0
  H  H17  1  0.19185000  0.40088000  0.51729000  1.0
  H  H18  1  0.54789000  0.82608000  0.90106000  1.0
  H  H19  1  0.98763000  0.85638000  0.19307000  1.0
  H  H20  1  0.14454000  0.76839000  0.40580000  1.0
  H  H21  1  0.69870000  0.92190000  0.49526000  1.0
  H  H22  1  0.42253000  0.30492000  0.41739000  1.0
  H  H23  1  0.24827000  0.48440000  0.30603000  1.0
  H  H24  1  0.39871000  0.14457000  0.32582000  1.0
  H  H25  1  0.27390000  0.05910000  0.58690000  1.0
  H  H26  1  0.64361000  0.74623000  0.46213000  1.0
  H  H27  1  0.49989000  0.00228000  0.26825000  1.0
  H  H28  1  0.52286000  0.94882000  0.66750000  1.0
  H  H29  1  0.44536000  0.80650000  0.77744000  1.0
  H  H30  1  0.61596000  0.58800000  0.27399000  1.0
  H  H31  1  0.94970000  0.45879000  0.33767000  1.0
  H  H32  1  0.47192000  0.52950000  0.49801000  1.0
  H  H33  1  0.44216000  0.63854000  0.18529000  1.0
  H  H34  1  0.49726000  0.02390000  0.16116000  1.0
  H  H35  1  0.35760000  0.62939000  0.71891000  1.0
  H  H36  1  0.05974000  0.59658000  0.93495000  1.0
  H  H37  1  0.97182000  0.24185000  0.44313000  1.0
  H  H38  1  0.36607000  0.98727000  0.04291000  1.0
  H  H39  1  0.50936000  0.39345000  0.73479000  1.0
  H  H40  1  0.20619000  0.35807000  0.94866000  1.0
  H  H41  1  0.63603000  0.07366000  0.79645000  1.0
  C  C42  1  0.13597000  0.97248000  0.93443000  1.0
  C  C43  1  0.90924000  0.88959000  0.99332000  1.0
  C  C44  1  0.16279000  0.52086000  0.10998000  1.0
  C  C45  1  0.82394000  0.00234000  0.95416000  1.0
  C  C46  1  0.03797000  0.43995000  0.15100000  1.0
  C  C47  1  0.94801000  0.17495000  0.87270000  1.0
  C  C48  1  0.09806000  0.34320000  0.20776000  1.0
  C  C49  1  0.85463000  0.46529000  0.13425000  1.0
  C  C50  1  0.04543000  0.18255000  0.80302000  1.0
  C  C51  1  0.82998000  0.28443000  0.90136000  1.0
  C  C52  1  0.29224000  0.30189000  0.23126000  1.0
  C  C53  1  0.96683000  0.27879000  0.24697000  1.0
  C  C54  1  0.72744000  0.39930000  0.17425000  1.0
  C  C55  1  0.01897000  0.30403000  0.76188000  1.0
  C  C56  1  0.80628000  0.40451000  0.85880000  1.0
  C  C57  1  0.78266000  0.30694000  0.23234000  1.0
  C  C58  1  0.89911000  0.41517000  0.78821000  1.0
  C  C59  1  0.03070000  0.05991000  0.30173000  1.0
  C  C60  1  0.30657000  0.26313000  0.67230000  1.0
  C  C61  1  0.04475000  0.38163000  0.62901000  1.0
  C  C62  1  0.70294000  0.64274000  0.85994000  1.0
  C  C63  1  0.56727000  0.52452000  0.94968000  1.0
  C  C64  1  0.99831000  0.01964000  0.24026000  1.0
  C  C65  1  0.07688000  0.97023000  0.36260000  1.0
  C  C66  1  0.19308000  0.36665000  0.57422000  1.0
  C  C67  1  0.57859000  0.72181000  0.90544000  1.0
  C  C68  1  0.01387000  0.88986000  0.23995000  1.0
  C  C69  1  0.10089000  0.83933000  0.35994000  1.0
  C  C70  1  0.06982000  0.79775000  0.29860000  1.0
  C  C71  1  0.09579000  0.66080000  0.28978000  1.0
  C  C72  1  0.61617000  0.00375000  0.46349000  1.0
  C  C73  1  0.47285000  0.20057000  0.42142000  1.0
  C  C74  1  0.91871000  0.06052000  0.60660000  1.0
  C  C75  1  0.45963000  0.12209000  0.37524000  1.0
  C  C76  1  0.05703000  0.98808000  0.65697000  1.0
  C  C77  1  0.57006000  0.88664000  0.36864000  1.0
  C  C78  1  0.00987000  0.90895000  0.72050000  1.0
  C  C79  1  0.24227000  0.99943000  0.63728000  1.0
  C  C80  1  0.61688000  0.76271000  0.40652000  1.0
  C  C81  1  0.53716000  0.90503000  0.29732000  1.0
  C  C82  1  0.82065000  0.87794000  0.74204000  1.0
  C  C83  1  0.15485000  0.84119000  0.76126000  1.0
  C  C84  1  0.38027000  0.93733000  0.68118000  1.0
  C  C85  1  0.63291000  0.65784000  0.37078000  1.0
  C  C86  1  0.54787000  0.79839000  0.26401000  1.0
  C  C87  1  0.33661000  0.85720000  0.74381000  1.0
  C  C88  1  0.59956000  0.67286000  0.29985000  1.0
  C  C89  1  0.19876000  0.62767000  0.82607000  1.0
  C  C90  1  0.85804000  0.43902000  0.38685000  1.0
  C  C91  1  0.60661000  0.47933000  0.47060000  1.0
  C  C92  1  0.44291000  0.73663000  0.16210000  1.0
  C  C93  1  0.47347000  0.93742000  0.14788000  1.0
  C  C94  1  0.32457000  0.57025000  0.76923000  1.0
  C  C95  1  0.15606000  0.55084000  0.89091000  1.0
  C  C96  1  0.86705000  0.33407000  0.43882000  1.0
  C  C97  1  0.40419000  0.91906000  0.09000000  1.0
  C  C98  1  0.40851000  0.43777000  0.77820000  1.0
  C  C99  1  0.23879000  0.41818000  0.89848000  1.0
  C  C100  1  0.36716000  0.35925000  0.84249000  1.0
  C  C101  1  0.45589000  0.21704000  0.85167000  1.0
  N  N102  1  0.10288000  0.87260000  0.98089000  1.0
  N  N103  1  0.38517000  0.79399000  0.09966000  1.0
  N  N104  1  0.49461000  0.64709000  0.96068000  1.0
  N  N105  1  0.96941000  0.05361000  0.91694000  1.0
  N  N106  1  0.11866000  0.31518000  0.69084000  1.0
  N  N107  1  0.69524000  0.51756000  0.88822000  1.0
  N  N108  1  0.35564000  0.29354000  0.60207000  1.0
  N  N109  1  0.56975000  0.12597000  0.47626000  1.0
  N  N110  1  0.70936000  0.35995000  0.49052000  1.0
  N  N111  1  0.55071000  0.99733000  0.40212000  1.0
  N  N112  1  0.69317000  0.53039000  0.40783000  1.0
  N  N113  1  0.49834000  0.82072000  0.19343000  1.0
  O  O114  1  0.08220000  0.62335000  0.06889000  1.0
  O  O115  1  0.33556000  0.49287000  0.11498000  1.0
  O  O116  1  0.40412000  0.20066000  0.20962000  1.0
  O  O117  1  0.32450000  0.36223000  0.27758000  1.0
  O  O118  1  0.02475000  0.18579000  0.30527000  1.0
  O  O119  1  0.97392000  0.07960000  0.54031000  1.0
  O  O120  1  0.74384000  0.10533000  0.63472000  1.0
  O  O121  1  0.01113000  0.63143000  0.24794000  1.0
  O  O122  1  0.22030000  0.57304000  0.32753000  1.0
  O  O123  1  0.80598000  0.78475000  0.71479000  1.0
  O  O124  1  0.69701000  0.93935000  0.78868000  1.0
  O  O125  1  0.10916000  0.75733000  0.82251000  1.0
  O  O126  1  0.57624000  0.17619000  0.79481000  1.0
  O  O127  1  0.41848000  0.14533000  0.90761000  1.0
