# generated using pymatgen
data_ZnH17C24N2O5
_symmetry_space_group_name_H-M   'P 1'
_cell_length_a   9.11143000
_cell_length_b   14.45320000
_cell_length_c   17.19720000
_cell_angle_alpha   90.00000000
_cell_angle_beta   101.64200000
_cell_angle_gamma   89.99950000
_symmetry_Int_Tables_number   1
_chemical_formula_structural   ZnH17C24N2O5
_chemical_formula_sum   'Zn4 H68 C96 N8 O20'
_cell_volume   2218.09749066
_cell_formula_units_Z   4
loop_
 _symmetry_equiv_pos_site_id
 _symmetry_equiv_pos_as_xyz
  1  'x, y, z'
loop_
 _atom_site_type_symbol
 _atom_site_label
 _atom_site_symmetry_multiplicity
 _atom_site_fract_x
 _atom_site_fract_y
 _atom_site_fract_z
 _atom_site_occupancy
  Zn  Zn0  1  0.67283000  0.86123000  0.80492000  1.0
  Zn  Zn1  1  0.82717000  0.36123000  0.69509000  1.0
  Zn  Zn2  1  0.32716000  0.13876000  0.19509000  1.0
  Zn  Zn3  1  0.17284000  0.63877000  0.30491000  1.0
  H  H4  1  0.90265000  0.75166000  0.09716000  1.0
  H  H5  1  0.59734000  0.25166000  0.40284000  1.0
  H  H6  1  0.09734000  0.24834000  0.90284000  1.0
  H  H7  1  0.40266000  0.74834000  0.59716000  1.0
  H  H8  1  0.61125000  0.55438000  0.17613000  1.0
  H  H9  1  0.88876000  0.05439000  0.32386000  1.0
  H  H10  1  0.38875000  0.44561000  0.82386000  1.0
  H  H11  1  0.11124000  0.94561000  0.67614000  1.0
  H  H12  1  0.45634000  0.71644000  0.96315000  1.0
  H  H13  1  0.04366000  0.21644000  0.53685000  1.0
  H  H14  1  0.54366000  0.28357000  0.03686000  1.0
  H  H15  1  0.95634000  0.78355000  0.46315000  1.0
  H  H16  1  0.30790000  0.59244000  0.94129000  1.0
  H  H17  1  0.19209000  0.09244000  0.55872000  1.0
  H  H18  1  0.69208000  0.40757000  0.05871000  1.0
  H  H19  1  0.80792000  0.90757000  0.44129000  1.0
  H  H20  1  0.24059000  0.68308000  0.99573000  1.0
  H  H21  1  0.25942000  0.18308000  0.50427000  1.0
  H  H22  1  0.75941000  0.31693000  0.00427000  1.0
  H  H23  1  0.74059000  0.81693000  0.49574000  1.0
  H  H24  1  0.24874000  0.42398000  0.02110000  1.0
  H  H25  1  0.25126000  0.92398000  0.47890000  1.0
  H  H26  1  0.75126000  0.57602000  0.97891000  1.0
  H  H27  1  0.74875000  0.07602000  0.52110000  1.0
  H  H28  1  0.97857000  0.66960000  0.97652000  1.0
  H  H29  1  0.52143000  0.16959000  0.52349000  1.0
  H  H30  1  0.02143000  0.33040000  0.02349000  1.0
  H  H31  1  0.47857000  0.83041000  0.47651000  1.0
  H  H32  1  0.89841000  0.97960000  0.91359000  1.0
  H  H33  1  0.60159000  0.47960000  0.58641000  1.0
  H  H34  1  0.10158000  0.02041000  0.08641000  1.0
  H  H35  1  0.39841000  0.52041000  0.41359000  1.0
  H  H36  1  0.10311000  0.08309000  0.88884000  1.0
  H  H37  1  0.39688000  0.58309000  0.61116000  1.0
  H  H38  1  0.89689000  0.91690000  0.11116000  1.0
  H  H39  1  0.60310000  0.41689000  0.38883000  1.0
  H  H40  1  0.86430000  0.10383000  0.64468000  1.0
  H  H41  1  0.63569000  0.60383000  0.85532000  1.0
  H  H42  1  0.13569000  0.89616000  0.35531000  1.0
  H  H43  1  0.36429000  0.39617000  0.14468000  1.0
  H  H44  1  0.67112000  0.99784000  0.67973000  1.0
  H  H45  1  0.82888000  0.49783000  0.82027000  1.0
  H  H46  1  0.32888000  0.00216000  0.32027000  1.0
  H  H47  1  0.17112000  0.50216000  0.17973000  1.0
  H  H48  1  0.09796000  0.19138000  0.68635000  1.0
  H  H49  1  0.40205000  0.69138000  0.81365000  1.0
  H  H50  1  0.90206000  0.80861000  0.31364000  1.0
  H  H51  1  0.59793000  0.30861000  0.18635000  1.0
  H  H52  1  0.30125000  0.09172000  0.82714000  1.0
  H  H53  1  0.19876000  0.59171000  0.67286000  1.0
  H  H54  1  0.69877000  0.90828000  0.17286000  1.0
  H  H55  1  0.80123000  0.40828000  0.32713000  1.0
  H  H56  1  0.55974000  0.13777000  0.85774000  1.0
  H  H57  1  0.94027000  0.63776000  0.64227000  1.0
  H  H58  1  0.44028000  0.86224000  0.14227000  1.0
  H  H59  1  0.05972000  0.36225000  0.35773000  1.0
  H  H60  1  0.77445000  0.22610000  0.82268000  1.0
  H  H61  1  0.72556000  0.72611000  0.67732000  1.0
  H  H62  1  0.22556000  0.77391000  0.17732000  1.0
  H  H63  1  0.27445000  0.27391000  0.32268000  1.0
  H  H64  1  0.50672000  0.32791000  0.61725000  1.0
  H  H65  1  0.99327000  0.82791000  0.88276000  1.0
  H  H66  1  0.49328000  0.67208000  0.38275000  1.0
  H  H67  1  0.00673000  0.17209000  0.11725000  1.0
  H  H68  1  0.27932000  0.25287000  0.64689000  1.0
  H  H69  1  0.22069000  0.75287000  0.85312000  1.0
  H  H70  1  0.72070000  0.74711000  0.35311000  1.0
  H  H71  1  0.77931000  0.24712000  0.14688000  1.0
  C  C72  1  0.68070000  0.74159000  0.02517000  1.0
  C  C73  1  0.81930000  0.24159000  0.47483000  1.0
  C  C74  1  0.31929000  0.25841000  0.97483000  1.0
  C  C75  1  0.18071000  0.75841000  0.52516000  1.0
  C  C76  1  0.79333000  0.71901000  0.08979000  1.0
  C  C77  1  0.70666000  0.21901000  0.41021000  1.0
  C  C78  1  0.20666000  0.28099000  0.91020000  1.0
  C  C79  1  0.29335000  0.78100000  0.58979000  1.0
  C  C80  1  0.76878000  0.65064000  0.14350000  1.0
  C  C81  1  0.73123000  0.15063000  0.35651000  1.0
  C  C82  1  0.23122000  0.34936000  0.85651000  1.0
  C  C83  1  0.26878000  0.84936000  0.64349000  1.0
  C  C84  1  0.62983000  0.60688000  0.13371000  1.0
  C  C85  1  0.87018000  0.10688000  0.36628000  1.0
  C  C86  1  0.37017000  0.39311000  0.86628000  1.0
  C  C87  1  0.12983000  0.89312000  0.63371000  1.0
  C  C88  1  0.51504000  0.63095000  0.06935000  1.0
  C  C89  1  0.98496000  0.13095000  0.43064000  1.0
  C  C90  1  0.48496000  0.36905000  0.93064000  1.0
  C  C91  1  0.01504000  0.86906000  0.56936000  1.0
  C  C92  1  0.54085000  0.69756000  0.01473000  1.0
  C  C93  1  0.95914000  0.19756000  0.48527000  1.0
  C  C94  1  0.45914000  0.30244000  0.98527000  1.0
  C  C95  1  0.04087000  0.80244000  0.51473000  1.0
  C  C96  1  0.71338000  0.80615000  0.96254000  1.0
  C  C97  1  0.78661000  0.30615000  0.53747000  1.0
  C  C98  1  0.28661000  0.19385000  0.03746000  1.0
  C  C99  1  0.21340000  0.69385000  0.46253000  1.0
  C  C100  1  0.89393000  0.62407000  0.21103000  1.0
  C  C101  1  0.60607000  0.12407000  0.28897000  1.0
  C  C102  1  0.10607000  0.37593000  0.78897000  1.0
  C  C103  1  0.39393000  0.87593000  0.71103000  1.0
  C  C104  1  0.26615000  0.60844000  0.99587000  1.0
  C  C105  1  0.23386000  0.10844000  0.50414000  1.0
  C  C106  1  0.73384000  0.39156000  0.00413000  1.0
  C  C107  1  0.76616000  0.89156000  0.49587000  1.0
  C  C108  1  0.12897000  0.55274000  0.99906000  1.0
  C  C109  1  0.37104000  0.05274000  0.50095000  1.0
  C  C110  1  0.87103000  0.44726000  0.00095000  1.0
  C  C111  1  0.62896000  0.94726000  0.49906000  1.0
  C  C112  1  0.13965000  0.45742000  0.01276000  1.0
  C  C113  1  0.36036000  0.95742000  0.48724000  1.0
  C  C114  1  0.86036000  0.54258000  0.98725000  1.0
  C  C115  1  0.63964000  0.04258000  0.51276000  1.0
  C  C116  1  0.98814000  0.59503000  0.98618000  1.0
  C  C117  1  0.51186000  0.09503000  0.51383000  1.0
  C  C118  1  0.01186000  0.40497000  0.01382000  1.0
  C  C119  1  0.48814000  0.90498000  0.48618000  1.0
  C  C120  1  0.89744000  0.00877000  0.85496000  1.0
  C  C121  1  0.60255000  0.50876000  0.64504000  1.0
  C  C122  1  0.10255000  0.99124000  0.14504000  1.0
  C  C123  1  0.39744000  0.49123000  0.35496000  1.0
  C  C124  1  0.01190000  0.06474000  0.83983000  1.0
  C  C125  1  0.48809000  0.56474000  0.66017000  1.0
  C  C126  1  0.98810000  0.93526000  0.16017000  1.0
  C  C127  1  0.51189000  0.43526000  0.33983000  1.0
  C  C128  1  0.00648000  0.09726000  0.76204000  1.0
  C  C129  1  0.49352000  0.59727000  0.73796000  1.0
  C  C130  1  0.99353000  0.90273000  0.23796000  1.0
  C  C131  1  0.50646000  0.40273000  0.26204000  1.0
  C  C132  1  0.87684000  0.07722000  0.70487000  1.0
  C  C133  1  0.62316000  0.57722000  0.79513000  1.0
  C  C134  1  0.12316000  0.92278000  0.29513000  1.0
  C  C135  1  0.37682000  0.42278000  0.20487000  1.0
  C  C136  1  0.76862000  0.01900000  0.72401000  1.0
  C  C137  1  0.73137000  0.51900000  0.77598000  1.0
  C  C138  1  0.23137000  0.98100000  0.27599000  1.0
  C  C139  1  0.26861000  0.48100000  0.22401000  1.0
  C  C140  1  0.12912000  0.14735000  0.73875000  1.0
  C  C141  1  0.37090000  0.64735000  0.76125000  1.0
  C  C142  1  0.87090000  0.85264000  0.26125000  1.0
  C  C143  1  0.62911000  0.35264000  0.23875000  1.0
  C  C144  1  0.27345000  0.13889000  0.77676000  1.0
  C  C145  1  0.22657000  0.63888000  0.72325000  1.0
  C  C146  1  0.72657000  0.86111000  0.22324000  1.0
  C  C147  1  0.77343000  0.36111000  0.27676000  1.0
  C  C148  1  0.39963000  0.18714000  0.75530000  1.0
  C  C149  1  0.10036000  0.68714000  0.74470000  1.0
  C  C150  1  0.60038000  0.81286000  0.24470000  1.0
  C  C151  1  0.89962000  0.31286000  0.25530000  1.0
  C  C152  1  0.54278000  0.18038000  0.80440000  1.0
  C  C153  1  0.95721000  0.68038000  0.69561000  1.0
  C  C154  1  0.45723000  0.81962000  0.19560000  1.0
  C  C155  1  0.04277000  0.31962000  0.30439000  1.0
  C  C156  1  0.66255000  0.22855000  0.78520000  1.0
  C  C157  1  0.83745000  0.72855000  0.71481000  1.0
  C  C158  1  0.33746000  0.77146000  0.21481000  1.0
  C  C159  1  0.16254000  0.27146000  0.28519000  1.0
  C  C160  1  0.51217000  0.28669000  0.67086000  1.0
  C  C161  1  0.98784000  0.78670000  0.82914000  1.0
  C  C162  1  0.48784000  0.71330000  0.32914000  1.0
  C  C163  1  0.01216000  0.21331000  0.17086000  1.0
  C  C164  1  0.38675000  0.24288000  0.68716000  1.0
  C  C165  1  0.11325000  0.74288000  0.81285000  1.0
  C  C166  1  0.61327000  0.75711000  0.31284000  1.0
  C  C167  1  0.88674000  0.25712000  0.18716000  1.0
  N  N168  1  0.78010000  0.98309000  0.79746000  1.0
  N  N169  1  0.71990000  0.48308000  0.70254000  1.0
  N  N170  1  0.21989000  0.01691000  0.20254000  1.0
  N  N171  1  0.28010000  0.51691000  0.29746000  1.0
  N  N172  1  0.64863000  0.28062000  0.71911000  1.0
  N  N173  1  0.85138000  0.78062000  0.78090000  1.0
  N  N174  1  0.35138000  0.71938000  0.28090000  1.0
  N  N175  1  0.14863000  0.21938000  0.21910000  1.0
  O  O176  1  0.61382000  0.80493000  0.89663000  1.0
  O  O177  1  0.88617000  0.30493000  0.60337000  1.0
  O  O178  1  0.38616000  0.19507000  0.10337000  1.0
  O  O179  1  0.11383000  0.69507000  0.39663000  1.0
  O  O180  1  0.83140000  0.85321000  0.97422000  1.0
  O  O181  1  0.66860000  0.35320000  0.52579000  1.0
  O  O182  1  0.16860000  0.14679000  0.02577000  1.0
  O  O183  1  0.33141000  0.64680000  0.47421000  1.0
  O  O184  1  0.02210000  0.66387000  0.20900000  1.0
  O  O185  1  0.47789000  0.16387000  0.29100000  1.0
  O  O186  1  0.97791000  0.33613000  0.79099000  1.0
  O  O187  1  0.52210000  0.83613000  0.70900000  1.0
  O  O188  1  0.87349000  0.56887000  0.26354000  1.0
  O  O189  1  0.62651000  0.06887000  0.23645000  1.0
  O  O190  1  0.12653000  0.43113000  0.73645000  1.0
  O  O191  1  0.37349000  0.93113000  0.76354000  1.0
  O  O192  1  0.38099000  0.58601000  0.06385000  1.0
  O  O193  1  0.11902000  0.08602000  0.43615000  1.0
  O  O194  1  0.61902000  0.41398000  0.93615000  1.0
  O  O195  1  0.88098000  0.91398000  0.56385000  1.0
