# generated using pymatgen
data_ZnH12C20INO5
_symmetry_space_group_name_H-M   'P 1'
_cell_length_a   14.86230000
_cell_length_b   16.12120000
_cell_length_c   16.18480000
_cell_angle_alpha   89.91310000
_cell_angle_beta   89.74920000
_cell_angle_gamma   89.89850000
_symmetry_Int_Tables_number   1
_chemical_formula_structural   ZnH12C20INO5
_chemical_formula_sum   'Zn2 H24 C40 I2 N2 O10'
_cell_volume   3877.79985256
_cell_formula_units_Z   2
loop_
 _symmetry_equiv_pos_site_id
 _symmetry_equiv_pos_as_xyz
  1  'x, y, z'
loop_
 _atom_site_type_symbol
 _atom_site_label
 _atom_site_symmetry_multiplicity
 _atom_site_fract_x
 _atom_site_fract_y
 _atom_site_fract_z
 _atom_site_occupancy
  Zn  Zn0  1  0.59423000  0.49979000  0.49982000  1.0
  Zn  Zn1  1  0.40575000  0.49991000  0.50023000  1.0
  H  H2  1  0.41770000  0.94787000  0.62090000  1.0
  H  H3  1  0.91308000  0.49756000  0.36845000  1.0
  H  H4  1  0.75778000  0.60251000  0.10603000  1.0
  H  H5  1  0.70258000  0.61160000  0.00900000  1.0
  H  H6  1  0.83756000  0.47623000  0.05949000  1.0
  H  H7  1  0.77997000  0.47698000  0.96458000  1.0
  H  H8  1  0.84836000  0.61623000  0.92855000  1.0
  H  H9  1  0.93396000  0.54181000  0.94844000  1.0
  H  H10  1  0.90598000  0.61701000  0.02419000  1.0
  H  H11  1  0.24183000  0.60215000  0.89369000  1.0
  H  H12  1  0.29693000  0.61123000  0.99076000  1.0
  H  H13  1  0.58236000  0.05191000  0.37906000  1.0
  H  H14  1  0.16276000  0.47570000  0.94047000  1.0
  H  H15  1  0.22013000  0.47662000  0.03547000  1.0
  H  H16  1  0.15082000  0.61575000  0.07091000  1.0
  H  H17  1  0.06569000  0.54126000  0.05105000  1.0
  H  H18  1  0.09349000  0.61645000  0.97510000  1.0
  H  H19  1  0.57194000  0.05127000  0.62586000  1.0
  H  H20  1  0.42809000  0.94850000  0.37412000  1.0
  H  H21  1  0.34428000  0.05054000  0.49515000  1.0
  H  H22  1  0.65576000  0.94922000  0.50483000  1.0
  H  H23  1  0.64318000  0.50835000  0.92044000  1.0
  H  H24  1  0.35687000  0.50802000  0.07957000  1.0
  H  H25  1  0.08688000  0.50347000  0.63143000  1.0
  C  C26  1  0.50104000  0.50169000  0.66112000  1.0
  C  C27  1  0.49960000  0.50434000  0.24973000  1.0
  C  C28  1  0.95428000  0.50243000  0.57709000  1.0
  C  C29  1  0.04570000  0.49905000  0.42277000  1.0
  C  C30  1  0.90645000  0.50054000  0.50171000  1.0
  C  C31  1  0.09352000  0.50056000  0.49816000  1.0
  C  C32  1  0.95204000  0.49893000  0.42530000  1.0
  C  C33  1  0.04792000  0.50233000  0.57457000  1.0
  C  C34  1  0.81083000  0.50027000  0.50114000  1.0
  C  C35  1  0.18914000  0.50022000  0.49879000  1.0
  C  C36  1  0.49943000  0.66153000  0.49981000  1.0
  C  C37  1  0.49896000  0.50167000  0.33892000  1.0
  C  C38  1  0.50057000  0.33832000  0.50022000  1.0
  C  C39  1  0.54012000  0.02743000  0.56996000  1.0
  C  C40  1  0.45994000  0.97235000  0.43001000  1.0
  C  C41  1  0.45411000  0.97193000  0.56717000  1.0
  C  C42  1  0.54593000  0.02785000  0.43279000  1.0
  C  C43  1  0.49951000  0.75117000  0.49971000  1.0
  C  C44  1  0.50047000  0.24867000  0.50023000  1.0
  C  C45  1  0.58667000  0.97253000  0.50269000  1.0
  C  C46  1  0.41338000  0.02726000  0.49729000  1.0
  C  C47  1  0.50084000  0.91457000  0.49990000  1.0
  C  C48  1  0.50093000  0.50858000  0.08726000  1.0
  C  C49  1  0.49920000  0.08524000  0.50006000  1.0
  C  C50  1  0.50016000  0.82679000  0.49976000  1.0
  C  C51  1  0.49989000  0.17303000  0.50020000  1.0
  C  C52  1  0.58304000  0.51146000  0.04224000  1.0
  C  C53  1  0.41700000  0.51130000  0.95777000  1.0
  C  C54  1  0.73154000  0.56699000  0.05329000  1.0
  C  C55  1  0.80727000  0.51752000  0.01302000  1.0
  C  C56  1  0.87781000  0.57614000  0.97649000  1.0
  C  C57  1  0.26822000  0.56662000  0.94654000  1.0
  C  C58  1  0.19270000  0.51708000  0.98685000  1.0
  C  C59  1  0.49912000  0.50862000  0.91276000  1.0
  C  C60  1  0.12174000  0.57563000  0.02301000  1.0
  C  C61  1  0.41900000  0.50898000  0.04376000  1.0
  C  C62  1  0.58105000  0.50917000  0.95625000  1.0
  C  C63  1  0.50084000  0.50669000  0.17446000  1.0
  C  C64  1  0.49918000  0.50674000  0.82556000  1.0
  C  C65  1  0.50038000  0.50440000  0.75031000  1.0
  I  I66  1  0.88628000  0.50502000  0.69012000  1.0
  I  I67  1  0.11378000  0.49699000  0.30979000  1.0
  N  N68  1  0.26714000  0.49991000  0.50169000  1.0
  N  N69  1  0.73283000  0.50003000  0.49833000  1.0
  O  O70  1  0.57815000  0.50005000  0.62623000  1.0
  O  O71  1  0.33946000  0.51607000  0.91292000  1.0
  O  O72  1  0.42186000  0.50015000  0.37384000  1.0
  O  O73  1  0.42440000  0.50127000  0.62606000  1.0
  O  O74  1  0.57559000  0.50116000  0.37399000  1.0
  O  O75  1  0.57625000  0.62620000  0.50045000  1.0
  O  O76  1  0.42374000  0.37368000  0.50064000  1.0
  O  O77  1  0.42266000  0.62635000  0.49926000  1.0
  O  O78  1  0.57733000  0.37354000  0.49976000  1.0
  O  O79  1  0.66054000  0.51640000  0.08708000  1.0
