# generated using pymatgen
data_SmH17C15O11
_symmetry_space_group_name_H-M   'P 1'
_cell_length_a   7.47647000
_cell_length_b   14.06090000
_cell_length_c   19.91400000
_cell_angle_alpha   73.84210000
_cell_angle_beta   79.17000000
_cell_angle_gamma   74.57610000
_symmetry_Int_Tables_number   1
_chemical_formula_structural   SmH17C15O11
_chemical_formula_sum   'Sm4 H68 C60 O44'
_cell_volume   1923.64444287
_cell_formula_units_Z   4
loop_
 _symmetry_equiv_pos_site_id
 _symmetry_equiv_pos_as_xyz
  1  'x, y, z'
loop_
 _atom_site_type_symbol
 _atom_site_label
 _atom_site_symmetry_multiplicity
 _atom_site_fract_x
 _atom_site_fract_y
 _atom_site_fract_z
 _atom_site_occupancy
  Sm  Sm0  1  0.13860000  0.76494000  0.38131000  1.0
  Sm  Sm1  1  0.28492000  0.73511000  0.11862000  1.0
  Sm  Sm2  1  0.86140000  0.23506000  0.61869000  1.0
  Sm  Sm3  1  0.71508000  0.26489000  0.88138000  1.0
  H  H4  1  0.24625000  0.90922000  0.45021000  1.0
  H  H5  1  0.60571000  0.59089000  0.04981000  1.0
  H  H6  1  0.75375000  0.09077000  0.54978000  1.0
  H  H7  1  0.39429000  0.40911000  0.95019000  1.0
  H  H8  1  0.77857000  0.80828000  0.31680000  1.0
  H  H9  1  0.90370000  0.69175000  0.18319000  1.0
  H  H10  1  0.22143000  0.19172000  0.68320000  1.0
  H  H11  1  0.09630000  0.30825000  0.81681000  1.0
  H  H12  1  0.86380000  0.69134000  0.31803000  1.0
  H  H13  1  0.87322000  0.80868000  0.18196000  1.0
  H  H14  1  0.13620000  0.30866000  0.68197000  1.0
  H  H15  1  0.12678000  0.19132000  0.81804000  1.0
  H  H16  1  0.52170000  0.80310000  0.32759000  1.0
  H  H17  1  0.65231000  0.69696000  0.17241000  1.0
  H  H18  1  0.47830000  0.19690000  0.67241000  1.0
  H  H19  1  0.34769000  0.30304000  0.82759000  1.0
  H  H20  1  0.55414000  0.68827000  0.32202000  1.0
  H  H21  1  0.56433000  0.81176000  0.17801000  1.0
  H  H22  1  0.44586000  0.31173000  0.67798000  1.0
  H  H23  1  0.43567000  0.18824000  0.82199000  1.0
  H  H24  1  0.01051000  0.02206000  0.08056000  1.0
  H  H25  1  0.11288000  0.47821000  0.41938000  1.0
  H  H26  1  0.98949000  0.97794000  0.91944000  1.0
  H  H27  1  0.88713000  0.52179000  0.58062000  1.0
  H  H28  1  0.01717000  0.08273000  0.27997000  1.0
  H  H29  1  0.37984000  0.41729000  0.22007000  1.0
  H  H30  1  0.98284000  0.91727000  0.72003000  1.0
  H  H31  1  0.62016000  0.58271000  0.77993000  1.0
  H  H32  1  0.85932000  0.40568000  0.17878000  1.0
  H  H33  1  0.44368000  0.09441000  0.32130000  1.0
  H  H34  1  0.14068000  0.59432000  0.82122000  1.0
  H  H35  1  0.55631000  0.90559000  0.67870000  1.0
  H  H36  1  0.71986000  0.31231000  0.12021000  1.0
  H  H37  1  0.15256000  0.18779000  0.37996000  1.0
  H  H38  1  0.28014000  0.68769000  0.87978000  1.0
  H  H39  1  0.84744000  0.81221000  0.62004000  1.0
  H  H40  1  0.72963000  0.15396000  0.34516000  1.0
  H  H41  1  0.22871000  0.34612000  0.15493000  1.0
  H  H42  1  0.27037000  0.84604000  0.65484000  1.0
  H  H43  1  0.77129000  0.65388000  0.84508000  1.0
  H  H44  1  0.66179000  0.44523000  0.38871000  1.0
  H  H45  1  0.49559000  0.05484000  0.11139000  1.0
  H  H46  1  0.33821000  0.55476000  0.61129000  1.0
  H  H47  1  0.50441000  0.94516000  0.88861000  1.0
  H  H48  1  0.63701000  0.26554000  0.42937000  1.0
  H  H49  1  0.33180000  0.23456000  0.07071000  1.0
  H  H50  1  0.36299000  0.73446000  0.57063000  1.0
  H  H51  1  0.66820000  0.76544000  0.92929000  1.0
  H  H52  1  0.74989000  0.92947000  0.35997000  1.0
  H  H53  1  0.03928000  0.57050000  0.14005000  1.0
  H  H54  1  0.25011000  0.07053000  0.64003000  1.0
  H  H55  1  0.96072000  0.42950000  0.85995000  1.0
  H  H56  1  0.93498000  0.96527000  0.34345000  1.0
  H  H57  1  0.24367000  0.53483000  0.15656000  1.0
  H  H58  1  0.06502000  0.03473000  0.65655000  1.0
  H  H59  1  0.75633000  0.46517000  0.84345000  1.0
  H  H60  1  0.45084000  0.57990000  0.43874000  1.0
  H  H61  1  0.46965000  0.92003000  0.06127000  1.0
  H  H62  1  0.54916000  0.42010000  0.56126000  1.0
  H  H63  1  0.53036000  0.07997000  0.93873000  1.0
  H  H64  1  0.25414000  0.57181000  0.47947000  1.0
  H  H65  1  0.30557000  0.92824000  0.02051000  1.0
  H  H66  1  0.74587000  0.42819000  0.52053000  1.0
  H  H67  1  0.69443000  0.07176000  0.97949000  1.0
  H  H68  1  0.36903000  0.92472000  0.37451000  1.0
  H  H69  1  0.66840000  0.57534000  0.12551000  1.0
  H  H70  1  0.63097000  0.07528000  0.62549000  1.0
  H  H71  1  0.33160000  0.42466000  0.87449000  1.0
  C  C72  1  0.12755000  0.93260000  0.20910000  1.0
  C  C73  1  0.26920000  0.56751000  0.29081000  1.0
  C  C74  1  0.87245000  0.06740000  0.79090000  1.0
  C  C75  1  0.73080000  0.43249000  0.70919000  1.0
  C  C76  1  0.02078000  0.03978000  0.18400000  1.0
  C  C77  1  0.24435000  0.46038000  0.31597000  1.0
  C  C78  1  0.97922000  0.96022000  0.81600000  1.0
  C  C79  1  0.75566000  0.53962000  0.68403000  1.0
  C  C80  1  0.97100000  0.07326000  0.11573000  1.0
  C  C81  1  0.15965000  0.42696000  0.38426000  1.0
  C  C82  1  0.02900000  0.92673000  0.88427000  1.0
  C  C83  1  0.84035000  0.57304000  0.61574000  1.0
  C  C84  1  0.85919000  0.20510000  0.20681000  1.0
  C  C85  1  0.27111000  0.29500000  0.29327000  1.0
  C  C86  1  0.14081000  0.79489000  0.79319000  1.0
  C  C87  1  0.72889000  0.70501000  0.70673000  1.0
  C  C88  1  0.96703000  0.10641000  0.22852000  1.0
  C  C89  1  0.30192000  0.39367000  0.27151000  1.0
  C  C90  1  0.03297000  0.89359000  0.77148000  1.0
  C  C91  1  0.69809000  0.60633000  0.72849000  1.0
  C  C92  1  0.77362000  0.54556000  0.25748000  1.0
  C  C93  1  0.57656000  0.95451000  0.24254000  1.0
  C  C94  1  0.22638000  0.45444000  0.74252000  1.0
  C  C95  1  0.42344000  0.04549000  0.75746000  1.0
  C  C96  1  0.80888000  0.37478000  0.23348000  1.0
  C  C97  1  0.41713000  0.12531000  0.26659000  1.0
  C  C98  1  0.19112000  0.62522000  0.76652000  1.0
  C  C99  1  0.58287000  0.87469000  0.73341000  1.0
  C  C100  1  0.80800000  0.23716000  0.13846000  1.0
  C  C101  1  0.18373000  0.26296000  0.36164000  1.0
  C  C102  1  0.19200000  0.76283000  0.86154000  1.0
  C  C103  1  0.81627000  0.73704000  0.63836000  1.0
  C  C104  1  0.81111000  0.20446000  0.02027000  1.0
  C  C105  1  0.03594000  0.29569000  0.47982000  1.0
  C  C106  1  0.18889000  0.79554000  0.97973000  1.0
  C  C107  1  0.96406000  0.70432000  0.52018000  1.0
  C  C108  1  0.75967000  0.43724000  0.28098000  1.0
  C  C109  1  0.47782000  0.06285000  0.21910000  1.0
  C  C110  1  0.24033000  0.56276000  0.71902000  1.0
  C  C111  1  0.52218000  0.93715000  0.78090000  1.0
  C  C112  1  0.86550000  0.17182000  0.09298000  1.0
  C  C113  1  0.13016000  0.32838000  0.40708000  1.0
  C  C114  1  0.13450000  0.82818000  0.90702000  1.0
  C  C115  1  0.86984000  0.67162000  0.59292000  1.0
  C  C116  1  0.73891000  0.23346000  0.32723000  1.0
  C  C117  1  0.29963000  0.26664000  0.17284000  1.0
  C  C118  1  0.26108000  0.76654000  0.67277000  1.0
  C  C119  1  0.70037000  0.73336000  0.82716000  1.0
  C  C120  1  0.80126000  0.27222000  0.25609000  1.0
  C  C121  1  0.32962000  0.22788000  0.24399000  1.0
  C  C122  1  0.19875000  0.72778000  0.74391000  1.0
  C  C123  1  0.67038000  0.77212000  0.75601000  1.0
  C  C124  1  0.69839000  0.39698000  0.35170000  1.0
  C  C125  1  0.44694000  0.10312000  0.14839000  1.0
  C  C126  1  0.30161000  0.60302000  0.64830000  1.0
  C  C127  1  0.55305000  0.89688000  0.85161000  1.0
  C  C128  1  0.68613000  0.29571000  0.37443000  1.0
  C  C129  1  0.35617000  0.20440000  0.12564000  1.0
  C  C130  1  0.31387000  0.70429000  0.62557000  1.0
  C  C131  1  0.64382000  0.79560000  0.87436000  1.0
  O  O132  1  0.14451000  0.89983000  0.27445000  1.0
  O  O133  1  0.31869000  0.60018000  0.22543000  1.0
  O  O134  1  0.85549000  0.10017000  0.72555000  1.0
  O  O135  1  0.68131000  0.39982000  0.77457000  1.0
  O  O136  1  0.19299000  0.88077000  0.16345000  1.0
  O  O137  1  0.23737000  0.61938000  0.33642000  1.0
  O  O138  1  0.80701000  0.11923000  0.83655000  1.0
  O  O139  1  0.76263000  0.38062000  0.66358000  1.0
  O  O140  1  0.89708000  0.15093000  0.97611000  1.0
  O  O141  1  0.02436000  0.34914000  0.52401000  1.0
  O  O142  1  0.10292000  0.84907000  0.02389000  1.0
  O  O143  1  0.97564000  0.65086000  0.47599000  1.0
  O  O144  1  0.68073000  0.28304000  0.00299000  1.0
  O  O145  1  0.96700000  0.21707000  0.49710000  1.0
  O  O146  1  0.31927000  0.71696000  0.99701000  1.0
  O  O147  1  0.03301000  0.78293000  0.50290000  1.0
  O  O148  1  0.74923000  0.59689000  0.30267000  1.0
  O  O149  1  0.64856000  0.90321000  0.19732000  1.0
  O  O150  1  0.25077000  0.40311000  0.69733000  1.0
  O  O151  1  0.35143000  0.09679000  0.80268000  1.0
  O  O152  1  0.81025000  0.58404000  0.19008000  1.0
  O  O153  1  0.58431000  0.91604000  0.30993000  1.0
  O  O154  1  0.18975000  0.41596000  0.80992000  1.0
  O  O155  1  0.41569000  0.08396000  0.69008000  1.0
  O  O156  1  0.25075000  0.90866000  0.40123000  1.0
  O  O157  1  0.56074000  0.59140000  0.09881000  1.0
  O  O158  1  0.74925000  0.09135000  0.59877000  1.0
  O  O159  1  0.43926000  0.40860000  0.90119000  1.0
  O  O160  1  0.88751000  0.75134000  0.32804000  1.0
  O  O161  1  0.96688000  0.74871000  0.17186000  1.0
  O  O162  1  0.11249000  0.24865000  0.67196000  1.0
  O  O163  1  0.03312000  0.25129000  0.82814000  1.0
  O  O164  1  0.46660000  0.74265000  0.34205000  1.0
  O  O165  1  0.55111000  0.75738000  0.15801000  1.0
  O  O166  1  0.53340000  0.25736000  0.65795000  1.0
  O  O167  1  0.44888000  0.24262000  0.84199000  1.0
  O  O168  1  0.34985000  0.61142000  0.46982000  1.0
  O  O169  1  0.43119000  0.88856000  0.03018000  1.0
  O  O170  1  0.65015000  0.38859000  0.53018000  1.0
  O  O171  1  0.56881000  0.11144000  0.96982000  1.0
  O  O172  1  0.85956000  0.92717000  0.38191000  1.0
  O  O173  1  0.16859000  0.57280000  0.11807000  1.0
  O  O174  1  0.14044000  0.07283000  0.61808000  1.0
  O  O175  1  0.83141000  0.42720000  0.88193000  1.0
