# generated using pymatgen
data_CuH2CN5
_symmetry_space_group_name_H-M   'P 1'
_cell_length_a   11.38443379
_cell_length_b   11.38440000
_cell_length_c   18.31540000
_cell_angle_alpha   90.00010000
_cell_angle_beta   90.00010002
_cell_angle_gamma   119.99370552
_symmetry_Int_Tables_number   1
_chemical_formula_structural   CuH2CN5
_chemical_formula_sum   'Cu18 H36 C18 N90'
_cell_volume   2055.87243858
_cell_formula_units_Z   18
loop_
 _symmetry_equiv_pos_site_id
 _symmetry_equiv_pos_as_xyz
  1  'x, y, z'
loop_
 _atom_site_type_symbol
 _atom_site_label
 _atom_site_symmetry_multiplicity
 _atom_site_fract_x
 _atom_site_fract_y
 _atom_site_fract_z
 _atom_site_occupancy
  Cu  Cu0  1  0.30601000  0.89576000  0.94321000  1.0
  Cu  Cu1  1  0.58970000  0.69400000  0.61007000  1.0
  Cu  Cu2  1  0.10433000  0.41021000  0.27661000  1.0
  Cu  Cu3  1  0.69400000  0.10425000  0.44321000  1.0
  Cu  Cu4  1  0.41030000  0.30600000  0.11007000  1.0
  Cu  Cu5  1  0.89567000  0.58979000  0.77661000  1.0
  Cu  Cu6  1  0.41021000  0.10433000  0.72340000  1.0
  Cu  Cu7  1  0.89575000  0.30600000  0.05680000  1.0
  Cu  Cu8  1  0.69400000  0.58969000  0.38994000  1.0
  Cu  Cu9  1  0.58979000  0.89567000  0.22340000  1.0
  Cu  Cu10  1  0.10425000  0.69400000  0.55680000  1.0
  Cu  Cu11  1  0.30600000  0.41031000  0.88994000  1.0
  Cu  Cu12  1  0.81950000  0.40977000  0.91682000  1.0
  Cu  Cu13  1  0.59023000  0.18050000  0.58320000  1.0
  Cu  Cu14  1  0.59032000  0.40968000  0.25001000  1.0
  Cu  Cu15  1  0.18050000  0.59023000  0.41682000  1.0
  Cu  Cu16  1  0.40977000  0.81950000  0.08320000  1.0
  Cu  Cu17  1  0.40968000  0.59032000  0.75001000  1.0
  H  H18  1  0.15553000  0.99975000  0.92099000  1.0
  H  H19  1  0.84418000  0.84448000  0.58773000  1.0
  H  H20  1  0.00038000  0.15569000  0.25436000  1.0
  H  H21  1  0.84448000  0.00026000  0.42099000  1.0
  H  H22  1  0.15582000  0.15552000  0.08773000  1.0
  H  H23  1  0.99963000  0.84432000  0.75436000  1.0
  H  H24  1  0.15568000  0.00037000  0.74566000  1.0
  H  H25  1  0.99974000  0.15553000  0.07904000  1.0
  H  H26  1  0.84448000  0.84417000  0.41230000  1.0
  H  H27  1  0.84432000  0.99963000  0.24566000  1.0
  H  H28  1  0.00026000  0.84447000  0.57904000  1.0
  H  H29  1  0.15552000  0.15583000  0.91230000  1.0
  H  H30  1  0.55913000  0.99985000  0.92672000  1.0
  H  H31  1  0.44078000  0.44092000  0.59353000  1.0
  H  H32  1  0.00022000  0.55916000  0.26006000  1.0
  H  H33  1  0.44087000  0.00015000  0.42672000  1.0
  H  H34  1  0.55923000  0.55909000  0.09353000  1.0
  H  H35  1  0.99978000  0.44084000  0.76006000  1.0
  H  H36  1  0.55916000  0.00022000  0.73994000  1.0
  H  H37  1  0.99984000  0.55912000  0.07329000  1.0
  H  H38  1  0.44091000  0.44077000  0.40648000  1.0
  H  H39  1  0.44084000  0.99978000  0.23994000  1.0
  H  H40  1  0.00016000  0.44088000  0.57329000  1.0
  H  H41  1  0.55909000  0.55923000  0.90648000  1.0
  H  H42  1  0.71526000  0.15632000  0.92653000  1.0
  H  H43  1  0.44112000  0.28479000  0.59336000  1.0
  H  H44  1  0.84372000  0.55881000  0.25990000  1.0
  H  H45  1  0.28475000  0.84369000  0.42653000  1.0
  H  H46  1  0.55889000  0.71522000  0.09335000  1.0
  H  H47  1  0.15627000  0.44118000  0.75990000  1.0
  H  H48  1  0.55881000  0.84373000  0.74011000  1.0
  H  H49  1  0.15631000  0.71525000  0.07347000  1.0
  H  H50  1  0.28479000  0.44112000  0.40665000  1.0
  H  H51  1  0.44119000  0.15627000  0.24011000  1.0
  H  H52  1  0.84369000  0.28475000  0.57347000  1.0
  H  H53  1  0.71521000  0.55889000  0.90665000  1.0
  C  C54  1  0.34163000  0.17082000  0.91660000  1.0
  C  C55  1  0.82918000  0.65837000  0.58343000  1.0
  C  C56  1  0.82930000  0.17070000  0.25001000  1.0
  C  C57  1  0.65837000  0.82917000  0.41661000  1.0
  C  C58  1  0.17082000  0.34164000  0.08343000  1.0
  C  C59  1  0.17069000  0.82929000  0.75001000  1.0
  C  C60  1  0.54417000  0.17087000  0.92059000  1.0
  C  C61  1  0.62675000  0.45586000  0.58747000  1.0
  C  C62  1  0.82919000  0.37318000  0.25401000  1.0
  C  C63  1  0.45583000  0.82913000  0.42060000  1.0
  C  C64  1  0.37325000  0.54414000  0.08747000  1.0
  C  C65  1  0.17082000  0.62682000  0.75400000  1.0
  C  C66  1  0.37317000  0.82917000  0.74600000  1.0
  C  C67  1  0.17085000  0.54416000  0.07943000  1.0
  C  C68  1  0.45586000  0.62675000  0.41256000  1.0
  C  C69  1  0.62682000  0.17081000  0.24600000  1.0
  C  C70  1  0.82915000  0.45584000  0.57943000  1.0
  C  C71  1  0.54414000  0.37326000  0.91255000  1.0
  N  N72  1  0.40660000  0.09837000  0.92217000  1.0
  N  N73  1  0.69181000  0.59342000  0.58903000  1.0
  N  N74  1  0.90170000  0.30811000  0.25559000  1.0
  N  N75  1  0.59340000  0.90163000  0.42217000  1.0
  N  N76  1  0.30819000  0.40658000  0.08903000  1.0
  N  N77  1  0.09829000  0.69187000  0.75559000  1.0
  N  N78  1  0.30811000  0.90170000  0.74442000  1.0
  N  N79  1  0.09837000  0.40661000  0.07784000  1.0
  N  N80  1  0.59341000  0.69180000  0.41097000  1.0
  N  N81  1  0.69189000  0.09830000  0.24441000  1.0
  N  N82  1  0.90163000  0.59339000  0.57784000  1.0
  N  N83  1  0.40659000  0.30820000  0.91098000  1.0
  N  N84  1  0.61694000  0.30847000  0.91659000  1.0
  N  N85  1  0.69154000  0.38306000  0.58342000  1.0
  N  N86  1  0.69162000  0.30840000  0.25000000  1.0
  N  N87  1  0.38306000  0.69153000  0.41659000  1.0
  N  N88  1  0.30846000  0.61694000  0.08342000  1.0
  N  N89  1  0.30838000  0.69161000  0.75001000  1.0
  N  N90  1  0.40643000  0.70322000  0.91670000  1.0
  N  N91  1  0.29679000  0.59357000  0.58331000  1.0
  N  N92  1  0.29686000  0.70315000  0.25000000  1.0
  N  N93  1  0.59357000  0.29678000  0.41670000  1.0
  N  N94  1  0.70321000  0.40643000  0.08330000  1.0
  N  N95  1  0.70314000  0.29685000  0.75001000  1.0
  N  N96  1  0.41064000  0.80592000  0.93314000  1.0
  N  N97  1  0.39530000  0.58940000  0.59971000  1.0
  N  N98  1  0.19410000  0.60458000  0.26623000  1.0
  N  N99  1  0.58936000  0.19408000  0.43314000  1.0
  N  N100  1  0.60470000  0.41060000  0.09971000  1.0
  N  N101  1  0.80590000  0.39542000  0.76623000  1.0
  N  N102  1  0.60457000  0.19409000  0.73378000  1.0
  N  N103  1  0.80591000  0.41064000  0.06687000  1.0
  N  N104  1  0.58941000  0.39531000  0.40030000  1.0
  N  N105  1  0.39543000  0.80591000  0.23378000  1.0
  N  N106  1  0.19408000  0.58935000  0.56687000  1.0
  N  N107  1  0.41059000  0.60470000  0.90030000  1.0
  N  N108  1  0.20628000  0.10316000  0.91664000  1.0
  N  N109  1  0.89685000  0.79372000  0.58339000  1.0
  N  N110  1  0.89698000  0.10303000  0.25000000  1.0
  N  N111  1  0.79372000  0.89684000  0.41663000  1.0
  N  N112  1  0.10315000  0.20628000  0.08339000  1.0
  N  N113  1  0.10302000  0.89697000  0.75000000  1.0
  N  N114  1  0.01600000  0.70458000  0.92234000  1.0
  N  N115  1  0.68860000  0.98399000  0.58900000  1.0
  N  N116  1  0.29545000  0.31131000  0.25572000  1.0
  N  N117  1  0.98400000  0.29542000  0.42234000  1.0
  N  N118  1  0.31140000  0.01602000  0.08900000  1.0
  N  N119  1  0.70455000  0.68869000  0.75572000  1.0
  N  N120  1  0.31131000  0.29545000  0.74430000  1.0
  N  N121  1  0.70458000  0.01600000  0.07767000  1.0
  N  N122  1  0.98398000  0.68859000  0.41101000  1.0
  N  N123  1  0.68869000  0.70455000  0.24430000  1.0
  N  N124  1  0.29543000  0.98401000  0.57767000  1.0
  N  N125  1  0.01601000  0.31140000  0.91101000  1.0
  N  N126  1  0.91922000  0.60351000  0.90162000  1.0
  N  N127  1  0.68430000  0.08075000  0.56825000  1.0
  N  N128  1  0.39653000  0.31563000  0.23498000  1.0
  N  N129  1  0.08078000  0.39649000  0.40162000  1.0
  N  N130  1  0.31570000  0.91925000  0.06825000  1.0
  N  N131  1  0.60347000  0.68437000  0.73498000  1.0
  N  N132  1  0.31563000  0.39653000  0.76504000  1.0
  N  N133  1  0.60351000  0.91921000  0.09839000  1.0
  N  N134  1  0.08075000  0.68430000  0.43176000  1.0
  N  N135  1  0.68437000  0.60347000  0.26504000  1.0
  N  N136  1  0.39649000  0.08079000  0.59839000  1.0
  N  N137  1  0.91924000  0.31569000  0.93176000  1.0
  N  N138  1  0.61196000  0.10337000  0.92342000  1.0
  N  N139  1  0.49148000  0.38809000  0.59029000  1.0
  N  N140  1  0.89667000  0.50844000  0.25681000  1.0
  N  N141  1  0.38804000  0.89663000  0.42342000  1.0
  N  N142  1  0.50852000  0.61192000  0.09029000  1.0
  N  N143  1  0.10333000  0.49156000  0.75682000  1.0
  N  N144  1  0.50844000  0.89667000  0.74319000  1.0
  N  N145  1  0.10336000  0.61195000  0.07659000  1.0
  N  N146  1  0.38808000  0.49147000  0.40972000  1.0
  N  N147  1  0.49156000  0.10333000  0.24319000  1.0
  N  N148  1  0.89664000  0.38805000  0.57659000  1.0
  N  N149  1  0.61192000  0.50853000  0.90972000  1.0
  N  N150  1  0.10991000  0.80968000  0.94009000  1.0
  N  N151  1  0.69978000  0.89008000  0.60678000  1.0
  N  N152  1  0.19036000  0.30013000  0.27349000  1.0
  N  N153  1  0.89009000  0.19032000  0.44009000  1.0
  N  N154  1  0.30022000  0.10992000  0.10678000  1.0
  N  N155  1  0.80964000  0.69987000  0.77349000  1.0
  N  N156  1  0.30013000  0.19035000  0.72653000  1.0
  N  N157  1  0.80967000  0.10991000  0.05992000  1.0
  N  N158  1  0.89008000  0.69978000  0.39323000  1.0
  N  N159  1  0.69986000  0.80963000  0.22653000  1.0
  N  N160  1  0.19033000  0.89009000  0.55992000  1.0
  N  N161  1  0.10992000  0.30023000  0.89323000  1.0
