# generated using pymatgen
data_VH4C8O5
_symmetry_space_group_name_H-M   'P 1'
_cell_length_a   12.15600000
_cell_length_b   12.30170000
_cell_length_c   12.30202317
_cell_angle_alpha   75.87028304
_cell_angle_beta   60.39067094
_cell_angle_gamma   60.39130000
_symmetry_Int_Tables_number   1
_chemical_formula_structural   VH4C8O5
_chemical_formula_sum   'V4 H16 C32 O20'
_cell_volume   1390.55709251
_cell_formula_units_Z   4
loop_
 _symmetry_equiv_pos_site_id
 _symmetry_equiv_pos_as_xyz
  1  'x, y, z'
loop_
 _atom_site_type_symbol
 _atom_site_label
 _atom_site_symmetry_multiplicity
 _atom_site_fract_x
 _atom_site_fract_y
 _atom_site_fract_z
 _atom_site_occupancy
  V  V0  1  0.68922000  0.99999000  0.62156000  1.0
  V  V1  1  0.31078000  0.99998000  0.37844000  1.0
  V  V2  1  0.43924000  0.12152000  0.49999000  1.0
  V  V3  1  0.06075000  0.87847000  0.50002000  1.0
  H  H4  1  0.68849000  0.93653000  0.43651000  1.0
  H  H5  1  0.06155000  0.06349000  0.56346000  1.0
  H  H6  1  0.37500000  0.93649000  0.56350000  1.0
  H  H7  1  0.87500000  0.06344000  0.43656000  1.0
  H  H8  1  0.36705000  0.50001000  0.50000000  1.0
  H  H9  1  0.61709000  0.99999000  0.00001000  1.0
  H  H10  1  0.38296000  0.00000000  0.99995000  1.0
  H  H11  1  0.13292000  0.50000000  0.50002000  1.0
  H  H12  1  0.73953000  0.30694000  0.55943000  1.0
  H  H13  1  0.60586000  0.69310000  0.44058000  1.0
  H  H14  1  0.79646000  0.05945000  0.19309000  1.0
  H  H15  1  0.04898000  0.94059000  0.80691000  1.0
  H  H16  1  0.01048000  0.94058000  0.19305000  1.0
  H  H17  1  0.14415000  0.05942000  0.80687000  1.0
  H  H18  1  0.95355000  0.30692000  0.44057000  1.0
  H  H19  1  0.70103000  0.69308000  0.55943000  1.0
  C  C20  1  0.45664000  0.50002000  0.50002000  1.0
  C  C21  1  0.70667000  0.99999000  0.00001000  1.0
  C  C22  1  0.29338000  0.99998000  0.99996000  1.0
  C  C23  1  0.04331000  0.49999000  0.50004000  1.0
  C  C24  1  0.68916000  0.50001000  0.50002000  1.0
  C  C25  1  0.93920000  0.00002000  0.99999000  1.0
  C  C26  1  0.06084000  0.99999000  0.99997000  1.0
  C  C27  1  0.81081000  0.50000000  0.50001000  1.0
  C  C28  1  0.55545000  0.39074000  0.52809000  1.0
  C  C29  1  0.47423000  0.60929000  0.47196000  1.0
  C  C30  1  0.69619000  0.02810000  0.10928000  1.0
  C  C31  1  0.83355000  0.97191000  0.89074000  1.0
  C  C32  1  0.19458000  0.97188000  0.10923000  1.0
  C  C33  1  0.27576000  0.02806000  0.89070000  1.0
  C  C34  1  0.05379000  0.39071000  0.47196000  1.0
  C  C35  1  0.91644000  0.60926000  0.52811000  1.0
  C  C36  1  0.54505000  0.27097000  0.55042000  1.0
  C  C37  1  0.36644000  0.72903000  0.44959000  1.0
  C  C38  1  0.56601000  0.05043000  0.22902000  1.0
  C  C39  1  0.84547000  0.94958000  0.77100000  1.0
  C  C40  1  0.20496000  0.94956000  0.22901000  1.0
  C  C41  1  0.38357000  0.05043000  0.77095000  1.0
  C  C42  1  0.18397000  0.27095000  0.44958000  1.0
  C  C43  1  0.90450000  0.72903000  0.55044000  1.0
  C  C44  1  0.66832000  0.39200000  0.53137000  1.0
  C  C45  1  0.59166000  0.60805000  0.46866000  1.0
  C  C46  1  0.81033000  0.03139000  0.10802000  1.0
  C  C47  1  0.94971000  0.96865000  0.89199000  1.0
  C  C48  1  0.08169000  0.96862000  0.10797000  1.0
  C  C49  1  0.15834000  0.03134000  0.89194000  1.0
  C  C50  1  0.93966000  0.39197000  0.46866000  1.0
  C  C51  1  0.80028000  0.60801000  0.53137000  1.0
  O  O52  1  0.62425000  0.00084000  0.50075000  1.0
  O  O53  1  0.12577000  0.99925000  0.49916000  1.0
  O  O54  1  0.37502000  0.00075000  0.49921000  1.0
  O  O55  1  0.87500000  0.99918000  0.50084000  1.0
  O  O56  1  0.61190000  0.18464000  0.60817000  1.0
  O  O57  1  0.40472000  0.81533000  0.39178000  1.0
  O  O58  1  0.54649000  0.10821000  0.31535000  1.0
  O  O59  1  0.97005000  0.89183000  0.68467000  1.0
  O  O60  1  0.13813000  0.89178000  0.31534000  1.0
  O  O61  1  0.34530000  0.10825000  0.68464000  1.0
  O  O62  1  0.20350000  0.18465000  0.39177000  1.0
  O  O63  1  0.77989000  0.81534000  0.60823000  1.0
  O  O64  1  0.47409000  0.26189000  0.50689000  1.0
  O  O65  1  0.24283000  0.73813000  0.49316000  1.0
  O  O66  1  0.48600000  0.00687000  0.23808000  1.0
  O  O67  1  0.73095000  0.99312000  0.76194000  1.0
  O  O68  1  0.27589000  0.99314000  0.23810000  1.0
  O  O69  1  0.50716000  0.00685000  0.76187000  1.0
  O  O70  1  0.26403000  0.26186000  0.49312000  1.0
  O  O71  1  0.01899000  0.73813000  0.50689000  1.0
