# generated using pymatgen
data_AlC24(Br2O)6
_symmetry_space_group_name_H-M   'P 1'
_cell_length_a   4.10314000
_cell_length_b   29.16787255
_cell_length_c   29.16650000
_cell_angle_alpha   59.99867011
_cell_angle_beta   89.99870000
_cell_angle_gamma   89.99920004
_symmetry_Int_Tables_number   1
_chemical_formula_structural   AlC24(Br2O)6
_chemical_formula_sum   'Al2 C48 Br24 O12'
_cell_volume   3022.94480209
_cell_formula_units_Z   2
loop_
 _symmetry_equiv_pos_site_id
 _symmetry_equiv_pos_as_xyz
  1  'x, y, z'
loop_
 _atom_site_type_symbol
 _atom_site_label
 _atom_site_symmetry_multiplicity
 _atom_site_fract_x
 _atom_site_fract_y
 _atom_site_fract_z
 _atom_site_occupancy
  Al  Al0  1  0.99980000  0.50001000  0.99999000  1.0
  Al  Al1  1  0.00091000  0.16666000  0.66668000  1.0
  C  C2  1  0.49979000  0.58117000  0.95940000  1.0
  C  C3  1  0.49978000  0.45944000  0.08115000  1.0
  C  C4  1  0.49983000  0.45942000  0.95942000  1.0
  C  C5  1  0.50090000  0.20721000  0.58551000  1.0
  C  C6  1  0.50089000  0.20727000  0.70723000  1.0
  C  C7  1  0.50089000  0.08550000  0.70729000  1.0
  C  C8  1  0.50071000  0.23722000  0.52548000  1.0
  C  C9  1  0.39084000  0.28978000  0.49746000  1.0
  C  C10  1  0.38706000  0.31752000  0.44203000  1.0
  C  C11  1  0.50020000  0.29330000  0.41329000  1.0
  C  C12  1  0.61355000  0.24035000  0.44202000  1.0
  C  C13  1  0.61030000  0.21268000  0.49745000  1.0
  C  C14  1  0.50002000  0.32122000  0.35745000  1.0
  C  C15  1  0.49993000  0.34536000  0.30918000  1.0
  C  C16  1  0.49986000  0.37331000  0.25332000  1.0
  C  C17  1  0.61323000  0.42625000  0.22463000  1.0
  C  C18  1  0.60972000  0.45395000  0.16920000  1.0
  C  C19  1  0.49978000  0.42942000  0.14116000  1.0
  C  C20  1  0.38986000  0.37685000  0.16918000  1.0
  C  C21  1  0.38643000  0.34909000  0.22460000  1.0
  C  C22  1  0.50073000  0.23728000  0.73724000  1.0
  C  C23  1  0.39079000  0.21274000  0.78980000  1.0
  C  C24  1  0.38702000  0.24042000  0.81755000  1.0
  C  C25  1  0.50026000  0.29338000  0.79333000  1.0
  C  C26  1  0.61375000  0.31760000  0.74038000  1.0
  C  C27  1  0.61044000  0.28985000  0.71271000  1.0
  C  C28  1  0.50001000  0.32130000  0.82125000  1.0
  C  C29  1  0.49981000  0.34544000  0.84538000  1.0
  C  C30  1  0.49973000  0.37335000  0.87332000  1.0
  C  C31  1  0.61315000  0.34911000  0.92627000  1.0
  C  C32  1  0.60972000  0.37685000  0.95395000  1.0
  C  C33  1  0.49980000  0.42942000  0.92941000  1.0
  C  C34  1  0.38983000  0.45396000  0.87685000  1.0
  C  C35  1  0.38631000  0.42629000  0.84910000  1.0
  C  C36  1  0.50068000  0.02548000  0.73731000  1.0
  C  C37  1  0.39073000  0.99746000  0.71277000  1.0
  C  C38  1  0.38689000  0.94204000  0.74045000  1.0
  C  C39  1  0.50008000  0.91330000  0.79341000  1.0
  C  C40  1  0.61351000  0.94202000  0.81763000  1.0
  C  C41  1  0.61030000  0.99744000  0.78988000  1.0
  C  C42  1  0.49992000  0.85745000  0.82133000  1.0
  C  C43  1  0.49974000  0.80919000  0.84545000  1.0
  C  C44  1  0.49968000  0.75333000  0.87336000  1.0
  C  C45  1  0.61311000  0.72464000  0.84911000  1.0
  C  C46  1  0.60965000  0.66922000  0.87683000  1.0
  C  C47  1  0.49974000  0.64117000  0.92941000  1.0
  C  C48  1  0.38979000  0.66918000  0.95396000  1.0
  C  C49  1  0.38627000  0.72461000  0.92629000  1.0
  Br  Br50  1  0.24987000  0.32230000  0.53604000  1.0
  Br  Br51  1  0.75172000  0.14161000  0.53601000  1.0
  Br  Br52  1  0.77159000  0.20839000  0.40403000  1.0
  Br  Br53  1  0.22855000  0.38743000  0.40408000  1.0
  Br  Br54  1  0.77230000  0.45813000  0.26263000  1.0
  Br  Br55  1  0.22749000  0.27920000  0.26258000  1.0
  Br  Br56  1  0.24852000  0.34436000  0.13060000  1.0
  Br  Br57  1  0.75098000  0.52503000  0.13065000  1.0
  Br  Br58  1  0.24976000  0.14165000  0.82231000  1.0
  Br  Br59  1  0.75192000  0.32236000  0.64163000  1.0
  Br  Br60  1  0.77191000  0.38754000  0.70842000  1.0
  Br  Br61  1  0.22839000  0.20847000  0.88745000  1.0
  Br  Br62  1  0.77221000  0.27923000  0.95815000  1.0
  Br  Br63  1  0.22727000  0.45819000  0.77921000  1.0
  Br  Br64  1  0.24852000  0.52504000  0.84434000  1.0
  Br  Br65  1  0.75108000  0.34433000  0.02503000  1.0
  Br  Br66  1  0.24973000  0.03605000  0.64167000  1.0
  Br  Br67  1  0.75178000  0.03600000  0.82239000  1.0
  Br  Br68  1  0.77160000  0.90402000  0.88758000  1.0
  Br  Br69  1  0.22829000  0.90409000  0.70849000  1.0
  Br  Br70  1  0.77220000  0.76264000  0.77923000  1.0
  Br  Br71  1  0.22724000  0.76258000  0.95821000  1.0
  Br  Br72  1  0.24847000  0.63060000  0.02504000  1.0
  Br  Br73  1  0.75098000  0.63067000  0.84431000  1.0
  O  O74  1  0.26250000  0.45105000  0.99049000  1.0
  O  O75  1  0.26249000  0.55846000  0.95103000  1.0
  O  O76  1  0.26245000  0.49051000  0.05845000  1.0
  O  O77  1  0.73716000  0.49049000  0.95104000  1.0
  O  O78  1  0.73710000  0.45107000  0.05845000  1.0
  O  O79  1  0.73713000  0.55847000  0.99047000  1.0
  O  O80  1  0.26357000  0.10821000  0.71564000  1.0
  O  O81  1  0.26357000  0.17615000  0.60822000  1.0
  O  O82  1  0.26356000  0.21563000  0.67617000  1.0
  O  O83  1  0.73831000  0.10817000  0.67624000  1.0
  O  O84  1  0.73829000  0.17622000  0.71560000  1.0
  O  O85  1  0.73830000  0.21559000  0.60818000  1.0
