# generated using pymatgen
data_CuH20C17N2O5
_symmetry_space_group_name_H-M   'P 1'
_cell_length_a   6.75322000
_cell_length_b   7.35088000
_cell_length_c   17.54470000
_cell_angle_alpha   90.00130000
_cell_angle_beta   90.00060000
_cell_angle_gamma   93.31150000
_symmetry_Int_Tables_number   1
_chemical_formula_structural   CuH20C17N2O5
_chemical_formula_sum   'Cu2 H40 C34 N4 O10'
_cell_volume   869.50163907
_cell_formula_units_Z   2
loop_
 _symmetry_equiv_pos_site_id
 _symmetry_equiv_pos_as_xyz
  1  'x, y, z'
loop_
 _atom_site_type_symbol
 _atom_site_label
 _atom_site_symmetry_multiplicity
 _atom_site_fract_x
 _atom_site_fract_y
 _atom_site_fract_z
 _atom_site_occupancy
  Cu  Cu0  1  0.06159000  0.14145000  0.35648000  1.0
  Cu  Cu1  1  0.93843000  0.85854000  0.85647000  1.0
  H  H2  1  0.16096000  0.20764000  0.49408000  1.0
  H  H3  1  0.83904000  0.79237000  0.99408000  1.0
  H  H4  1  0.38221000  0.37798000  0.36424000  1.0
  H  H5  1  0.61780000  0.62201000  0.86424000  1.0
  H  H6  1  0.22894000  0.52454000  0.34044000  1.0
  H  H7  1  0.77106000  0.47545000  0.84044000  1.0
  H  H8  1  0.64664000  0.90391000  0.37009000  1.0
  H  H9  1  0.35336000  0.09610000  0.87008000  1.0
  H  H10  1  0.56577000  0.74030000  0.30015000  1.0
  H  H11  1  0.43427000  0.25969000  0.80015000  1.0
  H  H12  1  0.55636000  0.67665000  0.39669000  1.0
  H  H13  1  0.44366000  0.32334000  0.89669000  1.0
  H  H14  1  0.78515000  0.24563000  0.53846000  1.0
  H  H15  1  0.21484000  0.75436000  0.03846000  1.0
  H  H16  1  0.08423000  0.88369000  0.47911000  1.0
  H  H17  1  0.91579000  0.11632000  0.97911000  1.0
  H  H18  1  0.83080000  0.92910000  0.47664000  1.0
  H  H19  1  0.16922000  0.07088000  0.97664000  1.0
  H  H20  1  0.04518000  0.53367000  0.45264000  1.0
  H  H21  1  0.95479000  0.46633000  0.95263000  1.0
  H  H22  1  0.83752000  0.57045000  0.51093000  1.0
  H  H23  1  0.16245000  0.42953000  0.01092000  1.0
  H  H24  1  0.25098000  0.98616000  0.74717000  1.0
  H  H25  1  0.74903000  0.01383000  0.24716000  1.0
  H  H26  1  0.27661000  0.03469000  0.60667000  1.0
  H  H27  1  0.72341000  0.96529000  0.10666000  1.0
  H  H28  1  0.65011000  0.88220000  0.59218000  1.0
  H  H29  1  0.34989000  0.11782000  0.09219000  1.0
  H  H30  1  0.36694000  0.52842000  0.50572000  1.0
  H  H31  1  0.63303000  0.47163000  0.00572000  1.0
  H  H32  1  0.65045000  0.84499000  0.73421000  1.0
  H  H33  1  0.34956000  0.15501000  0.23421000  1.0
  H  H34  1  0.58804000  0.55117000  0.61813000  1.0
  H  H35  1  0.41193000  0.44889000  0.11813000  1.0
  H  H36  1  0.44803000  0.53669000  0.74913000  1.0
  H  H37  1  0.55197000  0.46331000  0.24914000  1.0
  H  H38  1  0.86139000  0.45320000  0.65503000  1.0
  H  H39  1  0.13859000  0.54678000  0.15502000  1.0
  H  H40  1  0.08152000  0.47951000  0.76669000  1.0
  H  H41  1  0.91850000  0.52045000  0.26669000  1.0
  C  C42  1  0.32868000  0.85474000  0.36128000  1.0
  C  C43  1  0.67134000  0.14526000  0.86127000  1.0
  C  C44  1  0.53801000  0.79146000  0.35782000  1.0
  C  C45  1  0.46201000  0.20853000  0.85782000  1.0
  C  C46  1  0.87260000  0.29040000  0.48811000  1.0
  C  C47  1  0.12738000  0.70959000  0.98811000  1.0
  C  C48  1  0.97447000  0.97434000  0.50153000  1.0
  C  C49  1  0.02554000  0.02565000  0.00153000  1.0
  C  C50  1  0.73150000  0.29659000  0.41960000  1.0
  C  C51  1  0.26851000  0.70340000  0.91959000  1.0
  C  C52  1  0.96349000  0.48366000  0.50340000  1.0
  C  C53  1  0.03649000  0.51633000  0.00339000  1.0
  C  C54  1  0.12139000  0.96820000  0.71049000  1.0
  C  C55  1  0.87862000  0.03179000  0.21049000  1.0
  C  C56  1  0.09755000  0.49427000  0.57213000  1.0
  C  C57  1  0.90243000  0.50574000  0.07212000  1.0
  C  C58  1  0.96438000  0.96071000  0.58718000  1.0
  C  C59  1  0.03563000  0.03929000  0.08717000  1.0
  C  C60  1  0.13383000  0.99284000  0.63215000  1.0
  C  C61  1  0.86619000  0.00716000  0.13214000  1.0
  C  C62  1  0.78667000  0.91005000  0.62441000  1.0
  C  C63  1  0.21333000  0.08996000  0.12441000  1.0
  C  C64  1  0.30330000  0.51982000  0.56280000  1.0
  C  C65  1  0.69666000  0.48021000  0.06280000  1.0
  C  C66  1  0.78460000  0.88882000  0.70321000  1.0
  C  C67  1  0.21541000  0.11118000  0.20322000  1.0
  C  C68  1  0.42826000  0.53139000  0.62635000  1.0
  C  C69  1  0.57171000  0.46864000  0.12635000  1.0
  C  C70  1  0.34996000  0.52014000  0.69991000  1.0
  C  C71  1  0.65003000  0.47988000  0.19991000  1.0
  C  C72  1  0.02084000  0.47632000  0.64631000  1.0
  C  C73  1  0.97914000  0.52366000  0.14630000  1.0
  C  C74  1  0.14504000  0.49025000  0.70971000  1.0
  C  C75  1  0.85495000  0.50974000  0.20971000  1.0
  N  N76  1  0.02675000  0.16021000  0.47230000  1.0
  N  N77  1  0.97326000  0.83979000  0.97230000  1.0
  N  N78  1  0.94984000  0.91620000  0.74536000  1.0
  N  N79  1  0.05016000  0.08379000  0.24537000  1.0
  O  O80  1  0.78950000  0.22867000  0.35629000  1.0
  O  O81  1  0.21050000  0.77134000  0.85628000  1.0
  O  O82  1  0.31707000  0.02814000  0.37014000  1.0
  O  O83  1  0.68292000  0.97186000  0.87012000  1.0
  O  O84  1  0.26102000  0.39434000  0.33319000  1.0
  O  O85  1  0.73898000  0.60564000  0.83318000  1.0
  O  O86  1  0.18047000  0.74329000  0.35502000  1.0
  O  O87  1  0.81955000  0.25669000  0.85501000  1.0
  O  O88  1  0.57223000  0.37222000  0.42895000  1.0
  O  O89  1  0.42776000  0.62779000  0.92895000  1.0
