# generated using pymatgen
data_CuH16C10Br2(N8O3)2
_symmetry_space_group_name_H-M   'P 1'
_cell_length_a   6.56831000
_cell_length_b   9.96053000
_cell_length_c   16.53020000
_cell_angle_alpha   95.00960000
_cell_angle_beta   90.00000000
_cell_angle_gamma   90.00000000
_symmetry_Int_Tables_number   1
_chemical_formula_structural   CuH16C10Br2(N8O3)2
_chemical_formula_sum   'Cu2 H32 C20 Br4 N32 O12'
_cell_volume   1077.33818038
_cell_formula_units_Z   2
loop_
 _symmetry_equiv_pos_site_id
 _symmetry_equiv_pos_as_xyz
  1  'x, y, z'
loop_
 _atom_site_type_symbol
 _atom_site_label
 _atom_site_symmetry_multiplicity
 _atom_site_fract_x
 _atom_site_fract_y
 _atom_site_fract_z
 _atom_site_occupancy
  Cu  Cu0  1  0.00000000  0.00000000  0.00000000  1.0
  Cu  Cu1  1  0.50000000  0.50000000  0.00000000  1.0
  H  H2  1  0.72679000  0.04847000  0.23882000  1.0
  H  H3  1  0.22678000  0.45153000  0.76118000  1.0
  H  H4  1  0.27321000  0.95153000  0.76118000  1.0
  H  H5  1  0.77321000  0.54847000  0.23882000  1.0
  H  H6  1  0.57032000  0.12019000  0.31856000  1.0
  H  H7  1  0.07032000  0.37981000  0.68144000  1.0
  H  H8  1  0.42968000  0.87981000  0.68144000  1.0
  H  H9  1  0.92967000  0.62019000  0.31856000  1.0
  H  H10  1  0.36041000  0.85613000  0.09485000  1.0
  H  H11  1  0.86041000  0.64386000  0.90515000  1.0
  H  H12  1  0.63959000  0.14386000  0.90515000  1.0
  H  H13  1  0.13959000  0.35614000  0.09485000  1.0
  H  H14  1  0.52346000  0.83283000  0.23529000  1.0
  H  H15  1  0.02346000  0.66717000  0.76471000  1.0
  H  H16  1  0.47654000  0.16717000  0.76471000  1.0
  H  H17  1  0.97654000  0.33283000  0.23529000  1.0
  H  H18  1  0.37223000  0.90300000  0.31731000  1.0
  H  H19  1  0.87222000  0.59700000  0.68269000  1.0
  H  H20  1  0.62778000  0.09699000  0.68269000  1.0
  H  H21  1  0.12777000  0.40300000  0.31731000  1.0
  H  H22  1  0.34711000  0.13811000  0.46348000  1.0
  H  H23  1  0.84711000  0.36188000  0.53652000  1.0
  H  H24  1  0.65289000  0.86189000  0.53652000  1.0
  H  H25  1  0.15290000  0.63812000  0.46348000  1.0
  H  H26  1  0.67739000  0.93212000  0.40424000  1.0
  H  H27  1  0.17739000  0.56788000  0.59576000  1.0
  H  H28  1  0.32261000  0.06788000  0.59575000  1.0
  H  H29  1  0.82261000  0.43212000  0.40425000  1.0
  H  H30  1  0.84755000  0.87155000  0.32628000  1.0
  H  H31  1  0.34755000  0.62845000  0.67373000  1.0
  H  H32  1  0.15245000  0.12845000  0.67372000  1.0
  H  H33  1  0.65245000  0.37155000  0.32628000  1.0
  C  C34  1  0.63606000  0.02534000  0.29159000  1.0
  C  C35  1  0.13606000  0.47466000  0.70841000  1.0
  C  C36  1  0.36394000  0.97466000  0.70841000  1.0
  C  C37  1  0.86394000  0.52534000  0.29159000  1.0
  C  C38  1  0.29136000  0.94173000  0.12956000  1.0
  C  C39  1  0.79135000  0.55826000  0.87043000  1.0
  C  C40  1  0.70864000  0.05826000  0.87044000  1.0
  C  C41  1  0.20866000  0.44175000  0.12957000  1.0
  C  C42  1  0.46493000  0.92751000  0.26527000  1.0
  C  C43  1  0.96492000  0.57249000  0.73473000  1.0
  C  C44  1  0.53508000  0.07249000  0.73473000  1.0
  C  C45  1  0.03508000  0.42751000  0.26527000  1.0
  C  C46  1  0.19392000  0.12945000  0.43888000  1.0
  C  C47  1  0.69392000  0.37054000  0.56112000  1.0
  C  C48  1  0.80608000  0.87055000  0.56112000  1.0
  C  C49  1  0.30608000  0.62946000  0.43888000  1.0
  C  C50  1  0.76929000  0.96166000  0.35324000  1.0
  C  C51  1  0.26929000  0.53835000  0.64676000  1.0
  C  C52  1  0.23071000  0.03835000  0.64676000  1.0
  C  C53  1  0.73071000  0.46165000  0.35324000  1.0
  Br  Br54  1  0.69212000  0.24663000  0.09128000  1.0
  Br  Br55  1  0.19212000  0.25336000  0.90872000  1.0
  Br  Br56  1  0.30788000  0.75337000  0.90872000  1.0
  Br  Br57  1  0.80788000  0.74663000  0.09127000  1.0
  N  N58  1  0.15023000  0.02260000  0.10306000  1.0
  N  N59  1  0.65023000  0.47739000  0.89694000  1.0
  N  N60  1  0.84977000  0.97739000  0.89694000  1.0
  N  N61  1  0.34977000  0.52261000  0.10307000  1.0
  N  N62  1  0.20757000  0.09151000  0.22901000  1.0
  N  N63  1  0.70757000  0.40849000  0.77099000  1.0
  N  N64  1  0.79243000  0.90849000  0.77099000  1.0
  N  N65  1  0.29244000  0.59151000  0.22902000  1.0
  N  N66  1  0.92728000  0.05379000  0.38608000  1.0
  N  N67  1  0.42729000  0.44621000  0.61392000  1.0
  N  N68  1  0.07271000  0.94621000  0.61392000  1.0
  N  N69  1  0.57272000  0.55379000  0.38608000  1.0
  N  N70  1  0.32732000  0.98345000  0.20737000  1.0
  N  N71  1  0.82732000  0.51655000  0.79263000  1.0
  N  N72  1  0.67267000  0.01655000  0.79263000  1.0
  N  N73  1  0.17268000  0.48345000  0.20737000  1.0
  N  N74  1  0.11023000  0.01320000  0.40880000  1.0
  N  N75  1  0.61023000  0.48679000  0.59120000  1.0
  N  N76  1  0.88977000  0.98679000  0.59120000  1.0
  N  N77  1  0.38978000  0.51321000  0.40880000  1.0
  N  N78  1  0.10139000  0.11430000  0.16555000  1.0
  N  N79  1  0.60139000  0.38570000  0.83444000  1.0
  N  N80  1  0.89861000  0.88570000  0.83445000  1.0
  N  N81  1  0.39861000  0.61431000  0.16556000  1.0
  N  N82  1  0.89642000  0.18519000  0.40111000  1.0
  N  N83  1  0.39641000  0.31482000  0.59889000  1.0
  N  N84  1  0.10358000  0.81482000  0.59889000  1.0
  N  N85  1  0.60359000  0.68518000  0.40111000  1.0
  N  N86  1  0.06589000  0.23536000  0.43488000  1.0
  N  N87  1  0.56589000  0.26464000  0.56512000  1.0
  N  N88  1  0.93410000  0.76465000  0.56512000  1.0
  N  N89  1  0.43411000  0.73536000  0.43488000  1.0
  O  O90  1  0.68322000  0.07901000  0.06927000  1.0
  O  O91  1  0.18322000  0.42098000  0.93073000  1.0
  O  O92  1  0.31677000  0.92099000  0.93073000  1.0
  O  O93  1  0.81677000  0.57901000  0.06927000  1.0
  O  O94  1  0.54086000  0.30114000  0.01302000  1.0
  O  O95  1  0.04086000  0.19885000  0.98698000  1.0
  O  O96  1  0.45915000  0.69886000  0.98698000  1.0
  O  O97  1  0.95914000  0.80114000  0.01302000  1.0
  O  O98  1  0.56334000  0.28194000  0.17681000  1.0
  O  O99  1  0.06334000  0.21806000  0.82318000  1.0
  O  O100  1  0.43666000  0.71806000  0.82319000  1.0
  O  O101  1  0.93666000  0.78194000  0.17681000  1.0
