# generated using pymatgen
data_Zn2H24C25N4(ClO)4
_symmetry_space_group_name_H-M   'P 1'
_cell_length_a   12.14640000
_cell_length_b   12.14640000
_cell_length_c   16.20990000
_cell_angle_alpha   89.99980000
_cell_angle_beta   90.00000000
_cell_angle_gamma   90.00000000
_symmetry_Int_Tables_number   1
_chemical_formula_structural   Zn2H24C25N4(ClO)4
_chemical_formula_sum   'Zn4 H48 C50 N8 Cl8 O8'
_cell_volume   2391.52813076
_cell_formula_units_Z   2
loop_
 _symmetry_equiv_pos_site_id
 _symmetry_equiv_pos_as_xyz
  1  'x, y, z'
loop_
 _atom_site_type_symbol
 _atom_site_label
 _atom_site_symmetry_multiplicity
 _atom_site_fract_x
 _atom_site_fract_y
 _atom_site_fract_z
 _atom_site_occupancy
  Zn  Zn0  1  0.50000000  0.00000000  0.86433000  1.0
  Zn  Zn1  1  0.00000000  0.50000000  0.13567000  1.0
  Zn  Zn2  1  0.00000000  0.50000000  0.63567000  1.0
  Zn  Zn3  1  0.50000000  0.00000000  0.36432000  1.0
  H  H4  1  0.66980000  0.82836000  0.82202000  1.0
  H  H5  1  0.33020000  0.17164000  0.82203000  1.0
  H  H6  1  0.82836000  0.33020000  0.17798000  1.0
  H  H7  1  0.17164000  0.66980000  0.17798000  1.0
  H  H8  1  0.83020000  0.32837000  0.67798000  1.0
  H  H9  1  0.16980000  0.67164000  0.67798000  1.0
  H  H10  1  0.67164000  0.83020000  0.32202000  1.0
  H  H11  1  0.32836000  0.16980000  0.32202000  1.0
  H  H12  1  0.69325000  0.67536000  0.71718000  1.0
  H  H13  1  0.30676000  0.32464000  0.71718000  1.0
  H  H14  1  0.67536000  0.30675000  0.28282000  1.0
  H  H15  1  0.32464000  0.69325000  0.28282000  1.0
  H  H16  1  0.80675000  0.17536000  0.78282000  1.0
  H  H17  1  0.19325000  0.82464000  0.78282000  1.0
  H  H18  1  0.82464000  0.80675000  0.21718000  1.0
  H  H19  1  0.17536000  0.19324000  0.21718000  1.0
  H  H20  1  0.37344000  0.76537000  0.62010000  1.0
  H  H21  1  0.62655000  0.23463000  0.62010000  1.0
  H  H22  1  0.76537000  0.62656000  0.37990000  1.0
  H  H23  1  0.23463000  0.37344000  0.37990000  1.0
  H  H24  1  0.12656000  0.26536000  0.87990000  1.0
  H  H25  1  0.87344000  0.73463000  0.87990000  1.0
  H  H26  1  0.73464000  0.12656000  0.12011000  1.0
  H  H27  1  0.26536000  0.87345000  0.12010000  1.0
  H  H28  1  0.36480000  0.91114000  0.72773000  1.0
  H  H29  1  0.63520000  0.08886000  0.72773000  1.0
  H  H30  1  0.91114000  0.63520000  0.27227000  1.0
  H  H31  1  0.08886000  0.36480000  0.27227000  1.0
  H  H32  1  0.13520000  0.41114000  0.77227000  1.0
  H  H33  1  0.86480000  0.58886000  0.77227000  1.0
  H  H34  1  0.58886000  0.13520000  0.22773000  1.0
  H  H35  1  0.41114000  0.86480000  0.22772000  1.0
  H  H36  1  0.44059000  0.66758000  0.51455000  1.0
  H  H37  1  0.55941000  0.33243000  0.51455000  1.0
  H  H38  1  0.66757000  0.55941000  0.48545000  1.0
  H  H39  1  0.33243000  0.44059000  0.48545000  1.0
  H  H40  1  0.05941000  0.16757000  0.98545000  1.0
  H  H41  1  0.94059000  0.83242000  0.98545000  1.0
  H  H42  1  0.83242000  0.05941000  0.01455000  1.0
  H  H43  1  0.16757000  0.94059000  0.01455000  1.0
  H  H44  1  0.38745000  0.57126000  0.58915000  1.0
  H  H45  1  0.61255000  0.42874000  0.58915000  1.0
  H  H46  1  0.57126000  0.61255000  0.41084000  1.0
  H  H47  1  0.42874000  0.38745000  0.41085000  1.0
  H  H48  1  0.11255000  0.07126000  0.91085000  1.0
  H  H49  1  0.88745000  0.92874000  0.91084000  1.0
  H  H50  1  0.92874000  0.11255000  0.08915000  1.0
  H  H51  1  0.07126000  0.88745000  0.08915000  1.0
  C  C52  1  0.60657000  0.80923000  0.77634000  1.0
  C  C53  1  0.39343000  0.19077000  0.77634000  1.0
  C  C54  1  0.80923000  0.39343000  0.22366000  1.0
  C  C55  1  0.19077000  0.60657000  0.22366000  1.0
  C  C56  1  0.89342000  0.30923000  0.72366000  1.0
  C  C57  1  0.10658000  0.69077000  0.72366000  1.0
  C  C58  1  0.69077000  0.89342000  0.27634000  1.0
  C  C59  1  0.30923000  0.10658000  0.27634000  1.0
  C  C60  1  0.61912000  0.72573000  0.71925000  1.0
  C  C61  1  0.38088000  0.27427000  0.71925000  1.0
  C  C62  1  0.72573000  0.38088000  0.28075000  1.0
  C  C63  1  0.27427000  0.61912000  0.28075000  1.0
  C  C64  1  0.88088000  0.22573000  0.78075000  1.0
  C  C65  1  0.11912000  0.77427000  0.78075000  1.0
  C  C66  1  0.77427000  0.88088000  0.21925000  1.0
  C  C67  1  0.22573000  0.11912000  0.21925000  1.0
  C  C68  1  0.53402000  0.70647000  0.66218000  1.0
  C  C69  1  0.46598000  0.29353000  0.66218000  1.0
  C  C70  1  0.70647000  0.46598000  0.33781000  1.0
  C  C71  1  0.29353000  0.53402000  0.33782000  1.0
  C  C72  1  0.96598000  0.20647000  0.83781000  1.0
  C  C73  1  0.03402000  0.79353000  0.83781000  1.0
  C  C74  1  0.79354000  0.96598000  0.16219000  1.0
  C  C75  1  0.20647000  0.03402000  0.16218000  1.0
  C  C76  1  0.44013000  0.77408000  0.66437000  1.0
  C  C77  1  0.55987000  0.22592000  0.66438000  1.0
  C  C78  1  0.77408000  0.55987000  0.33563000  1.0
  C  C79  1  0.22592000  0.44013000  0.33563000  1.0
  C  C80  1  0.05987000  0.27408000  0.83562000  1.0
  C  C81  1  0.94013000  0.72592000  0.83562000  1.0
  C  C82  1  0.72592000  0.05987000  0.16438000  1.0
  C  C83  1  0.27408000  0.94013000  0.16437000  1.0
  C  C84  1  0.43553000  0.85594000  0.72387000  1.0
  C  C85  1  0.56447000  0.14406000  0.72387000  1.0
  C  C86  1  0.85594000  0.56447000  0.27614000  1.0
  C  C87  1  0.14406000  0.43553000  0.27614000  1.0
  C  C88  1  0.06447000  0.35594000  0.77613000  1.0
  C  C89  1  0.93553000  0.64406000  0.77613000  1.0
  C  C90  1  0.64406000  0.06447000  0.22387000  1.0
  C  C91  1  0.35594000  0.93553000  0.22386000  1.0
  C  C92  1  0.46033000  0.59603000  0.55337000  1.0
  C  C93  1  0.53967000  0.40397000  0.55337000  1.0
  C  C94  1  0.59603000  0.53967000  0.44663000  1.0
  C  C95  1  0.40397000  0.46033000  0.44663000  1.0
  C  C96  1  0.03967000  0.09603000  0.94663000  1.0
  C  C97  1  0.96033000  0.90397000  0.94663000  1.0
  C  C98  1  0.90397000  0.03967000  0.05337000  1.0
  C  C99  1  0.09603000  0.96033000  0.05337000  1.0
  C  C100  1  0.50000000  0.50000000  0.50000000  1.0
  C  C101  1  0.00000000  0.00000000  0.00000000  1.0
  N  N102  1  0.51589000  0.87349000  0.77944000  1.0
  N  N103  1  0.48411000  0.12651000  0.77944000  1.0
  N  N104  1  0.87349000  0.48411000  0.22056000  1.0
  N  N105  1  0.12651000  0.51589000  0.22056000  1.0
  N  N106  1  0.98411000  0.37349000  0.72056000  1.0
  N  N107  1  0.01589000  0.62651000  0.72056000  1.0
  N  N108  1  0.62651000  0.98411000  0.27944000  1.0
  N  N109  1  0.37349000  0.01589000  0.27944000  1.0
  Cl  Cl110  1  0.33512000  0.98763000  0.92369000  1.0
  Cl  Cl111  1  0.66488000  0.01237000  0.92370000  1.0
  Cl  Cl112  1  0.98763000  0.66488000  0.07630000  1.0
  Cl  Cl113  1  0.01237000  0.33512000  0.07631000  1.0
  Cl  Cl114  1  0.16488000  0.48763000  0.57631000  1.0
  Cl  Cl115  1  0.83512000  0.51238000  0.57630000  1.0
  Cl  Cl116  1  0.51237000  0.16488000  0.42370000  1.0
  Cl  Cl117  1  0.48763000  0.83512000  0.42369000  1.0
  O  O118  1  0.54926000  0.62342000  0.60888000  1.0
  O  O119  1  0.45074000  0.37658000  0.60888000  1.0
  O  O120  1  0.62342000  0.45074000  0.39112000  1.0
  O  O121  1  0.37657000  0.54926000  0.39112000  1.0
  O  O122  1  0.95074000  0.12343000  0.89112000  1.0
  O  O123  1  0.04926000  0.87657000  0.89112000  1.0
  O  O124  1  0.87658000  0.95074000  0.10888000  1.0
  O  O125  1  0.12342000  0.04926000  0.10888000  1.0
