# generated using pymatgen
data_Zn2H24C41O8
_symmetry_space_group_name_H-M   'P 1'
_cell_length_a   16.50150000
_cell_length_b   16.67010000
_cell_length_c   28.83930000
_cell_angle_alpha   90.38560000
_cell_angle_beta   90.63580000
_cell_angle_gamma   90.71470000
_symmetry_Int_Tables_number   1
_chemical_formula_structural   Zn2H24C41O8
_chemical_formula_sum   'Zn4 H48 C82 O16'
_cell_volume   7931.86964885
_cell_formula_units_Z   2
loop_
 _symmetry_equiv_pos_site_id
 _symmetry_equiv_pos_as_xyz
  1  'x, y, z'
loop_
 _atom_site_type_symbol
 _atom_site_label
 _atom_site_symmetry_multiplicity
 _atom_site_fract_x
 _atom_site_fract_y
 _atom_site_fract_z
 _atom_site_occupancy
  Zn  Zn0  1  0.50057000  0.07656000  0.50060000  1.0
  Zn  Zn1  1  0.49943000  0.92344000  0.49940000  1.0
  Zn  Zn2  1  0.07733000  0.50175000  0.00120000  1.0
  Zn  Zn3  1  0.92267000  0.49826000  0.99880000  1.0
  H  H4  1  0.31616000  0.12993000  0.39779000  1.0
  H  H5  1  0.13021000  0.79521000  0.84243000  1.0
  H  H6  1  0.19797000  0.87196000  0.33919000  1.0
  H  H7  1  0.80203000  0.12805000  0.66081000  1.0
  H  H8  1  0.68659000  0.87417000  0.40006000  1.0
  H  H9  1  0.31379000  0.12585000  0.60019000  1.0
  H  H10  1  0.12951000  0.33006000  0.10882000  1.0
  H  H11  1  0.87052000  0.66966000  0.89100000  1.0
  H  H12  1  0.86264000  0.68991000  0.09517000  1.0
  H  H13  1  0.13735000  0.31012000  0.90481000  1.0
  H  H14  1  0.12282000  0.69498000  0.09813000  1.0
  H  H15  1  0.68385000  0.87007000  0.60220000  1.0
  H  H16  1  0.87718000  0.30498000  0.90190000  1.0
  H  H17  1  0.87004000  0.31793000  0.10074000  1.0
  H  H18  1  0.12994000  0.68233000  0.89942000  1.0
  H  H19  1  0.31179000  0.87239000  0.39721000  1.0
  H  H20  1  0.68820000  0.12762000  0.60279000  1.0
  H  H21  1  0.67787000  0.13097000  0.39593000  1.0
  H  H22  1  0.32172000  0.86898000  0.60381000  1.0
  H  H23  1  0.20248000  0.13067000  0.33969000  1.0
  H  H24  1  0.79754000  0.86933000  0.66029000  1.0
  H  H25  1  0.24005000  0.24389000  0.12042000  1.0
  H  H26  1  0.79848000  0.87588000  0.34204000  1.0
  H  H27  1  0.23150000  0.31376000  0.16685000  1.0
  H  H28  1  0.28316000  0.22229000  0.17547000  1.0
  H  H29  1  0.14786000  0.21102000  0.21118000  1.0
  H  H30  1  0.15551000  0.14332000  0.16519000  1.0
  H  H31  1  0.76874000  0.68575000  0.83283000  1.0
  H  H32  1  0.75984000  0.75560000  0.87925000  1.0
  H  H33  1  0.71690000  0.77710000  0.82414000  1.0
  H  H34  1  0.84436000  0.85635000  0.83459000  1.0
  H  H35  1  0.85234000  0.78866000  0.78861000  1.0
  H  H36  1  0.69389000  0.23326000  0.33991000  1.0
  H  H37  1  0.20193000  0.12413000  0.65823000  1.0
  H  H38  1  0.76669000  0.24115000  0.38564000  1.0
  H  H39  1  0.78682000  0.28522000  0.33111000  1.0
  H  H40  1  0.86472000  0.15940000  0.33799000  1.0
  H  H41  1  0.79391000  0.15216000  0.29284000  1.0
  H  H42  1  0.23231000  0.75909000  0.61377000  1.0
  H  H43  1  0.30525000  0.76629000  0.65946000  1.0
  H  H44  1  0.21213000  0.71464000  0.66820000  1.0
  H  H45  1  0.20577000  0.84745000  0.70685000  1.0
  H  H46  1  0.13474000  0.84083000  0.66178000  1.0
  H  H47  1  0.86035000  0.80433000  0.15168000  1.0
  H  H48  1  0.13965000  0.19570000  0.84830000  1.0
  H  H49  1  0.12172000  0.80944000  0.15465000  1.0
  H  H50  1  0.87828000  0.19052000  0.84539000  1.0
  H  H51  1  0.86977000  0.20507000  0.15775000  1.0
  C  C52  1  0.61312000  0.99894000  0.56356000  1.0
  C  C53  1  0.07356000  0.76693000  0.85308000  1.0
  C  C54  1  0.92644000  0.29563000  0.11542000  1.0
  C  C55  1  0.07356000  0.70451000  0.88466000  1.0
  C  C56  1  0.22424000  0.92828000  0.35198000  1.0
  C  C57  1  0.77576000  0.07172000  0.64802000  1.0
  C  C58  1  0.28742000  0.92845000  0.38420000  1.0
  C  C59  1  0.71258000  0.07156000  0.61580000  1.0
  C  C60  1  0.76677000  0.07862000  0.35082000  1.0
  C  C61  1  0.23297000  0.92132000  0.64903000  1.0
  C  C62  1  0.70507000  0.07586000  0.38340000  1.0
  C  C63  1  0.38688000  0.00107000  0.43644000  1.0
  C  C64  1  0.29469000  0.92409000  0.61645000  1.0
  C  C65  1  0.99473000  0.00482000  0.24812000  1.0
  C  C66  1  0.00526000  0.99518000  0.75188000  1.0
  C  C67  1  0.61124000  0.00235000  0.43674000  1.0
  C  C68  1  0.38875000  0.99764000  0.56326000  1.0
  C  C69  1  0.19269000  0.00133000  0.33577000  1.0
  C  C70  1  0.80731000  0.99868000  0.66422000  1.0
  C  C71  1  0.32049000  0.00115000  0.40091000  1.0
  C  C72  1  0.67951000  0.99886000  0.59909000  1.0
  C  C73  1  0.80078000  0.00480000  0.33625000  1.0
  C  C74  1  0.91886000  0.71656000  0.10857000  1.0
  C  C75  1  0.19923000  0.99517000  0.66375000  1.0
  C  C76  1  0.67634000  0.00287000  0.40125000  1.0
  C  C77  1  0.32365000  0.99711000  0.59875000  1.0
  C  C78  1  0.99989000  0.20429000  0.16529000  1.0
  C  C79  1  0.00011000  0.79571000  0.83470000  1.0
  C  C80  1  0.00019000  0.32986000  0.10159000  1.0
  C  C81  1  0.99982000  0.67012000  0.89840000  1.0
  C  C82  1  0.99096000  0.81411000  0.15696000  1.0
  C  C83  1  0.00904000  0.18589000  0.84305000  1.0
  C  C84  1  0.99283000  0.68562000  0.09351000  1.0
  C  C85  1  0.08114000  0.28346000  0.89142000  1.0
  C  C86  1  0.00716000  0.31438000  0.90649000  1.0
  C  C87  1  0.06802000  0.00227000  0.27805000  1.0
  C  C88  1  0.93199000  0.99773000  0.72195000  1.0
  C  C89  1  0.99640000  0.07876000  0.22012000  1.0
  C  C90  1  0.00359000  0.92124000  0.77988000  1.0
  C  C91  1  0.22679000  0.07427000  0.35228000  1.0
  C  C92  1  0.77322000  0.92574000  0.64771000  1.0
  C  C93  1  0.92287000  0.00420000  0.27826000  1.0
  C  C94  1  0.07713000  0.99579000  0.72174000  1.0
  C  C95  1  0.99224000  0.93498000  0.21621000  1.0
  C  C96  1  0.06518000  0.78293000  0.14159000  1.0
  C  C97  1  0.00775000  0.06502000  0.78379000  1.0
  C  C98  1  0.12624000  0.00164000  0.30417000  1.0
  C  C99  1  0.87376000  0.99837000  0.69582000  1.0
  C  C100  1  0.99075000  0.87915000  0.18892000  1.0
  C  C101  1  0.00924000  0.12085000  0.81108000  1.0
  C  C102  1  0.99816000  0.13775000  0.19563000  1.0
  C  C103  1  0.00183000  0.86225000  0.80437000  1.0
  C  C104  1  0.86586000  0.00440000  0.30456000  1.0
  C  C105  1  0.13415000  0.99559000  0.69545000  1.0
  C  C106  1  0.99411000  0.61744000  0.05977000  1.0
  C  C107  1  0.93482000  0.21705000  0.85842000  1.0
  C  C108  1  0.00589000  0.38257000  0.94023000  1.0
  C  C109  1  0.00085000  0.39447000  0.06605000  1.0
  C  C110  1  0.99917000  0.60553000  0.93395000  1.0
  C  C111  1  0.28991000  0.07394000  0.38453000  1.0
  C  C112  1  0.71010000  0.92606000  0.61546000  1.0
  C  C113  1  0.77138000  0.93155000  0.35389000  1.0
  C  C114  1  0.22887000  0.06844000  0.64626000  1.0
  C  C115  1  0.70951000  0.93045000  0.38609000  1.0
  C  C116  1  0.29072000  0.06955000  0.61406000  1.0
  C  C117  1  0.07506000  0.23970000  0.15235000  1.0
  C  C118  1  0.06585000  0.71941000  0.11023000  1.0
  C  C119  1  0.92496000  0.76014000  0.84754000  1.0
  C  C120  1  0.07339000  0.30197000  0.12035000  1.0
  C  C121  1  0.92664000  0.69785000  0.87954000  1.0
  C  C122  1  0.91768000  0.78010000  0.13996000  1.0
  C  C123  1  0.08231000  0.21991000  0.86003000  1.0
  C  C124  1  0.15269000  0.20806000  0.17308000  1.0
  C  C125  1  0.23090000  0.24950000  0.15800000  1.0
  C  C126  1  0.84735000  0.79163000  0.82670000  1.0
  C  C127  1  0.76915000  0.75001000  0.84167000  1.0
  C  C128  1  0.79891000  0.15617000  0.33096000  1.0
  C  C129  1  0.93414000  0.28057000  0.88979000  1.0
  C  C130  1  0.75916000  0.23291000  0.34798000  1.0
  C  C131  1  0.20058000  0.84374000  0.66872000  1.0
  C  C132  1  0.23997000  0.76698000  0.65146000  1.0
  C  C133  1  0.92643000  0.23323000  0.14701000  1.0
  O  O134  1  0.58780000  0.06727000  0.55001000  1.0
  O  O135  1  0.93632000  0.40786000  0.95245000  1.0
  O  O136  1  0.93204000  0.41799000  0.05067000  1.0
  O  O137  1  0.06796000  0.58203000  0.94934000  1.0
  O  O138  1  0.06997000  0.42120000  0.05302000  1.0
  O  O139  1  0.93003000  0.57879000  0.94697000  1.0
  O  O140  1  0.92569000  0.58935000  0.04542000  1.0
  O  O141  1  0.07429000  0.41067000  0.95457000  1.0
  O  O142  1  0.41222000  0.93274000  0.44997000  1.0
  O  O143  1  0.58538000  0.93379000  0.45040000  1.0
  O  O144  1  0.41464000  0.06620000  0.54961000  1.0
  O  O145  1  0.58611000  0.07036000  0.45121000  1.0
  O  O146  1  0.41385000  0.92964000  0.54877000  1.0
  O  O147  1  0.58673000  0.93065000  0.54903000  1.0
  O  O148  1  0.41325000  0.06935000  0.45098000  1.0
  O  O149  1  0.06367000  0.59214000  0.04756000  1.0
