# generated using pymatgen
data_Al4H27C46N3O20
_symmetry_space_group_name_H-M   'P 1'
_cell_length_a   6.64915000
_cell_length_b   16.27910000
_cell_length_c   17.02100000
_cell_angle_alpha   79.14450000
_cell_angle_beta   89.23550000
_cell_angle_gamma   89.91830000
_symmetry_Int_Tables_number   1
_chemical_formula_structural   Al4H27C46N3O20
_chemical_formula_sum   'Al4 H27 C46 N3 O20'
_cell_volume   1809.25887792
_cell_formula_units_Z   1
loop_
 _symmetry_equiv_pos_site_id
 _symmetry_equiv_pos_as_xyz
  1  'x, y, z'
loop_
 _atom_site_type_symbol
 _atom_site_label
 _atom_site_symmetry_multiplicity
 _atom_site_fract_x
 _atom_site_fract_y
 _atom_site_fract_z
 _atom_site_occupancy
  Al  Al0  1  0.10149000  0.49941000  0.50502000  1.0
  Al  Al1  1  0.60053000  0.49696000  0.50154000  1.0
  Al  Al2  1  0.63530000  0.99735000  0.00031000  1.0
  Al  Al3  1  0.13693000  0.00058000  0.00670000  1.0
  H  H4  1  0.57422000  0.72799000  0.34726000  1.0
  H  H5  1  0.16331000  0.77711000  0.16374000  1.0
  H  H6  1  0.16262000  0.65559000  0.27859000  1.0
  H  H7  1  0.10256000  0.70266000  0.62844000  1.0
  H  H8  1  0.53393000  0.59025000  0.70782000  1.0
  H  H9  1  0.63033000  0.80083000  0.86842000  1.0
  H  H10  1  0.63268000  0.30514000  0.35859000  1.0
  H  H11  1  0.03299000  0.39938000  0.31046000  1.0
  H  H12  1  0.76479000  0.19343000  0.29050000  1.0
  H  H13  1  0.99009000  0.30864000  0.20928000  1.0
  H  H14  1  0.71893000  0.10049000  0.19114000  1.0
  H  H15  1  0.12027000  0.19475000  0.14245000  1.0
  H  H16  1  0.04882000  0.27679000  0.67498000  1.0
  H  H17  1  0.07085000  0.15573000  0.79025000  1.0
  H  H18  1  0.67776000  0.22535000  0.83254000  1.0
  H  H19  1  0.65880000  0.34417000  0.71506000  1.0
  H  H20  1  0.28750000  0.00377000  0.26548000  1.0
  H  H21  1  0.31881000  0.99152000  0.37044000  1.0
  H  H22  1  0.19382000  0.91298000  0.32945000  1.0
  H  H23  1  0.54557000  0.86838000  0.36923000  1.0
  H  H24  1  0.64480000  0.95842000  0.30733000  1.0
  H  H25  1  0.52035000  0.91288000  0.18573000  1.0
  H  H26  1  0.38635000  0.83003000  0.24442000  1.0
  H  H27  1  0.35372000  0.60421000  0.46156000  1.0
  H  H28  1  0.85937000  0.39705000  0.48407000  1.0
  H  H29  1  0.37586000  0.90272000  0.97385000  1.0
  H  H30  1  0.88624000  0.10409000  0.96183000  1.0
  C  C31  1  0.35330000  0.40912000  0.40314000  1.0
  C  C32  1  0.34394000  0.38728000  0.61872000  1.0
  C  C33  1  0.83740000  0.58529000  0.60319000  1.0
  C  C34  1  0.86144000  0.61323000  0.38871000  1.0
  C  C35  1  0.70352000  0.73943000  0.30657000  1.0
  C  C36  1  0.70233000  0.80939000  0.24440000  1.0
  C  C37  1  0.87151000  0.82127000  0.19216000  1.0
  C  C38  1  0.03578000  0.76596000  0.20527000  1.0
  C  C39  1  0.03528000  0.69835000  0.26858000  1.0
  C  C40  1  0.86601000  0.68443000  0.31949000  1.0
  C  C41  1  0.82271000  0.64111000  0.66360000  1.0
  C  C42  1  0.90927000  0.86258000  0.83498000  1.0
  C  C43  1  0.09723000  0.81855000  0.72562000  1.0
  C  C44  1  0.07967000  0.87043000  0.78238000  1.0
  C  C45  1  0.76152000  0.80476000  0.82876000  1.0
  C  C46  1  0.77911000  0.74983000  0.77406000  1.0
  C  C47  1  0.95012000  0.75566000  0.72147000  1.0
  C  C48  1  0.97075000  0.69961000  0.66772000  1.0
  C  C49  1  0.65031000  0.63561000  0.71375000  1.0
  C  C50  1  0.63002000  0.68767000  0.76903000  1.0
  C  C51  1  0.33615000  0.35668000  0.34061000  1.0
  C  C52  1  0.41578000  0.14283000  0.16163000  1.0
  C  C53  1  0.62511000  0.19457000  0.25734000  1.0
  C  C54  1  0.60011000  0.14279000  0.20309000  1.0
  C  C55  1  0.26087000  0.19573000  0.17460000  1.0
  C  C56  1  0.28428000  0.25113000  0.22871000  1.0
  C  C57  1  0.46984000  0.25039000  0.27130000  1.0
  C  C58  1  0.49231000  0.30506000  0.32613000  1.0
  C  C59  1  0.15274000  0.35747000  0.29842000  1.0
  C  C60  1  0.12914000  0.30693000  0.24291000  1.0
  C  C61  1  0.18526000  0.26514000  0.71016000  1.0
  C  C62  1  0.19741000  0.19828000  0.77413000  1.0
  C  C63  1  0.37490000  0.18407000  0.81841000  1.0
  C  C64  1  0.54131000  0.23672000  0.79740000  1.0
  C  C65  1  0.53049000  0.30290000  0.73267000  1.0
  C  C66  1  0.35214000  0.31753000  0.68911000  1.0
  C  C67  1  0.38215000  0.11399000  0.88871000  1.0
  C  C68  1  0.39546000  0.08613000  0.10299000  1.0
  C  C69  1  0.88359000  0.88858000  0.11914000  1.0
  C  C70  1  0.89186000  0.91282000  0.90022000  1.0
  C  C71  1  0.52464000  0.86766000  0.24197000  1.0
  C  C72  1  0.51922000  0.91343000  0.31338000  1.0
  C  C73  1  0.31916000  0.95802000  0.32008000  1.0
  C  C74  1  0.26631000  0.82636000  0.67247000  1.0
  C  C75  1  0.45652000  0.68147000  0.81990000  1.0
  C  C76  1  0.23355000  0.93114000  0.78359000  1.0
  N  N77  1  0.40509000  0.82994000  0.62909000  1.0
  N  N78  1  0.31340000  0.67840000  0.86099000  1.0
  N  N79  1  0.36416000  0.97984000  0.77881000  1.0
  O  O80  1  0.51106000  0.40909000  0.58385000  1.0
  O  O81  1  0.18728000  0.42569000  0.43514000  1.0
  O  O82  1  0.03078000  0.58174000  0.41249000  1.0
  O  O83  1  0.17321000  0.41906000  0.59767000  1.0
  O  O84  1  0.00998000  0.57370000  0.57413000  1.0
  O  O85  1  0.52752000  0.43229000  0.42101000  1.0
  O  O86  1  0.35251000  0.55024000  0.49730000  1.0
  O  O87  1  0.67186000  0.55559000  0.58516000  1.0
  O  O88  1  0.69044000  0.58988000  0.42027000  1.0
  O  O89  1  0.85216000  0.44776000  0.50603000  1.0
  O  O90  1  0.22202000  0.07345000  0.07650000  1.0
  O  O91  1  0.55336000  0.09068000  0.91799000  1.0
  O  O92  1  0.71618000  0.93399000  0.91870000  1.0
  O  O93  1  0.55881000  0.05437000  0.08300000  1.0
  O  O94  1  0.72243000  0.90706000  0.08045000  1.0
  O  O95  1  0.21257000  0.08392000  0.91564000  1.0
  O  O96  1  0.38415000  0.94732000  0.00428000  1.0
  O  O97  1  0.05593000  0.92038000  0.09840000  1.0
  O  O98  1  0.05622000  0.92707000  0.93241000  1.0
  O  O99  1  0.88453000  0.04963000  0.99672000  1.0
