# generated using pymatgen
data_AgH6C6SN(ClO2)2
_symmetry_space_group_name_H-M   'P 1'
_cell_length_a   6.91972000
_cell_length_b   7.10820000
_cell_length_c   20.12770000
_cell_angle_alpha   89.99960000
_cell_angle_beta   91.94360000
_cell_angle_gamma   89.99970000
_symmetry_Int_Tables_number   1
_chemical_formula_structural   AgH6C6SN(ClO2)2
_chemical_formula_sum   'Ag4 H24 C24 S4 N4 Cl8 O16'
_cell_volume   989.44666288
_cell_formula_units_Z   4
loop_
 _symmetry_equiv_pos_site_id
 _symmetry_equiv_pos_as_xyz
  1  'x, y, z'
loop_
 _atom_site_type_symbol
 _atom_site_label
 _atom_site_symmetry_multiplicity
 _atom_site_fract_x
 _atom_site_fract_y
 _atom_site_fract_z
 _atom_site_occupancy
  Ag  Ag0  1  0.23861000  0.04227000  0.54851000  1.0
  Ag  Ag1  1  0.76139000  0.54228000  0.95149000  1.0
  Ag  Ag2  1  0.76139000  0.95773000  0.45149000  1.0
  Ag  Ag3  1  0.23862000  0.45773000  0.04851000  1.0
  H  H4  1  0.97407000  0.08023000  0.80377000  1.0
  H  H5  1  0.02592000  0.58024000  0.69623000  1.0
  H  H6  1  0.02593000  0.91976000  0.19623000  1.0
  H  H7  1  0.97407000  0.41976000  0.30377000  1.0
  H  H8  1  0.56336000  0.32161000  0.69998000  1.0
  H  H9  1  0.43663000  0.82161000  0.80001000  1.0
  H  H10  1  0.43664000  0.67839000  0.30002000  1.0
  H  H11  1  0.56336000  0.17840000  0.19999000  1.0
  H  H12  1  0.13572000  0.36132000  0.60020000  1.0
  H  H13  1  0.86427000  0.86132000  0.89980000  1.0
  H  H14  1  0.86428000  0.63868000  0.39980000  1.0
  H  H15  1  0.13573000  0.13868000  0.10020000  1.0
  H  H16  1  0.37946000  0.36556000  0.60145000  1.0
  H  H17  1  0.62054000  0.86556000  0.89855000  1.0
  H  H18  1  0.62054000  0.63445000  0.39855000  1.0
  H  H19  1  0.37946000  0.13444000  0.10145000  1.0
  H  H20  1  0.07853000  0.70177000  0.52654000  1.0
  H  H21  1  0.92147000  0.20178000  0.97346000  1.0
  H  H22  1  0.92147000  0.29823000  0.47346000  1.0
  H  H23  1  0.07853000  0.79823000  0.02654000  1.0
  H  H24  1  0.24378000  0.70893000  0.47262000  1.0
  H  H25  1  0.75622000  0.20894000  0.02738000  1.0
  H  H26  1  0.75622000  0.29107000  0.52738000  1.0
  H  H27  1  0.24378000  0.79107000  0.97262000  1.0
  C  C28  1  0.26386000  0.24686000  0.68324000  1.0
  C  C29  1  0.73614000  0.74685000  0.81676000  1.0
  C  C30  1  0.73614000  0.75314000  0.31676000  1.0
  C  C31  1  0.26386000  0.25314000  0.18324000  1.0
  C  C32  1  0.10005000  0.17301000  0.71369000  1.0
  C  C33  1  0.89994000  0.67301000  0.78631000  1.0
  C  C34  1  0.89994000  0.82699000  0.28631000  1.0
  C  C35  1  0.10006000  0.32699000  0.21369000  1.0
  C  C36  1  0.10346000  0.13345000  0.78127000  1.0
  C  C37  1  0.89654000  0.63345000  0.71873000  1.0
  C  C38  1  0.89654000  0.86655000  0.21873000  1.0
  C  C39  1  0.10346000  0.36654000  0.28127000  1.0
  C  C40  1  0.27019000  0.16290000  0.82079000  1.0
  C  C41  1  0.72981000  0.66290000  0.67921000  1.0
  C  C42  1  0.72981000  0.83710000  0.17921000  1.0
  C  C43  1  0.27019000  0.33710000  0.32079000  1.0
  C  C44  1  0.43641000  0.22870000  0.79018000  1.0
  C  C45  1  0.56359000  0.72870000  0.70982000  1.0
  C  C46  1  0.56359000  0.77130000  0.20982000  1.0
  C  C47  1  0.43641000  0.27131000  0.29018000  1.0
  C  C48  1  0.43289000  0.27027000  0.72255000  1.0
  C  C49  1  0.56710000  0.77027000  0.77745000  1.0
  C  C50  1  0.56711000  0.72973000  0.27745000  1.0
  C  C51  1  0.43290000  0.22973000  0.22255000  1.0
  S  S52  1  0.25960000  0.12022000  0.90814000  1.0
  S  S53  1  0.74040000  0.62022000  0.59186000  1.0
  S  S54  1  0.74040000  0.87978000  0.09185000  1.0
  S  S55  1  0.25960000  0.37979000  0.40815000  1.0
  N  N56  1  0.25961000  0.28928000  0.61456000  1.0
  N  N57  1  0.74038000  0.78928000  0.88544000  1.0
  N  N58  1  0.74039000  0.71072000  0.38544000  1.0
  N  N59  1  0.25962000  0.21072000  0.11456000  1.0
  Cl  Cl60  1  0.65165000  0.26025000  0.83487000  1.0
  Cl  Cl61  1  0.34834000  0.76024000  0.66513000  1.0
  Cl  Cl62  1  0.34835000  0.73975000  0.16513000  1.0
  Cl  Cl63  1  0.65165000  0.23975000  0.33487000  1.0
  Cl  Cl64  1  0.89546000  0.12417000  0.66567000  1.0
  Cl  Cl65  1  0.10454000  0.62417000  0.83433000  1.0
  Cl  Cl66  1  0.10455000  0.87583000  0.33433000  1.0
  Cl  Cl67  1  0.89545000  0.37582000  0.16567000  1.0
  O  O68  1  0.37860000  0.95121000  0.92265000  1.0
  O  O69  1  0.62140000  0.45121000  0.57735000  1.0
  O  O70  1  0.62140000  0.04879000  0.07735000  1.0
  O  O71  1  0.37860000  0.54880000  0.42265000  1.0
  O  O72  1  0.05295000  0.08092000  0.91913000  1.0
  O  O73  1  0.94705000  0.58092000  0.58087000  1.0
  O  O74  1  0.94705000  0.91908000  0.08087000  1.0
  O  O75  1  0.05295000  0.41909000  0.41913000  1.0
  O  O76  1  0.33129000  0.29039000  0.94132000  1.0
  O  O77  1  0.66870000  0.79039000  0.55868000  1.0
  O  O78  1  0.66871000  0.70961000  0.05868000  1.0
  O  O79  1  0.33129000  0.20962000  0.44132000  1.0
  O  O80  1  0.14997000  0.78658000  0.49666000  1.0
  O  O81  1  0.85004000  0.28658000  0.00334000  1.0
  O  O82  1  0.85004000  0.21342000  0.50334000  1.0
  O  O83  1  0.14996000  0.71342000  0.99666000  1.0
