# generated using pymatgen
data_Cu5H56C48(N6Cl)2
_symmetry_space_group_name_H-M   'P 1'
_cell_length_a   8.70355000
_cell_length_b   16.57330000
_cell_length_c   16.57330000
_cell_angle_alpha   90.00000000
_cell_angle_beta   90.00000000
_cell_angle_gamma   89.99980000
_symmetry_Int_Tables_number   1
_chemical_formula_structural   Cu5H56C48(N6Cl)2
_chemical_formula_sum   'Cu10 H112 C96 N24 Cl4'
_cell_volume   2390.64126780
_cell_formula_units_Z   2
loop_
 _symmetry_equiv_pos_site_id
 _symmetry_equiv_pos_as_xyz
  1  'x, y, z'
loop_
 _atom_site_type_symbol
 _atom_site_label
 _atom_site_symmetry_multiplicity
 _atom_site_fract_x
 _atom_site_fract_y
 _atom_site_fract_z
 _atom_site_occupancy
  Cu  Cu0  1  0.25000000  0.25000000  0.25000000  1.0
  Cu  Cu1  1  0.75000000  0.75000000  0.75000000  1.0
  Cu  Cu2  1  0.25000000  0.75000000  0.60654000  1.0
  Cu  Cu3  1  0.25000000  0.89345000  0.75000000  1.0
  Cu  Cu4  1  0.25000000  0.75000000  0.89345000  1.0
  Cu  Cu5  1  0.25000000  0.60655000  0.75000000  1.0
  Cu  Cu6  1  0.75000000  0.25000000  0.39346000  1.0
  Cu  Cu7  1  0.75000000  0.10655000  0.25000000  1.0
  Cu  Cu8  1  0.75000000  0.25000000  0.10655000  1.0
  Cu  Cu9  1  0.75000000  0.39345000  0.25000000  1.0
  H  H10  1  0.03869000  0.49515000  0.39765000  1.0
  H  H11  1  0.03869000  0.10235000  0.49515000  1.0
  H  H12  1  0.03869000  0.00485000  0.10235000  1.0
  H  H13  1  0.03869000  0.39765000  0.00485000  1.0
  H  H14  1  0.46131000  0.49515000  0.10235000  1.0
  H  H15  1  0.46132000  0.39765000  0.49515000  1.0
  H  H16  1  0.46131000  0.00485000  0.39765000  1.0
  H  H17  1  0.46131000  0.10235000  0.00485000  1.0
  H  H18  1  0.96131000  0.50485000  0.60235000  1.0
  H  H19  1  0.96130000  0.89765000  0.50485000  1.0
  H  H20  1  0.96132000  0.99515000  0.89765000  1.0
  H  H21  1  0.96131000  0.60235000  0.99515000  1.0
  H  H22  1  0.53869000  0.50485000  0.89765000  1.0
  H  H23  1  0.53868000  0.60235000  0.50485000  1.0
  H  H24  1  0.53868000  0.99515000  0.60235000  1.0
  H  H25  1  0.53869000  0.89765000  0.99515000  1.0
  H  H26  1  0.04971000  0.38833000  0.29299000  1.0
  H  H27  1  0.04971000  0.20701000  0.38833000  1.0
  H  H28  1  0.04971000  0.11167000  0.20701000  1.0
  H  H29  1  0.04972000  0.29299000  0.11167000  1.0
  H  H30  1  0.45029000  0.38833000  0.20701000  1.0
  H  H31  1  0.45029000  0.29298000  0.38833000  1.0
  H  H32  1  0.45029000  0.11167000  0.29299000  1.0
  H  H33  1  0.45029000  0.20701000  0.11167000  1.0
  H  H34  1  0.95029000  0.61167000  0.70701000  1.0
  H  H35  1  0.95028000  0.79299000  0.61167000  1.0
  H  H36  1  0.95029000  0.88833000  0.79299000  1.0
  H  H37  1  0.95029000  0.70702000  0.88833000  1.0
  H  H38  1  0.54972000  0.61167000  0.79299000  1.0
  H  H39  1  0.54970000  0.70702000  0.61167000  1.0
  H  H40  1  0.54970000  0.88833000  0.70701000  1.0
  H  H41  1  0.54971000  0.79298000  0.88834000  1.0
  H  H42  1  0.19334000  0.60529000  0.38232000  1.0
  H  H43  1  0.19333000  0.11767000  0.60529000  1.0
  H  H44  1  0.19334000  0.89470000  0.11767000  1.0
  H  H45  1  0.19333000  0.38233000  0.89471000  1.0
  H  H46  1  0.30666000  0.60530000  0.11767000  1.0
  H  H47  1  0.30666000  0.38232000  0.60530000  1.0
  H  H48  1  0.30667000  0.89471000  0.38232000  1.0
  H  H49  1  0.30667000  0.11767000  0.89471000  1.0
  H  H50  1  0.80667000  0.39471000  0.61768000  1.0
  H  H51  1  0.80666000  0.88233000  0.39471000  1.0
  H  H52  1  0.80667000  0.10529000  0.88233000  1.0
  H  H53  1  0.80666000  0.61767000  0.10529000  1.0
  H  H54  1  0.69334000  0.39471000  0.88232000  1.0
  H  H55  1  0.69333000  0.61767000  0.39471000  1.0
  H  H56  1  0.69333000  0.10529000  0.61768000  1.0
  H  H57  1  0.69334000  0.88233000  0.10529000  1.0
  H  H58  1  0.27187000  0.69342000  0.42398000  1.0
  H  H59  1  0.27187000  0.07601000  0.69342000  1.0
  H  H60  1  0.27187000  0.80658000  0.07601000  1.0
  H  H61  1  0.27187000  0.42399000  0.80658000  1.0
  H  H62  1  0.22813000  0.69342000  0.07601000  1.0
  H  H63  1  0.22813000  0.42399000  0.69342000  1.0
  H  H64  1  0.22813000  0.80658000  0.42399000  1.0
  H  H65  1  0.22813000  0.07601000  0.80658000  1.0
  H  H66  1  0.72813000  0.30658000  0.57601000  1.0
  H  H67  1  0.72812000  0.92399000  0.30658000  1.0
  H  H68  1  0.72813000  0.19342000  0.92399000  1.0
  H  H69  1  0.72812000  0.57601000  0.19342000  1.0
  H  H70  1  0.77188000  0.30658000  0.92399000  1.0
  H  H71  1  0.77188000  0.57601000  0.30658000  1.0
  H  H72  1  0.77187000  0.19342000  0.57601000  1.0
  H  H73  1  0.77188000  0.92398000  0.19342000  1.0
  H  H74  1  0.00175000  0.71822000  0.37657000  1.0
  H  H75  1  0.00175000  0.12342000  0.71822000  1.0
  H  H76  1  0.00175000  0.78178000  0.12343000  1.0
  H  H77  1  0.00175000  0.37657000  0.78178000  1.0
  H  H78  1  0.49825000  0.71822000  0.12343000  1.0
  H  H79  1  0.49825000  0.37657000  0.71822000  1.0
  H  H80  1  0.49825000  0.78178000  0.37657000  1.0
  H  H81  1  0.49825000  0.12342000  0.78178000  1.0
  H  H82  1  0.99825000  0.28178000  0.62342000  1.0
  H  H83  1  0.99824000  0.87658000  0.28178000  1.0
  H  H84  1  0.99825000  0.21822000  0.87657000  1.0
  H  H85  1  0.99824000  0.62342000  0.21822000  1.0
  H  H86  1  0.50176000  0.28178000  0.87657000  1.0
  H  H87  1  0.50176000  0.62342000  0.28178000  1.0
  H  H88  1  0.50175000  0.21822000  0.62342000  1.0
  H  H89  1  0.50176000  0.87657000  0.21822000  1.0
  H  H90  1  0.93378000  0.64011000  0.44114000  1.0
  H  H91  1  0.93378000  0.05886000  0.64011000  1.0
  H  H92  1  0.93378000  0.85989000  0.05886000  1.0
  H  H93  1  0.93378000  0.44114000  0.85989000  1.0
  H  H94  1  0.56622000  0.64011000  0.05886000  1.0
  H  H95  1  0.56622000  0.44114000  0.64011000  1.0
  H  H96  1  0.56622000  0.85989000  0.44114000  1.0
  H  H97  1  0.56622000  0.05886000  0.85989000  1.0
  H  H98  1  0.06622000  0.35988000  0.55886000  1.0
  H  H99  1  0.06621000  0.94114000  0.35988000  1.0
  H  H100  1  0.06622000  0.14011000  0.94114000  1.0
  H  H101  1  0.06621000  0.55886000  0.14012000  1.0
  H  H102  1  0.43379000  0.35989000  0.94114000  1.0
  H  H103  1  0.43379000  0.55886000  0.35988000  1.0
  H  H104  1  0.43378000  0.14011000  0.55886000  1.0
  H  H105  1  0.43379000  0.94114000  0.14012000  1.0
  H  H106  1  0.01215000  0.72902000  0.48349000  1.0
  H  H107  1  0.01215000  0.01651000  0.72902000  1.0
  H  H108  1  0.01214000  0.77098000  0.01651000  1.0
  H  H109  1  0.01215000  0.48349000  0.77098000  1.0
  H  H110  1  0.48786000  0.72902000  0.01651000  1.0
  H  H111  1  0.48786000  0.48349000  0.72902000  1.0
  H  H112  1  0.48786000  0.77098000  0.48349000  1.0
  H  H113  1  0.48786000  0.01650000  0.77098000  1.0
  H  H114  1  0.98785000  0.27098000  0.51651000  1.0
  H  H115  1  0.98784000  0.98350000  0.27098000  1.0
  H  H116  1  0.98785000  0.22902000  0.98349000  1.0
  H  H117  1  0.98784000  0.51651000  0.22902000  1.0
  H  H118  1  0.51215000  0.27098000  0.98349000  1.0
  H  H119  1  0.51216000  0.51651000  0.27098000  1.0
  H  H120  1  0.51215000  0.22902000  0.51650000  1.0
  H  H121  1  0.51216000  0.98349000  0.22902000  1.0
  C  C122  1  0.25000000  0.51900000  0.51900000  1.0
  C  C123  1  0.25000000  0.98100000  0.51900000  1.0
  C  C124  1  0.25000000  0.98100000  0.98100000  1.0
  C  C125  1  0.25000000  0.51900000  0.98101000  1.0
  C  C126  1  0.75000000  0.48101000  0.48101000  1.0
  C  C127  1  0.75000000  0.01900000  0.48100000  1.0
  C  C128  1  0.75000000  0.01899000  0.01900000  1.0
  C  C129  1  0.75000000  0.48101000  0.01900000  1.0
  C  C130  1  0.25001000  0.45691000  0.45691000  1.0
  C  C131  1  0.25000000  0.04309000  0.45691000  1.0
  C  C132  1  0.25000000  0.04309000  0.04309000  1.0
  C  C133  1  0.25000000  0.45691000  0.04309000  1.0
  C  C134  1  0.74999000  0.54310000  0.54309000  1.0
  C  C135  1  0.74999000  0.95690000  0.54309000  1.0
  C  C136  1  0.75001000  0.95690000  0.95691000  1.0
  C  C137  1  0.75000000  0.54310000  0.95691000  1.0
  C  C138  1  0.21909000  0.60215000  0.50931000  1.0
  C  C139  1  0.21909000  0.99069000  0.60215000  1.0
  C  C140  1  0.21909000  0.89785000  0.99069000  1.0
  C  C141  1  0.21909000  0.50931000  0.89785000  1.0
  C  C142  1  0.28091000  0.60215000  0.99069000  1.0
  C  C143  1  0.28092000  0.50931000  0.60215000  1.0
  C  C144  1  0.28091000  0.89785000  0.50931000  1.0
  C  C145  1  0.28091000  0.99069000  0.89785000  1.0
  C  C146  1  0.78091000  0.39785000  0.49069000  1.0
  C  C147  1  0.78091000  0.00931000  0.39785000  1.0
  C  C148  1  0.78091000  0.10215000  0.00931000  1.0
  C  C149  1  0.78091000  0.49069000  0.10215000  1.0
  C  C150  1  0.71909000  0.39785000  0.00931000  1.0
  C  C151  1  0.71909000  0.49069000  0.39785000  1.0
  C  C152  1  0.71909000  0.10215000  0.49069000  1.0
  C  C153  1  0.71909000  0.00931000  0.10215000  1.0
  C  C154  1  0.13512000  0.45330000  0.39712000  1.0
  C  C155  1  0.13511000  0.10288000  0.45330000  1.0
  C  C156  1  0.13511000  0.04670000  0.10288000  1.0
  C  C157  1  0.13512000  0.39712000  0.04670000  1.0
  C  C158  1  0.36489000  0.45330000  0.10288000  1.0
  C  C159  1  0.36489000  0.39712000  0.45330000  1.0
  C  C160  1  0.36489000  0.04670000  0.39712000  1.0
  C  C161  1  0.36489000  0.10288000  0.04670000  1.0
  C  C162  1  0.86488000  0.54670000  0.60288000  1.0
  C  C163  1  0.86488000  0.89712000  0.54669000  1.0
  C  C164  1  0.86489000  0.95330000  0.89712000  1.0
  C  C165  1  0.86489000  0.60289000  0.95331000  1.0
  C  C166  1  0.63512000  0.54670000  0.89712000  1.0
  C  C167  1  0.63511000  0.60288000  0.54670000  1.0
  C  C168  1  0.63510000  0.95330000  0.60288000  1.0
  C  C169  1  0.63511000  0.89711000  0.95331000  1.0
  C  C170  1  0.13937000  0.39352000  0.33871000  1.0
  C  C171  1  0.13936000  0.16129000  0.39352000  1.0
  C  C172  1  0.13936000  0.10648000  0.16129000  1.0
  C  C173  1  0.13936000  0.33871000  0.10648000  1.0
  C  C174  1  0.36064000  0.39352000  0.16129000  1.0
  C  C175  1  0.36064000  0.33871000  0.39352000  1.0
  C  C176  1  0.36064000  0.10648000  0.33871000  1.0
  C  C177  1  0.36064000  0.16129000  0.10648000  1.0
  C  C178  1  0.86063000  0.60649000  0.66129000  1.0
  C  C179  1  0.86063000  0.83870000  0.60648000  1.0
  C  C180  1  0.86064000  0.89351000  0.83871000  1.0
  C  C181  1  0.86064000  0.66130000  0.89352000  1.0
  C  C182  1  0.63936000  0.60649000  0.83871000  1.0
  C  C183  1  0.63936000  0.66130000  0.60648000  1.0
  C  C184  1  0.63935000  0.89352000  0.66129000  1.0
  C  C185  1  0.63937000  0.83870000  0.89352000  1.0
  C  C186  1  0.18325000  0.64711000  0.43347000  1.0
  C  C187  1  0.18325000  0.06653000  0.64711000  1.0
  C  C188  1  0.18326000  0.85289000  0.06653000  1.0
  C  C189  1  0.18325000  0.43348000  0.85289000  1.0
  C  C190  1  0.31675000  0.64711000  0.06653000  1.0
  C  C191  1  0.31675000  0.43347000  0.64711000  1.0
  C  C192  1  0.31675000  0.85289000  0.43347000  1.0
  C  C193  1  0.31675000  0.06652000  0.85289000  1.0
  C  C194  1  0.81675000  0.35289000  0.56653000  1.0
  C  C195  1  0.81674000  0.93348000  0.35289000  1.0
  C  C196  1  0.81675000  0.14711000  0.93348000  1.0
  C  C197  1  0.81674000  0.56653000  0.14711000  1.0
  C  C198  1  0.68326000  0.35289000  0.93348000  1.0
  C  C199  1  0.68326000  0.56652000  0.35289000  1.0
  C  C200  1  0.68325000  0.14711000  0.56653000  1.0
  C  C201  1  0.68326000  0.93347000  0.14711000  1.0
  C  C202  1  0.02346000  0.68597000  0.43344000  1.0
  C  C203  1  0.02346000  0.06656000  0.68597000  1.0
  C  C204  1  0.02346000  0.81403000  0.06656000  1.0
  C  C205  1  0.02346000  0.43344000  0.81403000  1.0
  C  C206  1  0.47654000  0.68597000  0.06656000  1.0
  C  C207  1  0.47654000  0.43344000  0.68597000  1.0
  C  C208  1  0.47654000  0.81403000  0.43344000  1.0
  C  C209  1  0.47654000  0.06656000  0.81403000  1.0
  C  C210  1  0.97654000  0.31403000  0.56656000  1.0
  C  C211  1  0.97653000  0.93344000  0.31403000  1.0
  C  C212  1  0.97654000  0.18596000  0.93344000  1.0
  C  C213  1  0.97654000  0.56656000  0.18597000  1.0
  C  C214  1  0.52347000  0.31403000  0.93344000  1.0
  C  C215  1  0.52346000  0.56656000  0.31403000  1.0
  C  C216  1  0.52346000  0.18597000  0.56656000  1.0
  C  C217  1  0.52346000  0.93344000  0.18597000  1.0
  N  N218  1  0.25000000  0.33676000  0.33676000  1.0
  N  N219  1  0.25000000  0.16324000  0.33676000  1.0
  N  N220  1  0.25000000  0.16323000  0.16324000  1.0
  N  N221  1  0.25000000  0.33677000  0.16324000  1.0
  N  N222  1  0.75000000  0.66324000  0.66324000  1.0
  N  N223  1  0.74999000  0.83676000  0.66323000  1.0
  N  N224  1  0.74999000  0.83676000  0.83677000  1.0
  N  N225  1  0.75001000  0.66324000  0.83677000  1.0
  N  N226  1  0.23363000  0.63913000  0.58162000  1.0
  N  N227  1  0.23362000  0.91838000  0.63913000  1.0
  N  N228  1  0.23363000  0.86087000  0.91838000  1.0
  N  N229  1  0.23363000  0.58162000  0.86087000  1.0
  N  N230  1  0.26638000  0.63913000  0.91838000  1.0
  N  N231  1  0.26638000  0.58162000  0.63913000  1.0
  N  N232  1  0.26638000  0.86087000  0.58162000  1.0
  N  N233  1  0.26637000  0.91837000  0.86087000  1.0
  N  N234  1  0.76637000  0.36087000  0.41838000  1.0
  N  N235  1  0.76637000  0.08163000  0.36087000  1.0
  N  N236  1  0.76637000  0.13913000  0.08163000  1.0
  N  N237  1  0.76637000  0.41838000  0.13913000  1.0
  N  N238  1  0.73363000  0.36087000  0.08162000  1.0
  N  N239  1  0.73363000  0.41838000  0.36087000  1.0
  N  N240  1  0.73362000  0.13913000  0.41838000  1.0
  N  N241  1  0.73363000  0.08163000  0.13914000  1.0
  Cl  Cl242  1  0.43182000  0.75000000  0.75000000  1.0
  Cl  Cl243  1  0.06817000  0.75000000  0.75000000  1.0
  Cl  Cl244  1  0.56818000  0.25000000  0.25000000  1.0
  Cl  Cl245  1  0.93183000  0.25000000  0.25000000  1.0
