# generated using pymatgen
data_Nd2H37C36N7O22
_symmetry_space_group_name_H-M   'P 1'
_cell_length_a   13.83590000
_cell_length_b   13.83580000
_cell_length_c   16.40220000
_cell_angle_alpha   67.22910000
_cell_angle_beta   67.22910000
_cell_angle_gamma   75.92270000
_symmetry_Int_Tables_number   1
_chemical_formula_structural   Nd2H37C36N7O22
_chemical_formula_sum   'Nd4 H74 C72 N14 O44'
_cell_volume   2653.34657644
_cell_formula_units_Z   2
loop_
 _symmetry_equiv_pos_site_id
 _symmetry_equiv_pos_as_xyz
  1  'x, y, z'
loop_
 _atom_site_type_symbol
 _atom_site_label
 _atom_site_symmetry_multiplicity
 _atom_site_fract_x
 _atom_site_fract_y
 _atom_site_fract_z
 _atom_site_occupancy
  Nd  Nd0  1  0.32952000  0.04921000  0.50172000  1.0
  Nd  Nd1  1  0.95079000  0.67048000  0.99828000  1.0
  Nd  Nd2  1  0.67048000  0.95079000  0.49828000  1.0
  Nd  Nd3  1  0.04921000  0.32952000  0.00172000  1.0
  H  H4  1  0.16766000  0.27238000  0.25153000  1.0
  H  H5  1  0.72761000  0.83234000  0.24847000  1.0
  H  H6  1  0.83234000  0.72761000  0.74847000  1.0
  H  H7  1  0.27239000  0.16766000  0.75153000  1.0
  H  H8  1  0.03644000  0.59664000  0.21457000  1.0
  H  H9  1  0.40336000  0.96356000  0.28542000  1.0
  H  H10  1  0.96356000  0.40336000  0.78543000  1.0
  H  H11  1  0.59664000  0.03644000  0.71458000  1.0
  H  H12  1  0.15622000  0.41830000  0.44441000  1.0
  H  H13  1  0.58170000  0.84378000  0.05559000  1.0
  H  H14  1  0.84378000  0.58170000  0.55559000  1.0
  H  H15  1  0.41830000  0.15622000  0.94441000  1.0
  H  H16  1  0.74027000  0.25973000  0.25000000  1.0
  H  H17  1  0.25973000  0.74027000  0.75000000  1.0
  H  H18  1  0.41107000  0.36719000  0.35365000  1.0
  H  H19  1  0.63281000  0.58893000  0.14635000  1.0
  H  H20  1  0.58893000  0.63281000  0.64635000  1.0
  H  H21  1  0.36719000  0.41107000  0.85365000  1.0
  H  H22  1  0.37313000  0.80245000  0.47125000  1.0
  H  H23  1  0.19754000  0.62687000  0.02875000  1.0
  H  H24  1  0.62687000  0.19754000  0.52875000  1.0
  H  H25  1  0.80246000  0.37313000  0.97125000  1.0
  H  H26  1  0.37942000  0.65646000  0.45089000  1.0
  H  H27  1  0.34354000  0.62058000  0.04912000  1.0
  H  H28  1  0.62058000  0.34354000  0.54912000  1.0
  H  H29  1  0.65647000  0.37942000  0.95088000  1.0
  H  H30  1  0.30034000  0.66298000  0.38400000  1.0
  H  H31  1  0.33702000  0.69966000  0.11600000  1.0
  H  H32  1  0.69967000  0.33702000  0.61600000  1.0
  H  H33  1  0.66299000  0.30034000  0.88400000  1.0
  H  H34  1  0.25830000  0.59729000  0.50715000  1.0
  H  H35  1  0.40271000  0.74170000  0.99285000  1.0
  H  H36  1  0.74170000  0.40271000  0.49286000  1.0
  H  H37  1  0.59729000  0.25830000  0.00714000  1.0
  H  H38  1  0.10006000  0.85896000  0.48598000  1.0
  H  H39  1  0.14104000  0.89993000  0.01402000  1.0
  H  H40  1  0.89994000  0.14104000  0.51401000  1.0
  H  H41  1  0.85896000  0.10006000  0.98598000  1.0
  H  H42  1  0.08881000  0.72198000  0.51447000  1.0
  H  H43  1  0.27801000  0.91119000  0.98553000  1.0
  H  H44  1  0.91119000  0.27801000  0.48553000  1.0
  H  H45  1  0.72199000  0.08881000  0.01447000  1.0
  H  H46  1  0.13187000  0.80248000  0.39562000  1.0
  H  H47  1  0.19751000  0.86813000  0.10439000  1.0
  H  H48  1  0.86814000  0.19751000  0.60438000  1.0
  H  H49  1  0.80249000  0.13186000  0.89561000  1.0
  H  H50  1  0.05257000  0.14039000  0.67963000  1.0
  H  H51  1  0.85961000  0.94743000  0.82037000  1.0
  H  H52  1  0.94743000  0.85961000  0.32037000  1.0
  H  H53  1  0.14039000  0.05257000  0.17963000  1.0
  H  H54  1  0.00420000  0.14405000  0.81943000  1.0
  H  H55  1  0.85595000  0.99580000  0.68057000  1.0
  H  H56  1  0.99580000  0.85595000  0.18057000  1.0
  H  H57  1  0.14405000  0.00420000  0.31943000  1.0
  H  H58  1  0.10355000  0.10010000  0.87279000  1.0
  H  H59  1  0.89990000  0.89645000  0.62721000  1.0
  H  H60  1  0.89645000  0.89990000  0.12721000  1.0
  H  H61  1  0.10010000  0.10355000  0.37279000  1.0
  H  H62  1  0.00572000  0.01509000  0.90523000  1.0
  H  H63  1  0.98491000  0.99428000  0.59477000  1.0
  H  H64  1  0.99428000  0.98491000  0.09477000  1.0
  H  H65  1  0.01509000  0.00572000  0.40523000  1.0
  H  H66  1  0.23935000  0.91318000  0.73729000  1.0
  H  H67  1  0.08682000  0.76065000  0.76271000  1.0
  H  H68  1  0.76065000  0.08682000  0.26271000  1.0
  H  H69  1  0.91318000  0.23935000  0.23729000  1.0
  H  H70  1  0.14786000  0.87278000  0.85458000  1.0
  H  H71  1  0.12722000  0.85214000  0.64542000  1.0
  H  H72  1  0.85214000  0.12722000  0.14542000  1.0
  H  H73  1  0.87278000  0.14786000  0.35458000  1.0
  H  H74  1  0.24609000  0.95596000  0.82454000  1.0
  H  H75  1  0.04404000  0.75391000  0.67546000  1.0
  H  H76  1  0.75391000  0.04404000  0.17546000  1.0
  H  H77  1  0.95596000  0.24609000  0.32454000  1.0
  C  C78  1  0.16616000  0.33461000  0.35419000  1.0
  C  C79  1  0.66539000  0.83384000  0.14581000  1.0
  C  C80  1  0.83384000  0.66539000  0.64581000  1.0
  C  C81  1  0.33461000  0.16616000  0.85419000  1.0
  C  C82  1  0.14569000  0.34064000  0.27518000  1.0
  C  C83  1  0.65935000  0.85431000  0.22482000  1.0
  C  C84  1  0.85431000  0.65936000  0.72482000  1.0
  C  C85  1  0.34065000  0.14569000  0.77518000  1.0
  C  C86  1  0.09756000  0.43410000  0.22544000  1.0
  C  C87  1  0.56590000  0.90244000  0.27456000  1.0
  C  C88  1  0.90244000  0.56590000  0.77457000  1.0
  C  C89  1  0.43410000  0.09756000  0.72544000  1.0
  C  C90  1  0.07310000  0.52338000  0.25299000  1.0
  C  C91  1  0.47662000  0.92691000  0.24701000  1.0
  C  C92  1  0.92691000  0.47662000  0.74701000  1.0
  C  C93  1  0.52338000  0.07310000  0.75299000  1.0
  C  C94  1  0.09559000  0.51599000  0.33115000  1.0
  C  C95  1  0.48401000  0.90441000  0.16885000  1.0
  C  C96  1  0.90441000  0.48401000  0.66885000  1.0
  C  C97  1  0.51599000  0.09559000  0.83115000  1.0
  C  C98  1  0.13984000  0.42278000  0.38330000  1.0
  C  C99  1  0.57722000  0.86016000  0.11670000  1.0
  C  C100  1  0.86016000  0.57722000  0.61671000  1.0
  C  C101  1  0.42278000  0.13984000  0.88330000  1.0
  C  C102  1  0.21769000  0.23524000  0.40849000  1.0
  C  C103  1  0.76476000  0.78231000  0.09151000  1.0
  C  C104  1  0.78230000  0.76476000  0.59151000  1.0
  C  C105  1  0.23524000  0.21770000  0.90849000  1.0
  C  C106  1  0.07241000  0.43870000  0.14239000  1.0
  C  C107  1  0.56130000  0.92759000  0.35761000  1.0
  C  C108  1  0.92759000  0.56130000  0.85761000  1.0
  C  C109  1  0.43870000  0.07241000  0.64239000  1.0
  C  C110  1  0.67635000  0.32365000  0.25000000  1.0
  C  C111  1  0.32365000  0.67635000  0.75000000  1.0
  C  C112  1  0.57402000  0.30211000  0.30973000  1.0
  C  C113  1  0.69789000  0.42597000  0.19027000  1.0
  C  C114  1  0.42597000  0.69789000  0.69027000  1.0
  C  C115  1  0.30211000  0.57403000  0.80973000  1.0
  C  C116  1  0.49127000  0.38355000  0.30873000  1.0
  C  C117  1  0.61645000  0.50872000  0.19128000  1.0
  C  C118  1  0.50872000  0.61645000  0.69128000  1.0
  C  C119  1  0.38355000  0.49127000  0.80872000  1.0
  C  C120  1  0.51451000  0.48549000  0.25000000  1.0
  C  C121  1  0.48549000  0.51451000  0.75000000  1.0
  C  C122  1  0.55243000  0.19165000  0.37541000  1.0
  C  C123  1  0.80835000  0.44757000  0.12459000  1.0
  C  C124  1  0.44757000  0.80835000  0.62459000  1.0
  C  C125  1  0.19165000  0.55243000  0.87541000  1.0
  C  C126  1  0.29079000  0.83069000  0.47293000  1.0
  C  C127  1  0.16931000  0.70921000  0.02707000  1.0
  C  C128  1  0.70921000  0.16931000  0.52707000  1.0
  C  C129  1  0.83069000  0.29079000  0.97293000  1.0
  C  C130  1  0.29847000  0.66433000  0.45116000  1.0
  C  C131  1  0.33567000  0.70152000  0.04884000  1.0
  C  C132  1  0.70153000  0.33567000  0.54884000  1.0
  C  C133  1  0.66434000  0.29847000  0.95116000  1.0
  C  C134  1  0.13419000  0.78843000  0.46560000  1.0
  C  C135  1  0.21157000  0.86581000  0.03441000  1.0
  C  C136  1  0.86581000  0.21157000  0.53440000  1.0
  C  C137  1  0.78843000  0.13419000  0.96559000  1.0
  C  C138  1  0.10981000  0.06925000  0.68929000  1.0
  C  C139  1  0.93075000  0.89019000  0.81071000  1.0
  C  C140  1  0.89019000  0.93075000  0.31071000  1.0
  C  C141  1  0.06925000  0.10981000  0.18929000  1.0
  C  C142  1  0.05467000  0.07467000  0.84722000  1.0
  C  C143  1  0.92533000  0.94533000  0.65278000  1.0
  C  C144  1  0.94533000  0.92533000  0.15278000  1.0
  C  C145  1  0.07467000  0.05467000  0.34722000  1.0
  C  C146  1  0.19285000  0.93676000  0.79904000  1.0
  C  C147  1  0.06324000  0.80715000  0.70096000  1.0
  C  C148  1  0.80715000  0.06324000  0.20096000  1.0
  C  C149  1  0.93675000  0.19285000  0.29904000  1.0
  N  N150  1  0.07465000  0.61012000  0.35851000  1.0
  N  N151  1  0.38988000  0.92535000  0.14149000  1.0
  N  N152  1  0.92535000  0.38988000  0.64149000  1.0
  N  N153  1  0.61012000  0.07465000  0.85851000  1.0
  N  N154  1  0.42830000  0.57170000  0.25000000  1.0
  N  N155  1  0.57170000  0.42830000  0.75000000  1.0
  N  N156  1  0.24256000  0.76303000  0.46565000  1.0
  N  N157  1  0.23697000  0.75744000  0.03435000  1.0
  N  N158  1  0.75744000  0.23697000  0.53435000  1.0
  N  N159  1  0.76303000  0.24256000  0.96565000  1.0
  N  N160  1  0.12016000  0.02965000  0.77390000  1.0
  N  N161  1  0.97035000  0.87984000  0.72610000  1.0
  N  N162  1  0.87984000  0.97035000  0.22610000  1.0
  N  N163  1  0.02965000  0.12016000  0.27390000  1.0
  O  O164  1  0.23009000  0.23335000  0.48190000  1.0
  O  O165  1  0.76665000  0.76992000  0.01810000  1.0
  O  O166  1  0.76992000  0.76665000  0.51810000  1.0
  O  O167  1  0.23335000  0.23009000  0.98190000  1.0
  O  O168  1  0.24768000  0.15625000  0.37849000  1.0
  O  O169  1  0.84375000  0.75232000  0.12151000  1.0
  O  O170  1  0.75232000  0.84375000  0.62151000  1.0
  O  O171  1  0.15625000  0.24768000  0.87849000  1.0
  O  O172  1  0.09151000  0.35421000  0.12328000  1.0
  O  O173  1  0.64579000  0.90849000  0.37672000  1.0
  O  O174  1  0.90849000  0.64579000  0.87672000  1.0
  O  O175  1  0.35421000  0.09151000  0.62328000  1.0
  O  O176  1  0.03367000  0.52705000  0.09726000  1.0
  O  O177  1  0.47295000  0.96632000  0.40274000  1.0
  O  O178  1  0.96632000  0.47295000  0.90274000  1.0
  O  O179  1  0.52705000  0.03368000  0.59726000  1.0
  O  O180  1  0.05661000  0.69719000  0.30139000  1.0
  O  O181  1  0.30281000  0.94338000  0.19861000  1.0
  O  O182  1  0.94339000  0.30281000  0.69861000  1.0
  O  O183  1  0.69719000  0.05662000  0.80139000  1.0
  O  O184  1  0.07728000  0.59828000  0.43656000  1.0
  O  O185  1  0.40172000  0.92272000  0.06343000  1.0
  O  O186  1  0.92272000  0.40172000  0.56344000  1.0
  O  O187  1  0.59828000  0.07728000  0.93657000  1.0
  O  O188  1  0.63168000  0.12623000  0.38795000  1.0
  O  O189  1  0.87376000  0.36832000  0.11205000  1.0
  O  O190  1  0.36832000  0.87376000  0.61205000  1.0
  O  O191  1  0.12624000  0.63168000  0.88795000  1.0
  O  O192  1  0.45670000  0.17435000  0.41322000  1.0
  O  O193  1  0.82565000  0.54330000  0.08678000  1.0
  O  O194  1  0.54330000  0.82565000  0.58678000  1.0
  O  O195  1  0.17435000  0.45670000  0.91322000  1.0
  O  O196  1  0.45117000  0.66375000  0.20649000  1.0
  O  O197  1  0.33625000  0.54883000  0.29351000  1.0
  O  O198  1  0.54883000  0.33625000  0.79351000  1.0
  O  O199  1  0.66375000  0.45117000  0.70649000  1.0
  O  O200  1  0.24848000  0.91893000  0.48103000  1.0
  O  O201  1  0.08107000  0.75152000  0.01897000  1.0
  O  O202  1  0.75152000  0.08107000  0.51897000  1.0
  O  O203  1  0.91893000  0.24848000  0.98102000  1.0
  O  O204  1  0.15912000  0.03088000  0.62421000  1.0
  O  O205  1  0.96912000  0.84089000  0.87578000  1.0
  O  O206  1  0.84088000  0.96912000  0.37579000  1.0
  O  O207  1  0.03088000  0.15912000  0.12421000  1.0
