# generated using pymatgen
data_Ag2Mo4H21C18N9O13
_symmetry_space_group_name_H-M   'P 1'
_cell_length_a   11.36150000
_cell_length_b   11.73120000
_cell_length_c   12.17720000
_cell_angle_alpha   115.02900000
_cell_angle_beta   94.07370000
_cell_angle_gamma   100.54700000
_symmetry_Int_Tables_number   1
_chemical_formula_structural   Ag2Mo4H21C18N9O13
_chemical_formula_sum   'Ag4 Mo8 H42 C36 N18 O26'
_cell_volume   1425.54211562
_cell_formula_units_Z   2
loop_
 _symmetry_equiv_pos_site_id
 _symmetry_equiv_pos_as_xyz
  1  'x, y, z'
loop_
 _atom_site_type_symbol
 _atom_site_label
 _atom_site_symmetry_multiplicity
 _atom_site_fract_x
 _atom_site_fract_y
 _atom_site_fract_z
 _atom_site_occupancy
  Ag  Ag0  1  0.17564000  0.98387000  0.69098000  1.0
  Ag  Ag1  1  0.82436000  0.01613000  0.30902000  1.0
  Ag  Ag2  1  0.62097000  0.94599000  0.73147000  1.0
  Ag  Ag3  1  0.37902000  0.05401000  0.26853000  1.0
  Mo  Mo4  1  0.02097000  0.66428000  0.34142000  1.0
  Mo  Mo5  1  0.97903000  0.33571000  0.65857000  1.0
  Mo  Mo6  1  0.18873000  0.37989000  0.88844000  1.0
  Mo  Mo7  1  0.81126000  0.62011000  0.11158000  1.0
  Mo  Mo8  1  0.98552000  0.37906000  0.05859000  1.0
  Mo  Mo9  1  0.01448000  0.62093000  0.94142000  1.0
  Mo  Mo10  1  0.22310000  0.66713000  0.15808000  1.0
  Mo  Mo11  1  0.77690000  0.33287000  0.84194000  1.0
  H  H12  1  0.73323000  0.09433000  0.57591000  1.0
  H  H13  1  0.26677000  0.90568000  0.42409000  1.0
  H  H14  1  0.59332000  0.75206000  0.24685000  1.0
  H  H15  1  0.40668000  0.24794000  0.75315000  1.0
  H  H16  1  0.38819000  0.70430000  0.40844000  1.0
  H  H17  1  0.61181000  0.29570000  0.59156000  1.0
  H  H18  1  0.49354000  0.61373000  0.34158000  1.0
  H  H19  1  0.50646000  0.38627000  0.65842000  1.0
  H  H20  1  0.73959000  0.35551000  0.52260000  1.0
  H  H21  1  0.26041000  0.64449000  0.47740000  1.0
  H  H22  1  0.77795000  0.33441000  0.37930000  1.0
  H  H23  1  0.22205000  0.66559000  0.62070000  1.0
  H  H24  1  0.70217000  0.20028000  0.39604000  1.0
  H  H25  1  0.29783000  0.79972000  0.60396000  1.0
  H  H26  1  0.66681000  0.72139000  0.93572000  1.0
  H  H27  1  0.33319000  0.27861000  0.06428000  1.0
  H  H28  1  0.51536000  0.64350000  0.92633000  1.0
  H  H29  1  0.48464000  0.35651000  0.07367000  1.0
  H  H30  1  0.61707000  0.55200000  0.85714000  1.0
  H  H31  1  0.38293000  0.44801000  0.14286000  1.0
  H  H32  1  0.19383000  0.43085000  0.34221000  1.0
  H  H33  1  0.80617000  0.56914000  0.65779000  1.0
  H  H34  1  0.21730000  0.35615000  0.18935000  1.0
  H  H35  1  0.78269000  0.64384000  0.81064000  1.0
  H  H36  1  0.22788000  0.25263000  0.48680000  1.0
  H  H37  1  0.77212000  0.74737000  0.51320000  1.0
  H  H38  1  0.22409000  0.40889000  0.50557000  1.0
  H  H39  1  0.77592000  0.59111000  0.49443000  1.0
  H  H40  1  0.32562000  0.38946000  0.60874000  1.0
  H  H41  1  0.67438000  0.61054000  0.39126000  1.0
  H  H42  1  0.35502000  0.60535000  0.84857000  1.0
  H  H43  1  0.64498000  0.39465000  0.15143000  1.0
  H  H44  1  0.25303000  0.62612000  0.74847000  1.0
  H  H45  1  0.74697000  0.37388000  0.25154000  1.0
  H  H46  1  0.02177000  0.70364000  0.69196000  1.0
  H  H47  1  0.97823000  0.29635000  0.30804000  1.0
  H  H48  1  0.06849000  0.93523000  0.20174000  1.0
  H  H49  1  0.93151000  0.06476000  0.79826000  1.0
  H  H50  1  0.71743000  0.93338000  0.00430000  1.0
  H  H51  1  0.28257000  0.06662000  0.99570000  1.0
  H  H52  1  0.44271000  0.79827000  0.05739000  1.0
  H  H53  1  0.55729000  0.20173000  0.94261000  1.0
  C  C54  1  0.68034000  0.99958000  0.50943000  1.0
  C  C55  1  0.31966000  0.00042000  0.49057000  1.0
  C  C56  1  0.61249000  0.82652000  0.34145000  1.0
  C  C57  1  0.38751000  0.17348000  0.65855000  1.0
  C  C58  1  0.48083000  0.69435000  0.42493000  1.0
  C  C59  1  0.51917000  0.30565000  0.57508000  1.0
  C  C60  1  0.50491000  0.67392000  0.53780000  1.0
  C  C61  1  0.49509000  0.32608000  0.46220000  1.0
  C  C62  1  0.61974000  0.65645000  0.56943000  1.0
  C  C63  1  0.38026000  0.34355000  0.43056000  1.0
  C  C64  1  0.64641000  0.65016000  0.68109000  1.0
  C  C65  1  0.35359000  0.34984000  0.31891000  1.0
  C  C66  1  0.44243000  0.34830000  0.24334000  1.0
  C  C67  1  0.55757000  0.65170000  0.75666000  1.0
  C  C68  1  0.55907000  0.33754000  0.27990000  1.0
  C  C69  1  0.44092000  0.66246000  0.72010000  1.0
  C  C70  1  0.58552000  0.32340000  0.38793000  1.0
  C  C71  1  0.41448000  0.67660000  0.61207000  1.0
  C  C72  1  0.70694000  0.30376000  0.42355000  1.0
  C  C73  1  0.29306000  0.69624000  0.57645000  1.0
  C  C74  1  0.58975000  0.64236000  0.87434000  1.0
  C  C75  1  0.41025000  0.35764000  0.12566000  1.0
  C  C76  1  0.77442000  0.65058000  0.72367000  1.0
  C  C77  1  0.22558000  0.34941000  0.27632000  1.0
  C  C78  1  0.28554000  0.34917000  0.51179000  1.0
  C  C79  1  0.71446000  0.65083000  0.48821000  1.0
  C  C80  1  0.65474000  0.33549000  0.19934000  1.0
  C  C81  1  0.34526000  0.66451000  0.80066000  1.0
  C  C82  1  0.97554000  0.78184000  0.72051000  1.0
  C  C83  1  0.02446000  0.21816000  0.27949000  1.0
  C  C84  1  0.07343000  0.03617000  0.22509000  1.0
  C  C85  1  0.92656000  0.96382000  0.77490000  1.0
  C  C86  1  0.68323000  0.01831000  0.01910000  1.0
  C  C87  1  0.31677000  0.98169000  0.98090000  1.0
  C  C88  1  0.39899000  0.84780000  0.01496000  1.0
  C  C89  1  0.60101000  0.15220000  0.98504000  1.0
  N  N90  1  0.56479000  0.81041000  0.43289000  1.0
  N  N91  1  0.43521000  0.18959000  0.56712000  1.0
  N  N92  1  0.60708000  0.91995000  0.54066000  1.0
  N  N93  1  0.39291000  0.08005000  0.45934000  1.0
  N  N94  1  0.68595000  0.94544000  0.38725000  1.0
  N  N95  1  0.31405000  0.05456000  0.61275000  1.0
  N  N96  1  0.65002000  0.20499000  0.10420000  1.0
  N  N97  1  0.34998000  0.79501000  0.89580000  1.0
  N  N98  1  0.70232000  0.12040000  0.12807000  1.0
  N  N99  1  0.29768000  0.87960000  0.87193000  1.0
  N  N100  1  0.62022000  0.03317000  0.92786000  1.0
  N  N101  1  0.37978000  0.96683000  0.07214000  1.0
  N  N102  1  0.86019000  0.76860000  0.73937000  1.0
  N  N103  1  0.13980000  0.23139000  0.26063000  1.0
  N  N104  1  0.17258000  0.11611000  0.22517000  1.0
  N  N105  1  0.82742000  0.88389000  0.77483000  1.0
  N  N106  1  0.02002000  0.90457000  0.74185000  1.0
  N  N107  1  0.97998000  0.09542000  0.25814000  1.0
  O  O108  1  0.01123000  0.61219000  0.11062000  1.0
  O  O109  1  0.98877000  0.38782000  0.88940000  1.0
  O  O110  1  0.18026000  0.60986000  0.97936000  1.0
  O  O111  1  0.81974000  0.39014000  0.02064000  1.0
  O  O112  1  0.22989000  0.82976000  0.20861000  1.0
  O  O113  1  0.77012000  0.17025000  0.79139000  1.0
  O  O114  1  0.62749000  0.34285000  0.83240000  1.0
  O  O115  1  0.37250000  0.65715000  0.16760000  1.0
  O  O116  1  0.18142000  0.64789000  0.29906000  1.0
  O  O117  1  0.81856000  0.35212000  0.70094000  1.0
  O  O118  1  0.98321000  0.36306000  0.53142000  1.0
  O  O119  1  0.01680000  0.63695000  0.46856000  1.0
  O  O120  1  0.95160000  0.17016000  0.60330000  1.0
  O  O121  1  0.04840000  0.82982000  0.39669000  1.0
  O  O122  1  0.14522000  0.38075000  0.73469000  1.0
  O  O123  1  0.85480000  0.61925000  0.26532000  1.0
  O  O124  1  0.65757000  0.55963000  0.09122000  1.0
  O  O125  1  0.34243000  0.44037000  0.90878000  1.0
  O  O126  1  0.82788000  0.78242000  0.15212000  1.0
  O  O127  1  0.17212000  0.21758000  0.84788000  1.0
  O  O128  1  0.16047000  0.43701000  0.06175000  1.0
  O  O129  1  0.83952000  0.56299000  0.93824000  1.0
  O  O130  1  0.00750000  0.55189000  0.77985000  1.0
  O  O131  1  0.99250000  0.44812000  0.22016000  1.0
  O  O132  1  0.97010000  0.21813000  0.01566000  1.0
  O  O133  1  0.02990000  0.78187000  0.98434000  1.0
