# generated using pymatgen
data_Zn4H69C87S4(N9O4)3
_symmetry_space_group_name_H-M   'P 1'
_cell_length_a   19.07400000
_cell_length_b   19.32690000
_cell_length_c   20.05830000
_cell_angle_alpha   105.70300000
_cell_angle_beta   107.24100000
_cell_angle_gamma   112.50600000
_symmetry_Int_Tables_number   1
_chemical_formula_structural   Zn4H69C87S4(N9O4)3
_chemical_formula_sum   'Zn4 H69 C87 S4 N27 O12'
_cell_volume   5873.56155878
_cell_formula_units_Z   1
loop_
 _symmetry_equiv_pos_site_id
 _symmetry_equiv_pos_as_xyz
  1  'x, y, z'
loop_
 _atom_site_type_symbol
 _atom_site_label
 _atom_site_symmetry_multiplicity
 _atom_site_fract_x
 _atom_site_fract_y
 _atom_site_fract_z
 _atom_site_occupancy
  Zn  Zn0  1  0.87845000  0.89254000  0.44800000  1.0
  Zn  Zn1  1  0.09202000  0.08341000  0.50218000  1.0
  Zn  Zn2  1  0.12438000  0.00674000  0.63112000  1.0
  Zn  Zn3  1  0.88363000  0.99775000  0.36052000  1.0
  H  H4  1  0.88834000  0.86396000  0.68154000  1.0
  H  H5  1  0.15369000  0.27466000  0.52416000  1.0
  H  H6  1  0.83726000  0.12349000  0.45486000  1.0
  H  H7  1  0.04191000  0.21836000  0.59070000  1.0
  H  H8  1  0.14396000  0.90585000  0.74356000  1.0
  H  H9  1  0.68320000  0.72871000  0.33730000  1.0
  H  H10  1  0.27438000  0.14828000  0.50018000  1.0
  H  H11  1  0.13607000  0.86527000  0.53139000  1.0
  H  H12  1  0.85714000  0.81953000  0.26587000  1.0
  H  H13  1  0.13149000  0.97515000  0.38361000  1.0
  H  H14  1  0.32124000  0.04410000  0.66296000  1.0
  H  H15  1  0.34833000  0.04686000  0.45428000  1.0
  H  H16  1  0.49415000  0.19368000  0.70123000  1.0
  H  H17  1  0.83098000  0.16690000  0.67924000  1.0
  H  H18  1  0.68155000  0.02135000  0.43232000  1.0
  H  H19  1  0.53947000  0.00065000  0.36652000  1.0
  H  H20  1  0.41663000  0.01174000  0.37453000  1.0
  H  H21  1  0.05321000  0.71927000  0.60276000  1.0
  H  H22  1  0.07300000  0.36747000  0.56000000  1.0
  H  H23  1  0.00088000  0.30244000  0.31713000  1.0
  H  H24  1  0.97471000  0.39357000  0.26241000  1.0
  H  H25  1  0.96275000  0.51753000  0.27686000  1.0
  H  H26  1  0.08688000  0.24002000  0.84321000  1.0
  H  H27  1  0.17354000  0.37524000  0.96196000  1.0
  H  H28  1  0.41963000  0.49908000  0.12309000  1.0
  H  H29  1  0.56692000  0.61083000  0.22128000  1.0
  H  H30  1  0.15042000  0.36993000  0.70667000  1.0
  H  H31  1  0.37452000  0.67641000  0.05469000  1.0
  H  H32  1  0.22750000  0.50470000  0.82375000  1.0
  H  H33  1  0.52049000  0.78963000  0.15513000  1.0
  H  H34  1  0.86869000  0.78334000  0.15082000  1.0
  H  H35  1  0.88102000  0.73968000  0.02942000  1.0
  H  H36  1  0.87007000  0.79651000  0.74743000  1.0
  H  H37  1  0.13378000  0.86801000  0.28241000  1.0
  H  H38  1  0.10976000  0.79745000  0.93503000  1.0
  H  H39  1  0.14529000  0.82485000  0.15924000  1.0
  H  H40  1  0.12684000  0.84068000  0.83226000  1.0
  H  H41  1  0.79888000  0.58858000  0.38641000  1.0
  H  H42  1  0.71890000  0.93990000  0.21331000  1.0
  H  H43  1  0.63321000  0.86131000  0.07716000  1.0
  H  H44  1  0.59915000  0.76781000  0.08845000  1.0
  H  H45  1  0.70630000  0.82576000  0.10501000  1.0
  H  H46  1  0.71109000  0.31210000  0.81298000  1.0
  H  H47  1  0.66424000  0.19244000  0.84881000  1.0
  H  H48  1  0.55953000  0.16887000  0.79293000  1.0
  H  H49  1  0.62966000  0.26489000  0.87717000  1.0
  H  H50  1  0.79166000  0.26968000  0.81997000  1.0
  H  H51  1  0.85176000  0.37246000  0.76993000  1.0
  H  H52  1  0.87415000  0.29962000  0.71875000  1.0
  H  H53  1  0.92431000  0.34632000  0.82168000  1.0
  H  H54  1  0.96141000  0.70699000  0.36460000  1.0
  H  H55  1  0.84941000  0.61961000  0.24957000  1.0
  H  H56  1  0.84627000  0.53250000  0.26541000  1.0
  H  H57  1  0.91265000  0.57941000  0.22550000  1.0
  H  H58  1  0.02096000  0.70243000  0.73504000  1.0
  H  H59  1  0.09238000  0.52147000  0.70548000  1.0
  H  H60  1  0.94333000  0.41467000  0.64576000  1.0
  H  H61  1  0.01392000  0.38072000  0.68561000  1.0
  H  H62  1  0.96490000  0.34908000  0.58394000  1.0
  H  H63  1  0.23307000  0.28582000  0.87409000  1.0
  H  H64  1  0.84421000  0.74398000  0.90279000  1.0
  H  H65  1  0.72328000  0.74418000  0.83226000  1.0
  H  H66  1  0.74014000  0.72140000  0.74840000  1.0
  H  H67  1  0.79544000  0.82627000  0.82049000  1.0
  H  H68  1  0.90278000  0.96615000  0.61944000  1.0
  H  H69  1  0.84006000  0.97250000  0.70189000  1.0
  H  H70  1  0.76846000  0.99505000  0.64477000  1.0
  H  H71  1  0.87618000  0.07497000  0.70822000  1.0
  H  H72  1  0.88255000  0.25094000  0.34424000  1.0
  C  C73  1  0.95265000  0.88176000  0.68942000  1.0
  C  C74  1  0.09316000  0.23117000  0.47300000  1.0
  C  C75  1  0.11914000  0.15836000  0.71811000  1.0
  C  C76  1  0.84912000  0.08573000  0.48326000  1.0
  C  C77  1  0.06689000  0.19201000  0.62626000  1.0
  C  C78  1  0.85704000  0.01760000  0.55609000  1.0
  C  C79  1  0.97167000  0.16738000  0.36939000  1.0
  C  C80  1  0.08283000  0.90240000  0.72126000  1.0
  C  C81  1  0.01101000  0.86330000  0.73246000  1.0
  C  C82  1  0.03660000  0.24772000  0.42651000  1.0
  C  C83  1  0.09672000  0.21758000  0.70662000  1.0
  C  C84  1  0.82747000  0.07212000  0.54145000  1.0
  C  C85  1  0.69669000  0.77298000  0.31274000  1.0
  C  C86  1  0.27211000  0.11897000  0.53934000  1.0
  C  C87  1  0.06916000  0.84400000  0.51484000  1.0
  C  C88  1  0.92366000  0.86502000  0.30447000  1.0
  C  C89  1  0.06347000  0.94459000  0.36514000  1.0
  C  C90  1  0.93272000  0.77473000  0.47978000  1.0
  C  C91  1  0.69501000  0.84735000  0.24524000  1.0
  C  C92  1  0.29634000  0.06667000  0.62301000  1.0
  C  C93  1  0.64343000  0.77182000  0.24618000  1.0
  C  C94  1  0.33339000  0.10486000  0.58251000  1.0
  C  C95  1  0.00382000  0.76425000  0.49310000  1.0
  C  C96  1  0.99652000  0.87414000  0.29606000  1.0
  C  C97  1  0.40889000  0.08037000  0.50643000  1.0
  C  C98  1  0.41280000  0.11720000  0.57886000  1.0
  C  C99  1  0.49063000  0.16058000  0.64584000  1.0
  C  C100  1  0.56422000  0.16338000  0.64243000  1.0
  C  C101  1  0.55846000  0.12130000  0.56886000  1.0
  C  C102  1  0.48042000  0.08152000  0.50010000  1.0
  C  C103  1  0.64599000  0.20991000  0.71001000  1.0
  C  C104  1  0.71625000  0.20764000  0.70465000  1.0
  C  C105  1  0.70798000  0.15634000  0.63188000  1.0
  C  C106  1  0.62965000  0.11749000  0.56384000  1.0
  C  C107  1  0.62154000  0.07080000  0.49069000  1.0
  C  C108  1  0.54367000  0.03428000  0.42222000  1.0
  C  C109  1  0.47609000  0.04013000  0.42670000  1.0
  C  C110  1  0.77308000  0.14101000  0.62657000  1.0
  C  C111  1  0.76382000  0.09164000  0.55532000  1.0
  C  C112  1  0.68884000  0.05930000  0.48800000  1.0
  C  C113  1  0.98160000  0.63004000  0.40667000  1.0
  C  C114  1  0.00738000  0.68743000  0.48272000  1.0
  C  C115  1  0.03558000  0.67275000  0.54684000  1.0
  C  C116  1  0.03826000  0.59949000  0.54040000  1.0
  C  C117  1  0.01366000  0.54147000  0.46451000  1.0
  C  C118  1  0.98820000  0.55755000  0.39811000  1.0
  C  C119  1  0.06016000  0.57881000  0.60498000  1.0
  C  C120  1  0.05593000  0.50255000  0.59497000  1.0
  C  C121  1  0.04153000  0.44908000  0.51956000  1.0
  C  C122  1  0.01861000  0.46798000  0.45519000  1.0
  C  C123  1  0.00321000  0.41339000  0.38136000  1.0
  C  C124  1  0.98308000  0.43370000  0.31766000  1.0
  C  C125  1  0.97567000  0.50266000  0.32600000  1.0
  C  C126  1  0.05231000  0.37957000  0.50987000  1.0
  C  C127  1  0.03579000  0.32545000  0.43728000  1.0
  C  C128  1  0.01057000  0.34230000  0.37326000  1.0
  C  C129  1  0.55553000  0.70797000  0.19317000  1.0
  C  C130  1  0.49861000  0.72558000  0.14704000  1.0
  C  C131  1  0.41720000  0.66318000  0.09188000  1.0
  C  C132  1  0.38940000  0.58052000  0.08171000  1.0
  C  C133  1  0.44284000  0.56337000  0.13148000  1.0
  C  C134  1  0.52474000  0.62591000  0.18586000  1.0
  C  C135  1  0.16692000  0.37315000  0.90549000  1.0
  C  C136  1  0.11977000  0.29792000  0.83929000  1.0
  C  C137  1  0.21066000  0.44753000  0.90044000  1.0
  C  C138  1  0.11854000  0.29484000  0.76761000  1.0
  C  C139  1  0.15250000  0.37037000  0.76173000  1.0
  C  C140  1  0.19648000  0.44613000  0.82718000  1.0
  C  C141  1  0.99937000  0.82354000  0.78322000  1.0
  C  C142  1  0.06591000  0.81867000  0.83419000  1.0
  C  C143  1  0.05709000  0.79555000  0.89234000  1.0
  C  C144  1  0.98216000  0.77469000  0.90133000  1.0
  C  C145  1  0.91147000  0.77092000  0.84499000  1.0
  C  C146  1  0.92192000  0.79511000  0.78728000  1.0
  C  C147  1  0.93594000  0.76721000  0.08503000  1.0
  C  C148  1  0.92949000  0.79153000  0.15341000  1.0
  C  C149  1  0.01515000  0.78307000  0.08649000  1.0
  C  C150  1  0.00130000  0.83240000  0.22625000  1.0
  C  C151  1  0.07792000  0.83986000  0.22708000  1.0
  C  C152  1  0.08474000  0.81522000  0.15836000  1.0
  C  C153  1  0.65275000  0.83085000  0.11179000  1.0
  C  C154  1  0.62586000  0.21956000  0.82733000  1.0
  C  C155  1  0.86485000  0.32147000  0.77013000  1.0
  C  C156  1  0.88804000  0.59211000  0.26783000  1.0
  C  C157  1  0.99316000  0.40079000  0.64098000  1.0
  C  C158  1  0.77140000  0.76085000  0.81124000  1.0
  C  C159  1  0.83431000  0.00799000  0.66825000  1.0
  S  S160  1  0.83067000  0.70791000  0.46370000  1.0
  S  S161  1  0.09605000  0.65567000  0.69956000  1.0
  S  S162  1  0.17881000  0.15617000  0.80303000  1.0
  S  S163  1  0.87433000  0.13458000  0.29426000  1.0
  N  N164  1  0.98577000  0.92784000  0.65627000  1.0
  N  N165  1  0.06295000  0.14834000  0.44552000  1.0
  N  N166  1  0.10279000  0.10302000  0.65006000  1.0
  N  N167  1  0.88701000  0.04369000  0.46326000  1.0
  N  N168  1  0.07142000  0.12374000  0.59385000  1.0
  N  N169  1  0.89059000  0.99977000  0.50686000  1.0
  N  N170  1  0.98706000  0.10807000  0.38147000  1.0
  N  N171  1  0.06657000  0.94026000  0.67605000  1.0
  N  N172  1  0.77256000  0.84275000  0.34934000  1.0
  N  N173  1  0.20406000  0.09160000  0.55348000  1.0
  N  N174  1  0.03959000  0.89767000  0.51559000  1.0
  N  N175  1  0.94542000  0.92670000  0.37260000  1.0
  N  N176  1  0.03199000  0.97499000  0.40920000  1.0
  N  N177  1  0.95512000  0.85430000  0.49260000  1.0
  N  N178  1  0.77251000  0.88868000  0.30705000  1.0
  N  N179  1  0.21864000  0.05818000  0.60462000  1.0
  N  N180  1  0.31482000  0.51035000  0.02025000  1.0
  N  N181  1  0.27686000  0.52289000  0.96473000  1.0
  N  N182  1  0.97084000  0.76751000  0.96434000  1.0
  N  N183  1  0.03162000  0.77654000  0.02154000  1.0
  N  N184  1  0.67492000  0.87890000  0.19255000  1.0
  N  N185  1  0.65227000  0.26046000  0.78026000  1.0
  N  N186  1  0.79652000  0.25172000  0.76972000  1.0
  N  N187  1  0.95527000  0.64968000  0.34620000  1.0
  N  N188  1  0.06743000  0.47408000  0.65212000  1.0
  N  N189  1  0.83794000  0.74763000  0.85187000  1.0
  N  N190  1  0.85618000  0.98191000  0.60631000  1.0
  O  O191  1  0.83484000  0.67253000  0.51812000  1.0
  O  O192  1  0.78380000  0.75085000  0.45419000  1.0
  O  O193  1  0.79000000  0.63303000  0.37849000  1.0
  O  O194  1  0.12284000  0.62833000  0.75794000  1.0
  O  O195  1  0.15560000  0.73659000  0.71080000  1.0
  O  O196  1  0.00857000  0.65270000  0.69125000  1.0
  O  O197  1  0.12965000  0.13526000  0.84403000  1.0
  O  O198  1  0.21931000  0.11041000  0.78180000  1.0
  O  O199  1  0.25499000  0.25075000  0.85294000  1.0
  O  O200  1  0.88322000  0.14672000  0.22912000  1.0
  O  O201  1  0.81685000  0.05226000  0.28328000  1.0
  O  O202  1  0.84303000  0.19280000  0.33280000  1.0
