# generated using pymatgen
data_ZnH28C30(N4O3)2
_symmetry_space_group_name_H-M   'P 1'
_cell_length_a   5.44650000
_cell_length_b   11.57040000
_cell_length_c   11.80450000
_cell_angle_alpha   66.65700000
_cell_angle_beta   85.78330000
_cell_angle_gamma   82.93230000
_symmetry_Int_Tables_number   1
_chemical_formula_structural   ZnH28C30(N4O3)2
_chemical_formula_sum   'Zn1 H28 C30 N8 O6'
_cell_volume   677.56905285
_cell_formula_units_Z   1
loop_
 _symmetry_equiv_pos_site_id
 _symmetry_equiv_pos_as_xyz
  1  'x, y, z'
loop_
 _atom_site_type_symbol
 _atom_site_label
 _atom_site_symmetry_multiplicity
 _atom_site_fract_x
 _atom_site_fract_y
 _atom_site_fract_z
 _atom_site_occupancy
  Zn  Zn0  1  0.00000000  0.00000000  0.00000000  1.0
  H  H1  1  0.88157000  0.63460000  0.57448000  1.0
  H  H2  1  0.11844000  0.36541000  0.42552000  1.0
  H  H3  1  0.89209000  0.85423000  0.55855000  1.0
  H  H4  1  0.10791000  0.14579000  0.44145000  1.0
  H  H5  1  0.53923000  0.95831000  0.64095000  1.0
  H  H6  1  0.46073000  0.04171000  0.35904000  1.0
  H  H7  1  0.17775000  0.84153000  0.74259000  1.0
  H  H8  1  0.82225000  0.15847000  0.25741000  1.0
  H  H9  1  0.16310000  0.62234000  0.75468000  1.0
  H  H10  1  0.83692000  0.37766000  0.24533000  1.0
  H  H11  1  0.87779000  0.40501000  0.62389000  1.0
  H  H12  1  0.12220000  0.59500000  0.37610000  1.0
  H  H13  1  0.74093000  0.21892000  0.53796000  1.0
  H  H14  1  0.25907000  0.78108000  0.46204000  1.0
  H  H15  1  0.49096000  0.14395000  0.63319000  1.0
  H  H16  1  0.50903000  0.85606000  0.36681000  1.0
  H  H17  1  0.64785000  0.85045000  0.91287000  1.0
  H  H18  1  0.35214000  0.14954000  0.08713000  1.0
  H  H19  1  0.65192000  0.64360000  0.90101000  1.0
  H  H20  1  0.34808000  0.35638000  0.09900000  1.0
  H  H21  1  0.33767000  0.53036000  0.09944000  1.0
  H  H22  1  0.66233000  0.46963000  0.90055000  1.0
  H  H23  1  0.31132000  0.74609000  0.09485000  1.0
  H  H24  1  0.68867000  0.25390000  0.90515000  1.0
  H  H25  1  0.76848000  0.97478000  0.19512000  1.0
  H  H26  1  0.23153000  0.02521000  0.80489000  1.0
  H  H27  1  0.54448000  0.94841000  0.12764000  1.0
  H  H28  1  0.45553000  0.05159000  0.87236000  1.0
  C  C29  1  0.52008000  0.61401000  0.66506000  1.0
  C  C30  1  0.47992000  0.38599000  0.33495000  1.0
  C  C31  1  0.72779000  0.67954000  0.61193000  1.0
  C  C32  1  0.27223000  0.32046000  0.38808000  1.0
  C  C33  1  0.73431000  0.80266000  0.60379000  1.0
  C  C34  1  0.26566000  0.19737000  0.39622000  1.0
  C  C35  1  0.53606000  0.86120000  0.65009000  1.0
  C  C36  1  0.46393000  0.13880000  0.34991000  1.0
  C  C37  1  0.33199000  0.79570000  0.70643000  1.0
  C  C38  1  0.66798000  0.20431000  0.29358000  1.0
  C  C39  1  0.32396000  0.67297000  0.71370000  1.0
  C  C40  1  0.67606000  0.32701000  0.28631000  1.0
  C  C41  1  0.50038000  0.48930000  0.66494000  1.0
  C  C42  1  0.49962000  0.51071000  0.33505000  1.0
  C  C43  1  0.67944000  0.40497000  0.64078000  1.0
  C  C44  1  0.32058000  0.59504000  0.35922000  1.0
  C  C45  1  0.65227000  0.19370000  0.62975000  1.0
  C  C46  1  0.34773000  0.80630000  0.37026000  1.0
  C  C47  1  0.83670000  0.10920000  0.72893000  1.0
  C  C48  1  0.16329000  0.89080000  0.27108000  1.0
  C  C49  1  0.79976000  0.77731000  0.95245000  1.0
  C  C50  1  0.20025000  0.22268000  0.04754000  1.0
  C  C51  1  0.80214000  0.65881000  0.94785000  1.0
  C  C52  1  0.19787000  0.34118000  0.05215000  1.0
  C  C53  1  0.99541000  0.56398000  0.00099000  1.0
  C  C54  1  0.00462000  0.43601000  0.99899000  1.0
  C  C55  1  0.18092000  0.59738000  0.05539000  1.0
  C  C56  1  0.81908000  0.40261000  0.94459000  1.0
  C  C57  1  0.16729000  0.71850000  0.05437000  1.0
  C  C58  1  0.83273000  0.28150000  0.94562000  1.0
  N  N59  1  0.27876000  0.43770000  0.68626000  1.0
  N  N60  1  0.72124000  0.56231000  0.31375000  1.0
  N  N61  1  0.31195000  0.32792000  0.67614000  1.0
  N  N62  1  0.68806000  0.67209000  0.32386000  1.0
  N  N63  1  0.55531000  0.30763000  0.64809000  1.0
  N  N64  1  0.44469000  0.69237000  0.35191000  1.0
  N  N65  1  0.97954000  0.80813000  0.00456000  1.0
  N  N66  1  0.02045000  0.19186000  0.99543000  1.0
  O  O67  1  0.76596000  0.08768000  0.84108000  1.0
  O  O68  1  0.23403000  0.91231000  0.15892000  1.0
  O  O69  1  0.03855000  0.06743000  0.69380000  1.0
  O  O70  1  0.96145000  0.93258000  0.30619000  1.0
  O  O71  1  0.68370000  0.00065000  0.11410000  1.0
  O  O72  1  0.31631000  0.99934000  0.88590000  1.0
