# generated using pymatgen
data_AlH4C9NClO5F
_symmetry_space_group_name_H-M   'P 1'
_cell_length_a   6.70663000
_cell_length_b   8.91380000
_cell_length_c   16.86880000
_cell_angle_alpha   100.89200000
_cell_angle_beta   95.54670000
_cell_angle_gamma   105.77870000
_symmetry_Int_Tables_number   1
_chemical_formula_structural   AlH4C9NClO5F
_chemical_formula_sum   'Al2 H8 C18 N2 Cl2 O10 F2'
_cell_volume   941.19541991
_cell_formula_units_Z   2
loop_
 _symmetry_equiv_pos_site_id
 _symmetry_equiv_pos_as_xyz
  1  'x, y, z'
loop_
 _atom_site_type_symbol
 _atom_site_label
 _atom_site_symmetry_multiplicity
 _atom_site_fract_x
 _atom_site_fract_y
 _atom_site_fract_z
 _atom_site_occupancy
  Al  Al0  1  0.00000000  0.49997000  0.49999000  1.0
  Al  Al1  1  0.49999000  0.49998000  0.49999000  1.0
  H  H2  1  0.16725000  0.32555000  0.42007000  1.0
  H  H3  1  0.83270000  0.67427000  0.58000000  1.0
  H  H4  1  0.62487000  0.47525000  0.72965000  1.0
  H  H5  1  0.69450000  0.47576000  0.87832000  1.0
  H  H6  1  0.07297000  0.50955000  0.90204000  1.0
  H  H7  1  0.92707000  0.49058000  0.09797000  1.0
  H  H8  1  0.30545000  0.52419000  0.12167000  1.0
  H  H9  1  0.37508000  0.52471000  0.27034000  1.0
  C  C10  1  0.64933000  0.21532000  0.48723000  1.0
  C  C11  1  0.70899000  0.49945000  0.35641000  1.0
  C  C12  1  0.35071000  0.78463000  0.51277000  1.0
  C  C13  1  0.29097000  0.50054000  0.64358000  1.0
  C  C14  1  0.31486000  0.49483000  0.73186000  1.0
  C  C15  1  0.50649000  0.48323000  0.76866000  1.0
  C  C16  1  0.54526000  0.48341000  0.85069000  1.0
  C  C17  1  0.38868000  0.49434000  0.89947000  1.0
  C  C18  1  0.19481000  0.50243000  0.86446000  1.0
  C  C19  1  0.16140000  0.50328000  0.78204000  1.0
  C  C20  1  0.80522000  0.49766000  0.13555000  1.0
  C  C21  1  0.61132000  0.50570000  0.10053000  1.0
  C  C22  1  0.45471000  0.51659000  0.14931000  1.0
  C  C23  1  0.49348000  0.51677000  0.23134000  1.0
  C  C24  1  0.68512000  0.50520000  0.26814000  1.0
  C  C25  1  0.83861000  0.49682000  0.21797000  1.0
  C  C26  1  0.58107000  0.03803000  0.48292000  1.0
  C  C27  1  0.41894000  0.96192000  0.51707000  1.0
  N  N28  1  0.40935000  0.49762000  0.98405000  1.0
  N  N29  1  0.59065000  0.50241000  0.01595000  1.0
  Cl  Cl30  1  0.72916000  0.93783000  0.42945000  1.0
  Cl  Cl31  1  0.27082000  0.06212000  0.57053000  1.0
  O  O32  1  0.84556000  0.28223000  0.49794000  1.0
  O  O33  1  0.55428000  0.51423000  0.39220000  1.0
  O  O34  1  0.49416000  0.71872000  0.52186000  1.0
  O  O35  1  0.12475000  0.52238000  0.61123000  1.0
  O  O36  1  0.15452000  0.71769000  0.50204000  1.0
  O  O37  1  0.44568000  0.48574000  0.60778000  1.0
  O  O38  1  0.50595000  0.28127000  0.47815000  1.0
  O  O39  1  0.87520000  0.47760000  0.38876000  1.0
  O  O40  1  0.21350000  0.42666000  0.45985000  1.0
  O  O41  1  0.78648000  0.57328000  0.54013000  1.0
  F  F42  1  0.97176000  0.51286000  0.75143000  1.0
  F  F43  1  0.02830000  0.48733000  0.24860000  1.0
