# generated using pymatgen
data_NaH7C4O7
_symmetry_space_group_name_H-M   'P 1'
_cell_length_a   7.07245000
_cell_length_b   9.06458000
_cell_length_c   10.99320000
_cell_angle_alpha   73.93400000
_cell_angle_beta   89.99990000
_cell_angle_gamma   89.99990000
_symmetry_Int_Tables_number   1
_chemical_formula_structural   NaH7C4O7
_chemical_formula_sum   'Na4 H28 C16 O28'
_cell_volume   677.23528252
_cell_formula_units_Z   4
loop_
 _symmetry_equiv_pos_site_id
 _symmetry_equiv_pos_as_xyz
  1  'x, y, z'
loop_
 _atom_site_type_symbol
 _atom_site_label
 _atom_site_symmetry_multiplicity
 _atom_site_fract_x
 _atom_site_fract_y
 _atom_site_fract_z
 _atom_site_occupancy
  Na  Na0  1  0.38561000  0.71525000  0.30855000  1.0
  Na  Na1  1  0.88561000  0.78475000  0.19145000  1.0
  Na  Na2  1  0.61439000  0.28475000  0.69145000  1.0
  Na  Na3  1  0.11439000  0.21526000  0.80855000  1.0
  H  H4  1  0.70914000  0.67158000  0.91998000  1.0
  H  H5  1  0.20914000  0.82843000  0.58002000  1.0
  H  H6  1  0.29086000  0.32843000  0.08001000  1.0
  H  H7  1  0.79086000  0.17157000  0.41999000  1.0
  H  H8  1  0.31083000  0.03376000  0.22177000  1.0
  H  H9  1  0.81084000  0.46624000  0.27823000  1.0
  H  H10  1  0.68916000  0.96624000  0.77823000  1.0
  H  H11  1  0.18916000  0.53376000  0.72177000  1.0
  H  H12  1  0.46236000  0.05218000  0.32582000  1.0
  H  H13  1  0.96237000  0.44782000  0.17418000  1.0
  H  H14  1  0.53764000  0.94782000  0.67418000  1.0
  H  H15  1  0.03763000  0.55218000  0.82581000  1.0
  H  H16  1  0.21478000  0.60462000  0.03253000  1.0
  H  H17  1  0.71478000  0.89538000  0.46747000  1.0
  H  H18  1  0.78522000  0.39538000  0.96746000  1.0
  H  H19  1  0.28522000  0.10462000  0.53254000  1.0
  H  H20  1  0.21277000  0.89748000  0.07932000  1.0
  H  H21  1  0.71277000  0.60252000  0.42068000  1.0
  H  H22  1  0.78722000  0.10252000  0.92068000  1.0
  H  H23  1  0.28722000  0.39748000  0.57932000  1.0
  H  H24  1  0.25917000  0.77086000  0.81044000  1.0
  H  H25  1  0.75917000  0.72914000  0.68956000  1.0
  H  H26  1  0.74083000  0.22915000  0.18955000  1.0
  H  H27  1  0.24083000  0.27085000  0.31045000  1.0
  H  H28  1  0.38985000  0.98698000  0.82083000  1.0
  H  H29  1  0.88985000  0.51302000  0.67917000  1.0
  H  H30  1  0.61015000  0.01303000  0.17917000  1.0
  H  H31  1  0.11015000  0.48697000  0.32083000  1.0
  C  C32  1  0.48906000  0.70896000  0.01970000  1.0
  C  C33  1  0.98906000  0.79105000  0.48031000  1.0
  C  C34  1  0.51095000  0.29105000  0.98031000  1.0
  C  C35  1  0.01095000  0.20895000  0.51969000  1.0
  C  C36  1  0.27270000  0.72135000  0.01434000  1.0
  C  C37  1  0.77270000  0.77865000  0.48566000  1.0
  C  C38  1  0.72730000  0.27865000  0.98565000  1.0
  C  C39  1  0.22730000  0.22135000  0.51435000  1.0
  C  C40  1  0.20317000  0.81967000  0.88440000  1.0
  C  C41  1  0.70317000  0.68033000  0.61560000  1.0
  C  C42  1  0.79683000  0.18034000  0.11560000  1.0
  C  C43  1  0.29683000  0.31966000  0.38440000  1.0
  C  C44  1  0.98660000  0.81158000  0.88089000  1.0
  C  C45  1  0.48660000  0.68843000  0.61911000  1.0
  C  C46  1  0.01340000  0.18843000  0.11911000  1.0
  C  C47  1  0.51340000  0.31157000  0.38089000  1.0
  O  O48  1  0.56030000  0.66813000  0.92287000  1.0
  O  O49  1  0.06030000  0.83187000  0.57712000  1.0
  O  O50  1  0.43970000  0.33187000  0.07712000  1.0
  O  O51  1  0.93971000  0.16813000  0.42288000  1.0
  O  O52  1  0.42641000  0.98788000  0.26954000  1.0
  O  O53  1  0.92642000  0.51212000  0.23046000  1.0
  O  O54  1  0.57358000  0.01212000  0.73046000  1.0
  O  O55  1  0.07358000  0.48787000  0.76954000  1.0
  O  O56  1  0.58073000  0.73478000  0.10700000  1.0
  O  O57  1  0.08074000  0.76521000  0.39299000  1.0
  O  O58  1  0.41926000  0.26522000  0.89298000  1.0
  O  O59  1  0.91926000  0.23478000  0.60702000  1.0
  O  O60  1  0.20301000  0.78466000  0.11052000  1.0
  O  O61  1  0.70301000  0.71534000  0.38948000  1.0
  O  O62  1  0.79699000  0.21534000  0.88947000  1.0
  O  O63  1  0.29699000  0.28466000  0.61053000  1.0
  O  O64  1  0.26331000  0.97316000  0.86569000  1.0
  O  O65  1  0.76331000  0.52684000  0.63431000  1.0
  O  O66  1  0.73668000  0.02685000  0.13430000  1.0
  O  O67  1  0.23669000  0.47315000  0.36570000  1.0
  O  O68  1  0.89106000  0.93230000  0.86492000  1.0
  O  O69  1  0.39106000  0.56770000  0.63508000  1.0
  O  O70  1  0.10893000  0.06770000  0.13508000  1.0
  O  O71  1  0.60894000  0.43229000  0.36492000  1.0
  O  O72  1  0.91715000  0.67637000  0.89664000  1.0
  O  O73  1  0.41715000  0.82364000  0.60336000  1.0
  O  O74  1  0.08285000  0.32363000  0.10335000  1.0
  O  O75  1  0.58285000  0.17636000  0.39665000  1.0
