# generated using pymatgen
data_ZnH42C54S2(N4O3)2
_symmetry_space_group_name_H-M   'P 1'
_cell_length_a   10.73210000
_cell_length_b   11.88090000
_cell_length_c   12.07330000
_cell_angle_alpha   109.72800000
_cell_angle_beta   106.02800000
_cell_angle_gamma   97.74260000
_symmetry_Int_Tables_number   1
_chemical_formula_structural   ZnH42C54S2(N4O3)2
_chemical_formula_sum   'Zn1 H42 C54 S2 N8 O6'
_cell_volume   1347.82228473
_cell_formula_units_Z   1
loop_
 _symmetry_equiv_pos_site_id
 _symmetry_equiv_pos_as_xyz
  1  'x, y, z'
loop_
 _atom_site_type_symbol
 _atom_site_label
 _atom_site_symmetry_multiplicity
 _atom_site_fract_x
 _atom_site_fract_y
 _atom_site_fract_z
 _atom_site_occupancy
  Zn  Zn0  1  0.50000000  0.50001000  0.50000000  1.0
  H  H1  1  0.54159000  0.22767000  0.51548000  1.0
  H  H2  1  0.45840000  0.77234000  0.48453000  1.0
  H  H3  1  0.73956000  0.21916000  0.71471000  1.0
  H  H4  1  0.26043000  0.78086000  0.28529000  1.0
  H  H5  1  0.76642000  0.59180000  0.75686000  1.0
  H  H6  1  0.23358000  0.40821000  0.24313000  1.0
  H  H7  1  0.55354000  0.79382000  0.69759000  1.0
  H  H8  1  0.44648000  0.20618000  0.30241000  1.0
  H  H9  1  0.37189000  0.45670000  0.69894000  1.0
  H  H10  1  0.62811000  0.54330000  0.30105000  1.0
  H  H11  1  0.37246000  0.65164000  0.91055000  1.0
  H  H12  1  0.62756000  0.34835000  0.08945000  1.0
  H  H13  1  0.68342000  0.77388000  0.98762000  1.0
  H  H14  1  0.31659000  0.22612000  0.01240000  1.0
  H  H15  1  0.87465000  0.86674000  0.18641000  1.0
  H  H16  1  0.12536000  0.13325000  0.81359000  1.0
  H  H17  1  0.90099000  0.07729000  0.34163000  1.0
  H  H18  1  0.09904000  0.92269000  0.65839000  1.0
  H  H19  1  0.73451000  0.19572000  0.29823000  1.0
  H  H20  1  0.26553000  0.80427000  0.70179000  1.0
  H  H21  1  0.95835000  0.34129000  0.68156000  1.0
  H  H22  1  0.04165000  0.65874000  0.31845000  1.0
  H  H23  1  0.17835000  0.30408000  0.68304000  1.0
  H  H24  1  0.82163000  0.69593000  0.31696000  1.0
  H  H25  1  0.36942000  0.37910000  0.88689000  1.0
  H  H26  1  0.63055000  0.62088000  0.11311000  1.0
  H  H27  1  0.33859000  0.48761000  0.08685000  1.0
  H  H28  1  0.66141000  0.51238000  0.91316000  1.0
  H  H29  1  0.82317000  0.17439000  0.88086000  1.0
  H  H30  1  0.17680000  0.82558000  0.11912000  1.0
  H  H31  1  0.77596000  0.29885000  0.97788000  1.0
  H  H32  1  0.22402000  0.70114000  0.02211000  1.0
  H  H33  1  0.71439000  0.14513000  0.95978000  1.0
  H  H34  1  0.28559000  0.85486000  0.04022000  1.0
  H  H35  1  0.00590000  0.09778000  0.96628000  1.0
  H  H36  1  0.99409000  0.90220000  0.03371000  1.0
  H  H37  1  0.18476000  0.09802000  0.14855000  1.0
  H  H38  1  0.81523000  0.90199000  0.85145000  1.0
  H  H39  1  0.04653000  0.36082000  0.39959000  1.0
  H  H40  1  0.95348000  0.63919000  0.60039000  1.0
  H  H41  1  0.86734000  0.36042000  0.21817000  1.0
  H  H42  1  0.13264000  0.63958000  0.78181000  1.0
  C  C43  1  0.61950000  0.30230000  0.59387000  1.0
  C  C44  1  0.38049000  0.69771000  0.40613000  1.0
  C  C45  1  0.71541000  0.29639000  0.69254000  1.0
  C  C46  1  0.28458000  0.70362000  0.30747000  1.0
  C  C47  1  0.73032000  0.49201000  0.71623000  1.0
  C  C48  1  0.26968000  0.50800000  0.28377000  1.0
  C  C49  1  0.50207000  0.72699000  0.72413000  1.0
  C  C50  1  0.49794000  0.27301000  0.27588000  1.0
  C  C51  1  0.41027000  0.55565000  0.73193000  1.0
  C  C52  1  0.58973000  0.44435000  0.26806000  1.0
  C  C53  1  0.40905000  0.65026000  0.83520000  1.0
  C  C54  1  0.59097000  0.34974000  0.16480000  1.0
  C  C55  1  0.38927000  0.94651000  0.88377000  1.0
  C  C56  1  0.61074000  0.05349000  0.11624000  1.0
  C  C57  1  0.48454000  0.88137000  0.91469000  1.0
  C  C58  1  0.51548000  0.11863000  0.08533000  1.0
  C  C59  1  0.59519000  0.93085000  0.02691000  1.0
  C  C60  1  0.40482000  0.06915000  0.97310000  1.0
  C  C61  1  0.69356000  0.86562000  0.05529000  1.0
  C  C62  1  0.30645000  0.13438000  0.94472000  1.0
  C  C63  1  0.80034000  0.91779000  0.16596000  1.0
  C  C64  1  0.19968000  0.08220000  0.83404000  1.0
  C  C65  1  0.81480000  0.03746000  0.25486000  1.0
  C  C66  1  0.18523000  0.96252000  0.74516000  1.0
  C  C67  1  0.72250000  0.10347000  0.23045000  1.0
  C  C68  1  0.27752000  0.89653000  0.76956000  1.0
  C  C69  1  0.87241000  0.52333000  0.99821000  1.0
  C  C70  1  0.12758000  0.47667000  0.00180000  1.0
  C  C71  1  0.89387000  0.45954000  0.88619000  1.0
  C  C72  1  0.10613000  0.54046000  0.11382000  1.0
  C  C73  1  0.01793000  0.43483000  0.88423000  1.0
  C  C74  1  0.98206000  0.56517000  0.11578000  1.0
  C  C75  1  0.04058000  0.37283000  0.77043000  1.0
  C  C76  1  0.95940000  0.62717000  0.22957000  1.0
  C  C77  1  0.16390000  0.35282000  0.77134000  1.0
  C  C78  1  0.83610000  0.64718000  0.22866000  1.0
  C  C79  1  0.27182000  0.39529000  0.88713000  1.0
  C  C80  1  0.72816000  0.60470000  0.11287000  1.0
  C  C81  1  0.25477000  0.45552000  0.99894000  1.0
  C  C82  1  0.74522000  0.54446000  0.00107000  1.0
  C  C83  1  0.80287000  0.21113000  0.96870000  1.0
  C  C84  1  0.19711000  0.78885000  0.03129000  1.0
  C  C85  1  0.92043000  0.22506000  0.07883000  1.0
  C  C86  1  0.07955000  0.77493000  0.92116000  1.0
  C  C87  1  0.01369000  0.15525000  0.06113000  1.0
  C  C88  1  0.98630000  0.84474000  0.93885000  1.0
  C  C89  1  0.11430000  0.15478000  0.16291000  1.0
  C  C90  1  0.88570000  0.84522000  0.83708000  1.0
  C  C91  1  0.12324000  0.22603000  0.28456000  1.0
  C  C92  1  0.87676000  0.77398000  0.71542000  1.0
  C  C93  1  0.03617000  0.30254000  0.30414000  1.0
  C  C94  1  0.96383000  0.69747000  0.69584000  1.0
  C  C95  1  0.93610000  0.30199000  0.20195000  1.0
  C  C96  1  0.06389000  0.69801000  0.79804000  1.0
  S  S97  1  0.24666000  0.22332000  0.41686000  1.0
  S  S98  1  0.75334000  0.77669000  0.58313000  1.0
  N  N99  1  0.63049000  0.42452000  0.60982000  1.0
  N  N100  1  0.36952000  0.57549000  0.39018000  1.0
  N  N101  1  0.78540000  0.41798000  0.77033000  1.0
  N  N102  1  0.21459000  0.58203000  0.22967000  1.0
  N  N103  1  0.46848000  0.60492000  0.66431000  1.0
  N  N104  1  0.53152000  0.39508000  0.33569000  1.0
  N  N105  1  0.46723000  0.75850000  0.82876000  1.0
  N  N106  1  0.53280000  0.24150000  0.17125000  1.0
  O  O107  1  0.33544000  0.35051000  0.47730000  1.0
  O  O108  1  0.66457000  0.64950000  0.52269000  1.0
  O  O109  1  0.17463000  0.19787000  0.49572000  1.0
  O  O110  1  0.82537000  0.80215000  0.50428000  1.0
  O  O111  1  0.31473000  0.12908000  0.36721000  1.0
  O  O112  1  0.68526000  0.87092000  0.63278000  1.0
