# generated using pymatgen
data_Gd2U3H26(C3O4)10
_symmetry_space_group_name_H-M   'P 1'
_cell_length_a   10.57970000
_cell_length_b   11.54710000
_cell_length_c   13.51310000
_cell_angle_alpha   66.75880000
_cell_angle_beta   77.74180000
_cell_angle_gamma   62.95500000
_symmetry_Int_Tables_number   1
_chemical_formula_structural   Gd2U3H26(C3O4)10
_chemical_formula_sum   'Gd2 U3 H26 C30 O40'
_cell_volume   1349.90292238
_cell_formula_units_Z   1
loop_
 _symmetry_equiv_pos_site_id
 _symmetry_equiv_pos_as_xyz
  1  'x, y, z'
loop_
 _atom_site_type_symbol
 _atom_site_label
 _atom_site_symmetry_multiplicity
 _atom_site_fract_x
 _atom_site_fract_y
 _atom_site_fract_z
 _atom_site_occupancy
  Gd  Gd0  1  0.58831000  0.24334000  0.74440000  1.0
  Gd  Gd1  1  0.41169000  0.75666000  0.25560000  1.0
  U  U2  1  0.00001000  0.50000000  0.50001000  1.0
  U  U3  1  0.62060000  0.71162000  0.84206000  1.0
  U  U4  1  0.37940000  0.28838000  0.15794000  1.0
  H  H5  1  0.09433000  0.36741000  0.96665000  1.0
  H  H6  1  0.90567000  0.63258000  0.03335000  1.0
  H  H7  1  0.15613000  0.10295000  0.73338000  1.0
  H  H8  1  0.84387000  0.89704000  0.26661000  1.0
  H  H9  1  0.72720000  0.00515000  0.40724000  1.0
  H  H10  1  0.27280000  0.99485000  0.59276000  1.0
  H  H11  1  0.84051000  0.00615000  0.85709000  1.0
  H  H12  1  0.15949000  0.99385000  0.14291000  1.0
  H  H13  1  0.74158000  0.92890000  0.86931000  1.0
  H  H14  1  0.25842000  0.07110000  0.13069000  1.0
  H  H15  1  0.49725000  0.51848000  0.78287000  1.0
  H  H16  1  0.50275000  0.48152000  0.21713000  1.0
  H  H17  1  0.49541000  0.40403000  0.89644000  1.0
  H  H18  1  0.50459000  0.59596000  0.10356000  1.0
  H  H19  1  0.37772000  0.46860000  0.57553000  1.0
  H  H20  1  0.62228000  0.53140000  0.42447000  1.0
  H  H21  1  0.27308000  0.41035000  0.65331000  1.0
  H  H22  1  0.72692000  0.58965000  0.34669000  1.0
  H  H23  1  0.55619000  0.52468000  0.59009000  1.0
  H  H24  1  0.44381000  0.47532000  0.40991000  1.0
  H  H25  1  0.71992000  0.41642000  0.59611000  1.0
  H  H26  1  0.28008000  0.58358000  0.40389000  1.0
  H  H27  1  0.65221000  0.21204000  0.53133000  1.0
  H  H28  1  0.34778000  0.78796000  0.46867000  1.0
  H  H29  1  0.71411000  0.06110000  0.62108000  1.0
  H  H30  1  0.28589000  0.93891000  0.37891000  1.0
  C  C31  1  0.99351000  0.33978000  0.86075000  1.0
  C  C32  1  0.00649000  0.66022000  0.13925000  1.0
  C  C33  1  0.10929000  0.30951000  0.91478000  1.0
  C  C34  1  0.89071000  0.69049000  0.08522000  1.0
  C  C35  1  0.24440000  0.21218000  0.89861000  1.0
  C  C36  1  0.75560000  0.78781000  0.10139000  1.0
  C  C37  1  0.26152000  0.14042000  0.82958000  1.0
  C  C38  1  0.73848000  0.85958000  0.17042000  1.0
  C  C39  1  0.14239000  0.16173000  0.78403000  1.0
  C  C40  1  0.85761000  0.83827000  0.21597000  1.0
  C  C41  1  0.00886000  0.26311000  0.79648000  1.0
  C  C42  1  0.99114000  0.73689000  0.20352000  1.0
  C  C43  1  0.62665000  0.00409000  0.44747000  1.0
  C  C44  1  0.37336000  0.99591000  0.55253000  1.0
  C  C45  1  0.62073000  0.87604000  0.50579000  1.0
  C  C46  1  0.37927000  0.12396000  0.49421000  1.0
  C  C47  1  0.49230000  0.87219000  0.55917000  1.0
  C  C48  1  0.50771000  0.12781000  0.44083000  1.0
  C  C49  1  0.85934000  0.46027000  0.86536000  1.0
  C  C50  1  0.14066000  0.53973000  0.13464000  1.0
  C  C51  1  0.36199000  0.18969000  0.95854000  1.0
  C  C52  1  0.63801000  0.81031000  0.04146000  1.0
  C  C53  1  0.40272000  0.04275000  0.79867000  1.0
  C  C54  1  0.59728000  0.95725000  0.20133000  1.0
  C  C55  1  0.88935000  0.28907000  0.73534000  1.0
  C  C56  1  0.11065000  0.71093000  0.26466000  1.0
  C  C57  1  0.47636000  0.73942000  0.62436000  1.0
  C  C58  1  0.52364000  0.26058000  0.37564000  1.0
  C  C59  1  0.75162000  0.74734000  0.50970000  1.0
  C  C60  1  0.24839000  0.25266000  0.49031000  1.0
  O  O61  1  0.53210000  0.63026000  0.96089000  1.0
  O  O62  1  0.46790000  0.36974000  0.03911000  1.0
  O  O63  1  0.71143000  0.79468000  0.72791000  1.0
  O  O64  1  0.28857000  0.20532000  0.27209000  1.0
  O  O65  1  0.08521000  0.48800000  0.60957000  1.0
  O  O66  1  0.91481000  0.51200000  0.39044000  1.0
  O  O67  1  0.84888000  0.53607000  0.91764000  1.0
  O  O68  1  0.15112000  0.46393000  0.08236000  1.0
  O  O69  1  0.75491000  0.49328000  0.81149000  1.0
  O  O70  1  0.24509000  0.50672000  0.18851000  1.0
  O  O71  1  0.80630000  0.23086000  0.78290000  1.0
  O  O72  1  0.19370000  0.76914000  0.21710000  1.0
  O  O73  1  0.88394000  0.36182000  0.63499000  1.0
  O  O74  1  0.11606000  0.63818000  0.36501000  1.0
  O  O75  1  0.41458000  0.92040000  0.81835000  1.0
  O  O76  1  0.58542000  0.07960000  0.18164000  1.0
  O  O77  1  0.49733000  0.08581000  0.75231000  1.0
  O  O78  1  0.50266000  0.91419000  0.24768000  1.0
  O  O79  1  0.48365000  0.17479000  0.91668000  1.0
  O  O80  1  0.51635000  0.82521000  0.08332000  1.0
  O  O81  1  0.32786000  0.18886000  0.05669000  1.0
  O  O82  1  0.67214000  0.81115000  0.94331000  1.0
  O  O83  1  0.49766000  0.68879000  0.72571000  1.0
  O  O84  1  0.50235000  0.31121000  0.27429000  1.0
  O  O85  1  0.43429000  0.68683000  0.57923000  1.0
  O  O86  1  0.56570000  0.31317000  0.42077000  1.0
  O  O87  1  0.74820000  0.62885000  0.55781000  1.0
  O  O88  1  0.25180000  0.37115000  0.44219000  1.0
  O  O89  1  0.86766000  0.75448000  0.46310000  1.0
  O  O90  1  0.13235000  0.24552000  0.53691000  1.0
  O  O91  1  0.76274000  0.01081000  0.82605000  1.0
  O  O92  1  0.23726000  0.98919000  0.17395000  1.0
  O  O93  1  0.49959000  0.42432000  0.81780000  1.0
  O  O94  1  0.50041000  0.57568000  0.18220000  1.0
  O  O95  1  0.37303000  0.39711000  0.64473000  1.0
  O  O96  1  0.62697000  0.60289000  0.35527000  1.0
  O  O97  1  0.62138000  0.43016000  0.58833000  1.0
  O  O98  1  0.37862000  0.56984000  0.41167000  1.0
  O  O99  1  0.70261000  0.15615000  0.60132000  1.0
  O  O100  1  0.29739000  0.84385000  0.39868000  1.0
