# generated using pymatgen
data_ZnC12(ClO)4
_symmetry_space_group_name_H-M   'P 1'
_cell_length_a   27.94754452
_cell_length_b   27.94790000
_cell_length_c   27.94770000
_cell_angle_alpha   70.52900000
_cell_angle_beta   70.52722539
_cell_angle_gamma   109.47035448
_symmetry_Int_Tables_number   1
_chemical_formula_structural   ZnC12(ClO)4
_chemical_formula_sum   'Zn6 C72 Cl24 O24'
_cell_volume   16804.07128078
_cell_formula_units_Z   6
loop_
 _symmetry_equiv_pos_site_id
 _symmetry_equiv_pos_as_xyz
  1  'x, y, z'
loop_
 _atom_site_type_symbol
 _atom_site_label
 _atom_site_symmetry_multiplicity
 _atom_site_fract_x
 _atom_site_fract_y
 _atom_site_fract_z
 _atom_site_occupancy
  Zn  Zn0  1  0.54037000  0.00000000  0.45963000  1.0
  Zn  Zn1  1  0.54036000  0.54036000  0.00001000  1.0
  Zn  Zn2  1  0.00000000  0.54037000  0.45963000  1.0
  Zn  Zn3  1  0.00000000  0.45963000  0.54037000  1.0
  Zn  Zn4  1  0.45963000  0.45963000  1.00000000  1.0
  Zn  Zn5  1  0.45963000  0.99999000  0.54037000  1.0
  C  C6  1  0.50000000  0.08014000  0.41986000  1.0
  C  C7  1  0.41987000  0.91987000  0.50000000  1.0
  C  C8  1  0.83756000  0.50000000  0.66244000  1.0
  C  C9  1  0.50000000  0.83754000  0.66246000  1.0
  C  C10  1  0.33756000  0.83756000  0.50000000  1.0
  C  C11  1  0.50000000  0.16246000  0.33754000  1.0
  C  C12  1  0.66244000  0.16244000  0.50000000  1.0
  C  C13  1  0.33754000  0.50000000  0.16246000  1.0
  C  C14  1  0.50000000  0.66245000  0.83756000  1.0
  C  C15  1  0.66246000  0.50000000  0.83754000  1.0
  C  C16  1  0.50000000  0.33755000  0.16244000  1.0
  C  C17  1  0.16246000  0.66246000  0.50000000  1.0
  C  C18  1  0.08015000  0.58015000  0.50000000  1.0
  C  C19  1  0.16244000  0.50000000  0.33756000  1.0
  C  C20  1  0.83754000  0.33754000  0.50000000  1.0
  C  C21  1  0.58013000  0.08013000  0.50000000  1.0
  C  C22  1  0.37528000  0.87528000  0.50000000  1.0
  C  C23  1  0.37526000  0.50000000  0.12474000  1.0
  C  C24  1  0.62472000  0.12472000  0.50000000  1.0
  C  C25  1  0.62474000  0.50000000  0.87526000  1.0
  C  C26  1  0.50000000  0.62472000  0.87528000  1.0
  C  C27  1  0.12474000  0.62474000  0.50000000  1.0
  C  C28  1  0.50001000  0.37529000  0.12471000  1.0
  C  C29  1  0.87526000  0.37526000  0.50000000  1.0
  C  C30  1  0.12472000  0.50001000  0.37528000  1.0
  C  C31  1  0.50000000  0.87526000  0.62474000  1.0
  C  C32  1  0.87528000  0.49999000  0.62472000  1.0
  C  C33  1  0.50000000  0.12474000  0.37526000  1.0
  C  C34  1  0.50000000  0.58013000  0.91987000  1.0
  C  C35  1  0.50000000  0.91985000  0.58015000  1.0
  C  C36  1  0.50000000  0.41986000  0.08013000  1.0
  C  C37  1  0.58014000  0.50000000  0.91986000  1.0
  C  C38  1  0.08013000  0.50000000  0.41987000  1.0
  C  C39  1  0.41985000  0.50000000  0.08015000  1.0
  C  C40  1  0.91987000  0.50000000  0.58013000  1.0
  C  C41  1  0.91985000  0.41985000  0.50000000  1.0
  C  C42  1  0.20020000  0.75374000  0.50273000  1.0
  C  C43  1  0.25427000  0.55358000  0.24405000  1.0
  C  C44  1  0.79965000  0.29724000  0.44644000  1.0
  C  C45  1  0.74613000  0.50244000  0.70032000  1.0
  C  C46  1  0.74368000  0.24609000  0.55356000  1.0
  C  C47  1  0.20236000  0.44643000  0.29931000  1.0
  C  C48  1  0.25647000  0.70293000  0.49726000  1.0
  C  C49  1  0.79724000  0.49755000  0.75631000  1.0
  C  C50  1  0.55358000  0.79906000  0.70215000  1.0
  C  C51  1  0.29995000  0.74643000  0.49699000  1.0
  C  C52  1  0.49825000  0.20067000  0.24576000  1.0
  C  C53  1  0.75642000  0.25374000  0.44646000  1.0
  C  C54  1  0.50176000  0.25600000  0.29757000  1.0
  C  C55  1  0.24342000  0.79694000  0.50300000  1.0
  C  C56  1  0.44641000  0.74428000  0.75453000  1.0
  C  C57  1  0.70020000  0.20288000  0.55354000  1.0
  C  C58  1  0.24557000  0.44643000  0.25581000  1.0
  C  C59  1  0.44642000  0.70079000  0.79774000  1.0
  C  C60  1  0.70265000  0.50218000  0.74379000  1.0
  C  C61  1  0.49798000  0.24389000  0.20254000  1.0
  C  C62  1  0.75402000  0.49781000  0.79954000  1.0
  C  C63  1  0.55358000  0.75585000  0.74563000  1.0
  C  C64  1  0.29776000  0.55358000  0.20085000  1.0
  C  C65  1  0.50203000  0.29948000  0.25408000  1.0
  C  C66  1  0.20616000  0.70616000  0.50000000  1.0
  C  C67  1  0.20613000  0.50001000  0.29387000  1.0
  C  C68  1  0.79384000  0.29384000  0.50000000  1.0
  C  C69  1  0.79387000  0.50000000  0.70613000  1.0
  C  C70  1  0.50000000  0.79385000  0.70616000  1.0
  C  C71  1  0.29387000  0.79387000  0.50000000  1.0
  C  C72  1  0.50001000  0.20616000  0.29383000  1.0
  C  C73  1  0.70613000  0.20613000  0.50000000  1.0
  C  C74  1  0.29384000  0.50000000  0.20615000  1.0
  C  C75  1  0.50000000  0.70614000  0.79387000  1.0
  C  C76  1  0.70616000  0.50000000  0.79384000  1.0
  C  C77  1  0.50001000  0.29388000  0.20612000  1.0
  Cl  Cl78  1  0.23656000  0.85445000  0.50640000  1.0
  Cl  Cl79  1  0.26333000  0.64545000  0.49377000  1.0
  Cl  Cl80  1  0.49580000  0.23761000  0.14440000  1.0
  Cl  Cl81  1  0.86044000  0.35493000  0.38208000  1.0
  Cl  Cl82  1  0.50422000  0.35981000  0.25818000  1.0
  Cl  Cl83  1  0.13922000  0.75710000  0.50623000  1.0
  Cl  Cl84  1  0.38198000  0.64076000  0.85620000  1.0
  Cl  Cl85  1  0.73701000  0.24252000  0.61792000  1.0
  Cl  Cl86  1  0.14401000  0.38200000  0.35944000  1.0
  Cl  Cl87  1  0.38199000  0.73828000  0.75886000  1.0
  Cl  Cl88  1  0.74231000  0.50515000  0.63974000  1.0
  Cl  Cl89  1  0.35608000  0.61800000  0.14064000  1.0
  Cl  Cl90  1  0.49598000  0.14028000  0.24174000  1.0
  Cl  Cl91  1  0.85511000  0.49485000  0.76285000  1.0
  Cl  Cl92  1  0.61801000  0.85916000  0.64371000  1.0
  Cl  Cl93  1  0.25857000  0.61801000  0.23797000  1.0
  Cl  Cl94  1  0.50404000  0.26229000  0.35568000  1.0
  Cl  Cl95  1  0.76310000  0.25741000  0.38207000  1.0
  Cl  Cl96  1  0.64480000  0.50498000  0.73726000  1.0
  Cl  Cl97  1  0.63948000  0.14517000  0.61794000  1.0
  Cl  Cl98  1  0.24135000  0.38200000  0.26192000  1.0
  Cl  Cl99  1  0.36085000  0.74296000  0.49360000  1.0
  Cl  Cl100  1  0.75775000  0.49500000  0.86019000  1.0
  Cl  Cl101  1  0.61802000  0.76183000  0.74122000  1.0
  O  O102  1  0.53532000  0.06236000  0.40202000  1.0
  O  O103  1  0.06263000  0.53562000  0.40205000  1.0
  O  O104  1  0.59798000  0.53533000  0.93764000  1.0
  O  O105  1  0.06233000  0.46438000  0.47299000  1.0
  O  O106  1  0.40202000  0.46438000  0.06266000  1.0
  O  O107  1  0.93767000  0.46468000  0.59795000  1.0
  O  O108  1  0.47296000  0.53562000  0.06236000  1.0
  O  O109  1  0.93737000  0.53532000  0.52701000  1.0
  O  O110  1  0.93764000  0.47296000  0.46438000  1.0
  O  O111  1  0.47299000  0.93737000  0.46468000  1.0
  O  O112  1  0.93734000  0.40202000  0.53562000  1.0
  O  O113  1  0.46438000  0.52701000  0.93767000  1.0
  O  O114  1  0.40205000  0.93767000  0.53532000  1.0
  O  O115  1  0.06236000  0.59798000  0.46468000  1.0
  O  O116  1  0.52700000  0.06232000  0.53563000  1.0
  O  O117  1  0.06266000  0.52704000  0.53532000  1.0
  O  O118  1  0.59795000  0.06263000  0.46438000  1.0
  O  O119  1  0.46468000  0.06266000  0.47296000  1.0
  O  O120  1  0.53562000  0.59795000  0.93737000  1.0
  O  O121  1  0.53562000  0.93764000  0.52704000  1.0
  O  O122  1  0.53532000  0.47299000  0.06263000  1.0
  O  O123  1  0.46438000  0.93734000  0.59798000  1.0
  O  O124  1  0.46468000  0.40205000  0.06233000  1.0
  O  O125  1  0.52704000  0.46468000  0.93734000  1.0
