# generated using pymatgen
data_Cd3H38C42S2(N4O9)2
_symmetry_space_group_name_H-M   'P 1'
_cell_length_a   11.80120000
_cell_length_b   14.91940000
_cell_length_c   16.76210000
_cell_angle_alpha   89.99950000
_cell_angle_beta   108.53400000
_cell_angle_gamma   89.99970000
_symmetry_Int_Tables_number   1
_chemical_formula_structural   Cd3H38C42S2(N4O9)2
_chemical_formula_sum   'Cd6 H76 C84 S4 N16 O36'
_cell_volume   2798.18371075
_cell_formula_units_Z   2
loop_
 _symmetry_equiv_pos_site_id
 _symmetry_equiv_pos_as_xyz
  1  'x, y, z'
loop_
 _atom_site_type_symbol
 _atom_site_label
 _atom_site_symmetry_multiplicity
 _atom_site_fract_x
 _atom_site_fract_y
 _atom_site_fract_z
 _atom_site_occupancy
  Cd  Cd0  1  0.17657000  0.73652000  0.57834000  1.0
  Cd  Cd1  1  0.32344000  0.23651000  0.92167000  1.0
  Cd  Cd2  1  0.82343000  0.26349000  0.42167000  1.0
  Cd  Cd3  1  0.67656000  0.76349000  0.07833000  1.0
  Cd  Cd4  1  0.00000000  0.99999000  0.50000000  1.0
  Cd  Cd5  1  0.50000000  0.50000000  0.00000000  1.0
  H  H6  1  0.46005000  0.50484000  0.69057000  1.0
  H  H7  1  0.03995000  0.00484000  0.80942000  1.0
  H  H8  1  0.53994000  0.49516000  0.30942000  1.0
  H  H9  1  0.96006000  0.99515000  0.19057000  1.0
  H  H10  1  0.36789000  0.49166000  0.75561000  1.0
  H  H11  1  0.13213000  0.99165000  0.74439000  1.0
  H  H12  1  0.63212000  0.50834000  0.24438000  1.0
  H  H13  1  0.86789000  0.00833000  0.25561000  1.0
  H  H14  1  0.23566000  0.35456000  0.72925000  1.0
  H  H15  1  0.26435000  0.85456000  0.77076000  1.0
  H  H16  1  0.76434000  0.64544000  0.27075000  1.0
  H  H17  1  0.73567000  0.14543000  0.22925000  1.0
  H  H18  1  0.15829000  0.19495000  0.68298000  1.0
  H  H19  1  0.34171000  0.69495000  0.81702000  1.0
  H  H20  1  0.84173000  0.80504000  0.31702000  1.0
  H  H21  1  0.65829000  0.30504000  0.18298000  1.0
  H  H22  1  0.20599000  0.14494000  0.60325000  1.0
  H  H23  1  0.29401000  0.64494000  0.89675000  1.0
  H  H24  1  0.79400000  0.85507000  0.39674000  1.0
  H  H25  1  0.70600000  0.35506000  0.10326000  1.0
  H  H26  1  0.23199000  0.19160000  0.46370000  1.0
  H  H27  1  0.26800000  0.69160000  0.03629000  1.0
  H  H28  1  0.76799000  0.80840000  0.53629000  1.0
  H  H29  1  0.73203000  0.30841000  0.96371000  1.0
  H  H30  1  0.41163000  0.50149000  0.52313000  1.0
  H  H31  1  0.08836000  0.00149000  0.97686000  1.0
  H  H32  1  0.58837000  0.49850000  0.47686000  1.0
  H  H33  1  0.91164000  0.99850000  0.02314000  1.0
  H  H34  1  0.40516000  0.41875000  0.39185000  1.0
  H  H35  1  0.09482000  0.91875000  0.10814000  1.0
  H  H36  1  0.59484000  0.58124000  0.60815000  1.0
  H  H37  1  0.90516000  0.08124000  0.89185000  1.0
  H  H38  1  0.31731000  0.26770000  0.36295000  1.0
  H  H39  1  0.18268000  0.76770000  0.13704000  1.0
  H  H40  1  0.68269000  0.73230000  0.63704000  1.0
  H  H41  1  0.81732000  0.23230000  0.86296000  1.0
  H  H42  1  0.10169000  0.61106000  0.70154000  1.0
  H  H43  1  0.39830000  0.11107000  0.79845000  1.0
  H  H44  1  0.89830000  0.38894000  0.29845000  1.0
  H  H45  1  0.60169000  0.88895000  0.20154000  1.0
  H  H46  1  0.99520000  0.87340000  0.63275000  1.0
  H  H47  1  0.50481000  0.37340000  0.86726000  1.0
  H  H48  1  0.00478000  0.12660000  0.36725000  1.0
  H  H49  1  0.49521000  0.62661000  0.13275000  1.0
  H  H50  1  0.88877000  0.88287000  0.73730000  1.0
  H  H51  1  0.61125000  0.38287000  0.76271000  1.0
  H  H52  1  0.11121000  0.11712000  0.26270000  1.0
  H  H53  1  0.38876000  0.61713000  0.23730000  1.0
  H  H54  1  0.00743000  0.61066000  0.81154000  1.0
  H  H55  1  0.49257000  0.11067000  0.68846000  1.0
  H  H56  1  0.99257000  0.38933000  0.18846000  1.0
  H  H57  1  0.50741000  0.88934000  0.31154000  1.0
  H  H58  1  0.74938000  0.85243000  0.79200000  1.0
  H  H59  1  0.75064000  0.35243000  0.70800000  1.0
  H  H60  1  0.25061000  0.14755000  0.20800000  1.0
  H  H61  1  0.24937000  0.64757000  0.29200000  1.0
  H  H62  1  0.99935000  0.65258000  0.93404000  1.0
  H  H63  1  0.50066000  0.15259000  0.56596000  1.0
  H  H64  1  0.00065000  0.34742000  0.06597000  1.0
  H  H65  1  0.49934000  0.84743000  0.43404000  1.0
  H  H66  1  0.89623000  0.66218000  0.04320000  1.0
  H  H67  1  0.60377000  0.16220000  0.45679000  1.0
  H  H68  1  0.10377000  0.33781000  0.95680000  1.0
  H  H69  1  0.39621000  0.83782000  0.54320000  1.0
  H  H70  1  0.66122000  0.85552000  0.90893000  1.0
  H  H71  1  0.83880000  0.35553000  0.59108000  1.0
  H  H72  1  0.33877000  0.14446000  0.09107000  1.0
  H  H73  1  0.16121000  0.64448000  0.40892000  1.0
  H  H74  1  0.13744000  0.94586000  0.40779000  1.0
  H  H75  1  0.36257000  0.44586000  0.09221000  1.0
  H  H76  1  0.86258000  0.05414000  0.59220000  1.0
  H  H77  1  0.63742000  0.55414000  0.90780000  1.0
  H  H78  1  0.22223000  0.00117000  0.48433000  1.0
  H  H79  1  0.27778000  0.50117000  0.01567000  1.0
  H  H80  1  0.77777000  0.99884000  0.51567000  1.0
  H  H81  1  0.72224000  0.49883000  0.98433000  1.0
  C  C82  1  0.29901000  0.58361000  0.65287000  1.0
  C  C83  1  0.20098000  0.08361000  0.84712000  1.0
  C  C84  1  0.70099000  0.41639000  0.34712000  1.0
  C  C85  1  0.79902000  0.91638000  0.15288000  1.0
  C  C86  1  0.36700000  0.49822000  0.69010000  1.0
  C  C87  1  0.13300000  0.99822000  0.80990000  1.0
  C  C88  1  0.63299000  0.50178000  0.30989000  1.0
  C  C89  1  0.86701000  0.00177000  0.19010000  1.0
  C  C90  1  0.26008000  0.35174000  0.67177000  1.0
  C  C91  1  0.23993000  0.85174000  0.82822000  1.0
  C  C92  1  0.73992000  0.64826000  0.32822000  1.0
  C  C93  1  0.76008000  0.14825000  0.17177000  1.0
  C  C94  1  0.16357000  0.20485000  0.61903000  1.0
  C  C95  1  0.33643000  0.70485000  0.88097000  1.0
  C  C96  1  0.83644000  0.79515000  0.38097000  1.0
  C  C97  1  0.66357000  0.29515000  0.11903000  1.0
  C  C98  1  0.03810000  0.21899000  0.55656000  1.0
  C  C99  1  0.46189000  0.71900000  0.94344000  1.0
  C  C100  1  0.96189000  0.78100000  0.44345000  1.0
  C  C101  1  0.53811000  0.28100000  0.05655000  1.0
  C  C102  1  0.27150000  0.25814000  0.47685000  1.0
  C  C103  1  0.22851000  0.75814000  0.02315000  1.0
  C  C104  1  0.72850000  0.74186000  0.52315000  1.0
  C  C105  1  0.77151000  0.24186000  0.97685000  1.0
  C  C106  1  0.37579000  0.43383000  0.51133000  1.0
  C  C107  1  0.12422000  0.93384000  0.98867000  1.0
  C  C108  1  0.62422000  0.56616000  0.48865000  1.0
  C  C109  1  0.87578000  0.06616000  0.01133000  1.0
  C  C110  1  0.32828000  0.39059000  0.56734000  1.0
  C  C111  1  0.17172000  0.89060000  0.93267000  1.0
  C  C112  1  0.67172000  0.60941000  0.43266000  1.0
  C  C113  1  0.82828000  0.10940000  0.06733000  1.0
  C  C114  1  0.27688000  0.30472000  0.55013000  1.0
  C  C115  1  0.22312000  0.80472000  0.94987000  1.0
  C  C116  1  0.72311000  0.69528000  0.44986000  1.0
  C  C117  1  0.77689000  0.19528000  0.05013000  1.0
  C  C118  1  0.37029000  0.38745000  0.43803000  1.0
  C  C119  1  0.12971000  0.88745000  0.06197000  1.0
  C  C120  1  0.62971000  0.61254000  0.56195000  1.0
  C  C121  1  0.87029000  0.11254000  0.93804000  1.0
  C  C122  1  0.31953000  0.30121000  0.42119000  1.0
  C  C123  1  0.18048000  0.80121000  0.07880000  1.0
  C  C124  1  0.68047000  0.69878000  0.57880000  1.0
  C  C125  1  0.81953000  0.19879000  0.92120000  1.0
  C  C126  1  0.05438000  0.67067000  0.71102000  1.0
  C  C127  1  0.44563000  0.17067000  0.78898000  1.0
  C  C128  1  0.94562000  0.32934000  0.28898000  1.0
  C  C129  1  0.55437000  0.82935000  0.21102000  1.0
  C  C130  1  0.99340000  0.81606000  0.67236000  1.0
  C  C131  1  0.50661000  0.31606000  0.82765000  1.0
  C  C132  1  0.00659000  0.18393000  0.32765000  1.0
  C  C133  1  0.49340000  0.68394000  0.17235000  1.0
  C  C134  1  0.93460000  0.82088000  0.73203000  1.0
  C  C135  1  0.56540000  0.32088000  0.76798000  1.0
  C  C136  1  0.06538000  0.17912000  0.26797000  1.0
  C  C137  1  0.43460000  0.67913000  0.23202000  1.0
  C  C138  1  0.99996000  0.67090000  0.77344000  1.0
  C  C139  1  0.50004000  0.17091000  0.72656000  1.0
  C  C140  1  0.00003000  0.32909000  0.22657000  1.0
  C  C141  1  0.49995000  0.82910000  0.27343000  1.0
  C  C142  1  0.93918000  0.74776000  0.78576000  1.0
  C  C143  1  0.56083000  0.24777000  0.71424000  1.0
  C  C144  1  0.06082000  0.25223000  0.21424000  1.0
  C  C145  1  0.43916000  0.75224000  0.28576000  1.0
  C  C146  1  0.88324000  0.75210000  0.85292000  1.0
  C  C147  1  0.61677000  0.25210000  0.64708000  1.0
  C  C148  1  0.11676000  0.24790000  0.14708000  1.0
  C  C149  1  0.38322000  0.74791000  0.35292000  1.0
  C  C150  1  0.78718000  0.81016000  0.84708000  1.0
  C  C151  1  0.71282000  0.31017000  0.65292000  1.0
  C  C152  1  0.21281000  0.18983000  0.15292000  1.0
  C  C153  1  0.28717000  0.68984000  0.34708000  1.0
  C  C154  1  0.92425000  0.69825000  0.92509000  1.0
  C  C155  1  0.57575000  0.19826000  0.57491000  1.0
  C  C156  1  0.07575000  0.30175000  0.07492000  1.0
  C  C157  1  0.42424000  0.80175000  0.42509000  1.0
  C  C158  1  0.86868000  0.70372000  0.98671000  1.0
  C  C159  1  0.63132000  0.20374000  0.51329000  1.0
  C  C160  1  0.13132000  0.29628000  0.01330000  1.0
  C  C161  1  0.36866000  0.79628000  0.48671000  1.0
  C  C162  1  0.73671000  0.81209000  0.91148000  1.0
  C  C163  1  0.76331000  0.31210000  0.58853000  1.0
  C  C164  1  0.26329000  0.18789000  0.08853000  1.0
  C  C165  1  0.23669000  0.68791000  0.41147000  1.0
  S  S166  1  0.27636000  0.95935000  0.64178000  1.0
  S  S167  1  0.22364000  0.45935000  0.85822000  1.0
  S  S168  1  0.72364000  0.04066000  0.35822000  1.0
  S  S169  1  0.77636000  0.54066000  0.14178000  1.0
  N  N170  1  0.31748000  0.41675000  0.64443000  1.0
  N  N171  1  0.18252000  0.91675000  0.85558000  1.0
  N  N172  1  0.68252000  0.58325000  0.35556000  1.0
  N  N173  1  0.81749000  0.08325000  0.14443000  1.0
  N  N174  1  0.23680000  0.28285000  0.61748000  1.0
  N  N175  1  0.26319000  0.78285000  0.88251000  1.0
  N  N176  1  0.76319000  0.71715000  0.38251000  1.0
  N  N177  1  0.73681000  0.21715000  0.11748000  1.0
  N  N178  1  0.05340000  0.74250000  0.66233000  1.0
  N  N179  1  0.44661000  0.24250000  0.83767000  1.0
  N  N180  1  0.94660000  0.25751000  0.33767000  1.0
  N  N181  1  0.55339000  0.75751000  0.16233000  1.0
  N  N182  1  0.77653000  0.75940000  0.97980000  1.0
  N  N183  1  0.72347000  0.25941000  0.52020000  1.0
  N  N184  1  0.22346000  0.24059000  0.02021000  1.0
  N  N185  1  0.27653000  0.74059000  0.47979000  1.0
  O  O186  1  0.14526000  0.98346000  0.62417000  1.0
  O  O187  1  0.35473000  0.48346000  0.87583000  1.0
  O  O188  1  0.85474000  0.01654000  0.37583000  1.0
  O  O189  1  0.64527000  0.51654000  0.12417000  1.0
  O  O190  1  0.28724000  0.85928000  0.64199000  1.0
  O  O191  1  0.21277000  0.35927000  0.85801000  1.0
  O  O192  1  0.71278000  0.14073000  0.35801000  1.0
  O  O193  1  0.78723000  0.64073000  0.14199000  1.0
  O  O194  1  0.31822000  0.99906000  0.57388000  1.0
  O  O195  1  0.18178000  0.49906000  0.92614000  1.0
  O  O196  1  0.68178000  0.00095000  0.42612000  1.0
  O  O197  1  0.81823000  0.50094000  0.07387000  1.0
  O  O198  1  0.34470000  0.99386000  0.72477000  1.0
  O  O199  1  0.15530000  0.49386000  0.77524000  1.0
  O  O200  1  0.65530000  0.00616000  0.27523000  1.0
  O  O201  1  0.84471000  0.50615000  0.22477000  1.0
  O  O202  1  0.00204000  0.29788000  0.53881000  1.0
  O  O203  1  0.49795000  0.79789000  0.96119000  1.0
  O  O204  1  0.99795000  0.70211000  0.46121000  1.0
  O  O205  1  0.50205000  0.20211000  0.03881000  1.0
  O  O206  1  0.21061000  0.57804000  0.58618000  1.0
  O  O207  1  0.28940000  0.07806000  0.91381000  1.0
  O  O208  1  0.78940000  0.42195000  0.41381000  1.0
  O  O209  1  0.71061000  0.92194000  0.08619000  1.0
  O  O210  1  0.33812000  0.65556000  0.69250000  1.0
  O  O211  1  0.16189000  0.15556000  0.80748000  1.0
  O  O212  1  0.66188000  0.34445000  0.30749000  1.0
  O  O213  1  0.83813000  0.84444000  0.19251000  1.0
  O  O214  1  0.97531000  0.14980000  0.52483000  1.0
  O  O215  1  0.52469000  0.64980000  0.97517000  1.0
  O  O216  1  0.02468000  0.85020000  0.47519000  1.0
  O  O217  1  0.47531000  0.35020000  0.02482000  1.0
  O  O218  1  0.15020000  0.00647000  0.43070000  1.0
  O  O219  1  0.34980000  0.50647000  0.06931000  1.0
  O  O220  1  0.84980000  0.99353000  0.56930000  1.0
  O  O221  1  0.65021000  0.49353000  0.93070000  1.0
