# generated using pymatgen
data_CuH8(C3N2)2
_symmetry_space_group_name_H-M   'P 1'
_cell_length_a   7.68931000
_cell_length_b   8.71284975
_cell_length_c   13.04980000
_cell_angle_alpha   82.52358457
_cell_angle_beta   72.87730000
_cell_angle_gamma   63.82491554
_symmetry_Int_Tables_number   1
_chemical_formula_structural   CuH8(C3N2)2
_chemical_formula_sum   'Cu4 H32 C24 N16'
_cell_volume   749.84708983
_cell_formula_units_Z   4
loop_
 _symmetry_equiv_pos_site_id
 _symmetry_equiv_pos_as_xyz
  1  'x, y, z'
loop_
 _atom_site_type_symbol
 _atom_site_label
 _atom_site_symmetry_multiplicity
 _atom_site_fract_x
 _atom_site_fract_y
 _atom_site_fract_z
 _atom_site_occupancy
  Cu  Cu0  1  0.44507000  0.16894000  0.34152000  1.0
  Cu  Cu1  1  0.95526000  0.83109000  0.65865000  1.0
  Cu  Cu2  1  0.53670000  0.66894000  0.15840000  1.0
  Cu  Cu3  1  0.36367000  0.33091000  0.84159000  1.0
  H  H4  1  0.03684000  0.92192000  0.82290000  1.0
  H  H5  1  0.78232000  0.07803000  0.17727000  1.0
  H  H6  1  0.61026000  0.42183000  0.67696000  1.0
  H  H7  1  0.70959000  0.57827000  0.32270000  1.0
  H  H8  1  0.22009000  0.98273000  0.83877000  1.0
  H  H9  1  0.04219000  0.01724000  0.16129000  1.0
  H  H10  1  0.80930000  0.48274000  0.66117000  1.0
  H  H11  1  0.95377000  0.51755000  0.33839000  1.0
  H  H12  1  0.25595000  0.91689000  0.44784000  1.0
  H  H13  1  0.62073000  0.08312000  0.55219000  1.0
  H  H14  1  0.45405000  0.41662000  0.05207000  1.0
  H  H15  1  0.92258000  0.58320000  0.94782000  1.0
  H  H16  1  0.83219000  0.22379000  0.77750000  1.0
  H  H17  1  0.83425000  0.77612000  0.22250000  1.0
  H  H18  1  0.36029000  0.72364000  0.72230000  1.0
  H  H19  1  0.80631000  0.27642000  0.27777000  1.0
  H  H20  1  0.02025000  0.28364000  0.78921000  1.0
  H  H21  1  0.09381000  0.71636000  0.21094000  1.0
  H  H22  1  0.55989000  0.78358000  0.71073000  1.0
  H  H23  1  0.05446000  0.21652000  0.28914000  1.0
  H  H24  1  0.21946000  0.32162000  0.60985000  1.0
  H  H25  1  0.15094000  0.67823000  0.39043000  1.0
  H  H26  1  0.57876000  0.82190000  0.89027000  1.0
  H  H27  1  0.29087000  0.17823000  0.10970000  1.0
  H  H28  1  0.77832000  0.14375000  0.96863000  1.0
  H  H29  1  0.89123000  0.85585000  0.03168000  1.0
  H  H30  1  0.49733000  0.64375000  0.53129000  1.0
  H  H31  1  0.67386000  0.35579000  0.46838000  1.0
  H  H32  1  0.98056000  0.17010000  0.98866000  1.0
  H  H33  1  0.13966000  0.83010000  0.01137000  1.0
  H  H34  1  0.71938000  0.67048000  0.51137000  1.0
  H  H35  1  0.90182000  0.33063000  0.48851000  1.0
  C  C36  1  0.05874000  0.02765000  0.84657000  1.0
  C  C37  1  0.93354000  0.97233000  0.15355000  1.0
  C  C38  1  0.65579000  0.52761000  0.65335000  1.0
  C  C39  1  0.83729000  0.47262000  0.34637000  1.0
  C  C40  1  0.21942000  0.00559000  0.51010000  1.0
  C  C41  1  0.73525000  0.99441000  0.48996000  1.0
  C  C42  1  0.47970000  0.50539000  0.98983000  1.0
  C  C43  1  0.97480000  0.49444000  0.01006000  1.0
  C  C44  1  0.43480000  0.37731000  0.28442000  1.0
  C  C45  1  0.09626000  0.62269000  0.71568000  1.0
  C  C46  1  0.46968000  0.87725000  0.21540000  1.0
  C  C47  1  0.56180000  0.12254000  0.78472000  1.0
  C  C48  1  0.99294000  0.17770000  0.77119000  1.0
  C  C49  1  0.94253000  0.82224000  0.22889000  1.0
  C  C50  1  0.51468000  0.67756000  0.72868000  1.0
  C  C51  1  0.92116000  0.32246000  0.27120000  1.0
  C  C52  1  0.20468000  0.21217000  0.58857000  1.0
  C  C53  1  0.00543000  0.78771000  0.41169000  1.0
  C  C54  1  0.54287000  0.71228000  0.91149000  1.0
  C  C55  1  0.16659000  0.28774000  0.08845000  1.0
  C  C56  1  0.94053000  0.07752000  0.96268000  1.0
  C  C57  1  0.98101000  0.92244000  0.03745000  1.0
  C  C58  1  0.65363000  0.57770000  0.53724000  1.0
  C  C59  1  0.76910000  0.42271000  0.46247000  1.0
  N  N60  1  0.10397000  0.13275000  0.65927000  1.0
  N  N61  1  0.89636000  0.86718000  0.34086000  1.0
  N  N62  1  0.51341000  0.63271000  0.84069000  1.0
  N  N63  1  0.98677000  0.36722000  0.15919000  1.0
  N  N64  1  0.44338000  0.50145000  0.23909000  1.0
  N  N65  1  0.18385000  0.49854000  0.76093000  1.0
  N  N66  1  0.43294000  0.00127000  0.26082000  1.0
  N  N67  1  0.69463000  0.99855000  0.73935000  1.0
  N  N68  1  0.27898000  0.13453000  0.49300000  1.0
  N  N69  1  0.90639000  0.86539000  0.50722000  1.0
  N  N70  1  0.52166000  0.63457000  0.00703000  1.0
  N  N71  1  0.16316000  0.36543000  0.99290000  1.0
  N  N72  1  0.11156000  0.00029000  0.60994000  1.0
  N  N73  1  0.72215000  0.99971000  0.39006000  1.0
  N  N74  1  0.47192000  0.50006000  0.88993000  1.0
  N  N75  1  0.86184000  0.49977000  0.10995000  1.0
