# generated using pymatgen
data_ZnH16C32(N2F)4
_symmetry_space_group_name_H-M   'P 1'
_cell_length_a   8.21746000
_cell_length_b   13.96440000
_cell_length_c   14.16000000
_cell_angle_alpha   64.31450000
_cell_angle_beta   88.79480000
_cell_angle_gamma   88.10680000
_symmetry_Int_Tables_number   1
_chemical_formula_structural   ZnH16C32(N2F)4
_chemical_formula_sum   'Zn2 H32 C64 N16 F8'
_cell_volume   1463.48653712
_cell_formula_units_Z   2
loop_
 _symmetry_equiv_pos_site_id
 _symmetry_equiv_pos_as_xyz
  1  'x, y, z'
loop_
 _atom_site_type_symbol
 _atom_site_label
 _atom_site_symmetry_multiplicity
 _atom_site_fract_x
 _atom_site_fract_y
 _atom_site_fract_z
 _atom_site_occupancy
  Zn  Zn0  1  0.77283000  0.74642000  0.25158000  1.0
  Zn  Zn1  1  0.22717000  0.25358000  0.74842000  1.0
  H  H2  1  0.43490000  0.77334000  0.34005000  1.0
  H  H3  1  0.56509000  0.22666000  0.65995000  1.0
  H  H4  1  0.47109000  0.71591000  0.12701000  1.0
  H  H5  1  0.52891000  0.28409000  0.87299000  1.0
  H  H6  1  0.11091000  0.82881000  0.27568000  1.0
  H  H7  1  0.88909000  0.17119000  0.72432000  1.0
  H  H8  1  0.44672000  0.40098000  0.39673000  1.0
  H  H9  1  0.55328000  0.59902000  0.60328000  1.0
  H  H10  1  0.91680000  0.82683000  0.86799000  1.0
  H  H11  1  0.08320000  0.17317000  0.13201000  1.0
  H  H12  1  0.08233000  0.61365000  0.22006000  1.0
  H  H13  1  0.91767000  0.38634000  0.77995000  1.0
  H  H14  1  0.34574000  0.92347000  0.15997000  1.0
  H  H15  1  0.65426000  0.07653000  0.84003000  1.0
  H  H16  1  0.65738000  0.77011000  0.82129000  1.0
  H  H17  1  0.34262000  0.22989000  0.17871000  1.0
  H  H18  1  0.08997000  0.91263000  0.90190000  1.0
  H  H19  1  0.91003000  0.08737000  0.09810000  1.0
  H  H20  1  0.90757000  0.30392000  0.28018000  1.0
  H  H21  1  0.09243000  0.69608000  0.71982000  1.0
  H  H22  1  0.64234000  0.35641000  0.33260000  1.0
  H  H23  1  0.35766000  0.64359000  0.66740000  1.0
  H  H24  1  0.33014000  0.96828000  0.96701000  1.0
  H  H25  1  0.66985000  0.03172000  0.03299000  1.0
  H  H26  1  0.20153000  0.47041000  0.45465000  1.0
  H  H27  1  0.79848000  0.52959000  0.54535000  1.0
  H  H28  1  0.19181000  0.66183000  0.42561000  1.0
  H  H29  1  0.80819000  0.33817000  0.57439000  1.0
  H  H30  1  0.42741000  0.71582000  0.95177000  1.0
  H  H31  1  0.57259000  0.28418000  0.04823000  1.0
  H  H32  1  0.13729000  0.43283000  0.22645000  1.0
  H  H33  1  0.86271000  0.56717000  0.77356000  1.0
  C  C34  1  0.64552000  0.96054000  0.26185000  1.0
  C  C35  1  0.35448000  0.03946000  0.73815000  1.0
  C  C36  1  0.91991000  0.90376000  0.51082000  1.0
  C  C37  1  0.08008000  0.09624000  0.48918000  1.0
  C  C38  1  0.97493000  0.83966000  0.05451000  1.0
  C  C39  1  0.02507000  0.16034000  0.94549000  1.0
  C  C40  1  0.00084000  0.97187000  0.41901000  1.0
  C  C41  1  0.99916000  0.02813000  0.58099000  1.0
  C  C42  1  0.63792000  0.04081000  0.29467000  1.0
  C  C43  1  0.36208000  0.95919000  0.70533000  1.0
  C  C44  1  0.72528000  0.75687000  0.60314000  1.0
  C  C45  1  0.27472000  0.24313000  0.39686000  1.0
  C  C46  1  0.72174000  0.13337000  0.23184000  1.0
  C  C47  1  0.27826000  0.86664000  0.76816000  1.0
  C  C48  1  0.61115000  0.07793000  0.45349000  1.0
  C  C49  1  0.38886000  0.92207000  0.54651000  1.0
  C  C50  1  0.83821000  0.80814000  0.52221000  1.0
  C  C51  1  0.16179000  0.19186000  0.47779000  1.0
  C  C52  1  0.86328000  0.76311000  0.45310000  1.0
  C  C53  1  0.13673000  0.23689000  0.54690000  1.0
  C  C54  1  0.82742000  0.80443000  0.02126000  1.0
  C  C55  1  0.17258000  0.19557000  0.97874000  1.0
  C  C56  1  0.43150000  0.69031000  0.35460000  1.0
  C  C57  1  0.56849000  0.30969000  0.64540000  1.0
  C  C58  1  0.56635000  0.74070000  0.06692000  1.0
  C  C59  1  0.43366000  0.25930000  0.93308000  1.0
  C  C60  1  0.11280000  0.84821000  0.19250000  1.0
  C  C61  1  0.88720000  0.15179000  0.80750000  1.0
  C  C62  1  0.57118000  0.54990000  0.33932000  1.0
  C  C63  1  0.42881000  0.45010000  0.66068000  1.0
  C  C64  1  0.55097000  0.05438000  0.55305000  1.0
  C  C65  1  0.44903000  0.94562000  0.44695000  1.0
  C  C66  1  0.44084000  0.48289000  0.38595000  1.0
  C  C67  1  0.55916000  0.51711000  0.61405000  1.0
  C  C68  1  0.81459000  0.80430000  0.92283000  1.0
  C  C69  1  0.18541000  0.19570000  0.07717000  1.0
  C  C70  1  0.98849000  0.55389000  0.24552000  1.0
  C  C71  1  0.01151000  0.44611000  0.75449000  1.0
  C  C72  1  0.56502000  0.02327000  0.39564000  1.0
  C  C73  1  0.43498000  0.97673000  0.60436000  1.0
  C  C74  1  0.92343000  0.93693000  0.59121000  1.0
  C  C75  1  0.07657000  0.06307000  0.40879000  1.0
  C  C76  1  0.72378000  0.51275000  0.30650000  1.0
  C  C77  1  0.27622000  0.48725000  0.69350000  1.0
  C  C78  1  0.24190000  0.90145000  0.12762000  1.0
  C  C79  1  0.75810000  0.09855000  0.87238000  1.0
  C  C80  1  0.67029000  0.77151000  0.89717000  1.0
  C  C81  1  0.32971000  0.22849000  0.10283000  1.0
  C  C82  1  0.09902000  0.89422000  0.98442000  1.0
  C  C83  1  0.90098000  0.10578000  0.01558000  1.0
  C  C84  1  0.89187000  0.38182000  0.27992000  1.0
  C  C85  1  0.10813000  0.61818000  0.72008000  1.0
  C  C86  1  0.74266000  0.41130000  0.30963000  1.0
  C  C87  1  0.25734000  0.58870000  0.69037000  1.0
  C  C88  1  0.23380000  0.92501000  0.02144000  1.0
  C  C89  1  0.76619000  0.07499000  0.97856000  1.0
  C  C90  1  0.30295000  0.52237000  0.41743000  1.0
  C  C91  1  0.69704000  0.47763000  0.58257000  1.0
  C  C92  1  0.29777000  0.62811000  0.40206000  1.0
  C  C93  1  0.70223000  0.37189000  0.59794000  1.0
  C  C94  1  0.54293000  0.73974000  0.97018000  1.0
  C  C95  1  0.45707000  0.26026000  0.02982000  1.0
  C  C96  1  0.01808000  0.45389000  0.24817000  1.0
  C  C97  1  0.98192000  0.54611000  0.75183000  1.0
  N  N98  1  0.98298000  0.81819000  0.15712000  1.0
  N  N99  1  0.01702000  0.18181000  0.84288000  1.0
  N  N100  1  0.88361000  0.72230000  0.39568000  1.0
  N  N101  1  0.11640000  0.27770000  0.60431000  1.0
  N  N102  1  0.70479000  0.77167000  0.09225000  1.0
  N  N103  1  0.29522000  0.22833000  0.90775000  1.0
  N  N104  1  0.79281000  0.20942000  0.17621000  1.0
  N  N105  1  0.20719000  0.79058000  0.82378000  1.0
  N  N106  1  0.84543000  0.58288000  0.27357000  1.0
  N  N107  1  0.15457000  0.41711000  0.72643000  1.0
  N  N108  1  0.56432000  0.65249000  0.32392000  1.0
  N  N109  1  0.43568000  0.34751000  0.67608000  1.0
  N  N110  1  0.65156000  0.89266000  0.23294000  1.0
  N  N111  1  0.34844000  0.10735000  0.76706000  1.0
  N  N112  1  0.62997000  0.71188000  0.66972000  1.0
  N  N113  1  0.37003000  0.28811000  0.33028000  1.0
  F  F114  1  0.72382000  0.15471000  0.41380000  1.0
  F  F115  1  0.27618000  0.84530000  0.58619000  1.0
  F  F116  1  0.00637000  0.94965000  0.33426000  1.0
  F  F117  1  0.99363000  0.05036000  0.66574000  1.0
  F  F118  1  0.85204000  0.87708000  0.68519000  1.0
  F  F119  1  0.14796000  0.12292000  0.31481000  1.0
  F  F120  1  0.61340000  0.10908000  0.60347000  1.0
  F  F121  1  0.38661000  0.89092000  0.39653000  1.0
