# generated using pymatgen
data_Mn3H34C38(N2O9)2
_symmetry_space_group_name_H-M   'P 1'
_cell_length_a   10.19990000
_cell_length_b   10.57930000
_cell_length_c   11.92760000
_cell_angle_alpha   74.01900000
_cell_angle_beta   76.33610000
_cell_angle_gamma   81.42740000
_symmetry_Int_Tables_number   1
_chemical_formula_structural   Mn3H34C38(N2O9)2
_chemical_formula_sum   'Mn3 H34 C38 N4 O18'
_cell_volume   1197.44662486
_cell_formula_units_Z   1
loop_
 _symmetry_equiv_pos_site_id
 _symmetry_equiv_pos_as_xyz
  1  'x, y, z'
loop_
 _atom_site_type_symbol
 _atom_site_label
 _atom_site_symmetry_multiplicity
 _atom_site_fract_x
 _atom_site_fract_y
 _atom_site_fract_z
 _atom_site_occupancy
  Mn  Mn0  1  0.88500000  0.73914000  0.71366000  1.0
  Mn  Mn1  1  0.11499000  0.26087000  0.28635000  1.0
  Mn  Mn2  1  0.50000000  0.50000000  0.50000000  1.0
  H  H3  1  0.88113000  0.71467000  0.48523000  1.0
  H  H4  1  0.11889000  0.28536000  0.51477000  1.0
  H  H5  1  0.01699000  0.77734000  0.48265000  1.0
  H  H6  1  0.98303000  0.22267000  0.51736000  1.0
  H  H7  1  0.75799000  0.51996000  0.44407000  1.0
  H  H8  1  0.24202000  0.48006000  0.55594000  1.0
  H  H9  1  0.76225000  0.38899000  0.39863000  1.0
  H  H10  1  0.23773000  0.61103000  0.60139000  1.0
  H  H11  1  0.57661000  0.58354000  0.68487000  1.0
  H  H12  1  0.42339000  0.41636000  0.31519000  1.0
  H  H13  1  0.59724000  0.42880000  0.70278000  1.0
  H  H14  1  0.40291000  0.57112000  0.29711000  1.0
  H  H15  1  0.39278000  0.71689000  0.70939000  1.0
  H  H16  1  0.60719000  0.28312000  0.29061000  1.0
  H  H17  1  0.14652000  0.08135000  0.62595000  1.0
  H  H18  1  0.85347000  0.91868000  0.37406000  1.0
  H  H19  1  0.56812000  0.08630000  0.62664000  1.0
  H  H20  1  0.43190000  0.91369000  0.37328000  1.0
  H  H21  1  0.79508000  0.91819000  0.89474000  1.0
  H  H22  1  0.20497000  0.08182000  0.10528000  1.0
  H  H23  1  0.69699000  0.89085000  0.11462000  1.0
  H  H24  1  0.30305000  0.10915000  0.88539000  1.0
  H  H25  1  0.67631000  0.65906000  0.24488000  1.0
  H  H26  1  0.32372000  0.34093000  0.75513000  1.0
  H  H27  1  0.75922000  0.47011000  0.15724000  1.0
  H  H28  1  0.24080000  0.52990000  0.84275000  1.0
  H  H29  1  0.84822000  0.32448000  0.07448000  1.0
  H  H30  1  0.15179000  0.67553000  0.92552000  1.0
  H  H31  1  0.91677000  0.15304000  0.95879000  1.0
  H  H32  1  0.08323000  0.84697000  0.04122000  1.0
  H  H33  1  0.97462000  0.22600000  0.73467000  1.0
  H  H34  1  0.02532000  0.77400000  0.26534000  1.0
  H  H35  1  0.95983000  0.46853000  0.63679000  1.0
  H  H36  1  0.04011000  0.53146000  0.36321000  1.0
  C  C37  1  0.13771000  0.81877000  0.68647000  1.0
  C  C38  1  0.86223000  0.18127000  0.31353000  1.0
  C  C39  1  0.38325000  0.82436000  0.68566000  1.0
  C  C40  1  0.61671000  0.17564000  0.31432000  1.0
  C  C41  1  0.63003000  0.82355000  0.68726000  1.0
  C  C42  1  0.36996000  0.17641000  0.31272000  1.0
  C  C43  1  0.25786000  0.89254000  0.66982000  1.0
  C  C44  1  0.74211000  0.10749000  0.33018000  1.0
  C  C45  1  0.49492000  0.89402000  0.67128000  1.0
  C  C46  1  0.50508000  0.10596000  0.32869000  1.0
  C  C47  1  0.24483000  0.03057000  0.63821000  1.0
  C  C48  1  0.75516000  0.96946000  0.36177000  1.0
  C  C49  1  0.48091000  0.03199000  0.63938000  1.0
  C  C50  1  0.51911000  0.96799000  0.36055000  1.0
  C  C51  1  0.35619000  0.10094000  0.62182000  1.0
  C  C52  1  0.64382000  0.89907000  0.37814000  1.0
  C  C53  1  0.34502000  0.24876000  0.58670000  1.0
  C  C54  1  0.65499000  0.75125000  0.41329000  1.0
  C  C55  1  0.78547000  0.82089000  0.95672000  1.0
  C  C56  1  0.21457000  0.17911000  0.04329000  1.0
  C  C57  1  0.73101000  0.80510000  0.07787000  1.0
  C  C58  1  0.26902000  0.19490000  0.92214000  1.0
  C  C59  1  0.72073000  0.67699000  0.15031000  1.0
  C  C60  1  0.27929000  0.32302000  0.84970000  1.0
  C  C61  1  0.76548000  0.56997000  0.10037000  1.0
  C  C62  1  0.23454000  0.43004000  0.89963000  1.0
  C  C63  1  0.81831000  0.59364000  0.97784000  1.0
  C  C64  1  0.18171000  0.40637000  0.02215000  1.0
  C  C65  1  0.86341000  0.48637000  0.91594000  1.0
  C  C66  1  0.13659000  0.51364000  0.08405000  1.0
  C  C67  1  0.87114000  0.35281000  0.97743000  1.0
  C  C68  1  0.12885000  0.64719000  0.02257000  1.0
  C  C69  1  0.91031000  0.25750000  0.91260000  1.0
  C  C70  1  0.08967000  0.74249000  0.08741000  1.0
  C  C71  1  0.94211000  0.29746000  0.78841000  1.0
  C  C72  1  0.05784000  0.70254000  0.21160000  1.0
  C  C73  1  0.93432000  0.43204000  0.73348000  1.0
  C  C74  1  0.06564000  0.56795000  0.26653000  1.0
  N  N75  1  0.82764000  0.71796000  0.90795000  1.0
  N  N76  1  0.17239000  0.28205000  0.09205000  1.0
  N  N77  1  0.89554000  0.52446000  0.79540000  1.0
  N  N78  1  0.10443000  0.47555000  0.20459000  1.0
  O  O79  1  0.95310000  0.71423000  0.53139000  1.0
  O  O80  1  0.04689000  0.28581000  0.46862000  1.0
  O  O81  1  0.71858000  0.43386000  0.46295000  1.0
  O  O82  1  0.28142000  0.56616000  0.53706000  1.0
  O  O83  1  0.53526000  0.50532000  0.67815000  1.0
  O  O84  1  0.46477000  0.49456000  0.32191000  1.0
  O  O85  1  0.65087000  0.69858000  0.70180000  1.0
  O  O86  1  0.34909000  0.30137000  0.29825000  1.0
  O  O87  1  0.72436000  0.89164000  0.68551000  1.0
  O  O88  1  0.27564000  0.10831000  0.31447000  1.0
  O  O89  1  0.15174000  0.69310000  0.70823000  1.0
  O  O90  1  0.84818000  0.30693000  0.29179000  1.0
  O  O91  1  0.02301000  0.88536000  0.67953000  1.0
  O  O92  1  0.97694000  0.11469000  0.32048000  1.0
  O  O93  1  0.23014000  0.31272000  0.57572000  1.0
  O  O94  1  0.76988000  0.68731000  0.42429000  1.0
  O  O95  1  0.45278000  0.30308000  0.57376000  1.0
  O  O96  1  0.54724000  0.69691000  0.42624000  1.0
