# generated using pymatgen
data_UH7C9N3O5
_symmetry_space_group_name_H-M   'P 1'
_cell_length_a   8.87241000
_cell_length_b   9.42838000
_cell_length_c   12.69860000
_cell_angle_alpha   90.00010000
_cell_angle_beta   90.00010000
_cell_angle_gamma   97.68690000
_symmetry_Int_Tables_number   1
_chemical_formula_structural   UH7C9N3O5
_chemical_formula_sum   'U4 H28 C36 N12 O20'
_cell_volume   1052.72328624
_cell_formula_units_Z   4
loop_
 _symmetry_equiv_pos_site_id
 _symmetry_equiv_pos_as_xyz
  1  'x, y, z'
loop_
 _atom_site_type_symbol
 _atom_site_label
 _atom_site_symmetry_multiplicity
 _atom_site_fract_x
 _atom_site_fract_y
 _atom_site_fract_z
 _atom_site_occupancy
  U  U0  1  0.20437000  0.47421000  0.94610000  1.0
  U  U1  1  0.79563000  0.02579000  0.44611000  1.0
  U  U2  1  0.79563000  0.52579000  0.05389000  1.0
  U  U3  1  0.20437000  0.97422000  0.55390000  1.0
  H  H4  1  0.08196000  0.54310000  0.16137000  1.0
  H  H5  1  0.91804000  0.95690000  0.66138000  1.0
  H  H6  1  0.91804000  0.45690000  0.83862000  1.0
  H  H7  1  0.08196000  0.04310000  0.33863000  1.0
  H  H8  1  0.10811000  0.29625000  0.41226000  1.0
  H  H9  1  0.89190000  0.20375000  0.91226000  1.0
  H  H10  1  0.89189000  0.70375000  0.58775000  1.0
  H  H11  1  0.10810000  0.79626000  0.08775000  1.0
  H  H12  1  0.21180000  0.31913000  0.23289000  1.0
  H  H13  1  0.78821000  0.18087000  0.73290000  1.0
  H  H14  1  0.78821000  0.68086000  0.76710000  1.0
  H  H15  1  0.21179000  0.81914000  0.26710000  1.0
  H  H16  1  0.41315000  0.67320000  0.50579000  1.0
  H  H17  1  0.58686000  0.82680000  0.00578000  1.0
  H  H18  1  0.58685000  0.32680000  0.49421000  1.0
  H  H19  1  0.41315000  0.17320000  0.99422000  1.0
  H  H20  1  0.52287000  0.68837000  0.32844000  1.0
  H  H21  1  0.47713000  0.81164000  0.82843000  1.0
  H  H22  1  0.47713000  0.31163000  0.67156000  1.0
  H  H23  1  0.52287000  0.18836000  0.17157000  1.0
  H  H24  1  0.98579000  0.31814000  0.55292000  1.0
  H  H25  1  0.01421000  0.18185000  0.05293000  1.0
  H  H26  1  0.01421000  0.68186000  0.44708000  1.0
  H  H27  1  0.98579000  0.81814000  0.94707000  1.0
  H  H28  1  0.35415000  0.60891000  0.66899000  1.0
  H  H29  1  0.64584000  0.89109000  0.16899000  1.0
  H  H30  1  0.64585000  0.39109000  0.33101000  1.0
  H  H31  1  0.35416000  0.10891000  0.83101000  1.0
  C  C32  1  0.44097000  0.51287000  0.16024000  1.0
  C  C33  1  0.55903000  0.98713000  0.66024000  1.0
  C  C34  1  0.55903000  0.48713000  0.83976000  1.0
  C  C35  1  0.44097000  0.01287000  0.33976000  1.0
  C  C36  1  0.37462000  0.50519000  0.26809000  1.0
  C  C37  1  0.62538000  0.99482000  0.76808000  1.0
  C  C38  1  0.62538000  0.49481000  0.73192000  1.0
  C  C39  1  0.37462000  0.00518000  0.23192000  1.0
  C  C40  1  0.19807000  0.38285000  0.39440000  1.0
  C  C41  1  0.80193000  0.11715000  0.89440000  1.0
  C  C42  1  0.80193000  0.61715000  0.60560000  1.0
  C  C43  1  0.19807000  0.88285000  0.10560000  1.0
  C  C44  1  0.25679000  0.39568000  0.29298000  1.0
  C  C45  1  0.74321000  0.10433000  0.79298000  1.0
  C  C46  1  0.74321000  0.60432000  0.70702000  1.0
  C  C47  1  0.25679000  0.89568000  0.20702000  1.0
  C  C48  1  0.25439000  0.48206000  0.47155000  1.0
  C  C49  1  0.74561000  0.01794000  0.97155000  1.0
  C  C50  1  0.74560000  0.51793000  0.52845000  1.0
  C  C51  1  0.25439000  0.98206000  0.02845000  1.0
  C  C52  1  0.37042000  0.59322000  0.44750000  1.0
  C  C53  1  0.62958000  0.90678000  0.94750000  1.0
  C  C54  1  0.62957000  0.40678000  0.55250000  1.0
  C  C55  1  0.37043000  0.09322000  0.05251000  1.0
  C  C56  1  0.43102000  0.60329000  0.34634000  1.0
  C  C57  1  0.56898000  0.89672000  0.84634000  1.0
  C  C58  1  0.56898000  0.39671000  0.65366000  1.0
  C  C59  1  0.43102000  0.10329000  0.15366000  1.0
  C  C60  1  0.06139000  0.38363000  0.60626000  1.0
  C  C61  1  0.93861000  0.11636000  0.10627000  1.0
  C  C62  1  0.93861000  0.61637000  0.39374000  1.0
  C  C63  1  0.06139000  0.88364000  0.89373000  1.0
  C  C64  1  0.25131000  0.53319000  0.66515000  1.0
  C  C65  1  0.74869000  0.96681000  0.16515000  1.0
  C  C66  1  0.74869000  0.46681000  0.33485000  1.0
  C  C67  1  0.25131000  0.03319000  0.83485000  1.0
  N  N68  1  0.19242000  0.46863000  0.57494000  1.0
  N  N69  1  0.80758000  0.03137000  0.07494000  1.0
  N  N70  1  0.80757000  0.53137000  0.42506000  1.0
  N  N71  1  0.19243000  0.96863000  0.92506000  1.0
  N  N72  1  0.04125000  0.39538000  0.70813000  1.0
  N  N73  1  0.95875000  0.10461000  0.20814000  1.0
  N  N74  1  0.95875000  0.60461000  0.29187000  1.0
  N  N75  1  0.04125000  0.89539000  0.79187000  1.0
  N  N76  1  0.16331000  0.48876000  0.74542000  1.0
  N  N77  1  0.83669000  0.01123000  0.24542000  1.0
  N  N78  1  0.83669000  0.51124000  0.25458000  1.0
  N  N79  1  0.16332000  0.98877000  0.75458000  1.0
  O  O80  1  0.14708000  0.28112000  0.94165000  1.0
  O  O81  1  0.85292000  0.21888000  0.44165000  1.0
  O  O82  1  0.85292000  0.71888000  0.05835000  1.0
  O  O83  1  0.14708000  0.78112000  0.55836000  1.0
  O  O84  1  0.27801000  0.66331000  0.94065000  1.0
  O  O85  1  0.72199000  0.83669000  0.44066000  1.0
  O  O86  1  0.72199000  0.33669000  0.05935000  1.0
  O  O87  1  0.27801000  0.16331000  0.55934000  1.0
  O  O88  1  0.36300000  0.44543000  0.08679000  1.0
  O  O89  1  0.63700000  0.05458000  0.58679000  1.0
  O  O90  1  0.63700000  0.55457000  0.91321000  1.0
  O  O91  1  0.36300000  0.94543000  0.41321000  1.0
  O  O92  1  0.05065000  0.50147000  0.09270000  1.0
  O  O93  1  0.94935000  0.99853000  0.59270000  1.0
  O  O94  1  0.94935000  0.49853000  0.90730000  1.0
  O  O95  1  0.05065000  0.00147000  0.40730000  1.0
  O  O96  1  0.57267000  0.58241000  0.14588000  1.0
  O  O97  1  0.42733000  0.91759000  0.64588000  1.0
  O  O98  1  0.42733000  0.41758000  0.85412000  1.0
  O  O99  1  0.57267000  0.08241000  0.35412000  1.0
