# generated using pymatgen
data_AlH7C16N4O9
_symmetry_space_group_name_H-M   'P 1'
_cell_length_a   6.94894000
_cell_length_b   23.99140000
_cell_length_c   27.34080000
_cell_angle_alpha   94.37560000
_cell_angle_beta   89.99970000
_cell_angle_gamma   90.00000000
_symmetry_Int_Tables_number   1
_chemical_formula_structural   AlH7C16N4O9
_chemical_formula_sum   'Al4 H28 C64 N16 O36'
_cell_volume   4544.83059123
_cell_formula_units_Z   4
loop_
 _symmetry_equiv_pos_site_id
 _symmetry_equiv_pos_as_xyz
  1  'x, y, z'
loop_
 _atom_site_type_symbol
 _atom_site_label
 _atom_site_symmetry_multiplicity
 _atom_site_fract_x
 _atom_site_fract_y
 _atom_site_fract_z
 _atom_site_occupancy
  Al  Al0  1  0.78494000  0.25007000  0.75072000  1.0
  Al  Al1  1  0.21506000  0.74993000  0.24928000  1.0
  Al  Al2  1  0.28493000  0.24993000  0.74928000  1.0
  Al  Al3  1  0.71507000  0.75007000  0.25072000  1.0
  H  H4  1  0.26530000  0.64644000  0.12839000  1.0
  H  H5  1  0.73470000  0.35356000  0.87160000  1.0
  H  H6  1  0.76530000  0.85356000  0.37160000  1.0
  H  H7  1  0.23471000  0.14645000  0.62839000  1.0
  H  H8  1  0.27908000  0.57551000  0.05577000  1.0
  H  H9  1  0.72090000  0.42448000  0.94423000  1.0
  H  H10  1  0.77910000  0.92449000  0.44423000  1.0
  H  H11  1  0.22092000  0.07552000  0.55577000  1.0
  H  H12  1  0.27925000  0.64782000  0.35617000  1.0
  H  H13  1  0.72075000  0.35219000  0.64383000  1.0
  H  H14  1  0.77926000  0.85218000  0.14383000  1.0
  H  H15  1  0.22075000  0.14781000  0.85617000  1.0
  H  H16  1  0.29211000  0.58187000  0.42332000  1.0
  H  H17  1  0.70787000  0.41814000  0.57668000  1.0
  H  H18  1  0.79212000  0.91813000  0.07668000  1.0
  H  H19  1  0.20789000  0.08187000  0.92332000  1.0
  H  H20  1  0.67357000  0.57386000  0.42400000  1.0
  H  H21  1  0.32643000  0.42615000  0.57599000  1.0
  H  H22  1  0.17358000  0.92615000  0.07599000  1.0
  H  H23  1  0.82644000  0.07386000  0.92401000  1.0
  H  H24  1  0.66210000  0.64012000  0.35700000  1.0
  H  H25  1  0.33790000  0.35987000  0.64300000  1.0
  H  H26  1  0.16211000  0.85988000  0.14300000  1.0
  H  H27  1  0.83790000  0.14013000  0.85700000  1.0
  H  H28  1  0.53550000  0.32313000  0.76469000  1.0
  H  H29  1  0.46450000  0.67688000  0.23531000  1.0
  H  H30  1  0.03550000  0.17687000  0.73531000  1.0
  H  H31  1  0.96450000  0.82313000  0.26469000  1.0
  C  C32  1  0.53456000  0.18584000  0.81244000  1.0
  C  C33  1  0.46544000  0.81416000  0.18756000  1.0
  C  C34  1  0.03456000  0.31416000  0.68755000  1.0
  C  C35  1  0.96544000  0.68584000  0.31244000  1.0
  C  C36  1  0.53434000  0.18241000  0.68112000  1.0
  C  C37  1  0.46566000  0.81759000  0.31888000  1.0
  C  C38  1  0.03434000  0.31760000  0.81888000  1.0
  C  C39  1  0.96566000  0.68241000  0.18112000  1.0
  C  C40  1  0.80191000  0.57397000  0.07988000  1.0
  C  C41  1  0.19808000  0.42602000  0.92012000  1.0
  C  C42  1  0.30191000  0.92603000  0.42012000  1.0
  C  C43  1  0.69810000  0.07397000  0.57989000  1.0
  C  C44  1  0.79654000  0.61316000  0.12003000  1.0
  C  C45  1  0.20346000  0.38683000  0.87997000  1.0
  C  C46  1  0.29654000  0.88684000  0.37996000  1.0
  C  C47  1  0.70347000  0.11316000  0.62004000  1.0
  C  C48  1  0.96419000  0.63926000  0.13841000  1.0
  C  C49  1  0.03581000  0.36074000  0.86159000  1.0
  C  C50  1  0.46419000  0.86074000  0.36159000  1.0
  C  C51  1  0.53581000  0.13926000  0.63841000  1.0
  C  C52  1  0.13694000  0.62482000  0.11464000  1.0
  C  C53  1  0.86305000  0.37518000  0.88536000  1.0
  C  C54  1  0.63694000  0.87518000  0.38536000  1.0
  C  C55  1  0.36307000  0.12482000  0.61464000  1.0
  C  C56  1  0.14464000  0.58607000  0.07449000  1.0
  C  C57  1  0.85535000  0.41392000  0.92551000  1.0
  C  C58  1  0.64465000  0.91393000  0.42551000  1.0
  C  C59  1  0.35536000  0.08608000  0.57449000  1.0
  C  C60  1  0.97691000  0.55899000  0.05632000  1.0
  C  C61  1  0.02309000  0.44100000  0.94368000  1.0
  C  C62  1  0.47691000  0.94100000  0.44369000  1.0
  C  C63  1  0.52310000  0.05899000  0.55632000  1.0
  C  C64  1  0.98852000  0.51797000  0.01671000  1.0
  C  C65  1  0.01151000  0.48202000  0.98329000  1.0
  C  C66  1  0.48849000  0.98202000  0.48330000  1.0
  C  C67  1  0.51150000  0.01797000  0.51671000  1.0
  C  C68  1  0.14811000  0.63136000  0.37150000  1.0
  C  C69  1  0.85189000  0.36865000  0.62850000  1.0
  C  C70  1  0.64812000  0.86864000  0.12850000  1.0
  C  C71  1  0.35189000  0.13136000  0.87150000  1.0
  C  C72  1  0.15520000  0.59491000  0.40851000  1.0
  C  C73  1  0.84479000  0.40509000  0.59149000  1.0
  C  C74  1  0.65521000  0.90509000  0.09149000  1.0
  C  C75  1  0.34480000  0.09491000  0.90851000  1.0
  C  C76  1  0.98366000  0.57396000  0.42740000  1.0
  C  C77  1  0.01633000  0.42605000  0.57259000  1.0
  C  C78  1  0.48367000  0.92604000  0.07259000  1.0
  C  C79  1  0.51634000  0.07396000  0.92741000  1.0
  C  C80  1  0.80503000  0.59044000  0.40894000  1.0
  C  C81  1  0.19496000  0.40956000  0.59105000  1.0
  C  C82  1  0.30504000  0.90956000  0.09106000  1.0
  C  C83  1  0.69497000  0.09044000  0.90895000  1.0
  C  C84  1  0.79882000  0.62704000  0.37194000  1.0
  C  C85  1  0.20117000  0.37296000  0.62805000  1.0
  C  C86  1  0.29883000  0.87296000  0.12806000  1.0
  C  C87  1  0.70118000  0.12704000  0.87195000  1.0
  C  C88  1  0.97019000  0.64753000  0.35288000  1.0
  C  C89  1  0.02981000  0.35247000  0.64712000  1.0
  C  C90  1  0.47019000  0.85246000  0.14712000  1.0
  C  C91  1  0.52981000  0.14753000  0.85288000  1.0
  C  C92  1  0.00784000  0.46531000  0.53390000  1.0
  C  C93  1  0.99214000  0.53469000  0.46610000  1.0
  C  C94  1  0.50786000  0.03469000  0.96610000  1.0
  C  C95  1  0.49215000  0.96531000  0.03390000  1.0
  N  N96  1  0.82398000  0.51495000  0.48299000  1.0
  N  N97  1  0.17601000  0.48507000  0.51702000  1.0
  N  N98  1  0.32399000  0.98506000  0.01701000  1.0
  N  N99  1  0.67602000  0.01494000  0.98298000  1.0
  N  N100  1  0.83198000  0.47969000  0.51746000  1.0
  N  N101  1  0.16801000  0.52032000  0.48254000  1.0
  N  N102  1  0.33199000  0.02032000  0.98254000  1.0
  N  N103  1  0.66802000  0.97968000  0.01746000  1.0
  N  N104  1  0.62251000  0.54850000  0.06055000  1.0
  N  N105  1  0.37748000  0.45149000  0.93945000  1.0
  N  N106  1  0.12252000  0.95149000  0.43945000  1.0
  N  N107  1  0.87749000  0.04850000  0.56055000  1.0
  N  N108  1  0.60882000  0.63222000  0.14005000  1.0
  N  N109  1  0.39118000  0.36778000  0.85995000  1.0
  N  N110  1  0.10882000  0.86778000  0.35995000  1.0
  N  N111  1  0.89119000  0.13222000  0.64005000  1.0
  O  O112  1  0.36948000  0.19834000  0.69645000  1.0
  O  O113  1  0.63052000  0.80166000  0.30355000  1.0
  O  O114  1  0.86948000  0.30166000  0.80355000  1.0
  O  O115  1  0.13051000  0.69834000  0.19645000  1.0
  O  O116  1  0.70005000  0.20015000  0.79740000  1.0
  O  O117  1  0.29995000  0.79985000  0.20260000  1.0
  O  O118  1  0.20005000  0.29984000  0.70260000  1.0
  O  O119  1  0.79995000  0.70015000  0.29739000  1.0
  O  O120  1  0.69669000  0.19862000  0.69810000  1.0
  O  O121  1  0.30331000  0.80139000  0.30190000  1.0
  O  O122  1  0.19669000  0.30139000  0.80190000  1.0
  O  O123  1  0.80330000  0.69861000  0.19810000  1.0
  O  O124  1  0.87178000  0.29975000  0.70421000  1.0
  O  O125  1  0.12822000  0.70025000  0.29579000  1.0
  O  O126  1  0.37178000  0.20025000  0.79579000  1.0
  O  O127  1  0.62822000  0.79975000  0.20421000  1.0
  O  O128  1  0.53489000  0.28417000  0.75189000  1.0
  O  O129  1  0.46510000  0.71584000  0.24810000  1.0
  O  O130  1  0.03489000  0.21583000  0.74810000  1.0
  O  O131  1  0.96511000  0.78417000  0.25189000  1.0
  O  O132  1  0.57619000  0.55846000  0.01837000  1.0
  O  O133  1  0.53075000  0.51973000  0.08816000  1.0
  O  O134  1  0.42380000  0.44153000  0.98163000  1.0
  O  O135  1  0.46924000  0.48027000  0.91184000  1.0
  O  O136  1  0.07620000  0.94154000  0.48163000  1.0
  O  O137  1  0.03075000  0.98027000  0.41184000  1.0
  O  O138  1  0.92380000  0.05845000  0.51837000  1.0
  O  O139  1  0.96924000  0.01972000  0.58817000  1.0
  O  O140  1  0.53499000  0.67039000  0.11848000  1.0
  O  O141  1  0.54081000  0.60966000  0.17521000  1.0
  O  O142  1  0.46500000  0.32960000  0.88152000  1.0
  O  O143  1  0.45919000  0.39034000  0.82479000  1.0
  O  O144  1  0.03500000  0.82961000  0.38152000  1.0
  O  O145  1  0.04079000  0.89034000  0.32478000  1.0
  O  O146  1  0.96501000  0.17039000  0.61848000  1.0
  O  O147  1  0.95921000  0.10966000  0.67522000  1.0
