# generated using pymatgen
data_Al4H33C68(O8F3)5
_symmetry_space_group_name_H-M   'P 1'
_cell_length_a   6.70215000
_cell_length_b   20.10020000
_cell_length_c   24.09960000
_cell_angle_alpha   89.56530000
_cell_angle_beta   85.15110000
_cell_angle_gamma   89.01910000
_symmetry_Int_Tables_number   1
_chemical_formula_structural   Al4H33C68(O8F3)5
_chemical_formula_sum   'Al4 H33 C68 O40 F15'
_cell_volume   3234.41221692
_cell_formula_units_Z   1
loop_
 _symmetry_equiv_pos_site_id
 _symmetry_equiv_pos_as_xyz
  1  'x, y, z'
loop_
 _atom_site_type_symbol
 _atom_site_label
 _atom_site_symmetry_multiplicity
 _atom_site_fract_x
 _atom_site_fract_y
 _atom_site_fract_z
 _atom_site_occupancy
  Al  Al0  1  0.13139000  0.49851000  0.50025000  1.0
  Al  Al1  1  0.63078000  0.50462000  0.50288000  1.0
  Al  Al2  1  0.72254000  0.00026000  0.99969000  1.0
  Al  Al3  1  0.22450000  0.99936000  0.99761000  1.0
  H  H4  1  0.73548000  0.28534000  0.48781000  1.0
  H  H5  1  0.65338000  0.13097000  0.34430000  1.0
  H  H6  1  0.67217000  0.18388000  0.43251000  1.0
  H  H7  1  0.21551000  0.66780000  0.24980000  1.0
  H  H8  1  0.98952000  0.86015000  0.26682000  1.0
  H  H9  1  0.62518000  0.75220000  0.20420000  1.0
  H  H10  1  0.36732000  0.20255000  0.65676000  1.0
  H  H11  1  0.53467000  0.63575000  0.64285000  1.0
  H  H12  1  0.94101000  0.82150000  0.70977000  1.0
  H  H13  1  0.29031000  0.83611000  0.17701000  1.0
  H  H14  1  0.10462000  0.70184000  0.14576000  1.0
  H  H15  1  0.20468000  0.76923000  0.32887000  1.0
  H  H16  1  0.57326000  0.84012000  0.26145000  1.0
  H  H17  1  0.02809000  0.40170000  0.30324000  1.0
  H  H18  1  0.90098000  0.84091000  0.36510000  1.0
  H  H19  1  0.69120000  0.36281000  0.68506000  1.0
  H  H20  1  0.04659000  0.32045000  0.73109000  1.0
  H  H21  1  0.44030000  0.37512000  0.81523000  1.0
  H  H22  1  0.31437000  0.28236000  0.89120000  1.0
  H  H23  1  0.03119000  0.28024000  0.81455000  1.0
  H  H24  1  0.01454000  0.19753000  0.70348000  1.0
  H  H25  1  0.85518000  0.63806000  0.84583000  1.0
  H  H26  1  0.88526000  0.70273000  0.93830000  1.0
  H  H27  1  0.75867000  0.83862000  0.98149000  1.0
  H  H28  1  0.36513000  0.89375000  0.79850000  1.0
  H  H29  1  0.78665000  0.60983000  0.73144000  1.0
  H  H30  1  0.11821000  0.85227000  0.83292000  1.0
  H  H31  1  0.91758000  0.33161000  0.01462000  1.0
  H  H32  1  0.89789000  0.09367000  0.19896000  1.0
  H  H33  1  0.40950000  0.48956000  0.42904000  1.0
  H  H34  1  0.87274000  0.54652000  0.56223000  1.0
  H  H35  1  0.44520000  0.03718000  0.06447000  1.0
  H  H36  1  0.99033000  0.01028000  0.92644000  1.0
  C  C37  1  0.36130000  0.42643000  0.58009000  1.0
  C  C38  1  0.35367000  0.60396000  0.55378000  1.0
  C  C39  1  0.90299000  0.57374000  0.42077000  1.0
  C  C40  1  0.89609000  0.39907000  0.45047000  1.0
  C  C41  1  0.93765000  0.16406000  0.08454000  1.0
  C  C42  1  0.87684000  0.33729000  0.41694000  1.0
  C  C43  1  0.90799000  0.28496000  0.08363000  1.0
  C  C44  1  0.92287000  0.22439000  0.05668000  1.0
  C  C45  1  0.93120000  0.16263000  0.14259000  1.0
  C  C46  1  0.89078000  0.22237000  0.17381000  1.0
  C  C47  1  0.89258000  0.28418000  0.14273000  1.0
  C  C48  1  0.85420000  0.22470000  0.23415000  1.0
  C  C49  1  0.87579000  0.28517000  0.26455000  1.0
  C  C50  1  0.88060000  0.34354000  0.23083000  1.0
  C  C51  1  0.87998000  0.34377000  0.17399000  1.0
  C  C52  1  0.77035000  0.17150000  0.26725000  1.0
  C  C53  1  0.72925000  0.17282000  0.32335000  1.0
  C  C54  1  0.78033000  0.22879000  0.35425000  1.0
  C  C55  1  0.86493000  0.28580000  0.32518000  1.0
  C  C56  1  0.73973000  0.22791000  0.41267000  1.0
  C  C57  1  0.77856000  0.28305000  0.44322000  1.0
  C  C58  1  0.93025000  0.33806000  0.35952000  1.0
  C  C59  1  0.78051000  0.73317000  0.19881000  1.0
  C  C60  1  0.15013000  0.76054000  0.20904000  1.0
  C  C61  1  0.15528000  0.71652000  0.26372000  1.0
  C  C62  1  0.91748000  0.62037000  0.37484000  1.0
  C  C63  1  0.93052000  0.78951000  0.20432000  1.0
  C  C64  1  0.81184000  0.67913000  0.24349000  1.0
  C  C65  1  0.93582000  0.70626000  0.29033000  1.0
  C  C66  1  0.84855000  0.77552000  0.30928000  1.0
  C  C67  1  0.86525000  0.82699000  0.26014000  1.0
  C  C68  1  0.92964000  0.65972000  0.33647000  1.0
  C  C69  1  0.93222000  0.83588000  0.15819000  1.0
  C  C70  1  0.95020000  0.87569000  0.12007000  1.0
  C  C71  1  0.62745000  0.27436000  0.71040000  1.0
  C  C72  1  0.30950000  0.32260000  0.76351000  1.0
  C  C73  1  0.31309000  0.26811000  0.81235000  1.0
  C  C74  1  0.49289000  0.12195000  0.87443000  1.0
  C  C75  1  0.40007000  0.29048000  0.70678000  1.0
  C  C76  1  0.65218000  0.23278000  0.76526000  1.0
  C  C77  1  0.44788000  0.20630000  0.79095000  1.0
  C  C78  1  0.34554000  0.17242000  0.74265000  1.0
  C  C79  1  0.29827000  0.22329000  0.69601000  1.0
  C  C80  1  0.47559000  0.16022000  0.83598000  1.0
  C  C81  1  0.37682000  0.33710000  0.66168000  1.0
  C  C82  1  0.36337000  0.37759000  0.62453000  1.0
  C  C83  1  0.52747000  0.84135000  0.90766000  1.0
  C  C84  1  0.31359000  0.66389000  0.58916000  1.0
  C  C85  1  0.68995000  0.73397000  0.89030000  1.0
  C  C86  1  0.65644000  0.78935000  0.92369000  1.0
  C  C87  1  0.43756000  0.83539000  0.85754000  1.0
  C  C88  1  0.45685000  0.77751000  0.82423000  1.0
  C  C89  1  0.60047000  0.72817000  0.83969000  1.0
  C  C90  1  0.35513000  0.76828000  0.77391000  1.0
  C  C91  1  0.43443000  0.72125000  0.73269000  1.0
  C  C92  1  0.59521000  0.67851000  0.74751000  1.0
  C  C93  1  0.66263000  0.67851000  0.80032000  1.0
  C  C94  1  0.16349000  0.79948000  0.76535000  1.0
  C  C95  1  0.08312000  0.79608000  0.71468000  1.0
  C  C96  1  0.17360000  0.75646000  0.67140000  1.0
  C  C97  1  0.34543000  0.71536000  0.68010000  1.0
  C  C98  1  0.08752000  0.75316000  0.61990000  1.0
  C  C99  1  0.15253000  0.70767000  0.57984000  1.0
  C  C100  1  0.41102000  0.66988000  0.63744000  1.0
  C  C101  1  0.50320000  0.90102000  0.94281000  1.0
  C  C102  1  0.48597000  0.07546000  0.92036000  1.0
  C  C103  1  0.94974000  0.10007000  0.05272000  1.0
  C  C104  1  0.96472000  0.92291000  0.07472000  1.0
  O  O105  1  0.53319000  0.58329000  0.54256000  1.0
  O  O106  1  0.19427000  0.44019000  0.56134000  1.0
  O  O107  1  0.06597000  0.42013000  0.46091000  1.0
  O  O108  1  0.19613000  0.57554000  0.54053000  1.0
  O  O109  1  0.06791000  0.55263000  0.43731000  1.0
  O  O110  1  0.53154000  0.45058000  0.56523000  1.0
  O  O111  1  0.39353000  0.49357000  0.46921000  1.0
  O  O112  1  0.72653000  0.55824000  0.43965000  1.0
  O  O113  1  0.72708000  0.42533000  0.46611000  1.0
  O  O114  1  0.87269000  0.51145000  0.53474000  1.0
  O  O115  1  0.31000000  0.06440000  0.94231000  1.0
  O  O116  1  0.65854000  0.91689000  0.96796000  1.0
  O  O117  1  0.80111000  0.94980000  0.06225000  1.0
  O  O118  1  0.64993000  0.04974000  0.93415000  1.0
  O  O119  1  0.78471000  0.08140000  0.03609000  1.0
  O  O120  1  0.33694000  0.93209000  0.94815000  1.0
  O  O121  1  0.46210000  0.00825000  0.03231000  1.0
  O  O122  1  0.11861000  0.07079000  0.04560000  1.0
  O  O123  1  0.13918000  0.93336000  0.05154000  1.0
  O  O124  1  0.98187000  0.99438000  0.96470000  1.0
  O  O125  1  0.28645000  0.81242000  0.21277000  1.0
  O  O126  1  0.21713000  0.72343000  0.16116000  1.0
  O  O127  1  0.28162000  0.74008000  0.30225000  1.0
  O  O128  1  0.69323000  0.86760000  0.25835000  1.0
  O  O129  1  0.04946000  0.38930000  0.34150000  1.0
  O  O130  1  0.94763000  0.79600000  0.35491000  1.0
  O  O131  1  0.74938000  0.32762000  0.70745000  1.0
  O  O132  1  0.10999000  0.34445000  0.76040000  1.0
  O  O133  1  0.42403000  0.37682000  0.77512000  1.0
  O  O134  1  0.39505000  0.29851000  0.85844000  1.0
  O  O135  1  0.12315000  0.24614000  0.82848000  1.0
  O  O136  1  0.09334000  0.23656000  0.69237000  1.0
  O  O137  1  0.80473000  0.63063000  0.80912000  1.0
  O  O138  1  0.82399000  0.68562000  0.90587000  1.0
  O  O139  1  0.75960000  0.79115000  0.97004000  1.0
  O  O140  1  0.34047000  0.89205000  0.83911000  1.0
  O  O141  1  0.68542000  0.63333000  0.71109000  1.0
  O  O142  1  0.03997000  0.82829000  0.80684000  1.0
  O  O143  1  0.90954000  0.34318000  0.05404000  1.0
  O  O144  1  0.98015000  0.10213000  0.16426000  1.0
  F  F145  1  0.86537000  0.40341000  0.14850000  1.0
  F  F146  1  0.91684000  0.62557000  0.21907000  1.0
  F  F147  1  0.80669000  0.70470000  0.14547000  1.0
  F  F148  1  0.64608000  0.76895000  0.32686000  1.0
  F  F149  1  0.63102000  0.65510000  0.26438000  1.0
  F  F150  1  0.73495000  0.27182000  0.80329000  1.0
  F  F151  1  0.47140000  0.12309000  0.71921000  1.0
  F  F152  1  0.68590000  0.23094000  0.66525000  1.0
  F  F153  1  0.78276000  0.17983000  0.75511000  1.0
  F  F154  1  0.17525000  0.14017000  0.76240000  1.0
  F  F155  1  0.06209000  0.70617000  0.53176000  1.0
  F  F156  1  0.93187000  0.79497000  0.61064000  1.0
  F  F157  1  0.93261000  0.22569000  0.99960000  1.0
  F  F158  1  0.85973000  0.40527000  0.25487000  1.0
  F  F159  1  0.70171000  0.11604000  0.24109000  1.0
