# generated using pymatgen
data_CuH4C6(N2O)2
_symmetry_space_group_name_H-M   'P 1'
_cell_length_a   4.89103000
_cell_length_b   10.53790000
_cell_length_c   14.38730000
_cell_angle_alpha   89.99930000
_cell_angle_beta   89.99850000
_cell_angle_gamma   89.63580000
_symmetry_Int_Tables_number   1
_chemical_formula_structural   CuH4C6(N2O)2
_chemical_formula_sum   'Cu4 H16 C24 N16 O8'
_cell_volume   741.52351031
_cell_formula_units_Z   4
loop_
 _symmetry_equiv_pos_site_id
 _symmetry_equiv_pos_as_xyz
  1  'x, y, z'
loop_
 _atom_site_type_symbol
 _atom_site_label
 _atom_site_symmetry_multiplicity
 _atom_site_fract_x
 _atom_site_fract_y
 _atom_site_fract_z
 _atom_site_occupancy
  Cu  Cu0  1  0.63421000  0.05670000  0.90857000  1.0
  Cu  Cu1  1  0.86578000  0.44330000  0.40857000  1.0
  Cu  Cu2  1  0.36579000  0.94330000  0.09143000  1.0
  Cu  Cu3  1  0.13423000  0.55670000  0.59142000  1.0
  H  H4  1  0.95708000  0.75565000  0.72566000  1.0
  H  H5  1  0.54294000  0.74434000  0.22567000  1.0
  H  H6  1  0.04293000  0.24435000  0.27434000  1.0
  H  H7  1  0.45706000  0.25566000  0.77433000  1.0
  H  H8  1  0.50856000  0.06740000  0.67927000  1.0
  H  H9  1  0.99145000  0.43260000  0.17927000  1.0
  H  H10  1  0.49144000  0.93261000  0.32073000  1.0
  H  H11  1  0.00853000  0.56740000  0.82073000  1.0
  H  H12  1  0.71629000  0.94179000  0.54836000  1.0
  H  H13  1  0.78374000  0.55822000  0.04837000  1.0
  H  H14  1  0.28372000  0.05822000  0.45164000  1.0
  H  H15  1  0.21625000  0.44178000  0.95163000  1.0
  H  H16  1  0.53940000  0.72292000  0.51764000  1.0
  H  H17  1  0.96065000  0.77708000  0.01765000  1.0
  H  H18  1  0.46062000  0.27708000  0.48236000  1.0
  H  H19  1  0.03936000  0.22291000  0.98235000  1.0
  C  C20  1  0.12670000  0.80018000  0.68933000  1.0
  C  C21  1  0.37331000  0.69982000  0.18934000  1.0
  C  C22  1  0.87331000  0.19982000  0.31067000  1.0
  C  C23  1  0.62669000  0.30018000  0.81066000  1.0
  C  C24  1  0.21757000  0.92144000  0.71258000  1.0
  C  C25  1  0.28244000  0.57856000  0.21259000  1.0
  C  C26  1  0.78244000  0.07856000  0.28742000  1.0
  C  C27  1  0.71755000  0.42144000  0.78741000  1.0
  C  C28  1  0.43373000  0.97336000  0.66206000  1.0
  C  C29  1  0.06628000  0.52665000  0.16206000  1.0
  C  C30  1  0.56627000  0.02665000  0.33794000  1.0
  C  C31  1  0.93371000  0.47335000  0.83794000  1.0
  C  C32  1  0.54948000  0.90375000  0.58970000  1.0
  C  C33  1  0.95055000  0.59625000  0.08971000  1.0
  C  C34  1  0.45053000  0.09625000  0.41030000  1.0
  C  C35  1  0.04944000  0.40375000  0.91029000  1.0
  C  C36  1  0.45104000  0.78308000  0.57145000  1.0
  C  C37  1  0.04899000  0.71693000  0.07146000  1.0
  C  C38  1  0.54897000  0.21692000  0.42856000  1.0
  C  C39  1  0.95101000  0.28307000  0.92854000  1.0
  C  C40  1  0.09112000  0.99497000  0.79124000  1.0
  C  C41  1  0.40887000  0.50502000  0.29125000  1.0
  C  C42  1  0.90887000  0.00503000  0.20876000  1.0
  C  C43  1  0.59111000  0.49498000  0.70875000  1.0
  N  N44  1  0.24448000  0.73246000  0.62089000  1.0
  N  N45  1  0.25555000  0.76754000  0.12089000  1.0
  N  N46  1  0.75553000  0.26754000  0.37912000  1.0
  N  N47  1  0.74445000  0.23246000  0.87910000  1.0
  N  N48  1  0.52354000  0.88998000  0.96504000  1.0
  N  N49  1  0.97650000  0.61002000  0.46504000  1.0
  N  N50  1  0.47647000  0.11001000  0.03496000  1.0
  N  N51  1  0.02352000  0.38998000  0.53496000  1.0
  N  N52  1  0.49871000  0.78889000  0.92546000  1.0
  N  N53  1  0.00129000  0.71112000  0.42545000  1.0
  N  N54  1  0.50129000  0.21111000  0.07454000  1.0
  N  N55  1  0.99871000  0.28888000  0.57454000  1.0
  N  N56  1  0.47508000  0.69095000  0.88939000  1.0
  N  N57  1  0.02490000  0.80906000  0.38940000  1.0
  N  N58  1  0.52491000  0.30905000  0.11060000  1.0
  N  N59  1  0.97510000  0.19095000  0.61061000  1.0
  O  O60  1  0.23004000  0.07902000  0.83065000  1.0
  O  O61  1  0.26995000  0.42096000  0.33065000  1.0
  O  O62  1  0.76996000  0.92097000  0.16936000  1.0
  O  O63  1  0.73003000  0.57902000  0.66934000  1.0
  O  O64  1  0.84343000  0.96475000  0.81191000  1.0
  O  O65  1  0.65655000  0.53524000  0.31193000  1.0
  O  O66  1  0.15656000  0.03524000  0.18809000  1.0
  O  O67  1  0.34342000  0.46475000  0.68808000  1.0
