# generated using pymatgen
data_ZnH12C15N2O5
_symmetry_space_group_name_H-M   'P 1'
_cell_length_a   7.28939000
_cell_length_b   11.30410000
_cell_length_c   17.76710000
_cell_angle_alpha   89.99990000
_cell_angle_beta   91.29580000
_cell_angle_gamma   89.99990000
_symmetry_Int_Tables_number   1
_chemical_formula_structural   ZnH12C15N2O5
_chemical_formula_sum   'Zn4 H48 C60 N8 O20'
_cell_volume   1463.63453306
_cell_formula_units_Z   4
loop_
 _symmetry_equiv_pos_site_id
 _symmetry_equiv_pos_as_xyz
  1  'x, y, z'
loop_
 _atom_site_type_symbol
 _atom_site_label
 _atom_site_symmetry_multiplicity
 _atom_site_fract_x
 _atom_site_fract_y
 _atom_site_fract_z
 _atom_site_occupancy
  Zn  Zn0  1  0.50000000  0.50000000  0.00000000  1.0
  Zn  Zn1  1  0.50000000  0.00000000  0.50000000  1.0
  Zn  Zn2  1  0.00000000  0.50000000  0.00000000  1.0
  Zn  Zn3  1  0.00000000  0.00000000  0.50000000  1.0
  H  H4  1  0.50446000  0.76649000  0.00703000  1.0
  H  H5  1  0.49554000  0.26649000  0.49297000  1.0
  H  H6  1  0.49555000  0.23351000  0.99297000  1.0
  H  H7  1  0.50446000  0.73351000  0.50703000  1.0
  H  H8  1  0.02027000  0.70313000  0.10874000  1.0
  H  H9  1  0.97973000  0.20313000  0.39126000  1.0
  H  H10  1  0.97974000  0.29687000  0.89126000  1.0
  H  H11  1  0.02026000  0.79687000  0.60874000  1.0
  H  H12  1  0.20610000  0.86554000  0.18604000  1.0
  H  H13  1  0.79390000  0.36554000  0.31396000  1.0
  H  H14  1  0.79390000  0.13446000  0.81396000  1.0
  H  H15  1  0.20610000  0.63446000  0.68604000  1.0
  H  H16  1  0.07984000  0.93629000  0.11234000  1.0
  H  H17  1  0.92016000  0.43629000  0.38766000  1.0
  H  H18  1  0.92016000  0.06371000  0.88766000  1.0
  H  H19  1  0.07984000  0.56371000  0.61234000  1.0
  H  H20  1  0.35217000  0.97218000  0.04552000  1.0
  H  H21  1  0.64783000  0.47218000  0.45448000  1.0
  H  H22  1  0.64783000  0.02782000  0.95448000  1.0
  H  H23  1  0.35217000  0.52782000  0.54552000  1.0
  H  H24  1  0.48044000  0.91371000  0.12361000  1.0
  H  H25  1  0.51956000  0.41371000  0.37639000  1.0
  H  H26  1  0.51956000  0.08629000  0.87639000  1.0
  H  H27  1  0.48044000  0.58629000  0.62362000  1.0
  H  H28  1  0.46137000  0.69269000  0.20045000  1.0
  H  H29  1  0.53863000  0.19269000  0.29955000  1.0
  H  H30  1  0.53863000  0.30731000  0.79954000  1.0
  H  H31  1  0.46137000  0.80731000  0.70045000  1.0
  H  H32  1  0.48132000  0.80261000  0.32348000  1.0
  H  H33  1  0.51868000  0.30261000  0.17652000  1.0
  H  H34  1  0.51868000  0.19739000  0.67651000  1.0
  H  H35  1  0.48132000  0.69739000  0.82349000  1.0
  H  H36  1  0.03440000  0.48520000  0.18514000  1.0
  H  H37  1  0.96560000  0.98520000  0.31486000  1.0
  H  H38  1  0.96560000  0.51480000  0.81486000  1.0
  H  H39  1  0.03439000  0.01480000  0.68514000  1.0
  H  H40  1  0.30621000  0.46461000  0.26792000  1.0
  H  H41  1  0.69380000  0.96461000  0.23208000  1.0
  H  H42  1  0.69379000  0.53539000  0.73209000  1.0
  H  H43  1  0.30620000  0.03540000  0.76791000  1.0
  H  H44  1  0.32844000  0.57757000  0.38968000  1.0
  H  H45  1  0.67157000  0.07757000  0.11032000  1.0
  H  H46  1  0.67156000  0.42243000  0.61032000  1.0
  H  H47  1  0.32843000  0.92243000  0.88968000  1.0
  H  H48  1  0.07581000  0.70755000  0.42694000  1.0
  H  H49  1  0.92419000  0.20755000  0.07306000  1.0
  H  H50  1  0.92419000  0.29245000  0.57306000  1.0
  H  H51  1  0.07581000  0.79245000  0.92694000  1.0
  C  C52  1  0.73370000  0.62389000  0.21031000  1.0
  C  C53  1  0.26631000  0.12390000  0.28969000  1.0
  C  C54  1  0.26630000  0.37610000  0.78969000  1.0
  C  C55  1  0.73370000  0.87610000  0.71031000  1.0
  C  C56  1  0.90679000  0.67386000  0.32728000  1.0
  C  C57  1  0.09322000  0.17386000  0.17272000  1.0
  C  C58  1  0.09321000  0.32614000  0.67272000  1.0
  C  C59  1  0.90678000  0.82614000  0.82728000  1.0
  C  C60  1  0.89571000  0.61106000  0.25689000  1.0
  C  C61  1  0.10429000  0.11107000  0.24311000  1.0
  C  C62  1  0.10429000  0.38893000  0.74311000  1.0
  C  C63  1  0.89571000  0.88893000  0.75689000  1.0
  C  C64  1  0.59564000  0.74847000  0.30492000  1.0
  C  C65  1  0.40436000  0.24847000  0.19508000  1.0
  C  C66  1  0.40436000  0.25153000  0.69508000  1.0
  C  C67  1  0.59564000  0.75153000  0.80492000  1.0
  C  C68  1  0.76757000  0.82862000  0.41456000  1.0
  C  C69  1  0.23244000  0.32862000  0.08544000  1.0
  C  C70  1  0.23243000  0.17139000  0.58544000  1.0
  C  C71  1  0.76757000  0.67139000  0.91456000  1.0
  C  C72  1  0.72246000  0.57624000  0.13134000  1.0
  C  C73  1  0.27753000  0.07624000  0.36867000  1.0
  C  C74  1  0.27753000  0.42376000  0.86867000  1.0
  C  C75  1  0.72247000  0.92376000  0.63133000  1.0
  C  C76  1  0.75509000  0.74575000  0.34877000  1.0
  C  C77  1  0.24491000  0.24575000  0.15123000  1.0
  C  C78  1  0.24491000  0.25425000  0.65123000  1.0
  C  C79  1  0.75509000  0.75425000  0.84878000  1.0
  C  C80  1  0.06614000  0.65942000  0.37407000  1.0
  C  C81  1  0.93387000  0.15942000  0.12593000  1.0
  C  C82  1  0.93386000  0.34058000  0.62593000  1.0
  C  C83  1  0.06613000  0.84058000  0.87407000  1.0
  C  C84  1  0.58533000  0.68781000  0.23581000  1.0
  C  C85  1  0.41467000  0.18781000  0.26419000  1.0
  C  C86  1  0.41466000  0.31219000  0.76419000  1.0
  C  C87  1  0.58534000  0.81219000  0.73581000  1.0
  C  C88  1  0.04314000  0.53528000  0.23742000  1.0
  C  C89  1  0.95686000  0.03528000  0.26258000  1.0
  C  C90  1  0.95686000  0.46472000  0.76258000  1.0
  C  C91  1  0.04314000  0.96472000  0.73742000  1.0
  C  C92  1  0.26009000  0.70840000  0.04981000  1.0
  C  C93  1  0.73990000  0.20840000  0.45019000  1.0
  C  C94  1  0.73990000  0.29160000  0.95019000  1.0
  C  C95  1  0.26010000  0.79159000  0.54981000  1.0
  C  C96  1  0.20727000  0.58629000  0.35295000  1.0
  C  C97  1  0.79273000  0.08629000  0.14705000  1.0
  C  C98  1  0.79273000  0.41371000  0.64705000  1.0
  C  C99  1  0.20727000  0.91371000  0.85295000  1.0
  C  C100  1  0.19532000  0.52333000  0.28434000  1.0
  C  C101  1  0.80469000  0.02333000  0.21566000  1.0
  C  C102  1  0.80468000  0.47667000  0.71566000  1.0
  C  C103  1  0.19531000  0.97667000  0.78434000  1.0
  C  C104  1  0.18495000  0.86913000  0.12458000  1.0
  C  C105  1  0.81505000  0.36913000  0.37542000  1.0
  C  C106  1  0.81505000  0.13087000  0.87542000  1.0
  C  C107  1  0.18495000  0.63087000  0.62458000  1.0
  C  C108  1  0.36703000  0.89545000  0.08347000  1.0
  C  C109  1  0.63297000  0.39545000  0.41653000  1.0
  C  C110  1  0.63297000  0.10455000  0.91653000  1.0
  C  C111  1  0.36703000  0.60454000  0.58347000  1.0
  N  N112  1  0.39832000  0.78675000  0.04176000  1.0
  N  N113  1  0.60169000  0.28674000  0.45824000  1.0
  N  N114  1  0.60169000  0.21326000  0.95824000  1.0
  N  N115  1  0.39831000  0.71325000  0.54176000  1.0
  N  N116  1  0.13169000  0.75401000  0.09458000  1.0
  N  N117  1  0.86830000  0.25401000  0.40542000  1.0
  N  N118  1  0.86831000  0.24599000  0.90542000  1.0
  N  N119  1  0.13170000  0.74599000  0.59458000  1.0
  O  O120  1  0.86443000  0.58833000  0.09162000  1.0
  O  O121  1  0.13557000  0.08833000  0.40838000  1.0
  O  O122  1  0.13558000  0.41167000  0.90838000  1.0
  O  O123  1  0.86442000  0.91166000  0.59162000  1.0
  O  O124  1  0.56982000  0.53258000  0.10932000  1.0
  O  O125  1  0.43018000  0.03258000  0.39068000  1.0
  O  O126  1  0.43018000  0.46742000  0.89068000  1.0
  O  O127  1  0.56982000  0.96742000  0.60932000  1.0
  O  O128  1  0.62744000  0.84183000  0.45494000  1.0
  O  O129  1  0.37256000  0.34183000  0.04506000  1.0
  O  O130  1  0.37255000  0.15817000  0.54506000  1.0
  O  O131  1  0.62744000  0.65817000  0.95494000  1.0
  O  O132  1  0.25225000  0.60657000  0.01886000  1.0
  O  O133  1  0.74774000  0.10657000  0.48114000  1.0
  O  O134  1  0.74775000  0.39343000  0.98114000  1.0
  O  O135  1  0.25225000  0.89343000  0.51886000  1.0
  O  O136  1  0.91938000  0.88344000  0.42211000  1.0
  O  O137  1  0.08062000  0.38344000  0.07789000  1.0
  O  O138  1  0.08062000  0.11656000  0.57789000  1.0
  O  O139  1  0.91938000  0.61656000  0.92211000  1.0
