# generated using pymatgen
data_SrH14C14(N2O)6
_symmetry_space_group_name_H-M   'P 1'
_cell_length_a   6.88081000
_cell_length_b   8.86392000
_cell_length_c   37.39440000
_cell_angle_alpha   90.00020000
_cell_angle_beta   90.00000000
_cell_angle_gamma   89.99850000
_symmetry_Int_Tables_number   1
_chemical_formula_structural   SrH14C14(N2O)6
_chemical_formula_sum   'Sr4 H56 C56 N48 O24'
_cell_volume   2280.71995652
_cell_formula_units_Z   4
loop_
 _symmetry_equiv_pos_site_id
 _symmetry_equiv_pos_as_xyz
  1  'x, y, z'
loop_
 _atom_site_type_symbol
 _atom_site_label
 _atom_site_symmetry_multiplicity
 _atom_site_fract_x
 _atom_site_fract_y
 _atom_site_fract_z
 _atom_site_occupancy
  Sr  Sr0  1  0.22625000  0.87172000  0.25000000  1.0
  Sr  Sr1  1  0.27375000  0.37171000  0.75000000  1.0
  Sr  Sr2  1  0.72625000  0.62828000  0.25000000  1.0
  Sr  Sr3  1  0.77375000  0.12828000  0.75000000  1.0
  H  H4  1  0.05238000  0.62583000  0.42039000  1.0
  H  H5  1  0.44763000  0.12583000  0.57961000  1.0
  H  H6  1  0.55239000  0.87419000  0.07961000  1.0
  H  H7  1  0.94763000  0.37418000  0.92039000  1.0
  H  H8  1  0.94763000  0.37418000  0.57961000  1.0
  H  H9  1  0.55238000  0.87419000  0.42039000  1.0
  H  H10  1  0.44763000  0.12581000  0.92039000  1.0
  H  H11  1  0.05236000  0.62581000  0.07961000  1.0
  H  H12  1  0.20841000  0.63228000  0.48218000  1.0
  H  H13  1  0.29157000  0.13229000  0.51782000  1.0
  H  H14  1  0.70840000  0.86773000  0.01782000  1.0
  H  H15  1  0.79160000  0.36772000  0.98218000  1.0
  H  H16  1  0.79161000  0.36773000  0.51782000  1.0
  H  H17  1  0.70842000  0.86772000  0.48218000  1.0
  H  H18  1  0.29157000  0.13228000  0.98218000  1.0
  H  H19  1  0.20838000  0.63226000  0.01782000  1.0
  H  H20  1  0.29968000  0.38747000  0.50971000  1.0
  H  H21  1  0.20032000  0.88749000  0.49029000  1.0
  H  H22  1  0.79968000  0.11253000  0.99029000  1.0
  H  H23  1  0.70032000  0.61252000  0.00971000  1.0
  H  H24  1  0.70034000  0.61253000  0.49029000  1.0
  H  H25  1  0.79969000  0.11252000  0.50971000  1.0
  H  H26  1  0.20030000  0.88749000  0.00971000  1.0
  H  H27  1  0.29967000  0.38746000  0.99029000  1.0
  H  H28  1  0.72707000  0.95420000  0.34898000  1.0
  H  H29  1  0.77293000  0.45418000  0.65102000  1.0
  H  H30  1  0.22708000  0.54582000  0.15102000  1.0
  H  H31  1  0.27291000  0.04576000  0.84897000  1.0
  H  H32  1  0.27292000  0.04580000  0.65102000  1.0
  H  H33  1  0.22708000  0.54582000  0.34898000  1.0
  H  H34  1  0.77292000  0.45419000  0.84898000  1.0
  H  H35  1  0.72708000  0.95421000  0.15102000  1.0
  H  H36  1  0.83530000  0.77740000  0.35939000  1.0
  H  H37  1  0.66472000  0.27738000  0.64060000  1.0
  H  H38  1  0.33529000  0.72262000  0.14061000  1.0
  H  H39  1  0.16472000  0.22258000  0.85939000  1.0
  H  H40  1  0.16470000  0.22261000  0.64061000  1.0
  H  H41  1  0.33529000  0.72262000  0.35940000  1.0
  H  H42  1  0.66472000  0.27739000  0.85940000  1.0
  H  H43  1  0.83529000  0.77740000  0.14061000  1.0
  H  H44  1  0.11698000  0.21807000  0.27072000  1.0
  H  H45  1  0.38300000  0.71810000  0.72929000  1.0
  H  H46  1  0.61696000  0.28184000  0.22931000  1.0
  H  H47  1  0.88308000  0.78183000  0.77068000  1.0
  H  H48  1  0.88297000  0.78202000  0.72923000  1.0
  H  H49  1  0.61703000  0.28198000  0.27075000  1.0
  H  H50  1  0.38300000  0.71807000  0.77073000  1.0
  H  H51  1  0.11698000  0.21808000  0.22928000  1.0
  H  H52  1  0.67861000  0.93933000  0.27049000  1.0
  H  H53  1  0.82141000  0.43933000  0.72951000  1.0
  H  H54  1  0.17861000  0.56068000  0.22951000  1.0
  H  H55  1  0.32138000  0.06068000  0.77049000  1.0
  H  H56  1  0.32138000  0.06068000  0.72951000  1.0
  H  H57  1  0.17860000  0.56069000  0.27049000  1.0
  H  H58  1  0.82139000  0.43932000  0.77050000  1.0
  H  H59  1  0.67862000  0.93931000  0.22950000  1.0
  C  C60  1  0.12403000  0.26666000  0.43374000  1.0
  C  C61  1  0.37599000  0.76667000  0.56626000  1.0
  C  C62  1  0.62402000  0.23335000  0.06625000  1.0
  C  C63  1  0.87598000  0.73335000  0.93375000  1.0
  C  C64  1  0.87598000  0.73334000  0.56626000  1.0
  C  C65  1  0.62402000  0.23335000  0.43375000  1.0
  C  C66  1  0.37597000  0.76665000  0.93375000  1.0
  C  C67  1  0.12403000  0.26665000  0.06625000  1.0
  C  C68  1  0.09824000  0.52248000  0.43387000  1.0
  C  C69  1  0.40177000  0.02248000  0.56613000  1.0
  C  C70  1  0.59823000  0.97753000  0.06613000  1.0
  C  C71  1  0.90177000  0.47753000  0.93387000  1.0
  C  C72  1  0.90178000  0.47752000  0.56613000  1.0
  C  C73  1  0.59823000  0.97753000  0.43387000  1.0
  C  C74  1  0.40177000  0.02248000  0.93388000  1.0
  C  C75  1  0.09823000  0.52246000  0.06613000  1.0
  C  C76  1  0.18333000  0.52793000  0.46763000  1.0
  C  C77  1  0.31666000  0.02793000  0.53237000  1.0
  C  C78  1  0.68332000  0.97208000  0.03237000  1.0
  C  C79  1  0.81668000  0.47208000  0.96763000  1.0
  C  C80  1  0.81669000  0.47208000  0.53237000  1.0
  C  C81  1  0.68334000  0.97208000  0.46763000  1.0
  C  C82  1  0.31665000  0.02793000  0.96763000  1.0
  C  C83  1  0.18331000  0.52791000  0.03237000  1.0
  C  C84  1  0.23462000  0.39058000  0.48303000  1.0
  C  C85  1  0.26538000  0.89059000  0.51697000  1.0
  C  C86  1  0.73461000  0.10943000  0.01697000  1.0
  C  C87  1  0.76538000  0.60942000  0.98303000  1.0
  C  C88  1  0.76540000  0.60943000  0.51697000  1.0
  C  C89  1  0.73463000  0.10942000  0.48303000  1.0
  C  C90  1  0.26536000  0.89058000  0.98303000  1.0
  C  C91  1  0.23461000  0.39056000  0.01697000  1.0
  C  C92  1  0.08520000  0.12250000  0.41559000  1.0
  C  C93  1  0.41482000  0.62250000  0.58440000  1.0
  C  C94  1  0.58518000  0.37752000  0.08440000  1.0
  C  C95  1  0.91481000  0.87750000  0.91560000  1.0
  C  C96  1  0.91480000  0.87750000  0.58440000  1.0
  C  C97  1  0.58519000  0.37751000  0.41560000  1.0
  C  C98  1  0.41481000  0.62249000  0.91560000  1.0
  C  C99  1  0.08520000  0.12248000  0.08440000  1.0
  C  C100  1  0.86637000  0.89474000  0.35180000  1.0
  C  C101  1  0.63364000  0.39473000  0.64820000  1.0
  C  C102  1  0.36637000  0.60527000  0.14821000  1.0
  C  C103  1  0.13362000  0.10523000  0.85179000  1.0
  C  C104  1  0.13362000  0.10526000  0.64820000  1.0
  C  C105  1  0.36638000  0.60527000  0.35180000  1.0
  C  C106  1  0.63363000  0.39474000  0.85180000  1.0
  C  C107  1  0.86637000  0.89475000  0.14820000  1.0
  C  C108  1  0.97787000  0.89583000  0.31652000  1.0
  C  C109  1  0.52213000  0.39582000  0.68347000  1.0
  C  C110  1  0.47788000  0.60418000  0.18348000  1.0
  C  C111  1  0.02210000  0.10414000  0.81652000  1.0
  C  C112  1  0.02211000  0.10416000  0.68347000  1.0
  C  C113  1  0.47787000  0.60418000  0.31653000  1.0
  C  C114  1  0.52212000  0.39582000  0.81653000  1.0
  C  C115  1  0.97788000  0.89583000  0.18347000  1.0
  N  N116  1  0.06965000  0.39230000  0.41635000  1.0
  N  N117  1  0.43037000  0.89230000  0.58365000  1.0
  N  N118  1  0.56964000  0.10772000  0.08365000  1.0
  N  N119  1  0.93036000  0.60771000  0.91636000  1.0
  N  N120  1  0.93036000  0.60770000  0.58365000  1.0
  N  N121  1  0.56964000  0.10771000  0.41636000  1.0
  N  N122  1  0.43036000  0.89229000  0.91636000  1.0
  N  N123  1  0.06964000  0.39228000  0.08364000  1.0
  N  N124  1  0.20462000  0.25867000  0.46641000  1.0
  N  N125  1  0.29539000  0.75868000  0.53360000  1.0
  N  N126  1  0.70461000  0.24134000  0.03359000  1.0
  N  N127  1  0.79539000  0.74133000  0.96641000  1.0
  N  N128  1  0.79539000  0.74134000  0.53359000  1.0
  N  N129  1  0.70462000  0.24133000  0.46641000  1.0
  N  N130  1  0.29537000  0.75867000  0.96641000  1.0
  N  N131  1  0.20462000  0.25865000  0.03359000  1.0
  N  N132  1  0.13483000  0.98345000  0.42854000  1.0
  N  N133  1  0.36518000  0.48346000  0.57145000  1.0
  N  N134  1  0.63482000  0.51657000  0.07145000  1.0
  N  N135  1  0.86518000  0.01656000  0.92854000  1.0
  N  N136  1  0.86517000  0.01655000  0.57146000  1.0
  N  N137  1  0.63483000  0.51656000  0.42855000  1.0
  N  N138  1  0.36517000  0.48344000  0.92855000  1.0
  N  N139  1  0.13483000  0.98343000  0.07145000  1.0
  N  N140  1  0.06366000  0.88408000  0.40613000  1.0
  N  N141  1  0.43635000  0.38408000  0.59387000  1.0
  N  N142  1  0.56365000  0.61593000  0.09387000  1.0
  N  N143  1  0.93635000  0.11592000  0.90612000  1.0
  N  N144  1  0.93634000  0.11593000  0.59387000  1.0
  N  N145  1  0.56366000  0.61593000  0.40613000  1.0
  N  N146  1  0.43634000  0.38407000  0.90613000  1.0
  N  N147  1  0.06365000  0.88406000  0.09387000  1.0
  N  N148  1  0.97282000  0.96410000  0.38064000  1.0
  N  N149  1  0.52719000  0.46409000  0.61936000  1.0
  N  N150  1  0.47282000  0.53592000  0.11936000  1.0
  N  N151  1  0.02718000  0.03589000  0.88063000  1.0
  N  N152  1  0.02718000  0.03590000  0.61936000  1.0
  N  N153  1  0.47283000  0.53591000  0.38064000  1.0
  N  N154  1  0.52718000  0.46409000  0.88064000  1.0
  N  N155  1  0.97282000  0.96409000  0.11936000  1.0
  N  N156  1  0.98343000  0.11189000  0.38507000  1.0
  N  N157  1  0.51658000  0.61189000  0.61493000  1.0
  N  N158  1  0.48342000  0.38812000  0.11493000  1.0
  N  N159  1  0.01657000  0.88810000  0.88507000  1.0
  N  N160  1  0.01657000  0.88811000  0.61493000  1.0
  N  N161  1  0.48343000  0.38812000  0.38507000  1.0
  N  N162  1  0.51657000  0.61188000  0.88508000  1.0
  N  N163  1  0.98343000  0.11188000  0.11493000  1.0
  O  O164  1  0.15037000  0.94105000  0.31537000  1.0
  O  O165  1  0.34965000  0.44102000  0.68462000  1.0
  O  O166  1  0.65037000  0.55898000  0.18462000  1.0
  O  O167  1  0.84961000  0.05895000  0.81537000  1.0
  O  O168  1  0.84964000  0.05893000  0.68462000  1.0
  O  O169  1  0.65035000  0.55897000  0.31538000  1.0
  O  O170  1  0.34963000  0.44101000  0.81538000  1.0
  O  O171  1  0.15037000  0.94105000  0.18462000  1.0
  O  O172  1  0.88468000  0.84572000  0.28893000  1.0
  O  O173  1  0.61535000  0.34572000  0.71107000  1.0
  O  O174  1  0.38467000  0.65429000  0.21107000  1.0
  O  O175  1  0.11530000  0.15424000  0.78893000  1.0
  O  O176  1  0.11529000  0.15430000  0.71107000  1.0
  O  O177  1  0.38466000  0.65430000  0.28893000  1.0
  O  O178  1  0.61533000  0.34571000  0.78893000  1.0
  O  O179  1  0.88470000  0.84572000  0.21107000  1.0
  O  O180  1  0.58820000  0.95323000  0.25000000  1.0
  O  O181  1  0.91181000  0.45324000  0.75000000  1.0
  O  O182  1  0.08820000  0.54677000  0.25000000  1.0
  O  O183  1  0.41179000  0.04678000  0.75000000  1.0
  O  O184  1  0.16587000  0.16351000  0.25000000  1.0
  O  O185  1  0.33411000  0.66351000  0.75000000  1.0
  O  O186  1  0.66588000  0.33648000  0.25002000  1.0
  O  O187  1  0.83413000  0.83649000  0.74998000  1.0
