# generated using pymatgen
data_ZnH12C4S2(NO3)2
_symmetry_space_group_name_H-M   'P 1'
_cell_length_a   6.51317000
_cell_length_b   8.64001000
_cell_length_c   9.16901000
_cell_angle_alpha   64.21200000
_cell_angle_beta   89.99990000
_cell_angle_gamma   89.99990000
_symmetry_Int_Tables_number   1
_chemical_formula_structural   ZnH12C4S2(NO3)2
_chemical_formula_sum   'Zn2 H24 C8 S4 N4 O12'
_cell_volume   464.58947808
_cell_formula_units_Z   2
loop_
 _symmetry_equiv_pos_site_id
 _symmetry_equiv_pos_as_xyz
  1  'x, y, z'
loop_
 _atom_site_type_symbol
 _atom_site_label
 _atom_site_symmetry_multiplicity
 _atom_site_fract_x
 _atom_site_fract_y
 _atom_site_fract_z
 _atom_site_occupancy
  Zn  Zn0  1  1.00000000  0.50000000  0.00000000  1.0
  Zn  Zn1  1  0.50000000  0.50000000  0.50000000  1.0
  H  H2  1  0.56111000  0.96351000  0.66008000  1.0
  H  H3  1  0.06111000  0.03648000  0.83992000  1.0
  H  H4  1  0.43889000  0.03649000  0.33992000  1.0
  H  H5  1  0.93889000  0.96352000  0.16008000  1.0
  H  H6  1  0.39016000  0.91124000  0.82699000  1.0
  H  H7  1  0.89016000  0.08876000  0.67301000  1.0
  H  H8  1  0.60984000  0.08876000  0.17301000  1.0
  H  H9  1  0.10984000  0.91124000  0.32699000  1.0
  H  H10  1  0.71784000  0.81575000  0.94199000  1.0
  H  H11  1  0.21784000  0.18426000  0.55801000  1.0
  H  H12  1  0.28216000  0.18425000  0.05801000  1.0
  H  H13  1  0.78216000  0.81575000  0.44199000  1.0
  H  H14  1  0.56118000  0.63518000  0.98440000  1.0
  H  H15  1  0.06118000  0.36482000  0.51560000  1.0
  H  H16  1  0.43882000  0.36482000  0.01560000  1.0
  H  H17  1  0.93882000  0.63518000  0.48440000  1.0
  H  H18  1  0.89829000  0.75817000  0.74345000  1.0
  H  H19  1  0.39829000  0.24182000  0.75655000  1.0
  H  H20  1  0.10171000  0.24183000  0.25655000  1.0
  H  H21  1  0.60171000  0.75817000  0.24345000  1.0
  H  H22  1  0.74557000  0.59749000  0.76668000  1.0
  H  H23  1  0.24557000  0.40251000  0.73332000  1.0
  H  H24  1  0.25443000  0.40250000  0.23332000  1.0
  H  H25  1  0.75443000  0.59750000  0.26668000  1.0
  C  C26  1  0.48965000  0.85732000  0.76408000  1.0
  C  C27  1  0.98965000  0.14268000  0.73593000  1.0
  C  C28  1  0.51035000  0.14268000  0.23593000  1.0
  C  C29  1  0.01035000  0.85732000  0.26408000  1.0
  C  C30  1  0.64328000  0.74008000  0.88731000  1.0
  C  C31  1  0.14327000  0.25992000  0.61269000  1.0
  C  C32  1  0.35673000  0.25992000  0.11269000  1.0
  C  C33  1  0.85673000  0.74008000  0.38731000  1.0
  S  S34  1  0.32183000  0.75267000  0.68052000  1.0
  S  S35  1  0.82183000  0.24732000  0.81949000  1.0
  S  S36  1  0.67818000  0.24732000  0.31949000  1.0
  S  S37  1  0.17816000  0.75267000  0.18051000  1.0
  N  N38  1  0.80578000  0.66410000  0.82629000  1.0
  N  N39  1  0.30578000  0.33590000  0.67371000  1.0
  N  N40  1  0.19422000  0.33590000  0.17371000  1.0
  N  N41  1  0.69422000  0.66410000  0.32628000  1.0
  O  O42  1  0.25987000  0.58611000  0.81537000  1.0
  O  O43  1  0.75987000  0.41389000  0.68463000  1.0
  O  O44  1  0.74013000  0.41389000  0.18463000  1.0
  O  O45  1  0.24013000  0.58612000  0.31536000  1.0
  O  O46  1  0.44559000  0.72241000  0.55959000  1.0
  O  O47  1  0.94558000  0.27759000  0.94042000  1.0
  O  O48  1  0.55442000  0.27760000  0.44041000  1.0
  O  O49  1  0.05441000  0.72240000  0.05959000  1.0
  O  O50  1  0.14874000  0.86872000  0.60810000  1.0
  O  O51  1  0.64873000  0.13128000  0.89190000  1.0
  O  O52  1  0.85126000  0.13129000  0.39190000  1.0
  O  O53  1  0.35126000  0.86873000  0.10808000  1.0
