# generated using pymatgen
data_SnH9C9N(OF)2
_symmetry_space_group_name_H-M   'P 1'
_cell_length_a   6.42667000
_cell_length_b   7.76191000
_cell_length_c   20.68230000
_cell_angle_alpha   89.99730000
_cell_angle_beta   90.00020000
_cell_angle_gamma   89.99960000
_symmetry_Int_Tables_number   1
_chemical_formula_structural   SnH9C9N(OF)2
_chemical_formula_sum   'Sn4 H36 C36 N4 O8 F8'
_cell_volume   1031.70001227
_cell_formula_units_Z   4
loop_
 _symmetry_equiv_pos_site_id
 _symmetry_equiv_pos_as_xyz
  1  'x, y, z'
loop_
 _atom_site_type_symbol
 _atom_site_label
 _atom_site_symmetry_multiplicity
 _atom_site_fract_x
 _atom_site_fract_y
 _atom_site_fract_z
 _atom_site_occupancy
  Sn  Sn0  1  0.54208000  0.69621000  0.22787000  1.0
  Sn  Sn1  1  0.95795000  0.30381000  0.72786000  1.0
  Sn  Sn2  1  0.45797000  0.19618000  0.27214000  1.0
  Sn  Sn3  1  0.04207000  0.80380000  0.77213000  1.0
  H  H4  1  0.67429000  0.78867000  0.46526000  1.0
  H  H5  1  0.82571000  0.21131000  0.96527000  1.0
  H  H6  1  0.32571000  0.28871000  0.03474000  1.0
  H  H7  1  0.17426000  0.71132000  0.53475000  1.0
  H  H8  1  0.70663000  0.48911000  0.51289000  1.0
  H  H9  1  0.79335000  0.51085000  0.01289000  1.0
  H  H10  1  0.29339000  0.98916000  0.98710000  1.0
  H  H11  1  0.20659000  0.01087000  0.48710000  1.0
  H  H12  1  0.26975000  0.41347000  0.40417000  1.0
  H  H13  1  0.23027000  0.58652000  0.90416000  1.0
  H  H14  1  0.73027000  0.91347000  0.09584000  1.0
  H  H15  1  0.76973000  0.08654000  0.59583000  1.0
  H  H16  1  0.20980000  0.70238000  0.14910000  1.0
  H  H17  1  0.29020000  0.29762000  0.64910000  1.0
  H  H18  1  0.79019000  0.20238000  0.35090000  1.0
  H  H19  1  0.70981000  0.79763000  0.85090000  1.0
  H  H20  1  0.44137000  0.71579000  0.10219000  1.0
  H  H21  1  0.05865000  0.28421000  0.60219000  1.0
  H  H22  1  0.55865000  0.21578000  0.39781000  1.0
  H  H23  1  0.94140000  0.78422000  0.89781000  1.0
  H  H24  1  0.34647000  0.90441000  0.14315000  1.0
  H  H25  1  0.15354000  0.09561000  0.64315000  1.0
  H  H26  1  0.65353000  0.40439000  0.35684000  1.0
  H  H27  1  0.84647000  0.59559000  0.85685000  1.0
  H  H28  1  0.92793000  0.82677000  0.24221000  1.0
  H  H29  1  0.57209000  0.17323000  0.74220000  1.0
  H  H30  1  0.07208000  0.32679000  0.25780000  1.0
  H  H31  1  0.42791000  0.67322000  0.75779000  1.0
  H  H32  1  0.93778000  0.61760000  0.20343000  1.0
  H  H33  1  0.56224000  0.38242000  0.70343000  1.0
  H  H34  1  0.06223000  0.11758000  0.29657000  1.0
  H  H35  1  0.43775000  0.88239000  0.79657000  1.0
  H  H36  1  0.90080000  0.63337000  0.28903000  1.0
  H  H37  1  0.59921000  0.36661000  0.78903000  1.0
  H  H38  1  0.09919000  0.13338000  0.21097000  1.0
  H  H39  1  0.40081000  0.86663000  0.71098000  1.0
  C  C40  1  0.95755000  0.76537000  0.41152000  1.0
  C  C41  1  0.54245000  0.23462000  0.91153000  1.0
  C  C42  1  0.04245000  0.26540000  0.08847000  1.0
  C  C43  1  0.45754000  0.73463000  0.58848000  1.0
  C  C44  1  0.80546000  0.70548000  0.45365000  1.0
  C  C45  1  0.69452000  0.29451000  0.95365000  1.0
  C  C46  1  0.19454000  0.20551000  0.04635000  1.0
  C  C47  1  0.30545000  0.79451000  0.54636000  1.0
  C  C48  1  0.82195000  0.54007000  0.47950000  1.0
  C  C49  1  0.67804000  0.45991000  0.97951000  1.0
  C  C50  1  0.17804000  0.04011000  0.02049000  1.0
  C  C51  1  0.32193000  0.95991000  0.52050000  1.0
  C  C52  1  0.99031000  0.43965000  0.46059000  1.0
  C  C53  1  0.50966000  0.56032000  0.96059000  1.0
  C  C54  1  0.00969000  0.93971000  0.03941000  1.0
  C  C55  1  0.49030000  0.06033000  0.53941000  1.0
  C  C56  1  0.14110000  0.49696000  0.41779000  1.0
  C  C57  1  0.35890000  0.50302000  0.91778000  1.0
  C  C58  1  0.85891000  0.99698000  0.08221000  1.0
  C  C59  1  0.64108000  0.00305000  0.58221000  1.0
  C  C60  1  0.12830000  0.66459000  0.39225000  1.0
  C  C61  1  0.37168000  0.33539000  0.89224000  1.0
  C  C62  1  0.87169000  0.16463000  0.10776000  1.0
  C  C63  1  0.62830000  0.83540000  0.60776000  1.0
  C  C64  1  0.28483000  0.72205000  0.34441000  1.0
  C  C65  1  0.21519000  0.27796000  0.84440000  1.0
  C  C66  1  0.71519000  0.22202000  0.15559000  1.0
  C  C67  1  0.78481000  0.77797000  0.65560000  1.0
  C  C68  1  0.36191000  0.76430000  0.14533000  1.0
  C  C69  1  0.13810000  0.23571000  0.64533000  1.0
  C  C70  1  0.63809000  0.26429000  0.35467000  1.0
  C  C71  1  0.86191000  0.73570000  0.85467000  1.0
  C  C72  1  0.86956000  0.69440000  0.24236000  1.0
  C  C73  1  0.63046000  0.30561000  0.74235000  1.0
  C  C74  1  0.13044000  0.19439000  0.25765000  1.0
  C  C75  1  0.36956000  0.80560000  0.75764000  1.0
  N  N76  1  0.33101000  0.88545000  0.34164000  1.0
  N  N77  1  0.16901000  0.11454000  0.84164000  1.0
  N  N78  1  0.66901000  0.38546000  0.15836000  1.0
  N  N79  1  0.83100000  0.61454000  0.65835000  1.0
  O  O80  1  0.47647000  0.91781000  0.29150000  1.0
  O  O81  1  0.02356000  0.08219000  0.79150000  1.0
  O  O82  1  0.52356000  0.41780000  0.20851000  1.0
  O  O83  1  0.97646000  0.58218000  0.70850000  1.0
  O  O84  1  0.36548000  0.60110000  0.30626000  1.0
  O  O85  1  0.13454000  0.39890000  0.80625000  1.0
  O  O86  1  0.63451000  0.10110000  0.19374000  1.0
  O  O87  1  0.86548000  0.89892000  0.69374000  1.0
  F  F88  1  0.93210000  0.92753000  0.38756000  1.0
  F  F89  1  0.56790000  0.07246000  0.88756000  1.0
  F  F90  1  0.06791000  0.42755000  0.11245000  1.0
  F  F91  1  0.43209000  0.57248000  0.61245000  1.0
  F  F92  1  0.00664000  0.27606000  0.48472000  1.0
  F  F93  1  0.49332000  0.72389000  0.98472000  1.0
  F  F94  1  0.99335000  0.77611000  0.01528000  1.0
  F  F95  1  0.50661000  0.22392000  0.51528000  1.0
