# generated using pymatgen
data_CuH14C13S(NO2)3
_symmetry_space_group_name_H-M   'P 1'
_cell_length_a   8.79943000
_cell_length_b   8.83635000
_cell_length_c   10.55330000
_cell_angle_alpha   83.66590000
_cell_angle_beta   73.52790000
_cell_angle_gamma   77.04640000
_symmetry_Int_Tables_number   1
_chemical_formula_structural   CuH14C13S(NO2)3
_chemical_formula_sum   'Cu2 H28 C26 S2 N6 O12'
_cell_volume   765.90666169
_cell_formula_units_Z   2
loop_
 _symmetry_equiv_pos_site_id
 _symmetry_equiv_pos_as_xyz
  1  'x, y, z'
loop_
 _atom_site_type_symbol
 _atom_site_label
 _atom_site_symmetry_multiplicity
 _atom_site_fract_x
 _atom_site_fract_y
 _atom_site_fract_z
 _atom_site_occupancy
  Cu  Cu0  1  0.89559000  0.87258000  0.83749000  1.0
  Cu  Cu1  1  0.10441000  0.12742000  0.16251000  1.0
  H  H2  1  0.84737000  0.67843000  0.65391000  1.0
  H  H3  1  0.15263000  0.32157000  0.34609000  1.0
  H  H4  1  0.87603000  0.57986000  0.78311000  1.0
  H  H5  1  0.12398000  0.42013000  0.21689000  1.0
  H  H6  1  0.31946000  0.44371000  0.01860000  1.0
  H  H7  1  0.68054000  0.55629000  0.98140000  1.0
  H  H8  1  0.56975000  0.36428000  0.83673000  1.0
  H  H9  1  0.43026000  0.63572000  0.16326000  1.0
  H  H10  1  0.61542000  0.52714000  0.62469000  1.0
  H  H11  1  0.38458000  0.47286000  0.37530000  1.0
  H  H12  1  0.40516000  0.75647000  0.59298000  1.0
  H  H13  1  0.59484000  0.24353000  0.40702000  1.0
  H  H14  1  0.39870000  0.32023000  0.59623000  1.0
  H  H15  1  0.60130000  0.67978000  0.40377000  1.0
  H  H16  1  0.42874000  0.11180000  0.62714000  1.0
  H  H17  1  0.57126000  0.88820000  0.37286000  1.0
  H  H18  1  0.29844000  0.23706000  0.75034000  1.0
  H  H19  1  0.70156000  0.76294000  0.24966000  1.0
  H  H20  1  0.91930000  0.24723000  0.45135000  1.0
  H  H21  1  0.08070000  0.75276000  0.54865000  1.0
  H  H22  1  0.87484000  0.36078000  0.58826000  1.0
  H  H23  1  0.12516000  0.63921000  0.41174000  1.0
  H  H24  1  0.73472000  0.24379000  0.57840000  1.0
  H  H25  1  0.26528000  0.75620000  0.42160000  1.0
  H  H26  1  0.71831000  0.99618000  0.09990000  1.0
  H  H27  1  0.28169000  0.00382000  0.90010000  1.0
  H  H28  1  0.57544000  0.89973000  0.78009000  1.0
  H  H29  1  0.42456000  0.10027000  0.21991000  1.0
  C  C30  1  0.22451000  0.64283000  0.90773000  1.0
  C  C31  1  0.77549000  0.35717000  0.09227000  1.0
  C  C32  1  0.33929000  0.51039000  0.92438000  1.0
  C  C33  1  0.66071000  0.48961000  0.07561000  1.0
  C  C34  1  0.47938000  0.46680000  0.82253000  1.0
  C  C35  1  0.52062000  0.53320000  0.17746000  1.0
  C  C36  1  0.50474000  0.55661000  0.70381000  1.0
  C  C37  1  0.49526000  0.44339000  0.29618000  1.0
  C  C38  1  0.38878000  0.68685000  0.68573000  1.0
  C  C39  1  0.61121000  0.31315000  0.31427000  1.0
  C  C40  1  0.24708000  0.73180000  0.78667000  1.0
  C  C41  1  0.75292000  0.26821000  0.21333000  1.0
  C  C42  1  0.10700000  0.10012000  0.63978000  1.0
  C  C43  1  0.89299000  0.89988000  0.36022000  1.0
  C  C44  1  0.20038000  0.22348000  0.58864000  1.0
  C  C45  1  0.79962000  0.77653000  0.41137000  1.0
  C  C46  1  0.34144000  0.22292000  0.64301000  1.0
  C  C47  1  0.65856000  0.77709000  0.35699000  1.0
  C  C48  1  0.94297000  0.11544000  0.63126000  1.0
  C  C49  1  0.05703000  0.88455000  0.36874000  1.0
  C  C50  1  0.86232000  0.25027000  0.55828000  1.0
  C  C51  1  0.13769000  0.74973000  0.44172000  1.0
  C  C52  1  0.62012000  0.99808000  0.05600000  1.0
  C  C53  1  0.37989000  0.00191000  0.94400000  1.0
  C  C54  1  0.54069000  0.94592000  0.87795000  1.0
  C  C55  1  0.45931000  0.05407000  0.12205000  1.0
  S  S56  1  0.06349000  0.71467000  0.04561000  1.0
  S  S57  1  0.93651000  0.28533000  0.95439000  1.0
  N  N58  1  0.12924000  0.86378000  0.76456000  1.0
  N  N59  1  0.87076000  0.13622000  0.23544000  1.0
  N  N60  1  0.18952000  0.97570000  0.69513000  1.0
  N  N61  1  0.81049000  0.02430000  0.30487000  1.0
  N  N62  1  0.65972000  0.94471000  0.93427000  1.0
  N  N63  1  0.34028000  0.05528000  0.06574000  1.0
  O  O64  1  0.91290000  0.73457000  0.00078000  1.0
  O  O65  1  0.08710000  0.26543000  0.99922000  1.0
  O  O66  1  0.09591000  0.86187000  0.06989000  1.0
  O  O67  1  0.90410000  0.13813000  0.93010000  1.0
  O  O68  1  0.06003000  0.60015000  0.15635000  1.0
  O  O69  1  0.93998000  0.39985000  0.84364000  1.0
  O  O70  1  0.16393000  0.32927000  0.50774000  1.0
  O  O71  1  0.83606000  0.67074000  0.49227000  1.0
  O  O72  1  0.85917000  0.01454000  0.68489000  1.0
  O  O73  1  0.14084000  0.98546000  0.31511000  1.0
  O  O74  1  0.83279000  0.68478000  0.74953000  1.0
  O  O75  1  0.16722000  0.31522000  0.25047000  1.0
