# generated using pymatgen
data_Sm2H20C15(N3O8)2
_symmetry_space_group_name_H-M   'P 1'
_cell_length_a   10.47110000
_cell_length_b   10.47110000
_cell_length_c   14.94180000
_cell_angle_alpha   90.63630000
_cell_angle_beta   90.63640000
_cell_angle_gamma   106.22900000
_symmetry_Int_Tables_number   1
_chemical_formula_structural   Sm2H20C15(N3O8)2
_chemical_formula_sum   'Sm4 H40 C30 N12 O32'
_cell_volume   1572.72693091
_cell_formula_units_Z   2
loop_
 _symmetry_equiv_pos_site_id
 _symmetry_equiv_pos_as_xyz
  1  'x, y, z'
loop_
 _atom_site_type_symbol
 _atom_site_label
 _atom_site_symmetry_multiplicity
 _atom_site_fract_x
 _atom_site_fract_y
 _atom_site_fract_z
 _atom_site_occupancy
  Sm  Sm0  1  0.82189000  0.42860000  0.94389000  1.0
  Sm  Sm1  1  0.57140000  0.17811000  0.55612000  1.0
  Sm  Sm2  1  0.17811000  0.57140000  0.05611000  1.0
  Sm  Sm3  1  0.42860000  0.82189000  0.44389000  1.0
  H  H4  1  0.67243000  0.82391000  0.17271000  1.0
  H  H5  1  0.17609000  0.32756000  0.32729000  1.0
  H  H6  1  0.32757000  0.17610000  0.82729000  1.0
  H  H7  1  0.82391000  0.67243000  0.67271000  1.0
  H  H8  1  0.53703000  0.68103000  0.15502000  1.0
  H  H9  1  0.31897000  0.46297000  0.34498000  1.0
  H  H10  1  0.46297000  0.31898000  0.84498000  1.0
  H  H11  1  0.68102000  0.53703000  0.65502000  1.0
  H  H12  1  0.90517000  0.67371000  0.25643000  1.0
  H  H13  1  0.32629000  0.09483000  0.24357000  1.0
  H  H14  1  0.09483000  0.32630000  0.74358000  1.0
  H  H15  1  0.67371000  0.90517000  0.75643000  1.0
  H  H16  1  0.87324000  0.81165000  0.20240000  1.0
  H  H17  1  0.18835000  0.12676000  0.29760000  1.0
  H  H18  1  0.12677000  0.18835000  0.79760000  1.0
  H  H19  1  0.81165000  0.87323000  0.70240000  1.0
  H  H20  1  0.94465000  0.19775000  0.20660000  1.0
  H  H21  1  0.80225000  0.05535000  0.29340000  1.0
  H  H22  1  0.05535000  0.80225000  0.79340000  1.0
  H  H23  1  0.19775000  0.94465000  0.70660000  1.0
  H  H24  1  0.96212000  0.36487000  0.24332000  1.0
  H  H25  1  0.63513000  0.03788000  0.25668000  1.0
  H  H26  1  0.03788000  0.63513000  0.75667000  1.0
  H  H27  1  0.36487000  0.96212000  0.74333000  1.0
  H  H28  1  0.53291000  0.45283000  0.94883000  1.0
  H  H29  1  0.54717000  0.46709000  0.55116000  1.0
  H  H30  1  0.46708000  0.54716000  0.05116000  1.0
  H  H31  1  0.45283000  0.53291000  0.44884000  1.0
  H  H32  1  0.52527000  0.31714000  0.99547000  1.0
  H  H33  1  0.68287000  0.47473000  0.50453000  1.0
  H  H34  1  0.47473000  0.68286000  0.00453000  1.0
  H  H35  1  0.31714000  0.52527000  0.49547000  1.0
  H  H36  1  0.62942000  0.20530000  0.82004000  1.0
  H  H37  1  0.79470000  0.37058000  0.67996000  1.0
  H  H38  1  0.37058000  0.79470000  0.17996000  1.0
  H  H39  1  0.20530000  0.62942000  0.32004000  1.0
  H  H40  1  0.72542000  0.15006000  0.88180000  1.0
  H  H41  1  0.84995000  0.27458000  0.61820000  1.0
  H  H42  1  0.27458000  0.84995000  0.11820000  1.0
  H  H43  1  0.15005000  0.72542000  0.38180000  1.0
  C  C44  1  0.55305000  0.75712000  0.28708000  1.0
  C  C45  1  0.24288000  0.44696000  0.21292000  1.0
  C  C46  1  0.44696000  0.24288000  0.71292000  1.0
  C  C47  1  0.75712000  0.55304000  0.78708000  1.0
  C  C48  1  0.61862000  0.72828000  0.20174000  1.0
  C  C49  1  0.27171000  0.38138000  0.29826000  1.0
  C  C50  1  0.38138000  0.27172000  0.79826000  1.0
  C  C51  1  0.72828000  0.61862000  0.70174000  1.0
  C  C52  1  0.90572000  0.66015000  0.11417000  1.0
  C  C53  1  0.33985000  0.09428000  0.38582000  1.0
  C  C54  1  0.09428000  0.33985000  0.88583000  1.0
  C  C55  1  0.66015000  0.90572000  0.61418000  1.0
  C  C56  1  0.84996000  0.70261000  0.20084000  1.0
  C  C57  1  0.29739000  0.15004000  0.29916000  1.0
  C  C58  1  0.15005000  0.29739000  0.79916000  1.0
  C  C59  1  0.70262000  0.84996000  0.70084000  1.0
  C  C60  1  0.65795000  0.51621000  0.23197000  1.0
  C  C61  1  0.48379000  0.34204000  0.26803000  1.0
  C  C62  1  0.34204000  0.48379000  0.76802000  1.0
  C  C63  1  0.51621000  0.65796000  0.73197000  1.0
  C  C64  1  0.68715000  0.31284000  0.25000000  1.0
  C  C65  1  0.31284000  0.68716000  0.75000000  1.0
  C  C66  1  0.89611000  0.27829000  0.20789000  1.0
  C  C67  1  0.72171000  0.10389000  0.29211000  1.0
  C  C68  1  0.10389000  0.72170000  0.79211000  1.0
  C  C69  1  0.27829000  0.89611000  0.70789000  1.0
  C  C70  1  0.87970000  0.31926000  0.11133000  1.0
  C  C71  1  0.68073000  0.12030000  0.38866000  1.0
  C  C72  1  0.12029000  0.68073000  0.88866000  1.0
  C  C73  1  0.31926000  0.87970000  0.61134000  1.0
  N  N74  1  0.70846000  0.64761000  0.21271000  1.0
  N  N75  1  0.35239000  0.29154000  0.28729000  1.0
  N  N76  1  0.29154000  0.35239000  0.78729000  1.0
  N  N77  1  0.64761000  0.70846000  0.71271000  1.0
  N  N78  1  0.52693000  0.47307000  0.25000000  1.0
  N  N79  1  0.47307000  0.52693000  0.75000000  1.0
  N  N80  1  0.74351000  0.44140000  0.23153000  1.0
  N  N81  1  0.55860000  0.25649000  0.26846000  1.0
  N  N82  1  0.25649000  0.55860000  0.76846000  1.0
  N  N83  1  0.44140000  0.74351000  0.73154000  1.0
  N  N84  1  0.76865000  0.23135000  0.25000000  1.0
  N  N85  1  0.23135000  0.76865000  0.75000000  1.0
  O  O86  1  0.58128000  0.40764000  0.98796000  1.0
  O  O87  1  0.59236000  0.41872000  0.51204000  1.0
  O  O88  1  0.41872000  0.59236000  0.01203000  1.0
  O  O89  1  0.40764000  0.58128000  0.48797000  1.0
  O  O90  1  0.67186000  0.21246000  0.88143000  1.0
  O  O91  1  0.78754000  0.32815000  0.61857000  1.0
  O  O92  1  0.32815000  0.78755000  0.11856000  1.0
  O  O93  1  0.21245000  0.67185000  0.38143000  1.0
  O  O94  1  0.03249000  0.69339000  0.11066000  1.0
  O  O95  1  0.30661000  0.96752000  0.38934000  1.0
  O  O96  1  0.96752000  0.30662000  0.88934000  1.0
  O  O97  1  0.69338000  0.03249000  0.61067000  1.0
  O  O98  1  0.97509000  0.40977000  0.07754000  1.0
  O  O99  1  0.59023000  0.02491000  0.42246000  1.0
  O  O100  1  0.02491000  0.59023000  0.92245000  1.0
  O  O101  1  0.40978000  0.97509000  0.57755000  1.0
  O  O102  1  0.45212000  0.80354000  0.27750000  1.0
  O  O103  1  0.19646000  0.54788000  0.22250000  1.0
  O  O104  1  0.54788000  0.19646000  0.72250000  1.0
  O  O105  1  0.80354000  0.45212000  0.77750000  1.0
  O  O106  1  0.59724000  0.73895000  0.36346000  1.0
  O  O107  1  0.26104000  0.40277000  0.13654000  1.0
  O  O108  1  0.40277000  0.26105000  0.63654000  1.0
  O  O109  1  0.73895000  0.59724000  0.86346000  1.0
  O  O110  1  0.77465000  0.26632000  0.06683000  1.0
  O  O111  1  0.73368000  0.22535000  0.43317000  1.0
  O  O112  1  0.22535000  0.73368000  0.93317000  1.0
  O  O113  1  0.26632000  0.77465000  0.56683000  1.0
  O  O114  1  0.82463000  0.59664000  0.05532000  1.0
  O  O115  1  0.40336000  0.17538000  0.44468000  1.0
  O  O116  1  0.17539000  0.40338000  0.94469000  1.0
  O  O117  1  0.59663000  0.82462000  0.55533000  1.0
