# generated using pymatgen
data_UH17C11NO7
_symmetry_space_group_name_H-M   'P 1'
_cell_length_a   10.47450000
_cell_length_b   11.57410000
_cell_length_c   12.25530000
_cell_angle_alpha   90.00000000
_cell_angle_beta   105.62100000
_cell_angle_gamma   90.00000000
_symmetry_Int_Tables_number   1
_chemical_formula_structural   UH17C11NO7
_chemical_formula_sum   'U4 H68 C44 N4 O28'
_cell_volume   1430.86809238
_cell_formula_units_Z   4
loop_
 _symmetry_equiv_pos_site_id
 _symmetry_equiv_pos_as_xyz
  1  'x, y, z'
loop_
 _atom_site_type_symbol
 _atom_site_label
 _atom_site_symmetry_multiplicity
 _atom_site_fract_x
 _atom_site_fract_y
 _atom_site_fract_z
 _atom_site_occupancy
  U  U0  1  0.40339000  0.51573000  0.27445000  1.0
  U  U1  1  0.09661000  0.01573000  0.22555000  1.0
  U  U2  1  0.59661000  0.48427000  0.72555000  1.0
  U  U3  1  0.90339000  0.98427000  0.77445000  1.0
  H  H4  1  0.57462000  0.65234000  0.96739000  1.0
  H  H5  1  0.92538000  0.15234000  0.53261000  1.0
  H  H6  1  0.42539000  0.34766000  0.03261000  1.0
  H  H7  1  0.07461000  0.84766000  0.46739000  1.0
  H  H8  1  0.41645000  0.74805000  0.81987000  1.0
  H  H9  1  0.08355000  0.24805000  0.68013000  1.0
  H  H10  1  0.58355000  0.25195000  0.18013000  1.0
  H  H11  1  0.91645000  0.75195000  0.31987000  1.0
  H  H12  1  0.33945000  0.62167000  0.84988000  1.0
  H  H13  1  0.16055000  0.12167000  0.65012000  1.0
  H  H14  1  0.66055000  0.37832000  0.15012000  1.0
  H  H15  1  0.83945000  0.87832000  0.34988000  1.0
  H  H16  1  0.18782000  0.79522000  0.81934000  1.0
  H  H17  1  0.31218000  0.29521000  0.68066000  1.0
  H  H18  1  0.81218000  0.20478000  0.18066000  1.0
  H  H19  1  0.68782000  0.70479000  0.31934000  1.0
  H  H20  1  0.20939000  0.73262000  0.95508000  1.0
  H  H21  1  0.29061000  0.23262000  0.54492000  1.0
  H  H22  1  0.79061000  0.26738000  0.04492000  1.0
  H  H23  1  0.70939000  0.76738000  0.45508000  1.0
  H  H24  1  0.34446000  0.94928000  0.89698000  1.0
  H  H25  1  0.15553000  0.44928000  0.60302000  1.0
  H  H26  1  0.65554000  0.05072000  0.10302000  1.0
  H  H27  1  0.84446000  0.55072000  0.39698000  1.0
  H  H28  1  0.45559000  0.96405000  0.10467000  1.0
  H  H29  1  0.04441000  0.46405000  0.39533000  1.0
  H  H30  1  0.54441000  0.03595000  0.89533000  1.0
  H  H31  1  0.95559000  0.53595000  0.60467000  1.0
  H  H32  1  0.38211000  0.83401000  0.12971000  1.0
  H  H33  1  0.11789000  0.33401000  0.37028000  1.0
  H  H34  1  0.61789000  0.16599000  0.87028000  1.0
  H  H35  1  0.88211000  0.66599000  0.62972000  1.0
  H  H36  1  0.61594000  0.80122000  0.12270000  1.0
  H  H37  1  0.88406000  0.30122000  0.37730000  1.0
  H  H38  1  0.38406000  0.19878000  0.87730000  1.0
  H  H39  1  0.11594000  0.69878000  0.62270000  1.0
  H  H40  1  0.57917000  0.85920000  0.98406000  1.0
  H  H41  1  0.92083000  0.35920000  0.51594000  1.0
  H  H42  1  0.42083000  0.14080000  0.01594000  1.0
  H  H43  1  0.07917000  0.64080000  0.48405000  1.0
  H  H44  1  0.14131000  0.69489000  0.13735000  1.0
  H  H45  1  0.35869000  0.19489000  0.36265000  1.0
  H  H46  1  0.85869000  0.30511000  0.86265000  1.0
  H  H47  1  0.64131000  0.80511000  0.63735000  1.0
  H  H48  1  0.95565000  0.77465000  0.04816000  1.0
  H  H49  1  0.54435000  0.27465000  0.45184000  1.0
  H  H50  1  0.04435000  0.22535000  0.95184000  1.0
  H  H51  1  0.45565000  0.72535000  0.54816000  1.0
  H  H52  1  0.81978000  0.73684000  0.10282000  1.0
  H  H53  1  0.68022000  0.23683000  0.39718000  1.0
  H  H54  1  0.18022000  0.26316000  0.89717000  1.0
  H  H55  1  0.31978000  0.76316000  0.60282000  1.0
  H  H56  1  0.83325000  0.67580000  0.97196000  1.0
  H  H57  1  0.66675000  0.17580000  0.52804000  1.0
  H  H58  1  0.16675000  0.32420000  0.02804000  1.0
  H  H59  1  0.33325000  0.82420000  0.47196000  1.0
  H  H60  1  0.96110000  0.43922000  0.17724000  1.0
  H  H61  1  0.53890000  0.93922000  0.32276000  1.0
  H  H62  1  0.03890000  0.56078000  0.82276000  1.0
  H  H63  1  0.46110000  0.06078000  0.67724000  1.0
  H  H64  1  0.82541000  0.47825000  0.05807000  1.0
  H  H65  1  0.67459000  0.97825000  0.44193000  1.0
  H  H66  1  0.17459000  0.52175000  0.94193000  1.0
  H  H67  1  0.32540000  0.02175000  0.55807000  1.0
  H  H68  1  0.82934000  0.53133000  0.19468000  1.0
  H  H69  1  0.67066000  0.03133000  0.30532000  1.0
  H  H70  1  0.17066000  0.46867000  0.80532000  1.0
  H  H71  1  0.32934000  0.96867000  0.69468000  1.0
  C  C72  1  0.49076000  0.69259000  0.99103000  1.0
  C  C73  1  0.00924000  0.19259000  0.50897000  1.0
  C  C74  1  0.50925000  0.30741000  0.00897000  1.0
  C  C75  1  0.99076000  0.80741000  0.49103000  1.0
  C  C76  1  0.37540000  0.70694000  0.88405000  1.0
  C  C77  1  0.12460000  0.20694000  0.61595000  1.0
  C  C78  1  0.62460000  0.29305000  0.11595000  1.0
  C  C79  1  0.87540000  0.79306000  0.38405000  1.0
  C  C80  1  0.26044000  0.77946000  0.90118000  1.0
  C  C81  1  0.23956000  0.27946000  0.59882000  1.0
  C  C82  1  0.73956000  0.22054000  0.09882000  1.0
  C  C83  1  0.76044000  0.72054000  0.40118000  1.0
  C  C84  1  0.30922000  0.89668000  0.95797000  1.0
  C  C85  1  0.19078000  0.39668000  0.54203000  1.0
  C  C86  1  0.69078000  0.10332000  0.04202000  1.0
  C  C87  1  0.80922000  0.60332000  0.45797000  1.0
  C  C88  1  0.42115000  0.87970000  0.06676000  1.0
  C  C89  1  0.07885000  0.37970000  0.43324000  1.0
  C  C90  1  0.57886000  0.12030000  0.93323000  1.0
  C  C91  1  0.92114000  0.62030000  0.56676000  1.0
  C  C92  1  0.53640000  0.81183000  0.04384000  1.0
  C  C93  1  0.96360000  0.31183000  0.45616000  1.0
  C  C94  1  0.46360000  0.18817000  0.95616000  1.0
  C  C95  1  0.03640000  0.68817000  0.54384000  1.0
  C  C96  1  0.46089000  0.61589000  0.08083000  1.0
  C  C97  1  0.03911000  0.11589000  0.41917000  1.0
  C  C98  1  0.53912000  0.38411000  0.91917000  1.0
  C  C99  1  0.96089000  0.88411000  0.58083000  1.0
  C  C100  1  0.18938000  0.95683000  0.97770000  1.0
  C  C101  1  0.31063000  0.45683000  0.52230000  1.0
  C  C102  1  0.81063000  0.04317000  0.02230000  1.0
  C  C103  1  0.68937000  0.54317000  0.47770000  1.0
  C  C104  1  0.09648000  0.61380000  0.15574000  1.0
  C  C105  1  0.40352000  0.11380000  0.34426000  1.0
  C  C106  1  0.90352000  0.38620000  0.84426000  1.0
  C  C107  1  0.59648000  0.88620000  0.65574000  1.0
  C  C108  1  0.88913000  0.70455000  0.05682000  1.0
  C  C109  1  0.61087000  0.20455000  0.44318000  1.0
  C  C110  1  0.11087000  0.29545000  0.94318000  1.0
  C  C111  1  0.38913000  0.79545000  0.55682000  1.0
  C  C112  1  0.89156000  0.50772000  0.13871000  1.0
  C  C113  1  0.60844000  0.00772000  0.36129000  1.0
  C  C114  1  0.10844000  0.49228000  0.86129000  1.0
  C  C115  1  0.39156000  0.99228000  0.63871000  1.0
  N  N116  1  0.96546000  0.60866000  0.11898000  1.0
  N  N117  1  0.53454000  0.10866000  0.38102000  1.0
  N  N118  1  0.03454000  0.39134000  0.88102000  1.0
  N  N119  1  0.46546000  0.89134000  0.61898000  1.0
  O  O120  1  0.39844000  0.36833000  0.22311000  1.0
  O  O121  1  0.10157000  0.86833000  0.27689000  1.0
  O  O122  1  0.60157000  0.63167000  0.77689000  1.0
  O  O123  1  0.89843000  0.13167000  0.72311000  1.0
  O  O124  1  0.40700000  0.66239000  0.32659000  1.0
  O  O125  1  0.09300000  0.16239000  0.17342000  1.0
  O  O126  1  0.59300000  0.33761000  0.67341000  1.0
  O  O127  1  0.90701000  0.83761000  0.82659000  1.0
  O  O128  1  0.34169000  0.58864000  0.07962000  1.0
  O  O129  1  0.15831000  0.08863000  0.42039000  1.0
  O  O130  1  0.65831000  0.41136000  0.92038000  1.0
  O  O131  1  0.84169000  0.91136000  0.57962000  1.0
  O  O132  1  0.55570000  0.58058000  0.16386000  1.0
  O  O133  1  0.94430000  0.08058000  0.33614000  1.0
  O  O134  1  0.44431000  0.41942000  0.83614000  1.0
  O  O135  1  0.05570000  0.91942000  0.66386000  1.0
  O  O136  1  0.11319000  0.01327000  0.89614000  1.0
  O  O137  1  0.38681000  0.51327000  0.60387000  1.0
  O  O138  1  0.88682000  0.98674000  0.10386000  1.0
  O  O139  1  0.61319000  0.48673000  0.39614000  1.0
  O  O140  1  0.16510000  0.94405000  0.07322000  1.0
  O  O141  1  0.33490000  0.44405000  0.42678000  1.0
  O  O142  1  0.83490000  0.05595000  0.92678000  1.0
  O  O143  1  0.66509000  0.55596000  0.57321000  1.0
  O  O144  1  0.16712000  0.53183000  0.20828000  1.0
  O  O145  1  0.33287000  0.03183000  0.29172000  1.0
  O  O146  1  0.83288000  0.46817000  0.79172000  1.0
  O  O147  1  0.66712000  0.96817000  0.70828000  1.0
