# generated using pymatgen
data_CuMoH40C32(N2O)4
_symmetry_space_group_name_H-M   'P 1'
_cell_length_a   12.01610000
_cell_length_b   13.71510000
_cell_length_c   15.72360000
_cell_angle_alpha   105.01700000
_cell_angle_beta   109.55100000
_cell_angle_gamma   102.27600000
_symmetry_Int_Tables_number   1
_chemical_formula_structural   CuMoH40C32(N2O)4
_chemical_formula_sum   'Cu2 Mo2 H80 C64 N16 O8'
_cell_volume   2227.29086694
_cell_formula_units_Z   2
loop_
 _symmetry_equiv_pos_site_id
 _symmetry_equiv_pos_as_xyz
  1  'x, y, z'
loop_
 _atom_site_type_symbol
 _atom_site_label
 _atom_site_symmetry_multiplicity
 _atom_site_fract_x
 _atom_site_fract_y
 _atom_site_fract_z
 _atom_site_occupancy
  Cu  Cu0  1  0.00000000  0.00000000  0.50000000  1.0
  Cu  Cu1  1  0.00000000  0.50000000  0.50000000  1.0
  Mo  Mo2  1  0.78568000  0.17336000  0.41419000  1.0
  Mo  Mo3  1  0.21432000  0.82664000  0.58581000  1.0
  H  H4  1  0.15085000  0.99419000  0.10054000  1.0
  H  H5  1  0.84915000  0.00581000  0.89945000  1.0
  H  H6  1  0.07161000  0.03893000  0.17301000  1.0
  H  H7  1  0.92838000  0.96107000  0.82699000  1.0
  H  H8  1  0.85052000  0.82498000  0.89096000  1.0
  H  H9  1  0.14948000  0.17502000  0.10904000  1.0
  H  H10  1  0.01656000  0.86524000  0.92884000  1.0
  H  H11  1  0.98343000  0.13476000  0.07116000  1.0
  H  H12  1  0.57590000  0.38838000  0.40091000  1.0
  H  H13  1  0.42410000  0.61163000  0.59909000  1.0
  H  H14  1  0.65973000  0.47040000  0.52524000  1.0
  H  H15  1  0.34027000  0.52960000  0.47476000  1.0
  H  H16  1  0.56484000  0.31141000  0.56891000  1.0
  H  H17  1  0.43516000  0.68859000  0.43109000  1.0
  H  H18  1  0.51248000  0.24663000  0.44438000  1.0
  H  H19  1  0.48752000  0.75337000  0.55562000  1.0
  H  H20  1  0.09722000  0.80119000  0.23066000  1.0
  H  H21  1  0.90279000  0.19881000  0.76934000  1.0
  H  H22  1  0.09392000  0.85639000  0.39474000  1.0
  H  H23  1  0.90608000  0.14361000  0.60526000  1.0
  H  H24  1  0.47223000  0.15945000  0.60263000  1.0
  H  H25  1  0.52777000  0.84055000  0.39737000  1.0
  H  H26  1  0.80666000  0.97966000  0.30060000  1.0
  H  H27  1  0.19334000  0.02033000  0.69940000  1.0
  H  H28  1  0.02722000  0.80244000  0.07026000  1.0
  H  H29  1  0.97278000  0.19757000  0.92974000  1.0
  H  H30  1  0.86159000  0.76718000  0.01662000  1.0
  H  H31  1  0.13841000  0.23282000  0.98338000  1.0
  H  H32  1  0.79627000  0.92663000  0.13434000  1.0
  H  H33  1  0.20373000  0.07337000  0.86566000  1.0
  H  H34  1  0.53750000  0.48468000  0.62897000  1.0
  H  H35  1  0.46250000  0.51532000  0.37103000  1.0
  H  H36  1  0.37278000  0.41597000  0.56955000  1.0
  H  H37  1  0.62722000  0.58403000  0.43045000  1.0
  H  H38  1  0.23784000  0.26119000  0.39319000  1.0
  H  H39  1  0.76216000  0.73881000  0.60681000  1.0
  H  H40  1  0.27902000  0.04534000  0.60023000  1.0
  H  H41  1  0.72099000  0.95466000  0.39977000  1.0
  H  H42  1  0.05145000  0.14260000  0.40051000  1.0
  H  H43  1  0.94855000  0.85739000  0.59949000  1.0
  H  H44  1  0.01635000  0.29742000  0.18417000  1.0
  H  H45  1  0.98365000  0.70258000  0.81583000  1.0
  H  H46  1  0.12195000  0.38512000  0.97235000  1.0
  H  H47  1  0.87805000  0.61488000  0.02765000  1.0
  H  H48  1  0.17122000  0.52726000  0.00907000  1.0
  H  H49  1  0.82878000  0.47274000  0.99094000  1.0
  H  H50  1  0.24900000  0.52921000  0.17783000  1.0
  H  H51  1  0.75100000  0.47079000  0.82218000  1.0
  H  H52  1  0.18628000  0.38696000  0.13055000  1.0
  H  H53  1  0.81372000  0.61304000  0.86945000  1.0
  H  H54  1  0.09533000  0.62818000  0.12051000  1.0
  H  H55  1  0.90467000  0.37182000  0.87949000  1.0
  H  H56  1  0.98971000  0.55389000  0.15632000  1.0
  H  H57  1  0.01029000  0.44611000  0.84369000  1.0
  H  H58  1  0.17555000  0.63816000  0.45644000  1.0
  H  H59  1  0.82444000  0.36184000  0.54356000  1.0
  H  H60  1  0.23577000  0.63337000  0.32027000  1.0
  H  H61  1  0.76423000  0.36663000  0.67973000  1.0
  H  H62  1  0.95885000  0.31822000  0.32763000  1.0
  H  H63  1  0.04115000  0.68178000  0.67237000  1.0
  H  H64  1  0.52601000  0.62696000  0.22517000  1.0
  H  H65  1  0.47399000  0.37304000  0.77483000  1.0
  H  H66  1  0.64825000  0.69668000  0.20229000  1.0
  H  H67  1  0.35175000  0.30332000  0.79770000  1.0
  H  H68  1  0.96170000  0.69616000  0.47712000  1.0
  H  H69  1  0.03830000  0.30384000  0.52288000  1.0
  H  H70  1  0.81618000  0.74823000  0.35633000  1.0
  H  H71  1  0.18382000  0.25177000  0.64367000  1.0
  H  H72  1  0.47494000  0.64100000  0.03328000  1.0
  H  H73  1  0.52506000  0.35900000  0.96672000  1.0
  H  H74  1  0.37272000  0.57115000  0.07404000  1.0
  H  H75  1  0.62729000  0.42885000  0.92596000  1.0
  H  H76  1  0.75373000  0.37521000  0.33441000  1.0
  H  H77  1  0.24627000  0.62479000  0.66559000  1.0
  H  H78  1  0.59283000  0.41500000  0.20691000  1.0
  H  H79  1  0.40717000  0.58500000  0.79309000  1.0
  H  H80  1  0.70173000  0.50089000  0.10553000  1.0
  H  H81  1  0.29827000  0.49911000  0.89446000  1.0
  H  H82  1  0.67421000  0.59975000  0.05371000  1.0
  H  H83  1  0.32579000  0.40025000  0.94628000  1.0
  C  C84  1  0.06563000  0.01474000  0.09883000  1.0
  C  C85  1  0.93437000  0.98526000  0.90117000  1.0
  C  C86  1  0.93815000  0.89222000  0.93652000  1.0
  C  C87  1  0.06185000  0.10778000  0.06348000  1.0
  C  C88  1  0.56892000  0.44359000  0.46201000  1.0
  C  C89  1  0.43108000  0.55641000  0.53799000  1.0
  C  C90  1  0.48528000  0.29160000  0.49878000  1.0
  C  C91  1  0.51472000  0.70840000  0.50122000  1.0
  C  C92  1  0.02903000  0.83804000  0.24238000  1.0
  C  C93  1  0.97097000  0.16196000  0.75762000  1.0
  C  C94  1  0.37058000  0.21981000  0.49740000  1.0
  C  C95  1  0.62942000  0.78019000  0.50260000  1.0
  C  C96  1  0.02887000  0.86867000  0.33388000  1.0
  C  C97  1  0.97113000  0.13132000  0.66612000  1.0
  C  C98  1  0.38082000  0.15805000  0.55601000  1.0
  C  C99  1  0.61918000  0.84195000  0.44399000  1.0
  C  C100  1  0.86774000  0.93715000  0.28245000  1.0
  C  C101  1  0.13226000  0.06285000  0.71755000  1.0
  C  C102  1  0.94815000  0.83283000  0.06955000  1.0
  C  C103  1  0.05185000  0.16717000  0.93045000  1.0
  C  C104  1  0.86243000  0.90771000  0.18920000  1.0
  C  C105  1  0.13757000  0.09229000  0.81080000  1.0
  C  C106  1  0.45319000  0.45896000  0.55990000  1.0
  C  C107  1  0.54681000  0.54105000  0.44010000  1.0
  C  C108  1  0.94604000  0.85896000  0.16816000  1.0
  C  C109  1  0.05396000  0.14104000  0.83184000  1.0
  C  C110  1  0.25002000  0.21286000  0.43864000  1.0
  C  C111  1  0.74998000  0.78714000  0.56136000  1.0
  C  C112  1  0.27353000  0.09413000  0.55520000  1.0
  C  C113  1  0.72647000  0.90587000  0.44480000  1.0
  C  C114  1  0.14704000  0.14769000  0.44172000  1.0
  C  C115  1  0.85296000  0.85231000  0.55828000  1.0
  C  C116  1  0.05410000  0.37433000  0.24328000  1.0
  C  C117  1  0.94590000  0.62567000  0.75672000  1.0
  C  C118  1  0.09206000  0.45509000  0.99068000  1.0
  C  C119  1  0.90794000  0.54491000  0.00933000  1.0
  C  C120  1  0.16358000  0.46012000  0.15472000  1.0
  C  C121  1  0.83642000  0.53988000  0.84528000  1.0
  C  C122  1  0.01820000  0.55209000  0.09661000  1.0
  C  C123  1  0.98180000  0.44791000  0.90340000  1.0
  C  C124  1  0.14161000  0.56418000  0.39464000  1.0
  C  C125  1  0.85839000  0.43582000  0.60536000  1.0
  C  C126  1  0.17546000  0.56009000  0.31782000  1.0
  C  C127  1  0.82454000  0.43991000  0.68218000  1.0
  C  C128  1  0.02220000  0.38382000  0.32169000  1.0
  C  C129  1  0.97779000  0.61617000  0.67831000  1.0
  C  C130  1  0.59997000  0.61669000  0.20025000  1.0
  C  C131  1  0.40003000  0.38331000  0.79975000  1.0
  C  C132  1  0.87850000  0.63639000  0.41640000  1.0
  C  C133  1  0.12150000  0.36361000  0.58359000  1.0
  C  C134  1  0.13169000  0.46417000  0.24008000  1.0
  C  C135  1  0.86831000  0.53583000  0.75992000  1.0
  C  C136  1  0.79658000  0.66446000  0.34847000  1.0
  C  C137  1  0.20342000  0.33554000  0.65153000  1.0
  C  C138  1  0.43894000  0.56326000  0.04060000  1.0
  C  C139  1  0.56106000  0.43674000  0.95940000  1.0
  C  C140  1  0.69134000  0.58562000  0.27163000  1.0
  C  C141  1  0.30866000  0.41438000  0.72837000  1.0
  C  C142  1  0.76031000  0.45629000  0.33515000  1.0
  C  C143  1  0.23969000  0.54371000  0.66485000  1.0
  C  C144  1  0.67354000  0.47938000  0.26579000  1.0
  C  C145  1  0.32646000  0.52062000  0.73421000  1.0
  C  C146  1  0.62821000  0.52356000  0.05935000  1.0
  C  C147  1  0.37179000  0.47644000  0.94065000  1.0
  N  N148  1  0.15846000  0.08980000  0.49964000  1.0
  N  N149  1  0.84154000  0.91020000  0.50036000  1.0
  N  N150  1  0.95075000  0.91890000  0.35389000  1.0
  N  N151  1  0.04925000  0.08110000  0.64611000  1.0
  N  N152  1  0.95197000  0.92303000  0.03655000  1.0
  N  N153  1  0.04803000  0.07697000  0.96345000  1.0
  N  N154  1  0.46700000  0.38698000  0.48026000  1.0
  N  N155  1  0.53300000  0.61302000  0.51974000  1.0
  N  N156  1  0.06532000  0.47779000  0.39573000  1.0
  N  N157  1  0.93467000  0.52221000  0.60427000  1.0
  N  N158  1  0.86088000  0.53395000  0.40934000  1.0
  N  N159  1  0.13912000  0.46605000  0.59066000  1.0
  N  N160  1  0.05918000  0.45952000  0.07264000  1.0
  N  N161  1  0.94082000  0.54048000  0.92737000  1.0
  N  N162  1  0.53973000  0.53697000  0.10288000  1.0
  N  N163  1  0.46028000  0.46303000  0.89712000  1.0
  O  O164  1  0.90935000  0.12218000  0.46199000  1.0
  O  O165  1  0.09064000  0.87781000  0.53801000  1.0
  O  O166  1  0.85740000  0.30296000  0.41326000  1.0
  O  O167  1  0.14261000  0.69704000  0.58675000  1.0
  O  O168  1  0.68291000  0.08101000  0.29774000  1.0
  O  O169  1  0.31709000  0.91900000  0.70226000  1.0
  O  O170  1  0.70923000  0.19054000  0.49276000  1.0
  O  O171  1  0.29077000  0.80946000  0.50724000  1.0
