# generated using pymatgen
data_ZnH10C12(NO)4
_symmetry_space_group_name_H-M   'P 1'
_cell_length_a   12.65920000
_cell_length_b   12.90400000
_cell_length_c   13.78290000
_cell_angle_alpha   76.97880000
_cell_angle_beta   62.67620000
_cell_angle_gamma   60.62250000
_symmetry_Int_Tables_number   1
_chemical_formula_structural   ZnH10C12(NO)4
_chemical_formula_sum   'Zn4 H40 C48 N16 O16'
_cell_volume   1743.06503738
_cell_formula_units_Z   4
loop_
 _symmetry_equiv_pos_site_id
 _symmetry_equiv_pos_as_xyz
  1  'x, y, z'
loop_
 _atom_site_type_symbol
 _atom_site_label
 _atom_site_symmetry_multiplicity
 _atom_site_fract_x
 _atom_site_fract_y
 _atom_site_fract_z
 _atom_site_occupancy
  Zn  Zn0  1  0.16871000  0.66265000  0.24991000  1.0
  Zn  Zn1  1  0.58117000  0.83748000  0.25006000  1.0
  Zn  Zn2  1  0.83129000  0.33735000  0.75009000  1.0
  Zn  Zn3  1  0.41883000  0.16252000  0.74994000  1.0
  H  H4  1  0.06261000  0.45578000  0.04637000  1.0
  H  H5  1  0.89080000  0.04437000  0.04620000  1.0
  H  H6  1  0.48150000  0.45574000  0.45373000  1.0
  H  H7  1  0.06471000  0.04424000  0.45356000  1.0
  H  H8  1  0.93739000  0.54422000  0.95363000  1.0
  H  H9  1  0.10920000  0.95563000  0.95380000  1.0
  H  H10  1  0.51851000  0.54425000  0.54627000  1.0
  H  H11  1  0.93529000  0.95576000  0.54644000  1.0
  H  H12  1  0.47677000  0.35091000  0.95708000  1.0
  H  H13  1  0.56573000  0.14943000  0.95707000  1.0
  H  H14  1  0.17230000  0.35084000  0.54281000  1.0
  H  H15  1  0.28428000  0.14960000  0.54296000  1.0
  H  H16  1  0.52323000  0.64909000  0.04292000  1.0
  H  H17  1  0.43427000  0.85057000  0.04293000  1.0
  H  H18  1  0.82770000  0.64916000  0.45719000  1.0
  H  H19  1  0.71572000  0.85040000  0.45704000  1.0
  H  H20  1  0.40197000  0.48754000  0.10206000  1.0
  H  H21  1  0.49572000  0.01262000  0.10199000  1.0
  H  H22  1  0.11041000  0.48764000  0.39785000  1.0
  H  H23  1  0.49128000  0.01278000  0.39821000  1.0
  H  H24  1  0.59803000  0.51246000  0.89794000  1.0
  H  H25  1  0.50428000  0.98738000  0.89801000  1.0
  H  H26  1  0.88959000  0.51236000  0.60215000  1.0
  H  H27  1  0.50872000  0.98722000  0.60178000  1.0
  H  H28  1  0.95337000  0.65569000  0.26062000  1.0
  H  H29  1  0.78601000  0.84436000  0.26050000  1.0
  H  H30  1  0.39094000  0.65574000  0.23938000  1.0
  H  H31  1  0.36974000  0.84430000  0.23950000  1.0
  H  H32  1  0.04663000  0.34431000  0.73938000  1.0
  H  H33  1  0.21399000  0.15564000  0.73950000  1.0
  H  H34  1  0.60906000  0.34426000  0.76062000  1.0
  H  H35  1  0.63026000  0.15570000  0.76050000  1.0
  H  H36  1  0.90329000  0.61300000  0.18446000  1.0
  H  H37  1  0.91215000  0.88713000  0.18431000  1.0
  H  H38  1  0.48374000  0.61294000  0.31555000  1.0
  H  H39  1  0.20081000  0.88702000  0.31558000  1.0
  H  H40  1  0.09671000  0.38700000  0.81554000  1.0
  H  H41  1  0.08785000  0.11287000  0.81569000  1.0
  H  H42  1  0.51626000  0.38706000  0.68445000  1.0
  H  H43  1  0.79919000  0.11298000  0.68442000  1.0
  C  C44  1  0.10457000  0.53632000  0.13825000  1.0
  C  C45  1  0.75698000  0.96380000  0.13815000  1.0
  C  C46  1  0.35908000  0.53631000  0.36173000  1.0
  C  C47  1  0.27911000  0.96382000  0.36178000  1.0
  C  C48  1  0.89543000  0.46368000  0.86175000  1.0
  C  C49  1  0.24302000  0.03620000  0.86185000  1.0
  C  C50  1  0.64093000  0.46369000  0.63827000  1.0
  C  C51  1  0.72089000  0.03619000  0.63822000  1.0
  C  C52  1  0.14000000  0.46189000  0.05609000  1.0
  C  C53  1  0.80364000  0.03830000  0.05602000  1.0
  C  C54  1  0.39808000  0.46182000  0.44389000  1.0
  C  C55  1  0.15787000  0.03831000  0.44380000  1.0
  C  C56  1  0.86000000  0.53811000  0.94391000  1.0
  C  C57  1  0.19636000  0.96171000  0.94398000  1.0
  C  C58  1  0.60193000  0.53818000  0.55611000  1.0
  C  C59  1  0.84213000  0.96169000  0.55620000  1.0
  C  C60  1  0.27252000  0.39577000  0.99022000  1.0
  C  C61  1  0.73688000  0.10447000  0.99021000  1.0
  C  C62  1  0.33166000  0.39568000  0.50972000  1.0
  C  C63  1  0.15829000  0.10455000  0.50964000  1.0
  C  C64  1  0.72748000  0.60423000  0.00978000  1.0
  C  C65  1  0.26312000  0.89553000  0.00979000  1.0
  C  C66  1  0.66834000  0.60431000  0.49028000  1.0
  C  C67  1  0.84171000  0.89545000  0.49037000  1.0
  C  C68  1  0.37145000  0.40235000  0.00619000  1.0
  C  C69  1  0.62197000  0.09793000  0.00616000  1.0
  C  C70  1  0.22616000  0.40230000  0.49371000  1.0
  C  C71  1  0.27967000  0.09805000  0.49383000  1.0
  C  C72  1  0.62855000  0.59765000  0.99381000  1.0
  C  C73  1  0.37803000  0.90208000  0.99384000  1.0
  C  C74  1  0.77384000  0.59770000  0.50629000  1.0
  C  C75  1  0.72033000  0.90195000  0.50617000  1.0
  C  C76  1  0.33017000  0.47760000  0.08663000  1.0
  C  C77  1  0.58293000  0.02258000  0.08656000  1.0
  C  C78  1  0.19217000  0.47764000  0.41329000  1.0
  C  C79  1  0.39417000  0.02271000  0.41352000  1.0
  C  C80  1  0.66984000  0.52240000  0.91337000  1.0
  C  C81  1  0.41707000  0.97742000  0.91344000  1.0
  C  C82  1  0.80783000  0.52236000  0.58672000  1.0
  C  C83  1  0.60583000  0.97730000  0.58648000  1.0
  C  C84  1  0.30726000  0.31817000  0.90336000  1.0
  C  C85  1  0.78890000  0.18206000  0.90332000  1.0
  C  C86  1  0.37438000  0.31811000  0.59668000  1.0
  C  C87  1  0.02864000  0.18203000  0.59656000  1.0
  C  C88  1  0.69274000  0.68183000  0.09664000  1.0
  C  C89  1  0.21110000  0.81794000  0.09668000  1.0
  C  C90  1  0.62563000  0.68189000  0.40332000  1.0
  C  C91  1  0.97135000  0.81797000  0.40344000  1.0
  N  N92  1  0.20075000  0.54430000  0.15078000  1.0
  N  N93  1  0.64828000  0.95583000  0.15069000  1.0
  N  N94  1  0.25494000  0.54431000  0.34916000  1.0
  N  N95  1  0.39572000  0.95591000  0.34934000  1.0
  N  N96  1  0.79925000  0.45570000  0.84922000  1.0
  N  N97  1  0.35172000  0.04417000  0.84931000  1.0
  N  N98  1  0.74506000  0.45569000  0.65084000  1.0
  N  N99  1  0.60428000  0.04410000  0.65066000  1.0
  N  N100  1  0.97639000  0.59779000  0.20671000  1.0
  N  N101  1  0.81685000  0.90224000  0.20653000  1.0
  N  N102  1  0.42577000  0.59783000  0.29332000  1.0
  N  N103  1  0.28095000  0.90223000  0.29335000  1.0
  N  N104  1  0.02361000  0.40221000  0.79329000  1.0
  N  N105  1  0.18315000  0.09776000  0.79347000  1.0
  N  N106  1  0.57424000  0.40217000  0.70668000  1.0
  N  N107  1  0.71906000  0.09777000  0.70666000  1.0
  O  O108  1  0.21874000  0.33038000  0.87747000  1.0
  O  O109  1  0.90336000  0.16982000  0.87733000  1.0
  O  O110  1  0.45049000  0.33042000  0.62276000  1.0
  O  O111  1  0.92651000  0.16968000  0.62255000  1.0
  O  O112  1  0.78126000  0.66962000  0.12253000  1.0
  O  O113  1  0.09664000  0.83019000  0.12268000  1.0
  O  O114  1  0.54951000  0.66958000  0.37724000  1.0
  O  O115  1  0.07348000  0.83032000  0.37745000  1.0
  O  O116  1  0.42989000  0.23917000  0.85799000  1.0
  O  O117  1  0.71161000  0.26107000  0.85798000  1.0
  O  O118  1  0.33087000  0.23901000  0.64198000  1.0
  O  O119  1  0.02695000  0.26095000  0.64200000  1.0
  O  O120  1  0.57011000  0.76082000  0.14202000  1.0
  O  O121  1  0.28839000  0.73893000  0.14202000  1.0
  O  O122  1  0.66913000  0.76098000  0.35802000  1.0
  O  O123  1  0.97305000  0.73905000  0.35800000  1.0
