# generated using pymatgen
data_H14PbC14(N2Cl)2
_symmetry_space_group_name_H-M   'P 1'
_cell_length_a   4.08424000
_cell_length_b   12.80160000
_cell_length_c   16.08070000
_cell_angle_alpha   97.86510000
_cell_angle_beta   89.99920000
_cell_angle_gamma   89.99380000
_symmetry_Int_Tables_number   1
_chemical_formula_structural   H14PbC14(N2Cl)2
_chemical_formula_sum   'H28 Pb2 C28 N8 Cl4'
_cell_volume   832.86710438
_cell_formula_units_Z   2
loop_
 _symmetry_equiv_pos_site_id
 _symmetry_equiv_pos_as_xyz
  1  'x, y, z'
loop_
 _atom_site_type_symbol
 _atom_site_label
 _atom_site_symmetry_multiplicity
 _atom_site_fract_x
 _atom_site_fract_y
 _atom_site_fract_z
 _atom_site_occupancy
  H  H0  1  0.72499000  0.73779000  0.74369000  1.0
  H  H1  1  0.72486000  0.26216000  0.75629000  1.0
  H  H2  1  0.27509000  0.26211000  0.25628000  1.0
  H  H3  1  0.27515000  0.73785000  0.24372000  1.0
  H  H4  1  0.58335000  0.60171000  0.83656000  1.0
  H  H5  1  0.58330000  0.39829000  0.66348000  1.0
  H  H6  1  0.41648000  0.39828000  0.16347000  1.0
  H  H7  1  0.41661000  0.60171000  0.33653000  1.0
  H  H8  1  0.06288000  0.80151000  0.03920000  1.0
  H  H9  1  0.06269000  0.19850000  0.46075000  1.0
  H  H10  1  0.93715000  0.19852000  0.96078000  1.0
  H  H11  1  0.93707000  0.80149000  0.53925000  1.0
  H  H12  1  0.19066000  0.92518000  0.93895000  1.0
  H  H13  1  0.19061000  0.07482000  0.56096000  1.0
  H  H14  1  0.80941000  0.07480000  0.06099000  1.0
  H  H15  1  0.80926000  0.92518000  0.43904000  1.0
  H  H16  1  0.75489000  0.57262000  0.12868000  1.0
  H  H17  1  0.75461000  0.42742000  0.37135000  1.0
  H  H18  1  0.24522000  0.42744000  0.87135000  1.0
  H  H19  1  0.24532000  0.57258000  0.62866000  1.0
  H  H20  1  0.73461000  0.71188000  0.12379000  1.0
  H  H21  1  0.73442000  0.28815000  0.37621000  1.0
  H  H22  1  0.26562000  0.28817000  0.87623000  1.0
  H  H23  1  0.26554000  0.71186000  0.62380000  1.0
  H  H24  1  0.10216000  0.64239000  0.09669000  1.0
  H  H25  1  0.10196000  0.35764000  0.40325000  1.0
  H  H26  1  0.89796000  0.35762000  0.90329000  1.0
  H  H27  1  0.89795000  0.64237000  0.59678000  1.0
  Pb  Pb28  1  0.03037000  0.99996000  0.75000000  1.0
  Pb  Pb29  1  0.97018000  0.00000000  0.24999000  1.0
  C  C30  1  0.79870000  0.74733000  0.80957000  1.0
  C  C31  1  0.79860000  0.25264000  0.69041000  1.0
  C  C32  1  0.20131000  0.25262000  0.19041000  1.0
  C  C33  1  0.20135000  0.74736000  0.30960000  1.0
  C  C34  1  0.71925000  0.67242000  0.86099000  1.0
  C  C35  1  0.71916000  0.32758000  0.63902000  1.0
  C  C36  1  0.28066000  0.32756000  0.13902000  1.0
  C  C37  1  0.28074000  0.67242000  0.36099000  1.0
  C  C38  1  0.80973000  0.68965000  0.94622000  1.0
  C  C39  1  0.80958000  0.31035000  0.55378000  1.0
  C  C40  1  0.19022000  0.31037000  0.05379000  1.0
  C  C41  1  0.19026000  0.68964000  0.44623000  1.0
  C  C42  1  0.98298000  0.78225000  0.97439000  1.0
  C  C43  1  0.98284000  0.21776000  0.52556000  1.0
  C  C44  1  0.01700000  0.21777000  0.02559000  1.0
  C  C45  1  0.01697000  0.78224000  0.47444000  1.0
  C  C46  1  0.05467000  0.85274000  0.91830000  1.0
  C  C47  1  0.05458000  0.14725000  0.58164000  1.0
  C  C48  1  0.94535000  0.14724000  0.08166000  1.0
  C  C49  1  0.94529000  0.85274000  0.41836000  1.0
  C  C50  1  0.72112000  0.61442000  0.00467000  1.0
  C  C51  1  0.72099000  0.38559000  0.49535000  1.0
  C  C52  1  0.27892000  0.38561000  0.99536000  1.0
  C  C53  1  0.27889000  0.61442000  0.50467000  1.0
  C  C54  1  0.83397000  0.63586000  0.09403000  1.0
  C  C55  1  0.83376000  0.36416000  0.40597000  1.0
  C  C56  1  0.16615000  0.36418000  0.90598000  1.0
  C  C57  1  0.16615000  0.63585000  0.59405000  1.0
  N  N58  1  0.96361000  0.83645000  0.83737000  1.0
  N  N59  1  0.96351000  0.16352000  0.66258000  1.0
  N  N60  1  0.03645000  0.16350000  0.16258000  1.0
  N  N61  1  0.03644000  0.83649000  0.33743000  1.0
  N  N62  1  0.54203000  0.53445000  0.97248000  1.0
  N  N63  1  0.54190000  0.46556000  0.52754000  1.0
  N  N64  1  0.45809000  0.46556000  0.02755000  1.0
  N  N65  1  0.45802000  0.53445000  0.47248000  1.0
  Cl  Cl66  1  0.53632000  0.90245000  0.63919000  1.0
  Cl  Cl67  1  0.53627000  0.09757000  0.86077000  1.0
  Cl  Cl68  1  0.46385000  0.09759000  0.36076000  1.0
  Cl  Cl69  1  0.46398000  0.90242000  0.13920000  1.0
