# generated using pymatgen
data_CdH10C12(N3O4)2
_symmetry_space_group_name_H-M   'P 1'
_cell_length_a   7.21659000
_cell_length_b   15.43750000
_cell_length_c   15.47530000
_cell_angle_alpha   92.19720000
_cell_angle_beta   103.10200000
_cell_angle_gamma   102.74900000
_symmetry_Int_Tables_number   1
_chemical_formula_structural   CdH10C12(N3O4)2
_chemical_formula_sum   'Cd4 H40 C48 N24 O32'
_cell_volume   1630.66415873
_cell_formula_units_Z   4
loop_
 _symmetry_equiv_pos_site_id
 _symmetry_equiv_pos_as_xyz
  1  'x, y, z'
loop_
 _atom_site_type_symbol
 _atom_site_label
 _atom_site_symmetry_multiplicity
 _atom_site_fract_x
 _atom_site_fract_y
 _atom_site_fract_z
 _atom_site_occupancy
  Cd  Cd0  1  0.13732000  0.45250000  0.24061000  1.0
  Cd  Cd1  1  0.63818000  0.24060000  0.45319000  1.0
  Cd  Cd2  1  0.79098000  0.90351000  0.10892000  1.0
  Cd  Cd3  1  0.29038000  0.10894000  0.90373000  1.0
  H  H4  1  0.99574000  0.27823000  0.10523000  1.0
  H  H5  1  0.49883000  0.10527000  0.27937000  1.0
  H  H6  1  0.86413000  0.22858000  0.94389000  1.0
  H  H7  1  0.36523000  0.94394000  0.22941000  1.0
  H  H8  1  0.77783000  0.34106000  0.83751000  1.0
  H  H9  1  0.27730000  0.83776000  0.34120000  1.0
  H  H10  1  0.97946000  0.54092000  0.06321000  1.0
  H  H11  1  0.48040000  0.06351000  0.54117000  1.0
  H  H12  1  0.76529000  0.72821000  0.00019000  1.0
  H  H13  1  0.26487000  0.00114000  0.72825000  1.0
  H  H14  1  0.73438000  0.76244000  0.72065000  1.0
  H  H15  1  0.23473000  0.72083000  0.76149000  1.0
  H  H16  1  0.71839000  0.92034000  0.75403000  1.0
  H  H17  1  0.21872000  0.75374000  0.91893000  1.0
  H  H18  1  0.73275000  0.97483000  0.90982000  1.0
  H  H19  1  0.23224000  0.90976000  0.97380000  1.0
  H  H20  1  0.23227000  0.38258000  0.44151000  1.0
  H  H21  1  0.73121000  0.44073000  0.38245000  1.0
  H  H22  1  0.42825000  0.43823000  0.59639000  1.0
  H  H23  1  0.92638000  0.59593000  0.43745000  1.0
  H  H24  1  0.62337000  0.59626000  0.62763000  1.0
  H  H25  1  0.12226000  0.62786000  0.59534000  1.0
  H  H26  1  0.40832000  0.62764000  0.34799000  1.0
  H  H27  1  0.90952000  0.34836000  0.62806000  1.0
  H  H28  1  0.72000000  0.81849000  0.28528000  1.0
  H  H29  1  0.21940000  0.28559000  0.81895000  1.0
  H  H30  1  0.95866000  0.01666000  0.51169000  1.0
  H  H31  1  0.46012000  0.51196000  0.01723000  1.0
  H  H32  1  0.04630000  0.12843000  0.40393000  1.0
  H  H33  1  0.54611000  0.40357000  0.12891000  1.0
  H  H34  1  0.95865000  0.07854000  0.24202000  1.0
  H  H35  1  0.45652000  0.24135000  0.07904000  1.0
  H  H36  1  0.38544000  0.59230000  0.16004000  1.0
  H  H37  1  0.88683000  0.15965000  0.59280000  1.0
  H  H38  1  0.54067000  0.54292000  0.21834000  1.0
  H  H39  1  0.04165000  0.21771000  0.54362000  1.0
  H  H40  1  0.96139000  0.75400000  0.19201000  1.0
  H  H41  1  0.46001000  0.19160000  0.75429000  1.0
  H  H42  1  0.11315000  0.80147000  0.13579000  1.0
  H  H43  1  0.61190000  0.13486000  0.80164000  1.0
  C  C44  1  0.96125000  0.32572000  0.05757000  1.0
  C  C45  1  0.46326000  0.05762000  0.32654000  1.0
  C  C46  1  0.88757000  0.29839000  0.96694000  1.0
  C  C47  1  0.38868000  0.96703000  0.29909000  1.0
  C  C48  1  0.84002000  0.36034000  0.90849000  1.0
  C  C49  1  0.34017000  0.90868000  0.36072000  1.0
  C  C50  1  0.87112000  0.44933000  0.94269000  1.0
  C  C51  1  0.37133000  0.94290000  0.44960000  1.0
  C  C52  1  0.94921000  0.47217000  0.03441000  1.0
  C  C53  1  0.45016000  0.03461000  0.47255000  1.0
  C  C54  1  0.82359000  0.51601000  0.88378000  1.0
  C  C55  1  0.32316000  0.88410000  0.51602000  1.0
  C  C56  1  0.76921000  0.64198000  0.84565000  1.0
  C  C57  1  0.26877000  0.84622000  0.64163000  1.0
  C  C58  1  0.75455000  0.76824000  0.94359000  1.0
  C  C59  1  0.25395000  0.94420000  0.76785000  1.0
  C  C60  1  0.75037000  0.73271000  0.85837000  1.0
  C  C61  1  0.25005000  0.85892000  0.73215000  1.0
  C  C62  1  0.73559000  0.78736000  0.78788000  1.0
  C  C63  1  0.23565000  0.78814000  0.78646000  1.0
  C  C64  1  0.72788000  0.87515000  0.80635000  1.0
  C  C65  1  0.22790000  0.80635000  0.87407000  1.0
  C  C66  1  0.73512000  0.90612000  0.89315000  1.0
  C  C67  1  0.23472000  0.89320000  0.90524000  1.0
  C  C68  1  0.31822000  0.45096000  0.45720000  1.0
  C  C69  1  0.81761000  0.45679000  0.45078000  1.0
  C  C70  1  0.42742000  0.48267000  0.54340000  1.0
  C  C71  1  0.92632000  0.54312000  0.48214000  1.0
  C  C72  1  0.53526000  0.57053000  0.56071000  1.0
  C  C73  1  0.03465000  0.56079000  0.56997000  1.0
  C  C74  1  0.53052000  0.62443000  0.48964000  1.0
  C  C75  1  0.03091000  0.48995000  0.62423000  1.0
  C  C76  1  0.41654000  0.58804000  0.40490000  1.0
  C  C77  1  0.91731000  0.40509000  0.58819000  1.0
  C  C78  1  0.64571000  0.71549000  0.50246000  1.0
  C  C79  1  0.14639000  0.50295000  0.71535000  1.0
  C  C80  1  0.78066000  0.84225000  0.46533000  1.0
  C  C81  1  0.28113000  0.46587000  0.84247000  1.0
  C  C82  1  0.79043000  0.88659000  0.31428000  1.0
  C  C83  1  0.28988000  0.31452000  0.88704000  1.0
  C  C84  1  0.83306000  0.90909000  0.40642000  1.0
  C  C85  1  0.33319000  0.40681000  0.90951000  1.0
  C  C86  1  0.92675000  0.99752000  0.44038000  1.0
  C  C87  1  0.42721000  0.44054000  0.99797000  1.0
  C  C88  1  0.97415000  0.05916000  0.38128000  1.0
  C  C89  1  0.47373000  0.38107000  0.05964000  1.0
  C  C90  1  0.92567000  0.03191000  0.29039000  1.0
  C  C91  1  0.42436000  0.29004000  0.03241000  1.0
  N  N92  1  0.99208000  0.41126000  0.09035000  1.0
  N  N93  1  0.49381000  0.09043000  0.41193000  1.0
  N  N94  1  0.78438000  0.51085000  0.79639000  1.0
  N  N95  1  0.28354000  0.79661000  0.51085000  1.0
  N  N96  1  0.75047000  0.59268000  0.77199000  1.0
  N  N97  1  0.24970000  0.77236000  0.59241000  1.0
  N  N98  1  0.74790000  0.85314000  0.96038000  1.0
  N  N99  1  0.24727000  0.96070000  0.85259000  1.0
  N  N100  1  0.31282000  0.50317000  0.38917000  1.0
  N  N101  1  0.81312000  0.38904000  0.50335000  1.0
  N  N102  1  0.74497000  0.76438000  0.57648000  1.0
  N  N103  1  0.24582000  0.57702000  0.76408000  1.0
  N  N104  1  0.83170000  0.84666000  0.55263000  1.0
  N  N105  1  0.33240000  0.55323000  0.84660000  1.0
  N  N106  1  0.83501000  0.94714000  0.25788000  1.0
  N  N107  1  0.33388000  0.25781000  0.94757000  1.0
  N  N108  1  0.90048000  0.60026000  0.24919000  1.0
  N  N109  1  0.40186000  0.25001000  0.60068000  1.0
  N  N110  1  0.32750000  0.28146000  0.28678000  1.0
  N  N111  1  0.82871000  0.28678000  0.28239000  1.0
  N  N112  1  0.39948000  0.74894000  0.10472000  1.0
  N  N113  1  0.89876000  0.10542000  0.74890000  1.0
  N  N114  1  0.68335000  0.08137000  0.05040000  1.0
  N  N115  1  0.18362000  0.04981000  0.08133000  1.0
  O  O116  1  0.81724000  0.59755000  0.91959000  1.0
  O  O117  1  0.31699000  0.92015000  0.59736000  1.0
  O  O118  1  0.66248000  0.76076000  0.42899000  1.0
  O  O119  1  0.16297000  0.42947000  0.76095000  1.0
  O  O120  1  0.40022000  0.53950000  0.19270000  1.0
  O  O121  1  0.90140000  0.19184000  0.53986000  1.0
  O  O122  1  0.99554000  0.80482000  0.15728000  1.0
  O  O123  1  0.49316000  0.15585000  0.80450000  1.0
  O  O124  1  0.78074000  0.52658000  0.25055000  1.0
  O  O125  1  0.28062000  0.25040000  0.52697000  1.0
  O  O126  1  0.06909000  0.59965000  0.23649000  1.0
  O  O127  1  0.57157000  0.23844000  0.60025000  1.0
  O  O128  1  0.85460000  0.67330000  0.25985000  1.0
  O  O129  1  0.35630000  0.26054000  0.67356000  1.0
  O  O130  1  0.27519000  0.32647000  0.22221000  1.0
  O  O131  1  0.77662000  0.22253000  0.32754000  1.0
  O  O132  1  0.47068000  0.32184000  0.35173000  1.0
  O  O133  1  0.97281000  0.35140000  0.32248000  1.0
  O  O134  1  0.24539000  0.20207000  0.28739000  1.0
  O  O135  1  0.74561000  0.28746000  0.20307000  1.0
  O  O136  1  0.58361000  0.75629000  0.11836000  1.0
  O  O137  1  0.08305000  0.12046000  0.75653000  1.0
  O  O138  1  0.33368000  0.81883000  0.10259000  1.0
  O  O139  1  0.83335000  0.10245000  0.81859000  1.0
  O  O140  1  0.28534000  0.67255000  0.09367000  1.0
  O  O141  1  0.78419000  0.09385000  0.67248000  1.0
  O  O142  1  0.59205000  0.99887000  0.04616000  1.0
  O  O143  1  0.09219000  0.04635000  0.99887000  1.0
  O  O144  1  0.83838000  0.11268000  0.10720000  1.0
  O  O145  1  0.33858000  0.10629000  0.11323000  1.0
  O  O146  1  0.61203000  0.13002000  0.99361000  1.0
  O  O147  1  0.11253000  0.99259000  0.12929000  1.0
