# generated using pymatgen
data_H12Rh2C8ClO8
_symmetry_space_group_name_H-M   'P 1'
_cell_length_a   7.55426000
_cell_length_b   7.55423000
_cell_length_c   12.50300000
_cell_angle_alpha   93.56630000
_cell_angle_beta   93.56520000
_cell_angle_gamma   107.85800000
_symmetry_Int_Tables_number   1
_chemical_formula_structural   H12Rh2C8ClO8
_chemical_formula_sum   'H24 Rh4 C16 Cl2 O16'
_cell_volume   675.32749763
_cell_formula_units_Z   2
loop_
 _symmetry_equiv_pos_site_id
 _symmetry_equiv_pos_as_xyz
  1  'x, y, z'
loop_
 _atom_site_type_symbol
 _atom_site_label
 _atom_site_symmetry_multiplicity
 _atom_site_fract_x
 _atom_site_fract_y
 _atom_site_fract_z
 _atom_site_occupancy
  H  H0  1  0.45318000  0.23243000  0.29208000  1.0
  H  H1  1  0.76849000  0.54601000  0.20749000  1.0
  H  H2  1  0.54601000  0.76850000  0.70748000  1.0
  H  H3  1  0.23243000  0.45319000  0.79208000  1.0
  H  H4  1  0.39982000  0.42230000  0.35943000  1.0
  H  H5  1  0.57755000  0.59867000  0.14087000  1.0
  H  H6  1  0.59866000  0.57754000  0.64087000  1.0
  H  H7  1  0.42228000  0.39981000  0.85943000  1.0
  H  H8  1  0.36142000  0.20667000  0.41893000  1.0
  H  H9  1  0.79256000  0.63767000  0.08057000  1.0
  H  H10  1  0.63767000  0.79254000  0.58056000  1.0
  H  H11  1  0.20666000  0.36141000  0.91893000  1.0
  H  H12  1  0.84693000  0.38662000  0.84732000  1.0
  H  H13  1  0.61381000  0.15429000  0.65286000  1.0
  H  H14  1  0.15430000  0.61380000  0.15286000  1.0
  H  H15  1  0.38661000  0.84693000  0.34732000  1.0
  H  H16  1  0.74059000  0.56339000  0.81729000  1.0
  H  H17  1  0.43773000  0.26109000  0.68353000  1.0
  H  H18  1  0.26112000  0.43774000  0.18354000  1.0
  H  H19  1  0.56341000  0.74062000  0.31730000  1.0
  H  H20  1  0.97781000  0.63032000  0.86372000  1.0
  H  H21  1  0.36980000  0.02414000  0.63642000  1.0
  H  H22  1  0.02416000  0.36979000  0.13643000  1.0
  H  H23  1  0.63030000  0.97784000  0.36372000  1.0
  Rh  Rh24  1  0.99965000  0.34313000  0.50617000  1.0
  Rh  Rh25  1  0.65707000  0.99940000  0.99370000  1.0
  Rh  Rh26  1  0.99941000  0.65707000  0.49370000  1.0
  Rh  Rh27  1  0.34313000  0.99966000  0.00617000  1.0
  C  C28  1  0.64764000  0.37727000  0.42386000  1.0
  C  C29  1  0.62294000  0.35133000  0.07602000  1.0
  C  C30  1  0.35133000  0.62293000  0.57602000  1.0
  C  C31  1  0.37726000  0.64763000  0.92386000  1.0
  C  C32  1  0.91829000  0.51301000  0.70123000  1.0
  C  C33  1  0.48737000  0.08176000  0.79883000  1.0
  C  C34  1  0.08177000  0.48737000  0.29883000  1.0
  C  C35  1  0.51301000  0.91830000  0.20123000  1.0
  C  C36  1  0.45396000  0.30612000  0.37071000  1.0
  C  C37  1  0.69392000  0.54497000  0.12911000  1.0
  C  C38  1  0.54497000  0.69391000  0.62911000  1.0
  C  C39  1  0.30612000  0.45396000  0.87071000  1.0
  C  C40  1  0.86725000  0.52149000  0.81445000  1.0
  C  C41  1  0.47906000  0.13404000  0.68585000  1.0
  C  C42  1  0.13406000  0.47905000  0.18585000  1.0
  C  C43  1  0.52148000  0.86726000  0.31445000  1.0
  Cl  Cl44  1  0.99929000  0.99991000  0.49987000  1.0
  Cl  Cl45  1  0.99991000  0.99929000  0.99986000  1.0
  O  O46  1  0.72529000  0.25733000  0.45350000  1.0
  O  O47  1  0.74296000  0.27356000  0.04669000  1.0
  O  O48  1  0.27357000  0.74296000  0.54669000  1.0
  O  O49  1  0.25732000  0.72529000  0.95350000  1.0
  O  O50  1  0.93689000  0.35934000  0.66091000  1.0
  O  O51  1  0.64110000  0.06322000  0.83912000  1.0
  O  O52  1  0.06322000  0.64110000  0.33912000  1.0
  O  O53  1  0.35934000  0.93690000  0.16091000  1.0
  O  O54  1  0.72638000  0.55471000  0.43600000  1.0
  O  O55  1  0.44545000  0.27270000  0.06358000  1.0
  O  O56  1  0.27269000  0.44544000  0.56359000  1.0
  O  O57  1  0.55470000  0.72637000  0.93600000  1.0
  O  O58  1  0.93979000  0.65923000  0.65037000  1.0
  O  O59  1  0.34081000  0.05908000  0.84951000  1.0
  O  O60  1  0.05909000  0.34081000  0.34952000  1.0
  O  O61  1  0.65922000  0.93978000  0.15037000  1.0
