# generated using pymatgen
data_NiH34C38N10(ClO2)2
_symmetry_space_group_name_H-M   'P 1'
_cell_length_a   7.61711000
_cell_length_b   18.11820000
_cell_length_c   18.76540000
_cell_angle_alpha   90.02680000
_cell_angle_beta   90.00180000
_cell_angle_gamma   84.23410000
_symmetry_Int_Tables_number   1
_chemical_formula_structural   NiH34C38N10(ClO2)2
_chemical_formula_sum   'Ni2 H68 C76 N20 Cl4 O8'
_cell_volume   2576.67855059
_cell_formula_units_Z   2
loop_
 _symmetry_equiv_pos_site_id
 _symmetry_equiv_pos_as_xyz
  1  'x, y, z'
loop_
 _atom_site_type_symbol
 _atom_site_label
 _atom_site_symmetry_multiplicity
 _atom_site_fract_x
 _atom_site_fract_y
 _atom_site_fract_z
 _atom_site_occupancy
  Ni  Ni0  1  0.50000000  0.50000000  0.50000000  1.0
  Ni  Ni1  1  0.00000000  0.00000000  0.00000000  1.0
  H  H2  1  0.82406000  0.38594000  0.00874000  1.0
  H  H3  1  0.67594000  0.11406000  0.50875000  1.0
  H  H4  1  0.17593000  0.61406000  0.99126000  1.0
  H  H5  1  0.32407000  0.88595000  0.49125000  1.0
  H  H6  1  0.94337000  0.42167000  0.88914000  1.0
  H  H7  1  0.55666000  0.07827000  0.38915000  1.0
  H  H8  1  0.05662000  0.57832000  0.11086000  1.0
  H  H9  1  0.44335000  0.92173000  0.61085000  1.0
  H  H10  1  0.88880000  0.55700000  0.85091000  1.0
  H  H11  1  0.61125000  0.94293000  0.35089000  1.0
  H  H12  1  0.11120000  0.44300000  0.14909000  1.0
  H  H13  1  0.38875000  0.05707000  0.64911000  1.0
  H  H14  1  0.42739000  0.46998000  0.20690000  1.0
  H  H15  1  0.07255000  0.03006000  0.70694000  1.0
  H  H16  1  0.57260000  0.53002000  0.79310000  1.0
  H  H17  1  0.92746000  0.96994000  0.29306000  1.0
  H  H18  1  0.37686000  0.56737000  0.21665000  1.0
  H  H19  1  0.12313000  0.93265000  0.71660000  1.0
  H  H20  1  0.62312000  0.43263000  0.78334000  1.0
  H  H21  1  0.87688000  0.06735000  0.28340000  1.0
  H  H22  1  0.84892000  0.53686000  0.21465000  1.0
  H  H23  1  0.65105000  0.96315000  0.71462000  1.0
  H  H24  1  0.15107000  0.46314000  0.78535000  1.0
  H  H25  1  0.34896000  0.03685000  0.28538000  1.0
  H  H26  1  0.03424000  0.52726000  0.32745000  1.0
  H  H27  1  0.46573000  0.97272000  0.82741000  1.0
  H  H28  1  0.96575000  0.47275000  0.67255000  1.0
  H  H29  1  0.53428000  0.02727000  0.17258000  1.0
  H  H30  1  0.88594000  0.51168000  0.44295000  1.0
  H  H31  1  0.61406000  0.98827000  0.94293000  1.0
  H  H32  1  0.11404000  0.48832000  0.55705000  1.0
  H  H33  1  0.38594000  0.01173000  0.05707000  1.0
  H  H34  1  0.40004000  0.50313000  0.34707000  1.0
  H  H35  1  0.09990000  0.99683000  0.84707000  1.0
  H  H36  1  0.59995000  0.49687000  0.65293000  1.0
  H  H37  1  0.90011000  0.00316000  0.15293000  1.0
  H  H38  1  0.63334000  0.80427000  0.90737000  1.0
  H  H39  1  0.86671000  0.69565000  0.40735000  1.0
  H  H40  1  0.36666000  0.19572000  0.09264000  1.0
  H  H41  1  0.13329000  0.30436000  0.59264000  1.0
  H  H42  1  0.63191000  0.82677000  0.99975000  1.0
  H  H43  1  0.86810000  0.67326000  0.49972000  1.0
  H  H44  1  0.36810000  0.17323000  0.00026000  1.0
  H  H45  1  0.13190000  0.32675000  0.50027000  1.0
  H  H46  1  0.32758000  0.70091000  0.91112000  1.0
  H  H47  1  0.17249000  0.79904000  0.41111000  1.0
  H  H48  1  0.67243000  0.29909000  0.08889000  1.0
  H  H49  1  0.82752000  0.20096000  0.58888000  1.0
  H  H50  1  0.00100000  0.73552000  0.90613000  1.0
  H  H51  1  0.49908000  0.76440000  0.40615000  1.0
  H  H52  1  0.99901000  0.26448000  0.09387000  1.0
  H  H53  1  0.50093000  0.23559000  0.59385000  1.0
  H  H54  1  0.87947000  0.85985000  0.95344000  1.0
  H  H55  1  0.62055000  0.64011000  0.45347000  1.0
  H  H56  1  0.12053000  0.14015000  0.04655000  1.0
  H  H57  1  0.37945000  0.35989000  0.54653000  1.0
  H  H58  1  0.37813000  0.91804000  0.99868000  1.0
  H  H59  1  0.12186000  0.58196000  0.49868000  1.0
  H  H60  1  0.62187000  0.08195000  0.00133000  1.0
  H  H61  1  0.87813000  0.41804000  0.50131000  1.0
  H  H62  1  0.55767000  0.58505000  0.11682000  1.0
  H  H63  1  0.94228000  0.91497000  0.61678000  1.0
  H  H64  1  0.44233000  0.41494000  0.88318000  1.0
  H  H65  1  0.05773000  0.08503000  0.38322000  1.0
  H  H66  1  0.60315000  0.69011000  0.01980000  1.0
  H  H67  1  0.89681000  0.80991000  0.51976000  1.0
  H  H68  1  0.39685000  0.30988000  0.98021000  1.0
  H  H69  1  0.10320000  0.19009000  0.48024000  1.0
  C  C70  1  0.64854000  0.47719000  0.10311000  1.0
  C  C71  1  0.85145000  0.02285000  0.60312000  1.0
  C  C72  1  0.35146000  0.52281000  0.89689000  1.0
  C  C73  1  0.14855000  0.97716000  0.39688000  1.0
  C  C74  1  0.71673000  0.49780000  0.03128000  1.0
  C  C75  1  0.78327000  0.00221000  0.53127000  1.0
  C  C76  1  0.28327000  0.50220000  0.96872000  1.0
  C  C77  1  0.21673000  0.99779000  0.46873000  1.0
  C  C78  1  0.80635000  0.44269000  0.98892000  1.0
  C  C79  1  0.69365000  0.05730000  0.48892000  1.0
  C  C80  1  0.19365000  0.55731000  0.01108000  1.0
  C  C81  1  0.30635000  0.94271000  0.51109000  1.0
  C  C82  1  0.87074000  0.46308000  0.92306000  1.0
  C  C83  1  0.62925000  0.03687000  0.42305000  1.0
  C  C84  1  0.12926000  0.53692000  0.07694000  1.0
  C  C85  1  0.37075000  0.96314000  0.57695000  1.0
  C  C86  1  0.84186000  0.53694000  0.90151000  1.0
  C  C87  1  0.65819000  0.96300000  0.40149000  1.0
  C  C88  1  0.15814000  0.46305000  0.09849000  1.0
  C  C89  1  0.34181000  0.03701000  0.59851000  1.0
  C  C90  1  0.74847000  0.58796000  0.94704000  1.0
  C  C91  1  0.75154000  0.91200000  0.44701000  1.0
  C  C92  1  0.25153000  0.41204000  0.05296000  1.0
  C  C93  1  0.24846000  0.08800000  0.55299000  1.0
  C  C94  1  0.71177000  0.66748000  0.92310000  1.0
  C  C95  1  0.78829000  0.83247000  0.42305000  1.0
  C  C96  1  0.28824000  0.33252000  0.07691000  1.0
  C  C97  1  0.21172000  0.16753000  0.57695000  1.0
  C  C98  1  0.48536000  0.52326000  0.20898000  1.0
  C  C99  1  0.01464000  0.97676000  0.70896000  1.0
  C  C100  1  0.51463000  0.47674000  0.79102000  1.0
  C  C101  1  0.98537000  0.02324000  0.29104000  1.0
  C  C102  1  0.60982000  0.52127000  0.27212000  1.0
  C  C103  1  0.89011000  0.97874000  0.77209000  1.0
  C  C104  1  0.39016000  0.47873000  0.72787000  1.0
  C  C105  1  0.10989000  0.02126000  0.22791000  1.0
  C  C106  1  0.79001000  0.52820000  0.26661000  1.0
  C  C107  1  0.70992000  0.97180000  0.76658000  1.0
  C  C108  1  0.20997000  0.47181000  0.73339000  1.0
  C  C109  1  0.29008000  0.02820000  0.23342000  1.0
  C  C110  1  0.89226000  0.52357000  0.32834000  1.0
  C  C111  1  0.60768000  0.97641000  0.82831000  1.0
  C  C112  1  0.10772000  0.47644000  0.67165000  1.0
  C  C113  1  0.39233000  0.02359000  0.17168000  1.0
  C  C114  1  0.81110000  0.51302000  0.39352000  1.0
  C  C115  1  0.68884000  0.98693000  0.89349000  1.0
  C  C116  1  0.18888000  0.48697000  0.60648000  1.0
  C  C117  1  0.31116000  0.01307000  0.10651000  1.0
  C  C118  1  0.53973000  0.51017000  0.33959000  1.0
  C  C119  1  0.96020000  0.98980000  0.83957000  1.0
  C  C120  1  0.46025000  0.48983000  0.66041000  1.0
  C  C121  1  0.03981000  0.01020000  0.16043000  1.0
  C  C122  1  0.57696000  0.79132000  0.95940000  1.0
  C  C123  1  0.92308000  0.70865000  0.45937000  1.0
  C  C124  1  0.42305000  0.20868000  0.04061000  1.0
  C  C125  1  0.07692000  0.29135000  0.54062000  1.0
  C  C126  1  0.37839000  0.80688000  0.95687000  1.0
  C  C127  1  0.12164000  0.69308000  0.45687000  1.0
  C  C128  1  0.62161000  0.19311000  0.04313000  1.0
  C  C129  1  0.87836000  0.30692000  0.54312000  1.0
  C  C130  1  0.27114000  0.75504000  0.93023000  1.0
  C  C131  1  0.22886000  0.74492000  0.43022000  1.0
  C  C132  1  0.72886000  0.24496000  0.06978000  1.0
  C  C133  1  0.77115000  0.25508000  0.56978000  1.0
  C  C134  1  0.08924000  0.77354000  0.92805000  1.0
  C  C135  1  0.41077000  0.72642000  0.42807000  1.0
  C  C136  1  0.91076000  0.22646000  0.07195000  1.0
  C  C137  1  0.58923000  0.27358000  0.57193000  1.0
  C  C138  1  0.02041000  0.84294000  0.95253000  1.0
  C  C139  1  0.47961000  0.65702000  0.45255000  1.0
  C  C140  1  0.97959000  0.15705000  0.04747000  1.0
  C  C141  1  0.52040000  0.34298000  0.54745000  1.0
  C  C142  1  0.29812000  0.87573000  0.97927000  1.0
  C  C143  1  0.20191000  0.62425000  0.47928000  1.0
  C  C144  1  0.70188000  0.12427000  0.02073000  1.0
  C  C145  1  0.79809000  0.37575000  0.52072000  1.0
  N  N146  1  0.68840000  0.56905000  0.01107000  1.0
  N  N147  1  0.81160000  0.93095000  0.51104000  1.0
  N  N148  1  0.31160000  0.43095000  0.98893000  1.0
  N  N149  1  0.18840000  0.06906000  0.48896000  1.0
  N  N150  1  0.56608000  0.53448000  0.14061000  1.0
  N  N151  1  0.93389000  0.96556000  0.64058000  1.0
  N  N152  1  0.43392000  0.46552000  0.85939000  1.0
  N  N153  1  0.06611000  0.03444000  0.35942000  1.0
  N  N154  1  0.63696000  0.50637000  0.39944000  1.0
  N  N155  1  0.86295000  0.99359000  0.89940000  1.0
  N  N156  1  0.36302000  0.49363000  0.60056000  1.0
  N  N157  1  0.13706000  0.00641000  0.10060000  1.0
  N  N158  1  0.63448000  0.71389000  0.97304000  1.0
  N  N159  1  0.86553000  0.78609000  0.47300000  1.0
  N  N160  1  0.36553000  0.28611000  0.02696000  1.0
  N  N161  1  0.13447000  0.21391000  0.52700000  1.0
  N  N162  1  0.12262000  0.89389000  0.97696000  1.0
  N  N163  1  0.37742000  0.60607000  0.47698000  1.0
  N  N164  1  0.87738000  0.10611000  0.02304000  1.0
  N  N165  1  0.62258000  0.39393000  0.52302000  1.0
  Cl  Cl166  1  0.25697000  0.44423000  0.44109000  1.0
  Cl  Cl167  1  0.24338000  0.05581000  0.94102000  1.0
  Cl  Cl168  1  0.74302000  0.55577000  0.55891000  1.0
  Cl  Cl169  1  0.75663000  0.94419000  0.05898000  1.0
  O  O170  1  0.66728000  0.41247000  0.12529000  1.0
  O  O171  1  0.83278000  0.08758000  0.62532000  1.0
  O  O172  1  0.33271000  0.58753000  0.87472000  1.0
  O  O173  1  0.16723000  0.91242000  0.37468000  1.0
  O  O174  1  0.75383000  0.68655000  0.86249000  1.0
  O  O175  1  0.74629000  0.81338000  0.36243000  1.0
  O  O176  1  0.24618000  0.31346000  0.13751000  1.0
  O  O177  1  0.25370000  0.18663000  0.63757000  1.0
