# generated using pymatgen
data_MnV4H18C4(NO3)4
_symmetry_space_group_name_H-M   'P 1'
_cell_length_a   5.78711000
_cell_length_b   8.32551000
_cell_length_c   17.50310000
_cell_angle_alpha   90.00040000
_cell_angle_beta   90.00000000
_cell_angle_gamma   100.68900000
_symmetry_Int_Tables_number   1
_chemical_formula_structural   MnV4H18C4(NO3)4
_chemical_formula_sum   'Mn2 V8 H36 C8 N8 O24'
_cell_volume   828.67783000
_cell_formula_units_Z   2
loop_
 _symmetry_equiv_pos_site_id
 _symmetry_equiv_pos_as_xyz
  1  'x, y, z'
loop_
 _atom_site_type_symbol
 _atom_site_label
 _atom_site_symmetry_multiplicity
 _atom_site_fract_x
 _atom_site_fract_y
 _atom_site_fract_z
 _atom_site_occupancy
  Mn  Mn0  1  0.00000000  0.00000000  0.00000000  1.0
  Mn  Mn1  1  0.50000000  0.50000000  0.50000000  1.0
  V  V2  1  0.78003000  0.86386000  0.17676000  1.0
  V  V3  1  0.71997000  0.63615000  0.67675000  1.0
  V  V4  1  0.21997000  0.13614000  0.82324000  1.0
  V  V5  1  0.28002000  0.36386000  0.32325000  1.0
  V  V6  1  0.78207000  0.29238000  0.88738000  1.0
  V  V7  1  0.71792000  0.20762000  0.38738000  1.0
  V  V8  1  0.21793000  0.70762000  0.11262000  1.0
  V  V9  1  0.28207000  0.79238000  0.61262000  1.0
  H  H10  1  0.62434000  0.75922000  0.01672000  1.0
  H  H11  1  0.87567000  0.74078000  0.51672000  1.0
  H  H12  1  0.37567000  0.24078000  0.98328000  1.0
  H  H13  1  0.12433000  0.25922000  0.48328000  1.0
  H  H14  1  0.81086000  0.67877000  0.96427000  1.0
  H  H15  1  0.68914000  0.82124000  0.46427000  1.0
  H  H16  1  0.18914000  0.32124000  0.03573000  1.0
  H  H17  1  0.31086000  0.17876000  0.53573000  1.0
  H  H18  1  0.70968000  0.81081000  0.85199000  1.0
  H  H19  1  0.79032000  0.68919000  0.35199000  1.0
  H  H20  1  0.29032000  0.18920000  0.14801000  1.0
  H  H21  1  0.20968000  0.31081000  0.64801000  1.0
  H  H22  1  0.52293000  0.91057000  0.90790000  1.0
  H  H23  1  0.97706000  0.58943000  0.40790000  1.0
  H  H24  1  0.47706000  0.08943000  0.09210000  1.0
  H  H25  1  0.02294000  0.41056000  0.59210000  1.0
  H  H26  1  0.28509000  0.62972000  0.94316000  1.0
  H  H27  1  0.21491000  0.87028000  0.44316000  1.0
  H  H28  1  0.71491000  0.37027000  0.05684000  1.0
  H  H29  1  0.78509000  0.12972000  0.55684000  1.0
  H  H30  1  0.44983000  0.54293000  0.87291000  1.0
  H  H31  1  0.05017000  0.95707000  0.37292000  1.0
  H  H32  1  0.55017000  0.45707000  0.12708000  1.0
  H  H33  1  0.94983000  0.04293000  0.62708000  1.0
  H  H34  1  0.17519000  0.80669000  0.84757000  1.0
  H  H35  1  0.32481000  0.69331000  0.34757000  1.0
  H  H36  1  0.82482000  0.19331000  0.15243000  1.0
  H  H37  1  0.67519000  0.30669000  0.65243000  1.0
  H  H38  1  0.07626000  0.60914000  0.82529000  1.0
  H  H39  1  0.42374000  0.89086000  0.32530000  1.0
  H  H40  1  0.92374000  0.39086000  0.17471000  1.0
  H  H41  1  0.57626000  0.10914000  0.67471000  1.0
  H  H42  1  0.31111000  0.71597000  0.77800000  1.0
  H  H43  1  0.18889000  0.78403000  0.27800000  1.0
  H  H44  1  0.68890000  0.28404000  0.22200000  1.0
  H  H45  1  0.81111000  0.21597000  0.72200000  1.0
  C  C46  1  0.59238000  0.79736000  0.90186000  1.0
  C  C47  1  0.90762000  0.70264000  0.40186000  1.0
  C  C48  1  0.40762000  0.20265000  0.09814000  1.0
  C  C49  1  0.09238000  0.29735000  0.59814000  1.0
  C  C50  1  0.38895000  0.65414000  0.89068000  1.0
  C  C51  1  0.11106000  0.84586000  0.39068000  1.0
  C  C52  1  0.61106000  0.34586000  0.10932000  1.0
  C  C53  1  0.88894000  0.15414000  0.60932000  1.0
  N  N54  1  0.73339000  0.78024000  0.97019000  1.0
  N  N55  1  0.76661000  0.71976000  0.47020000  1.0
  N  N56  1  0.26661000  0.21976000  0.02980000  1.0
  N  N57  1  0.23339000  0.28024000  0.52980000  1.0
  N  N58  1  0.22723000  0.69726000  0.83080000  1.0
  N  N59  1  0.27276000  0.80274000  0.33081000  1.0
  N  N60  1  0.77277000  0.30274000  0.16920000  1.0
  N  N61  1  0.72724000  0.19726000  0.66920000  1.0
  O  O62  1  0.86055000  0.01305000  0.11055000  1.0
  O  O63  1  0.63945000  0.48695000  0.61054000  1.0
  O  O64  1  0.13945000  0.98695000  0.88945000  1.0
  O  O65  1  0.36055000  0.51305000  0.38945000  1.0
  O  O66  1  0.79380000  0.15777000  0.95861000  1.0
  O  O67  1  0.70620000  0.34222000  0.45861000  1.0
  O  O68  1  0.20620000  0.84223000  0.04139000  1.0
  O  O69  1  0.29379000  0.65777000  0.54139000  1.0
  O  O70  1  0.72283000  0.94853000  0.25723000  1.0
  O  O71  1  0.77717000  0.55148000  0.75722000  1.0
  O  O72  1  0.27717000  0.05148000  0.74277000  1.0
  O  O73  1  0.22284000  0.44852000  0.24277000  1.0
  O  O74  1  0.02422000  0.75653000  0.18865000  1.0
  O  O75  1  0.47579000  0.74347000  0.68864000  1.0
  O  O76  1  0.97578000  0.24347000  0.81135000  1.0
  O  O77  1  0.52420000  0.25652000  0.31136000  1.0
  O  O78  1  0.52180000  0.72912000  0.14296000  1.0
  O  O79  1  0.97821000  0.77089000  0.64296000  1.0
  O  O80  1  0.47821000  0.27088000  0.85704000  1.0
  O  O81  1  0.02178000  0.22912000  0.35704000  1.0
  O  O82  1  0.87452000  0.47706000  0.92084000  1.0
  O  O83  1  0.62547000  0.02295000  0.42084000  1.0
  O  O84  1  0.12548000  0.52295000  0.07916000  1.0
  O  O85  1  0.37453000  0.97705000  0.57916000  1.0
