# generated using pymatgen
data_CuH14C14NO7
_symmetry_space_group_name_H-M   'P 1'
_cell_length_a   7.72127000
_cell_length_b   10.23530000
_cell_length_c   10.30390000
_cell_angle_alpha   104.92200000
_cell_angle_beta   105.45100000
_cell_angle_gamma   99.66300000
_symmetry_Int_Tables_number   1
_chemical_formula_structural   CuH14C14NO7
_chemical_formula_sum   'Cu2 H28 C28 N2 O14'
_cell_volume   733.56397558
_cell_formula_units_Z   2
loop_
 _symmetry_equiv_pos_site_id
 _symmetry_equiv_pos_as_xyz
  1  'x, y, z'
loop_
 _atom_site_type_symbol
 _atom_site_label
 _atom_site_symmetry_multiplicity
 _atom_site_fract_x
 _atom_site_fract_y
 _atom_site_fract_z
 _atom_site_occupancy
  Cu  Cu0  1  0.24194000  0.05553000  0.17017000  1.0
  Cu  Cu1  1  0.75805000  0.94448000  0.82983000  1.0
  H  H2  1  0.16565000  0.81967000  0.00912000  1.0
  H  H3  1  0.83434000  0.18034000  0.99087000  1.0
  H  H4  1  0.14724000  0.91077000  0.89544000  1.0
  H  H5  1  0.85276000  0.08923000  0.10456000  1.0
  H  H6  1  0.69534000  0.07440000  0.28653000  1.0
  H  H7  1  0.30465000  0.92560000  0.71347000  1.0
  H  H8  1  0.55408000  0.99650000  0.34440000  1.0
  H  H9  1  0.44593000  0.00350000  0.65560000  1.0
  H  H10  1  0.29995000  0.54748000  0.13790000  1.0
  H  H11  1  0.70006000  0.45253000  0.86211000  1.0
  H  H12  1  0.22496000  0.60886000  0.73207000  1.0
  H  H13  1  0.77504000  0.39114000  0.26793000  1.0
  H  H14  1  0.92518000  0.09936000  0.54676000  1.0
  H  H15  1  0.07483000  0.90064000  0.45324000  1.0
  H  H16  1  0.06567000  0.49716000  0.86977000  1.0
  H  H17  1  0.93432000  0.50284000  0.13023000  1.0
  H  H18  1  0.44814000  0.09796000  0.98043000  1.0
  H  H19  1  0.55186000  0.90205000  0.01956000  1.0
  H  H20  1  0.18530000  0.34664000  0.20774000  1.0
  H  H21  1  0.81471000  0.65337000  0.79227000  1.0
  H  H22  1  0.58427000  0.28948000  0.90937000  1.0
  H  H23  1  0.41573000  0.71053000  0.09062000  1.0
  H  H24  1  0.40787000  0.63287000  0.45025000  1.0
  H  H25  1  0.59215000  0.36712000  0.54975000  1.0
  H  H26  1  0.46387000  0.63844000  0.63070000  1.0
  H  H27  1  0.53613000  0.36156000  0.36930000  1.0
  H  H28  1  0.25401000  0.68034000  0.54705000  1.0
  H  H29  1  0.74600000  0.31966000  0.45295000  1.0
  C  C30  1  0.34139000  0.45150000  0.10242000  1.0
  C  C31  1  0.65861000  0.54850000  0.89758000  1.0
  C  C32  1  0.17140000  0.41607000  0.56210000  1.0
  C  C33  1  0.82860000  0.58393000  0.43791000  1.0
  C  C34  1  0.98810000  0.29003000  0.71845000  1.0
  C  C35  1  0.01189000  0.70996000  0.28155000  1.0
  C  C36  1  0.45853000  0.43992000  0.01885000  1.0
  C  C37  1  0.54147000  0.56009000  0.98115000  1.0
  C  C38  1  0.16223000  0.49678000  0.69179000  1.0
  C  C39  1  0.83776000  0.50321000  0.30821000  1.0
  C  C40  1  0.07694000  0.18334000  0.36568000  1.0
  C  C41  1  0.92306000  0.81666000  0.63432000  1.0
  C  C42  1  0.99355000  0.21063000  0.58732000  1.0
  C  C43  1  0.00645000  0.78937000  0.41268000  1.0
  C  C44  1  0.07147000  0.43407000  0.76877000  1.0
  C  C45  1  0.92852000  0.56592000  0.23122000  1.0
  C  C46  1  0.89699000  0.22031000  0.80197000  1.0
  C  C47  1  0.10300000  0.77969000  0.19802000  1.0
  C  C48  1  0.41857000  0.19909000  0.01377000  1.0
  C  C49  1  0.58143000  0.80092000  0.98623000  1.0
  C  C50  1  0.08299000  0.27115000  0.50859000  1.0
  C  C51  1  0.91701000  0.72885000  0.49141000  1.0
  C  C52  1  0.27155000  0.33768000  0.13960000  1.0
  C  C53  1  0.72845000  0.66233000  0.86040000  1.0
  C  C54  1  0.49382000  0.30859000  0.97318000  1.0
  C  C55  1  0.50618000  0.69141000  0.02682000  1.0
  C  C56  1  0.34965000  0.61436000  0.53164000  1.0
  C  C57  1  0.65036000  0.38563000  0.46837000  1.0
  N  N58  1  0.31060000  0.21307000  0.09742000  1.0
  N  N59  1  0.68940000  0.78694000  0.90258000  1.0
  O  O60  1  0.23278000  0.18751000  0.34377000  1.0
  O  O61  1  0.76722000  0.81249000  0.65623000  1.0
  O  O62  1  0.21779000  0.91053000  0.99239000  1.0
  O  O63  1  0.78220000  0.08947000  0.00761000  1.0
  O  O64  1  0.82167000  0.08808000  0.74253000  1.0
  O  O65  1  0.17832000  0.91192000  0.25747000  1.0
  O  O66  1  0.89836000  0.29118000  0.92354000  1.0
  O  O67  1  0.10164000  0.70882000  0.07645000  1.0
  O  O68  1  0.25462000  0.46852000  0.47983000  1.0
  O  O69  1  0.74539000  0.53148000  0.52017000  1.0
  O  O70  1  0.92011000  0.11161000  0.27626000  1.0
  O  O71  1  0.07989000  0.88839000  0.72374000  1.0
  O  O72  1  0.56166000  0.04574000  0.27637000  1.0
  O  O73  1  0.43834000  0.95426000  0.72363000  1.0
