# generated using pymatgen
data_CuH26C30S4(N5O2)2
_symmetry_space_group_name_H-M   'P 1'
_cell_length_a   12.68380000
_cell_length_b   16.35460000
_cell_length_c   17.71270000
_cell_angle_alpha   89.99980000
_cell_angle_beta   89.99990000
_cell_angle_gamma   89.99940000
_symmetry_Int_Tables_number   1
_chemical_formula_structural   CuH26C30S4(N5O2)2
_chemical_formula_sum   'Cu4 H104 C120 S16 N40 O16'
_cell_volume   3674.29548441
_cell_formula_units_Z   4
loop_
 _symmetry_equiv_pos_site_id
 _symmetry_equiv_pos_as_xyz
  1  'x, y, z'
loop_
 _atom_site_type_symbol
 _atom_site_label
 _atom_site_symmetry_multiplicity
 _atom_site_fract_x
 _atom_site_fract_y
 _atom_site_fract_z
 _atom_site_occupancy
  Cu  Cu0  1  0.23732000  0.65152000  0.44235000  1.0
  Cu  Cu1  1  0.76269000  0.34848000  0.94236000  1.0
  Cu  Cu2  1  0.76268000  0.15151000  0.44235000  1.0
  Cu  Cu3  1  0.23731000  0.84849000  0.94235000  1.0
  H  H4  1  0.97634000  0.13822000  0.48144000  1.0
  H  H5  1  0.02366000  0.86178000  0.98143000  1.0
  H  H6  1  0.02366000  0.63822000  0.48143000  1.0
  H  H7  1  0.97634000  0.36178000  0.98144000  1.0
  H  H8  1  0.95841000  0.17976000  0.39338000  1.0
  H  H9  1  0.04159000  0.82025000  0.89338000  1.0
  H  H10  1  0.04159000  0.67976000  0.39338000  1.0
  H  H11  1  0.95841000  0.32024000  0.89338000  1.0
  H  H12  1  0.48399000  0.97537000  0.66666667  1.0
  H  H13  1  0.51600000  0.02463000  0.16671000  1.0
  H  H14  1  0.51601000  0.47537000  0.66671000  1.0
  H  H15  1  0.48400000  0.52464000  0.16671000  1.0
  H  H16  1  0.52203000  0.14173000  0.40135000  1.0
  H  H17  1  0.47797000  0.85826000  0.90135000  1.0
  H  H18  1  0.47797000  0.64173000  0.40135000  1.0
  H  H19  1  0.52203000  0.35827000  0.90135000  1.0
  H  H20  1  0.53720000  0.18354000  0.48980000  1.0
  H  H21  1  0.46279000  0.81646000  0.98980000  1.0
  H  H22  1  0.46280000  0.68354000  0.48979000  1.0
  H  H23  1  0.53721000  0.31646000  0.98980000  1.0
  H  H24  1  0.50612000  0.11076000  0.60365000  1.0
  H  H25  1  0.49386000  0.88924000  0.10365000  1.0
  H  H26  1  0.49387000  0.61076000  0.60365000  1.0
  H  H27  1  0.50614000  0.38924000  0.10366000  1.0
  H  H28  1  0.28832000  0.49988000  0.18788000  1.0
  H  H29  1  0.71169000  0.50012000  0.68788000  1.0
  H  H30  1  0.71169000  0.99987000  0.18787000  1.0
  H  H31  1  0.28831000  0.00014000  0.68787000  1.0
  H  H32  1  0.28624000  0.62430000  0.26885000  1.0
  H  H33  1  0.71377000  0.37569000  0.76885000  1.0
  H  H34  1  0.71377000  0.12430000  0.26885000  1.0
  H  H35  1  0.28624000  0.87571000  0.76885000  1.0
  H  H36  1  0.21234000  0.61914000  0.61662000  1.0
  H  H37  1  0.78768000  0.38086000  0.11662000  1.0
  H  H38  1  0.78766000  0.11914000  0.61662000  1.0
  H  H39  1  0.21233000  0.88086000  0.11662000  1.0
  H  H40  1  0.45414000  0.85912000  0.44964000  1.0
  H  H41  1  0.54588000  0.14087000  0.94964000  1.0
  H  H42  1  0.54587000  0.35912000  0.44964000  1.0
  H  H43  1  0.45412000  0.64088000  0.94964000  1.0
  H  H44  1  0.26405000  0.35828000  0.63548000  1.0
  H  H45  1  0.73596000  0.64172000  0.13548000  1.0
  H  H46  1  0.73595000  0.85827000  0.63548000  1.0
  H  H47  1  0.26405000  0.14173000  0.13548000  1.0
  H  H48  1  0.27473000  0.27856000  0.37156000  1.0
  H  H49  1  0.72527000  0.72143000  0.87156000  1.0
  H  H50  1  0.72527000  0.77856000  0.37156000  1.0
  H  H51  1  0.27472000  0.22145000  0.87156000  1.0
  H  H52  1  0.27437000  0.36119000  0.24819000  1.0
  H  H53  1  0.72563000  0.63881000  0.74820000  1.0
  H  H54  1  0.72563000  0.86119000  0.24819000  1.0
  H  H55  1  0.27437000  0.13882000  0.74819000  1.0
  H  H56  1  0.97673000  0.10733000  0.28072000  1.0
  H  H57  1  0.02326000  0.89267000  0.78071000  1.0
  H  H58  1  0.02325000  0.60733000  0.28072000  1.0
  H  H59  1  0.97673000  0.39267000  0.78072000  1.0
  H  H60  1  0.98992000  0.98535000  0.49627000  1.0
  H  H61  1  0.01008000  0.01465000  0.99627000  1.0
  H  H62  1  0.01007000  0.48536000  0.49627000  1.0
  H  H63  1  0.98993000  0.51465000  0.99628000  1.0
  H  H64  1  0.01291000  0.85164000  0.43142000  1.0
  H  H65  1  0.98709000  0.14836000  0.93142000  1.0
  H  H66  1  0.98709000  0.35165000  0.43142000  1.0
  H  H67  1  0.01291000  0.64836000  0.93142000  1.0
  H  H68  1  0.99967000  0.97255000  0.21569000  1.0
  H  H69  1  0.00032000  0.02745000  0.71568000  1.0
  H  H70  1  0.00031000  0.47255000  0.21569000  1.0
  H  H71  1  0.99967000  0.52745000  0.71569000  1.0
  H  H72  1  0.47804000  0.99327000  0.38641000  1.0
  H  H73  1  0.52198000  0.00673000  0.88642000  1.0
  H  H74  1  0.52196000  0.49326000  0.38642000  1.0
  H  H75  1  0.47802000  0.50674000  0.88642000  1.0
  H  H76  1  0.22791000  0.49403000  0.69707000  1.0
  H  H77  1  0.77211000  0.50597000  0.19707000  1.0
  H  H78  1  0.77209000  0.99403000  0.69706000  1.0
  H  H79  1  0.22790000  0.00597000  0.19707000  1.0
  H  H80  1  0.27970000  0.27797000  0.51154000  1.0
  H  H81  1  0.72031000  0.72202000  0.01154000  1.0
  H  H82  1  0.72031000  0.77796000  0.51154000  1.0
  H  H83  1  0.27969000  0.22204000  0.01154000  1.0
  H  H84  1  0.96335000  0.81972000  0.66104000  1.0
  H  H85  1  0.03666000  0.18029000  0.16104000  1.0
  H  H86  1  0.03666000  0.31971000  0.66103000  1.0
  H  H87  1  0.96334000  0.68029000  0.16103000  1.0
  H  H88  1  0.92733000  0.82807000  0.56432000  1.0
  H  H89  1  0.07267000  0.17194000  0.06432000  1.0
  H  H90  1  0.07267000  0.32806000  0.56432000  1.0
  H  H91  1  0.92733000  0.67193000  0.06432000  1.0
  H  H92  1  0.98708000  0.91272000  0.61150000  1.0
  H  H93  1  0.01292000  0.08728000  0.11150000  1.0
  H  H94  1  0.01292000  0.41271000  0.61149000  1.0
  H  H95  1  0.98708000  0.58728000  0.11149000  1.0
  H  H96  1  0.51023000  0.81553000  0.22316000  1.0
  H  H97  1  0.48978000  0.18446000  0.72316000  1.0
  H  H98  1  0.48978000  0.31553000  0.22316000  1.0
  H  H99  1  0.51022000  0.68446000  0.72315000  1.0
  H  H100  1  0.54560000  0.82837000  0.31976000  1.0
  H  H101  1  0.45440000  0.17162000  0.81976000  1.0
  H  H102  1  0.45441000  0.32837000  0.31976000  1.0
  H  H103  1  0.54559000  0.67162000  0.81975000  1.0
  H  H104  1  0.48523000  0.91048000  0.26928000  1.0
  H  H105  1  0.51478000  0.08951000  0.76928000  1.0
  H  H106  1  0.51477000  0.41048000  0.26928000  1.0
  H  H107  1  0.48522000  0.58951000  0.76928000  1.0
  C  C108  1  0.25763000  0.48447000  0.48272000  1.0
  C  C109  1  0.74238000  0.51553000  0.98272000  1.0
  C  C110  1  0.74237000  0.98446000  0.48271000  1.0
  C  C111  1  0.25763000  0.01554000  0.98271000  1.0
  C  C112  1  0.26337000  0.40971000  0.52267000  1.0
  C  C113  1  0.73664000  0.59029000  0.02268000  1.0
  C  C114  1  0.73664000  0.90970000  0.52267000  1.0
  C  C115  1  0.26336000  0.09030000  0.02268000  1.0
  C  C116  1  0.48303000  0.98005000  0.60532000  1.0
  C  C117  1  0.51696000  0.01995000  0.10532000  1.0
  C  C118  1  0.51697000  0.48005000  0.60532000  1.0
  C  C119  1  0.48304000  0.51995000  0.10532000  1.0
  C  C120  1  0.49577000  0.05520000  0.57045000  1.0
  C  C121  1  0.50422000  0.94480000  0.07045000  1.0
  C  C122  1  0.50423000  0.55520000  0.57045000  1.0
  C  C123  1  0.49578000  0.44481000  0.07045000  1.0
  C  C124  1  0.28188000  0.49310000  0.24885000  1.0
  C  C125  1  0.71812000  0.50689000  0.74885000  1.0
  C  C126  1  0.71812000  0.99310000  0.24884000  1.0
  C  C127  1  0.28188000  0.00691000  0.74885000  1.0
  C  C128  1  0.27977000  0.56381000  0.29393000  1.0
  C  C129  1  0.72023000  0.43619000  0.79393000  1.0
  C  C130  1  0.72023000  0.06380000  0.29392000  1.0
  C  C131  1  0.27977000  0.93621000  0.79392000  1.0
  C  C132  1  0.97910000  0.05499000  0.39258000  1.0
  C  C133  1  0.02088000  0.94501000  0.89258000  1.0
  C  C134  1  0.02089000  0.55500000  0.39258000  1.0
  C  C135  1  0.97911000  0.44501000  0.89259000  1.0
  C  C136  1  0.22930000  0.55975000  0.59167000  1.0
  C  C137  1  0.77071000  0.44025000  0.09167000  1.0
  C  C138  1  0.77070000  0.05975000  0.59166000  1.0
  C  C139  1  0.22929000  0.94026000  0.09166000  1.0
  C  C140  1  0.46664000  0.91416000  0.48319000  1.0
  C  C141  1  0.53337000  0.08584000  0.98319000  1.0
  C  C142  1  0.53336000  0.41415000  0.48319000  1.0
  C  C143  1  0.46663000  0.58585000  0.98319000  1.0
  C  C144  1  0.25601000  0.41395000  0.60216000  1.0
  C  C145  1  0.74400000  0.58604000  0.10216000  1.0
  C  C146  1  0.74399000  0.91395000  0.60216000  1.0
  C  C147  1  0.25600000  0.08605000  0.10216000  1.0
  C  C148  1  0.27245000  0.33577000  0.40316000  1.0
  C  C149  1  0.72756000  0.66423000  0.90316000  1.0
  C  C150  1  0.72756000  0.83576000  0.40316000  1.0
  C  C151  1  0.27244000  0.16424000  0.90316000  1.0
  C  C152  1  0.27534000  0.41677000  0.28219000  1.0
  C  C153  1  0.72466000  0.58323000  0.78219000  1.0
  C  C154  1  0.72466000  0.91676000  0.28219000  1.0
  C  C155  1  0.27534000  0.08324000  0.78219000  1.0
  C  C156  1  0.98378000  0.05087000  0.31303000  1.0
  C  C157  1  0.01620000  0.94913000  0.81303000  1.0
  C  C158  1  0.01620000  0.55088000  0.31303000  1.0
  C  C159  1  0.98379000  0.44913000  0.81304000  1.0
  C  C160  1  0.49556000  0.06169000  0.49063000  1.0
  C  C161  1  0.50443000  0.93831000  0.99063000  1.0
  C  C162  1  0.50443000  0.56168000  0.49063000  1.0
  C  C163  1  0.49557000  0.43832000  0.99063000  1.0
  C  C164  1  0.00462000  0.90439000  0.31959000  1.0
  C  C165  1  0.99538000  0.09561000  0.81958000  1.0
  C  C166  1  0.99538000  0.40439000  0.31959000  1.0
  C  C167  1  0.00462000  0.59561000  0.81959000  1.0
  C  C168  1  0.99154000  0.98237000  0.43474000  1.0
  C  C169  1  0.00845000  0.01763000  0.93473000  1.0
  C  C170  1  0.00845000  0.48237000  0.43473000  1.0
  C  C171  1  0.99155000  0.51763000  0.93474000  1.0
  C  C172  1  0.46897000  0.90892000  0.56215000  1.0
  C  C173  1  0.53103000  0.09108000  0.06216000  1.0
  C  C174  1  0.53103000  0.40892000  0.56216000  1.0
  C  C175  1  0.46897000  0.59108000  0.06216000  1.0
  C  C176  1  0.00371000  0.90757000  0.39860000  1.0
  C  C177  1  0.99628000  0.09243000  0.89859000  1.0
  C  C178  1  0.99628000  0.40757000  0.39860000  1.0
  C  C179  1  0.00372000  0.59243000  0.89860000  1.0
  C  C180  1  0.99637000  0.97626000  0.27707000  1.0
  C  C181  1  0.00362000  0.02374000  0.77706000  1.0
  C  C182  1  0.00362000  0.47626000  0.27707000  1.0
  C  C183  1  0.99637000  0.52374000  0.77707000  1.0
  C  C184  1  0.27525000  0.77475000  0.56332000  1.0
  C  C185  1  0.72475000  0.22525000  0.06332000  1.0
  C  C186  1  0.72475000  0.27475000  0.56333000  1.0
  C  C187  1  0.27525000  0.72526000  0.06332000  1.0
  C  C188  1  0.47965000  0.98938000  0.44793000  1.0
  C  C189  1  0.52036000  0.01061000  0.94793000  1.0
  C  C190  1  0.52035000  0.48938000  0.44793000  1.0
  C  C191  1  0.47964000  0.51062000  0.94793000  1.0
  C  C192  1  0.09073000  0.81368000  0.58197000  1.0
  C  C193  1  0.90928000  0.18633000  0.08197000  1.0
  C  C194  1  0.90927000  0.31367000  0.58197000  1.0
  C  C195  1  0.09072000  0.68633000  0.08197000  1.0
  C  C196  1  0.23714000  0.48878000  0.63612000  1.0
  C  C197  1  0.76288000  0.51121000  0.13612000  1.0
  C  C198  1  0.76286000  0.98879000  0.63612000  1.0
  C  C199  1  0.23713000  0.01122000  0.13612000  1.0
  C  C200  1  0.38279000  0.81205000  0.30184000  1.0
  C  C201  1  0.61722000  0.18794000  0.80184000  1.0
  C  C202  1  0.61722000  0.31206000  0.30184000  1.0
  C  C203  1  0.38278000  0.68795000  0.80184000  1.0
  C  C204  1  0.19853000  0.77307000  0.31962000  1.0
  C  C205  1  0.80147000  0.22692000  0.81962000  1.0
  C  C206  1  0.80147000  0.27308000  0.31962000  1.0
  C  C207  1  0.19853000  0.72693000  0.81962000  1.0
  C  C208  1  0.27259000  0.33521000  0.48048000  1.0
  C  C209  1  0.72741000  0.66479000  0.98048000  1.0
  C  C210  1  0.72741000  0.83521000  0.48048000  1.0
  C  C211  1  0.27259000  0.16480000  0.98048000  1.0
  C  C212  1  0.27088000  0.41104000  0.36171000  1.0
  C  C213  1  0.72913000  0.58896000  0.86171000  1.0
  C  C214  1  0.72912000  0.91103000  0.36170000  1.0
  C  C215  1  0.27087000  0.08897000  0.86171000  1.0
  C  C216  1  0.26707000  0.48535000  0.40246000  1.0
  C  C217  1  0.73294000  0.51465000  0.90246000  1.0
  C  C218  1  0.73293000  0.98534000  0.40246000  1.0
  C  C219  1  0.26707000  0.01466000  0.90246000  1.0
  C  C220  1  0.98660000  0.84581000  0.60625000  1.0
  C  C221  1  0.01340000  0.15420000  0.10625000  1.0
  C  C222  1  0.01340000  0.34580000  0.60624000  1.0
  C  C223  1  0.98660000  0.65420000  0.10624000  1.0
  C  C224  1  0.48666000  0.84384000  0.27692000  1.0
  C  C225  1  0.51335000  0.15615000  0.77692000  1.0
  C  C226  1  0.51335000  0.34384000  0.27692000  1.0
  C  C227  1  0.48665000  0.65615000  0.77692000  1.0
  S  S228  1  0.20888000  0.84511000  0.62211000  1.0
  S  S229  1  0.79113000  0.15489000  0.12212000  1.0
  S  S230  1  0.79113000  0.34510000  0.62212000  1.0
  S  S231  1  0.20887000  0.65490000  0.12212000  1.0
  S  S232  1  0.45994000  0.81362000  0.60885000  1.0
  S  S233  1  0.54006000  0.18638000  0.10885000  1.0
  S  S234  1  0.54006000  0.31362000  0.60885000  1.0
  S  S235  1  0.45994000  0.68638000  0.10885000  1.0
  S  S236  1  0.01397000  0.80979000  0.27181000  1.0
  S  S237  1  0.98603000  0.19022000  0.77181000  1.0
  S  S238  1  0.98604000  0.30978000  0.27181000  1.0
  S  S239  1  0.01396000  0.69022000  0.77181000  1.0
  S  S240  1  0.26535000  0.84134000  0.25949000  1.0
  S  S241  1  0.73465000  0.15865000  0.75949000  1.0
  S  S242  1  0.73465000  0.34135000  0.25949000  1.0
  S  S243  1  0.26535000  0.65866000  0.75949000  1.0
  N  N244  1  0.26824000  0.73592000  0.36519000  1.0
  N  N245  1  0.73176000  0.26407000  0.86519000  1.0
  N  N246  1  0.73177000  0.23592000  0.36519000  1.0
  N  N247  1  0.26824000  0.76408000  0.86519000  1.0
  N  N248  1  0.24163000  0.55775000  0.51704000  1.0
  N  N249  1  0.75837000  0.44224000  0.01705000  1.0
  N  N250  1  0.75837000  0.05775000  0.51704000  1.0
  N  N251  1  0.24163000  0.94225000  0.01704000  1.0
  N  N252  1  0.27047000  0.55994000  0.36875000  1.0
  N  N253  1  0.72954000  0.44005000  0.86875000  1.0
  N  N254  1  0.72953000  0.05994000  0.36875000  1.0
  N  N255  1  0.27047000  0.94007000  0.86875000  1.0
  N  N256  1  0.10193000  0.75686000  0.53100000  1.0
  N  N257  1  0.89807000  0.24315000  0.03101000  1.0
  N  N258  1  0.89807000  0.25685000  0.53100000  1.0
  N  N259  1  0.10193000  0.74315000  0.03100000  1.0
  N  N260  1  0.09567000  0.75633000  0.32120000  1.0
  N  N261  1  0.90433000  0.24367000  0.82119000  1.0
  N  N262  1  0.90433000  0.25633000  0.32120000  1.0
  N  N263  1  0.09567000  0.74367000  0.82120000  1.0
  N  N264  1  0.20445000  0.73481000  0.52057000  1.0
  N  N265  1  0.79555000  0.26520000  0.02057000  1.0
  N  N266  1  0.79554000  0.23480000  0.52057000  1.0
  N  N267  1  0.20445000  0.76520000  0.02057000  1.0
  N  N268  1  0.37109000  0.75740000  0.35482000  1.0
  N  N269  1  0.62891000  0.24260000  0.85482000  1.0
  N  N270  1  0.62891000  0.25740000  0.35482000  1.0
  N  N271  1  0.37108000  0.74260000  0.85481000  1.0
  N  N272  1  0.95518000  0.12833000  0.42689000  1.0
  N  N273  1  0.04481000  0.87167000  0.92688000  1.0
  N  N274  1  0.04481000  0.62833000  0.42689000  1.0
  N  N275  1  0.95518000  0.37167000  0.92689000  1.0
  N  N276  1  0.37830000  0.75926000  0.55991000  1.0
  N  N277  1  0.62171000  0.24074000  0.05992000  1.0
  N  N278  1  0.62170000  0.25926000  0.55992000  1.0
  N  N279  1  0.37829000  0.74075000  0.05992000  1.0
  N  N280  1  0.51003000  0.13600000  0.45763000  1.0
  N  N281  1  0.48996000  0.86400000  0.95763000  1.0
  N  N282  1  0.48997000  0.63599000  0.45763000  1.0
  N  N283  1  0.51004000  0.36401000  0.95763000  1.0
  O  O284  1  0.42071000  0.83094000  0.68492000  1.0
  O  O285  1  0.57929000  0.16906000  0.18493000  1.0
  O  O286  1  0.57930000  0.33094000  0.68493000  1.0
  O  O287  1  0.42070000  0.66907000  0.18492000  1.0
  O  O288  1  0.91361000  0.76701000  0.27612000  1.0
  O  O289  1  0.08639000  0.23299000  0.77613000  1.0
  O  O290  1  0.08640000  0.26701000  0.27614000  1.0
  O  O291  1  0.91360000  0.73299000  0.77614000  1.0
  O  O292  1  0.05440000  0.82801000  0.19631000  1.0
  O  O293  1  0.94561000  0.17201000  0.69631000  1.0
  O  O294  1  0.94562000  0.32800000  0.19631000  1.0
  O  O295  1  0.05438000  0.67200000  0.69631000  1.0
  O  O296  1  0.56040000  0.77078000  0.60438000  1.0
  O  O297  1  0.43960000  0.22922000  0.10438000  1.0
  O  O298  1  0.43960000  0.27078000  0.60439000  1.0
  O  O299  1  0.56040000  0.72923000  0.10438000  1.0
