# generated using pymatgen
data_AlH5C11SO8
_symmetry_space_group_name_H-M   'P 1'
_cell_length_a   6.61276000
_cell_length_b   11.05989588
_cell_length_c   12.52780000
_cell_angle_alpha   90.32796228
_cell_angle_beta   102.06530000
_cell_angle_gamma   106.75086422
_symmetry_Int_Tables_number   1
_chemical_formula_structural   AlH5C11SO8
_chemical_formula_sum   'Al2 H10 C22 S2 O16'
_cell_volume   855.84740969
_cell_formula_units_Z   2
loop_
 _symmetry_equiv_pos_site_id
 _symmetry_equiv_pos_as_xyz
  1  'x, y, z'
loop_
 _atom_site_type_symbol
 _atom_site_label
 _atom_site_symmetry_multiplicity
 _atom_site_fract_x
 _atom_site_fract_y
 _atom_site_fract_z
 _atom_site_occupancy
  Al  Al0  1  0.01158000  0.49228000  0.50615000  1.0
  Al  Al1  1  0.50961000  0.49423000  0.50496000  1.0
  H  H2  1  0.36471000  0.64707000  0.57367000  1.0
  H  H3  1  0.65657000  0.34044000  0.44052000  1.0
  H  H4  1  0.55527000  0.75396000  0.34564000  1.0
  H  H5  1  0.34239000  0.87001000  0.22603000  1.0
  H  H6  1  0.81697000  0.22524000  0.35191000  1.0
  H  H7  1  0.47599000  0.10626000  0.22793000  1.0
  H  H8  1  0.22954000  0.55612000  0.75887000  1.0
  H  H9  1  0.60003000  0.43452000  0.12246000  1.0
  H  H10  1  0.20466000  0.20734000  0.71297000  1.0
  H  H11  1  0.08646000  0.85584000  0.73345000  1.0
  C  C12  1  0.87162000  0.71699000  0.48950000  1.0
  C  C13  1  0.83139000  0.49900000  0.70362000  1.0
  C  C14  1  0.14545000  0.26677000  0.51330000  1.0
  C  C15  1  0.18426000  0.48594000  0.30943000  1.0
  C  C16  1  0.10614000  0.52664000  0.88169000  1.0
  C  C17  1  0.90586000  0.46412000  0.12955000  1.0
  C  C18  1  0.89175000  0.49697000  0.82120000  1.0
  C  C19  1  0.11765000  0.49059000  0.19166000  1.0
  C  C20  1  0.90375000  0.47953000  0.01670000  1.0
  C  C21  1  0.11167000  0.51715000  0.99504000  1.0
  C  C22  1  0.94169000  0.85861000  0.48952000  1.0
  C  C23  1  0.80943000  0.92280000  0.42207000  1.0
  C  C24  1  0.13483000  0.92551000  0.55987000  1.0
  C  C25  1  0.61253000  0.85686000  0.34850000  1.0
  C  C26  1  0.49361000  0.92218000  0.28165000  1.0
  C  C27  1  0.07337000  0.12465000  0.50420000  1.0
  C  C28  1  0.19726000  0.05996000  0.57041000  1.0
  C  C29  1  0.88111000  0.05866000  0.42659000  1.0
  C  C30  1  0.75852000  0.12265000  0.35352000  1.0
  C  C31  1  0.56823000  0.05567000  0.28322000  1.0
  C  C32  1  0.39275000  0.12926000  0.65682000  1.0
  C  C33  1  0.26957000  0.85547000  0.63223000  1.0
  S  S34  1  0.69998000  0.45729000  0.90132000  1.0
  S  S35  1  0.31238000  0.53721000  0.11224000  1.0
  O  O36  1  0.00508000  0.66051000  0.47237000  1.0
  O  O37  1  0.63365000  0.47927000  0.65678000  1.0
  O  O38  1  0.33031000  0.32048000  0.49388000  1.0
  O  O39  1  0.03265000  0.45433000  0.36184000  1.0
  O  O40  1  0.01674000  0.32181000  0.53922000  1.0
  O  O41  1  0.38688000  0.51127000  0.35234000  1.0
  O  O42  1  0.68819000  0.66532000  0.51098000  1.0
  O  O43  1  0.99192000  0.52448000  0.65439000  1.0
  O  O44  1  0.30969000  0.55582000  0.55339000  1.0
  O  O45  1  0.71252000  0.43049000  0.46124000  1.0
  O  O46  1  0.28305000  0.55897000  0.83986000  1.0
  O  O47  1  0.72963000  0.42604000  0.17300000  1.0
  O  O48  1  0.35674000  0.20876000  0.72955000  1.0
  O  O49  1  0.57068000  0.11463000  0.66657000  1.0
  O  O50  1  0.21223000  0.82760000  0.72966000  1.0
  O  O51  1  0.41652000  0.82286000  0.60923000  1.0
