# generated using pymatgen
data_HoH6(C2O3)3
_symmetry_space_group_name_H-M   'P 1'
_cell_length_a   6.52917000
_cell_length_b   10.20130000
_cell_length_c   13.37070000
_cell_angle_alpha   90.00000000
_cell_angle_beta   89.99930000
_cell_angle_gamma   90.00000000
_symmetry_Int_Tables_number   1
_chemical_formula_structural   HoH6(C2O3)3
_chemical_formula_sum   'Ho4 H24 C24 O36'
_cell_volume   890.56913723
_cell_formula_units_Z   4
loop_
 _symmetry_equiv_pos_site_id
 _symmetry_equiv_pos_as_xyz
  1  'x, y, z'
loop_
 _atom_site_type_symbol
 _atom_site_label
 _atom_site_symmetry_multiplicity
 _atom_site_fract_x
 _atom_site_fract_y
 _atom_site_fract_z
 _atom_site_occupancy
  Ho  Ho0  1  0.12917000  0.00000000  0.19945000  1.0
  Ho  Ho1  1  0.87083000  0.00000000  0.80055000  1.0
  Ho  Ho2  1  0.62918000  0.50000000  0.30055000  1.0
  Ho  Ho3  1  0.37082000  0.50000000  0.69945000  1.0
  H  H4  1  0.97517000  0.18816000  0.34899000  1.0
  H  H5  1  0.02483000  0.18816000  0.65101000  1.0
  H  H6  1  0.47517000  0.31184000  0.15102000  1.0
  H  H7  1  0.52482000  0.31184000  0.84898000  1.0
  H  H8  1  0.02483000  0.81184000  0.65101000  1.0
  H  H9  1  0.97517000  0.81184000  0.34899000  1.0
  H  H10  1  0.52482000  0.68816000  0.84899000  1.0
  H  H11  1  0.47517000  0.68816000  0.15101000  1.0
  H  H12  1  0.21175000  0.22464000  0.34571000  1.0
  H  H13  1  0.78825000  0.22464000  0.65429000  1.0
  H  H14  1  0.71175000  0.27535000  0.15429000  1.0
  H  H15  1  0.28825000  0.27536000  0.84571000  1.0
  H  H16  1  0.78826000  0.77536000  0.65429000  1.0
  H  H17  1  0.21175000  0.77536000  0.34571000  1.0
  H  H18  1  0.28825000  0.72464000  0.84571000  1.0
  H  H19  1  0.71175000  0.72464000  0.15429000  1.0
  H  H20  1  0.22671000  0.07588000  0.98588000  1.0
  H  H21  1  0.77329000  0.07588000  0.01412000  1.0
  H  H22  1  0.72671000  0.42412000  0.51412000  1.0
  H  H23  1  0.27329000  0.42412000  0.48588000  1.0
  H  H24  1  0.77329000  0.92411000  0.01412000  1.0
  H  H25  1  0.22671000  0.92411000  0.98588000  1.0
  H  H26  1  0.27329000  0.57588000  0.48588000  1.0
  H  H27  1  0.72671000  0.57589000  0.51412000  1.0
  C  C28  1  0.62143000  0.00000000  0.29049000  1.0
  C  C29  1  0.37857000  0.00000000  0.70951000  1.0
  C  C30  1  0.12144000  0.50000000  0.20951000  1.0
  C  C31  1  0.87856000  0.50000000  0.79049000  1.0
  C  C32  1  0.57320000  0.00000000  0.40110000  1.0
  C  C33  1  0.42680000  0.00000000  0.59891000  1.0
  C  C34  1  0.07321000  0.50000000  0.09890000  1.0
  C  C35  1  0.92678000  0.50000000  0.90110000  1.0
  C  C36  1  0.53743000  0.11857000  0.45083000  1.0
  C  C37  1  0.46257000  0.11857000  0.54917000  1.0
  C  C38  1  0.03744000  0.38143000  0.04917000  1.0
  C  C39  1  0.96255000  0.38143000  0.95083000  1.0
  C  C40  1  0.46257000  0.88143000  0.54917000  1.0
  C  C41  1  0.53743000  0.88143000  0.45082000  1.0
  C  C42  1  0.96256000  0.61857000  0.95083000  1.0
  C  C43  1  0.03744000  0.61857000  0.04917000  1.0
  C  C44  1  0.57376000  0.24597000  0.39823000  1.0
  C  C45  1  0.42624000  0.24597000  0.60177000  1.0
  C  C46  1  0.07376000  0.25403000  0.10177000  1.0
  C  C47  1  0.92624000  0.25403000  0.89823000  1.0
  C  C48  1  0.42624000  0.75403000  0.60177000  1.0
  C  C49  1  0.57376000  0.75403000  0.39823000  1.0
  C  C50  1  0.92624000  0.74597000  0.89823000  1.0
  C  C51  1  0.07376000  0.74597000  0.10177000  1.0
  O  O52  1  0.24975000  0.00000000  0.02965000  1.0
  O  O53  1  0.75025000  0.00000000  0.97035000  1.0
  O  O54  1  0.74975000  0.50000000  0.47035000  1.0
  O  O55  1  0.25024000  0.50000000  0.52965000  1.0
  O  O56  1  0.80433000  0.00000000  0.26254000  1.0
  O  O57  1  0.19567000  0.00000000  0.73746000  1.0
  O  O58  1  0.30435000  0.50000000  0.23745000  1.0
  O  O59  1  0.69565000  0.50000000  0.76255000  1.0
  O  O60  1  0.11272000  0.15442000  0.33025000  1.0
  O  O61  1  0.88727000  0.15442000  0.66974000  1.0
  O  O62  1  0.61273000  0.34558000  0.16975000  1.0
  O  O63  1  0.38727000  0.34558000  0.83025000  1.0
  O  O64  1  0.88728000  0.84558000  0.66974000  1.0
  O  O65  1  0.11273000  0.84558000  0.33025000  1.0
  O  O66  1  0.38727000  0.65442000  0.83025000  1.0
  O  O67  1  0.61273000  0.65443000  0.16975000  1.0
  O  O68  1  0.42395000  0.32704000  0.38889000  1.0
  O  O69  1  0.57605000  0.32704000  0.61111000  1.0
  O  O70  1  0.92396000  0.17296000  0.11111000  1.0
  O  O71  1  0.07604000  0.17296000  0.88889000  1.0
  O  O72  1  0.57605000  0.67296000  0.61111000  1.0
  O  O73  1  0.42396000  0.67296000  0.38889000  1.0
  O  O74  1  0.07604000  0.82704000  0.88889000  1.0
  O  O75  1  0.92396000  0.82704000  0.11112000  1.0
  O  O76  1  0.74867000  0.27348000  0.36350000  1.0
  O  O77  1  0.25133000  0.27349000  0.63650000  1.0
  O  O78  1  0.24867000  0.22652000  0.13651000  1.0
  O  O79  1  0.75133000  0.22652000  0.86349000  1.0
  O  O80  1  0.25133000  0.72651000  0.63650000  1.0
  O  O81  1  0.74868000  0.72652000  0.36349000  1.0
  O  O82  1  0.75133000  0.77348000  0.86349000  1.0
  O  O83  1  0.24867000  0.77348000  0.13651000  1.0
  O  O84  1  0.46730000  0.00000000  0.23254000  1.0
  O  O85  1  0.53270000  0.00000000  0.76746000  1.0
  O  O86  1  0.96732000  0.50000000  0.26747000  1.0
  O  O87  1  0.03269000  0.50000000  0.73254000  1.0
