# generated using pymatgen
data_CuH8(C5N2)2
_symmetry_space_group_name_H-M   'P 1'
_cell_length_a   4.76453000
_cell_length_b   7.55238000
_cell_length_c   13.98160000
_cell_angle_alpha   83.30890000
_cell_angle_beta   80.56680000
_cell_angle_gamma   74.94620000
_symmetry_Int_Tables_number   1
_chemical_formula_structural   CuH8(C5N2)2
_chemical_formula_sum   'Cu2 H16 C20 N8'
_cell_volume   477.82598926
_cell_formula_units_Z   2
loop_
 _symmetry_equiv_pos_site_id
 _symmetry_equiv_pos_as_xyz
  1  'x, y, z'
loop_
 _atom_site_type_symbol
 _atom_site_label
 _atom_site_symmetry_multiplicity
 _atom_site_fract_x
 _atom_site_fract_y
 _atom_site_fract_z
 _atom_site_occupancy
  Cu  Cu0  1  0.36657000  0.31442000  0.95659000  1.0
  Cu  Cu1  1  0.63342000  0.68557000  0.04341000  1.0
  H  H2  1  0.94050000  0.33144000  0.16592000  1.0
  H  H3  1  0.05947000  0.66857000  0.83409000  1.0
  H  H4  1  0.79781000  0.00532000  0.10089000  1.0
  H  H5  1  0.20215000  0.99468000  0.89910000  1.0
  H  H6  1  0.71471000  0.97492000  0.34976000  1.0
  H  H7  1  0.28530000  0.02509000  0.65024000  1.0
  H  H8  1  0.83426000  0.81250000  0.26053000  1.0
  H  H9  1  0.16574000  0.18750000  0.73946000  1.0
  H  H10  1  0.32922000  0.94410000  0.48274000  1.0
  H  H11  1  0.67079000  0.05590000  0.51726000  1.0
  H  H12  1  0.51994000  0.58729000  0.25001000  1.0
  H  H13  1  0.48007000  0.41271000  0.74998000  1.0
  H  H14  1  0.21470000  0.39572000  0.34552000  1.0
  H  H15  1  0.78532000  0.60429000  0.65448000  1.0
  H  H16  1  0.02617000  0.75514000  0.57960000  1.0
  H  H17  1  0.97385000  0.24486000  0.42040000  1.0
  C  C18  1  0.99914000  0.33488000  0.92507000  1.0
  C  C19  1  0.00086000  0.66511000  0.07493000  1.0
  C  C20  1  0.14625000  0.23030000  0.17279000  1.0
  C  C21  1  0.85373000  0.76970000  0.82722000  1.0
  C  C22  1  0.58137000  0.06819000  0.13698000  1.0
  C  C23  1  0.41860000  0.93181000  0.86302000  1.0
  C  C24  1  0.63930000  0.89606000  0.30222000  1.0
  C  C25  1  0.36070000  0.10394000  0.69778000  1.0
  C  C26  1  0.30671000  0.82216000  0.45289000  1.0
  C  C27  1  0.69330000  0.17784000  0.54711000  1.0
  C  C28  1  0.45078000  0.77819000  0.36022000  1.0
  C  C29  1  0.54923000  0.22180000  0.63978000  1.0
  C  C30  1  0.41332000  0.62298000  0.32290000  1.0
  C  C31  1  0.58669000  0.37702000  0.67710000  1.0
  C  C32  1  0.23781000  0.51536000  0.37721000  1.0
  C  C33  1  0.76220000  0.48464000  0.62279000  1.0
  C  C34  1  0.09283000  0.55781000  0.47105000  1.0
  C  C35  1  0.90718000  0.44219000  0.52894000  1.0
  C  C36  1  0.13172000  0.71457000  0.50754000  1.0
  C  C37  1  0.86830000  0.28543000  0.49247000  1.0
  N  N38  1  0.75603000  0.32998000  0.92081000  1.0
  N  N39  1  0.24398000  0.67000000  0.07919000  1.0
  N  N40  1  0.37177000  0.19710000  0.09798000  1.0
  N  N41  1  0.62819000  0.80291000  0.90202000  1.0
  N  N42  1  0.48321000  0.02703000  0.23069000  1.0
  N  N43  1  0.51678000  0.97298000  0.76931000  1.0
  N  N44  1  0.20500000  0.13011000  0.25502000  1.0
  N  N45  1  0.79500000  0.86990000  0.74499000  1.0
