# generated using pymatgen
data_TlH4C6NO3
_symmetry_space_group_name_H-M   'P 1'
_cell_length_a   3.90200000
_cell_length_b   13.76110000
_cell_length_c   15.33570000
_cell_angle_alpha   116.58500000
_cell_angle_beta   90.15620000
_cell_angle_gamma   97.88280000
_symmetry_Int_Tables_number   1
_chemical_formula_structural   TlH4C6NO3
_chemical_formula_sum   'Tl4 H16 C24 N4 O12'
_cell_volume   727.52837301
_cell_formula_units_Z   4
loop_
 _symmetry_equiv_pos_site_id
 _symmetry_equiv_pos_as_xyz
  1  'x, y, z'
loop_
 _atom_site_type_symbol
 _atom_site_label
 _atom_site_symmetry_multiplicity
 _atom_site_fract_x
 _atom_site_fract_y
 _atom_site_fract_z
 _atom_site_occupancy
  Tl  Tl0  1  0.63671000  0.95681000  0.36062000  1.0
  Tl  Tl1  1  0.68079000  0.04287000  0.13931000  1.0
  Tl  Tl2  1  0.36328000  0.04319000  0.63937000  1.0
  Tl  Tl3  1  0.31921000  0.95714000  0.86070000  1.0
  H  H4  1  0.28579000  0.42544000  0.45927000  1.0
  H  H5  1  0.85898000  0.57514000  0.04148000  1.0
  H  H6  1  0.71422000  0.57456000  0.54074000  1.0
  H  H7  1  0.14101000  0.42485000  0.95852000  1.0
  H  H8  1  0.13028000  0.53239000  0.63032000  1.0
  H  H9  1  0.59676000  0.46825000  0.87038000  1.0
  H  H10  1  0.86971000  0.46761000  0.36968000  1.0
  H  H11  1  0.40325000  0.53175000  0.12961000  1.0
  H  H12  1  0.98265000  0.43330000  0.73231000  1.0
  H  H13  1  0.55109000  0.56693000  0.76767000  1.0
  H  H14  1  0.01734000  0.56669000  0.26769000  1.0
  H  H15  1  0.44891000  0.43307000  0.23233000  1.0
  H  H16  1  0.00499000  0.23695000  0.66677000  1.0
  H  H17  1  0.77391000  0.76256000  0.83236000  1.0
  H  H18  1  0.99501000  0.76305000  0.33323000  1.0
  H  H19  1  0.22608000  0.23744000  0.16764000  1.0
  C  C20  1  0.16175000  0.21239000  0.52394000  1.0
  C  C21  1  0.95241000  0.78744000  0.97570000  1.0
  C  C22  1  0.83825000  0.78761000  0.47606000  1.0
  C  C23  1  0.04760000  0.21256000  0.02430000  1.0
  C  C24  1  0.23190000  0.27189000  0.46657000  1.0
  C  C25  1  0.96122000  0.72823000  0.03351000  1.0
  C  C26  1  0.76810000  0.72811000  0.53343000  1.0
  C  C27  1  0.03878000  0.27176000  0.96648000  1.0
  C  C28  1  0.22786000  0.38619000  0.50648000  1.0
  C  C29  1  0.84148000  0.61420000  0.99398000  1.0
  C  C30  1  0.77215000  0.61381000  0.49352000  1.0
  C  C31  1  0.15851000  0.38580000  0.00602000  1.0
  C  C32  1  0.13932000  0.44468000  0.60082000  1.0
  C  C33  1  0.69454000  0.55574000  0.89962000  1.0
  C  C34  1  0.86068000  0.55532000  0.39918000  1.0
  C  C35  1  0.30547000  0.44426000  0.10037000  1.0
  C  C36  1  0.05705000  0.38870000  0.65781000  1.0
  C  C37  1  0.67018000  0.61145000  0.84218000  1.0
  C  C38  1  0.94295000  0.61130000  0.34219000  1.0
  C  C39  1  0.32983000  0.38855000  0.15782000  1.0
  C  C40  1  0.06934000  0.27795000  0.62099000  1.0
  C  C41  1  0.79547000  0.72185000  0.87855000  1.0
  C  C42  1  0.93066000  0.72205000  0.37901000  1.0
  C  C43  1  0.20453000  0.27815000  0.12145000  1.0
  N  N44  1  0.31232000  0.21818000  0.36772000  1.0
  N  N45  1  0.09568000  0.78186000  0.13234000  1.0
  N  N46  1  0.68768000  0.78182000  0.63229000  1.0
  N  N47  1  0.90432000  0.21814000  0.86766000  1.0
  O  O48  1  0.18621000  0.10969000  0.49463000  1.0
  O  O49  1  0.08027000  0.88985000  0.00479000  1.0
  O  O50  1  0.81379000  0.89031000  0.50537000  1.0
  O  O51  1  0.91974000  0.11015000  0.99521000  1.0
  O  O52  1  0.21369000  0.11522000  0.31846000  1.0
  O  O53  1  0.10096000  0.88501000  0.18138000  1.0
  O  O54  1  0.78632000  0.88479000  0.68154000  1.0
  O  O55  1  0.89904000  0.11499000  0.81862000  1.0
  O  O56  1  0.47482000  0.27224000  0.32892000  1.0
  O  O57  1  0.20363000  0.72757000  0.17136000  1.0
  O  O58  1  0.52517000  0.72776000  0.67109000  1.0
  O  O59  1  0.79639000  0.27243000  0.82864000  1.0
