# generated using pymatgen
data_Al3H18C39O16
_symmetry_space_group_name_H-M   'P 1'
_cell_length_a   12.29180000
_cell_length_b   12.46630000
_cell_length_c   26.93280000
_cell_angle_alpha   82.33980000
_cell_angle_beta   82.17680000
_cell_angle_gamma   64.31660000
_symmetry_Int_Tables_number   1
_chemical_formula_structural   Al3H18C39O16
_chemical_formula_sum   'Al6 H36 C78 O32'
_cell_volume   3671.86511566
_cell_formula_units_Z   2
loop_
 _symmetry_equiv_pos_site_id
 _symmetry_equiv_pos_as_xyz
  1  'x, y, z'
loop_
 _atom_site_type_symbol
 _atom_site_label
 _atom_site_symmetry_multiplicity
 _atom_site_fract_x
 _atom_site_fract_y
 _atom_site_fract_z
 _atom_site_occupancy
  Al  Al0  1  0.60343000  0.59446000  0.48885000  1.0
  Al  Al1  1  0.59143000  0.33957000  0.50001000  1.0
  Al  Al2  1  0.35667000  0.56092000  0.50303000  1.0
  Al  Al3  1  0.08232000  0.06320000  0.02042000  1.0
  Al  Al4  1  0.33830000  0.07854000  0.00353000  1.0
  Al  Al5  1  0.11283000  0.30942000  0.00230000  1.0
  H  H6  1  0.10489000  0.95129000  0.78113000  1.0
  H  H7  1  0.66632000  0.35559000  0.74205000  1.0
  H  H8  1  0.74993000  0.15053000  0.83305000  1.0
  H  H9  1  0.17992000  0.25358000  0.71476000  1.0
  H  H10  1  0.02996000  0.47623000  0.27016000  1.0
  H  H11  1  0.58738000  0.42162000  0.19589000  1.0
  H  H12  1  0.44601000  0.54816000  0.19184000  1.0
  H  H13  1  0.56269000  0.55465000  0.22168000  1.0
  H  H14  1  0.41016000  0.53073000  0.28763000  1.0
  H  H15  1  0.54708000  0.40094000  0.29050000  1.0
  H  H16  1  0.68804000  0.22218000  0.25842000  1.0
  H  H17  1  0.00563000  0.10855000  0.71179000  1.0
  H  H18  1  0.67584000  0.08475000  0.27325000  1.0
  H  H19  1  0.77008000  0.10278000  0.21986000  1.0
  H  H20  1  0.57713000  0.11699000  0.19241000  1.0
  H  H21  1  0.59123000  0.25146000  0.17672000  1.0
  H  H22  1  0.41155000  0.98812000  0.25804000  1.0
  H  H23  1  0.56171000  0.97611000  0.25225000  1.0
  H  H24  1  0.51285000  0.89746000  0.30337000  1.0
  H  H25  1  0.51726000  0.08208000  0.33119000  1.0
  H  H26  1  0.37202000  0.08489000  0.34078000  1.0
  H  H27  1  0.28511000  0.68038000  0.87712000  1.0
  H  H28  1  0.24414000  0.51856000  0.21376000  1.0
  H  H29  1  0.25449000  0.59960000  0.83546000  1.0
  H  H30  1  0.36958000  0.52348000  0.87715000  1.0
  H  H31  1  0.46228000  0.54814000  0.78940000  1.0
  H  H32  1  0.49488000  0.62482000  0.83186000  1.0
  H  H33  1  0.69574000  0.59989000  0.75467000  1.0
  H  H34  1  0.21853000  0.20963000  0.24967000  1.0
  H  H35  1  0.23102000  0.02750000  0.69668000  1.0
  H  H36  1  0.20669000  0.72161000  0.74650000  1.0
  H  H37  1  0.53103000  0.73139000  0.72002000  1.0
  H  H38  1  0.42838000  0.96355000  0.75497000  1.0
  H  H39  1  0.93470000  0.45586000  0.69726000  1.0
  H  H40  1  0.73674000  0.67615000  0.45108000  1.0
  H  H41  1  0.97385000  0.96394000  0.06770000  1.0
  C  C42  1  0.73527000  0.37845000  0.55906000  1.0
  C  C43  1  0.31039000  0.86821000  0.79948000  1.0
  C  C44  1  0.43657000  0.78078000  0.73435000  1.0
  C  C45  1  0.41147000  0.37365000  0.58311000  1.0
  C  C46  1  0.32604000  0.81622000  0.70191000  1.0
  C  C47  1  0.36793000  0.73702000  0.77995000  1.0
  C  C48  1  0.25623000  0.77528000  0.74873000  1.0
  C  C49  1  0.30554000  0.89130000  0.84979000  1.0
  C  C50  1  0.33711000  0.78949000  0.65163000  1.0
  C  C51  1  0.91114000  0.38719000  0.71908000  1.0
  C  C52  1  0.81469000  0.40903000  0.76570000  1.0
  C  C53  1  0.37538000  0.32906000  0.73289000  1.0
  C  C54  1  0.93994000  0.28105000  0.89130000  1.0
  C  C55  1  0.79466000  0.34113000  0.60495000  1.0
  C  C56  1  0.00041000  0.27366000  0.74937000  1.0
  C  C57  1  0.38625000  0.70974000  0.56147000  1.0
  C  C58  1  0.90288000  0.29452000  0.79634000  1.0
  C  C59  1  0.94968000  0.19481000  0.72681000  1.0
  C  C60  1  0.85973000  0.30950000  0.69679000  1.0
  C  C61  1  0.85312000  0.21470000  0.77241000  1.0
  C  C62  1  0.76263000  0.33112000  0.74390000  1.0
  C  C63  1  0.92371000  0.28703000  0.84727000  1.0
  C  C64  1  0.38309000  0.33875000  0.68249000  1.0
  C  C65  1  0.82891000  0.32194000  0.64693000  1.0
  C  C66  1  0.22417000  0.37856000  0.27881000  1.0
  C  C67  1  0.28691000  0.42932000  0.23308000  1.0
  C  C68  1  0.32292000  0.28576000  0.11271000  1.0
  C  C69  1  0.72682000  0.39437000  0.41838000  1.0
  C  C70  1  0.36801000  0.34402000  0.40116000  1.0
  C  C71  1  0.27344000  0.25726000  0.25321000  1.0
  C  C72  1  0.33539000  0.30937000  0.20719000  1.0
  C  C73  1  0.39109000  0.20694000  0.28148000  1.0
  C  C74  1  0.34171000  0.32823000  0.30750000  1.0
  C  C75  1  0.39112000  0.34821000  0.63633000  1.0
  C  C76  1  0.45517000  0.25834000  0.23579000  1.0
  C  C77  1  0.40514000  0.38067000  0.26088000  1.0
  C  C78  1  0.32938000  0.29743000  0.15636000  1.0
  C  C79  1  0.35160000  0.33769000  0.35813000  1.0
  C  C80  1  0.32856000  0.87482000  0.13298000  1.0
  C  C81  1  0.39554000  0.36970000  0.44658000  1.0
  C  C82  1  0.34026000  0.84055000  0.17763000  1.0
  C  C83  1  0.35008000  0.80815000  0.22685000  1.0
  C  C84  1  0.35676000  0.78427000  0.27261000  1.0
  C  C85  1  0.36650000  0.76004000  0.32219000  1.0
  C  C86  1  0.26907000  0.94563000  0.72152000  1.0
  C  C87  1  0.37670000  0.73845000  0.36755000  1.0
  C  C88  1  0.90778000  0.31568000  0.13253000  1.0
  C  C89  1  0.87934000  0.33309000  0.17721000  1.0
  C  C90  1  0.85146000  0.34897000  0.22634000  1.0
  C  C91  1  0.82887000  0.35919000  0.27200000  1.0
  C  C92  1  0.80180000  0.36865000  0.32158000  1.0
  C  C93  1  0.40098000  0.69668000  0.41906000  1.0
  C  C94  1  0.77540000  0.37627000  0.36696000  1.0
  C  C95  1  0.28617000  0.94918000  0.94246000  1.0
  C  C96  1  0.30997000  0.27084000  0.92772000  1.0
  C  C97  1  0.19973000  0.90333000  0.76720000  1.0
  C  C98  1  0.97774000  0.26219000  0.94109000  1.0
  C  C99  1  0.29524000  0.93549000  0.08432000  1.0
  C  C100  1  0.29993000  0.26154000  0.06576000  1.0
  C  C101  1  0.96245000  0.27983000  0.08320000  1.0
  C  C102  1  0.34211000  0.29742000  0.87576000  1.0
  C  C103  1  0.35559000  0.30880000  0.82968000  1.0
  C  C104  1  0.36753000  0.32034000  0.77931000  1.0
  C  C105  1  0.82488000  0.11988000  0.80244000  1.0
  C  C106  1  0.13169000  0.23694000  0.75131000  1.0
  C  C107  1  0.09676000  0.43977000  0.29944000  1.0
  C  C108  1  0.30363000  0.90932000  0.89339000  1.0
  C  C109  1  0.47215000  0.45351000  0.26670000  1.0
  C  C110  1  0.51973000  0.49666000  0.21621000  1.0
  C  C111  1  0.57801000  0.19273000  0.20906000  1.0
  C  C112  1  0.68354000  0.14826000  0.24209000  1.0
  C  C113  1  0.44236000  0.08772000  0.31110000  1.0
  C  C114  1  0.48457000  0.98163000  0.27936000  1.0
  C  C115  1  0.42073000  0.62396000  0.81335000  1.0
  C  C116  1  0.32701000  0.60597000  0.85293000  1.0
  C  C117  1  0.73785000  0.52734000  0.78479000  1.0
  C  C118  1  0.35215000  0.76256000  0.60849000  1.0
  C  C119  1  0.38001000  0.90896000  0.75261000  1.0
  O  O120  1  0.49080000  0.69016000  0.54049000  1.0
  O  O121  1  0.20906000  0.34556000  0.94711000  1.0
  O  O122  1  0.00400000  0.34311000  0.95457000  1.0
  O  O123  1  0.70005000  0.48707000  0.54346000  1.0
  O  O124  1  0.98479000  0.17520000  0.07440000  1.0
  O  O125  1  0.18649000  0.96777000  0.07590000  1.0
  O  O126  1  0.37738000  0.95545000  0.05481000  1.0
  O  O127  1  0.37334000  0.16223000  0.04811000  1.0
  O  O128  1  0.20427000  0.33817000  0.04586000  1.0
  O  O129  1  0.98831000  0.35709000  0.05330000  1.0
  O  O130  1  0.17847000  0.15191000  0.00890000  1.0
  O  O131  1  0.49701000  0.29842000  0.46399000  1.0
  O  O132  1  0.71905000  0.29838000  0.53906000  1.0
  O  O133  1  0.51067000  0.30210000  0.56130000  1.0
  O  O134  1  0.33160000  0.46885000  0.56314000  1.0
  O  O135  1  0.30846000  0.68170000  0.54500000  1.0
  O  O136  1  0.50020000  0.68565000  0.43221000  1.0
  O  O137  1  0.71257000  0.48956000  0.43537000  1.0
  O  O138  1  0.69753000  0.31222000  0.44173000  1.0
  O  O139  1  0.88113000  0.01411000  0.79528000  1.0
  O  O140  1  0.18611000  0.19006000  0.78871000  1.0
  O  O141  1  0.06315000  0.44994000  0.34408000  1.0
  O  O142  1  0.31982000  0.46604000  0.46604000  1.0
  O  O143  1  0.71843000  0.54701000  0.82903000  1.0
  O  O144  1  0.32012000  0.67013000  0.44633000  1.0
  O  O145  1  0.51672000  0.49700000  0.49687000  1.0
  O  O146  1  0.98650000  0.16678000  0.96670000  1.0
  O  O147  1  0.18890000  0.96165000  0.96906000  1.0
  O  O148  1  0.37024000  0.97353000  0.95538000  1.0
  O  O149  1  0.38127000  0.17217000  0.94905000  1.0
  O  O150  1  0.68275000  0.68323000  0.48137000  1.0
  O  O151  1  0.99214000  0.98471000  0.03271000  1.0
