# generated using pymatgen
data_Zr3H20C42(O8F3)2
_symmetry_space_group_name_H-M   'P 1'
_cell_length_a   19.17720000
_cell_length_b   19.17722101
_cell_length_c   19.17720000
_cell_angle_alpha   59.99993625
_cell_angle_beta   60.00000000
_cell_angle_gamma   60.00030874
_symmetry_Int_Tables_number   1
_chemical_formula_structural   Zr3H20C42(O8F3)2
_chemical_formula_sum   'Zr6 H40 C84 O32 F12'
_cell_volume   4987.02878314
_cell_formula_units_Z   2
loop_
 _symmetry_equiv_pos_site_id
 _symmetry_equiv_pos_as_xyz
  1  'x, y, z'
loop_
 _atom_site_type_symbol
 _atom_site_label
 _atom_site_symmetry_multiplicity
 _atom_site_fract_x
 _atom_site_fract_y
 _atom_site_fract_z
 _atom_site_occupancy
  Zr  Zr0  1  0.90777000  0.40777000  0.09224000  1.0
  Zr  Zr1  1  0.09221000  0.59220000  0.90779000  1.0
  Zr  Zr2  1  0.09219000  0.40780000  0.90780000  1.0
  Zr  Zr3  1  0.90781000  0.59219000  0.09219000  1.0
  Zr  Zr4  1  0.09224000  0.40776000  0.09226000  1.0
  Zr  Zr5  1  0.90775000  0.59223000  0.90778000  1.0
  H  H6  1  0.07250000  0.28249000  0.07251000  1.0
  H  H7  1  0.07251000  0.57250000  0.07250000  1.0
  H  H8  1  0.07250000  0.57251000  0.78249000  1.0
  H  H9  1  0.78250000  0.57250000  0.07250000  1.0
  H  H10  1  0.11403000  0.95042000  0.54910000  1.0
  H  H11  1  0.88645000  0.04910000  0.45042000  1.0
  H  H12  1  0.10727000  0.18167000  0.32060000  1.0
  H  H13  1  0.11265000  0.05213000  0.44737000  1.0
  H  H14  1  0.89045000  0.82060000  0.68167000  1.0
  H  H15  1  0.88786000  0.94736000  0.55213000  1.0
  H  H16  1  0.45042000  0.61403000  0.88645000  1.0
  H  H17  1  0.54910000  0.38645000  0.11403000  1.0
  H  H18  1  0.68166000  0.60728000  0.89046000  1.0
  H  H19  1  0.55213000  0.61265000  0.88785000  1.0
  H  H20  1  0.32059000  0.39046000  0.10728000  1.0
  H  H21  1  0.44736000  0.38786000  0.11265000  1.0
  H  H22  1  0.88645000  0.61403000  0.54910000  1.0
  H  H23  1  0.11403000  0.38645000  0.45042000  1.0
  H  H24  1  0.89046000  0.60728000  0.32060000  1.0
  H  H25  1  0.88785000  0.61265000  0.44737000  1.0
  H  H26  1  0.10727000  0.39046000  0.68167000  1.0
  H  H27  1  0.11264000  0.38786000  0.55213000  1.0
  H  H28  1  0.45042000  0.04910000  0.11403000  1.0
  H  H29  1  0.54910000  0.95042000  0.88645000  1.0
  H  H30  1  0.68166000  0.82060000  0.10728000  1.0
  H  H31  1  0.55212000  0.94737000  0.11265000  1.0
  H  H32  1  0.32059000  0.18167000  0.89047000  1.0
  H  H33  1  0.44735000  0.05214000  0.88786000  1.0
  H  H34  1  0.88645000  0.95042000  0.11403000  1.0
  H  H35  1  0.11402000  0.04910000  0.88645000  1.0
  H  H36  1  0.89045000  0.18167000  0.10728000  1.0
  H  H37  1  0.88785000  0.05213000  0.11265000  1.0
  H  H38  1  0.10727000  0.82060000  0.89046000  1.0
  H  H39  1  0.11265000  0.94737000  0.88785000  1.0
  H  H40  1  0.45042000  0.38645000  0.54910000  1.0
  H  H41  1  0.54910000  0.61403000  0.45042000  1.0
  H  H42  1  0.68166000  0.39046000  0.32060000  1.0
  H  H43  1  0.55213000  0.38785000  0.44737000  1.0
  H  H44  1  0.32059000  0.60728000  0.68167000  1.0
  H  H45  1  0.44737000  0.61265000  0.55213000  1.0
  C  C46  1  0.99649000  0.26764000  0.23634000  1.0
  C  C47  1  0.23634000  0.49953000  0.99649000  1.0
  C  C48  1  0.99953000  0.73634000  0.76764000  1.0
  C  C49  1  0.76764000  0.49648000  0.99954000  1.0
  C  C50  1  0.99953000  0.26764000  0.99649000  1.0
  C  C51  1  0.76764000  0.49953000  0.23634000  1.0
  C  C52  1  0.99648000  0.73634000  0.99954000  1.0
  C  C53  1  0.23634000  0.49648000  0.76764000  1.0
  C  C54  1  0.23633000  0.26764000  0.99956000  1.0
  C  C55  1  0.99647000  0.49955000  0.76764000  1.0
  C  C56  1  0.76764000  0.73634000  0.99647000  1.0
  C  C57  1  0.99955000  0.49647000  0.23634000  1.0
  C  C58  1  0.00150000  0.81353000  0.68922000  1.0
  C  C59  1  0.99575000  0.18922000  0.31353000  1.0
  C  C60  1  0.06347000  0.85290000  0.64862000  1.0
  C  C61  1  0.06340000  0.92453000  0.57562000  1.0
  C  C62  1  0.93502000  0.14862000  0.35290000  1.0
  C  C63  1  0.93644000  0.07562000  0.42453000  1.0
  C  C64  1  0.05932000  0.15129000  0.35047000  1.0
  C  C65  1  0.06171000  0.07821000  0.42200000  1.0
  C  C66  1  0.93892000  0.85047000  0.65130000  1.0
  C  C67  1  0.93807000  0.92200000  0.57822000  1.0
  C  C68  1  0.00040000  0.96125000  0.53851000  1.0
  C  C69  1  0.99984000  0.03851000  0.46125000  1.0
  C  C70  1  0.31353000  0.50150000  0.99575000  1.0
  C  C71  1  0.68922000  0.49575000  0.00150000  1.0
  C  C72  1  0.35290000  0.56346000  0.93502000  1.0
  C  C73  1  0.42452000  0.56341000  0.93645000  1.0
  C  C74  1  0.64863000  0.43501000  0.06346000  1.0
  C  C75  1  0.57561000  0.43645000  0.06341000  1.0
  C  C76  1  0.65130000  0.55931000  0.93892000  1.0
  C  C77  1  0.57821000  0.56171000  0.93808000  1.0
  C  C78  1  0.35046000  0.43892000  0.05932000  1.0
  C  C79  1  0.42199000  0.43808000  0.06171000  1.0
  C  C80  1  0.46125000  0.50040000  0.99984000  1.0
  C  C81  1  0.53851000  0.49984000  0.00040000  1.0
  C  C82  1  0.99574000  0.50150000  0.68922000  1.0
  C  C83  1  0.00150000  0.49575000  0.31353000  1.0
  C  C84  1  0.93501000  0.56347000  0.64862000  1.0
  C  C85  1  0.93644000  0.56341000  0.57562000  1.0
  C  C86  1  0.06347000  0.43501000  0.35290000  1.0
  C  C87  1  0.06341000  0.43644000  0.42453000  1.0
  C  C88  1  0.93892000  0.55931000  0.35047000  1.0
  C  C89  1  0.93807000  0.56171000  0.42200000  1.0
  C  C90  1  0.05931000  0.43892000  0.65130000  1.0
  C  C91  1  0.06170000  0.43808000  0.57822000  1.0
  C  C92  1  0.99983000  0.50040000  0.53851000  1.0
  C  C93  1  0.00041000  0.49983000  0.46125000  1.0
  C  C94  1  0.31353000  0.18922000  0.00150000  1.0
  C  C95  1  0.68922000  0.81353000  0.99575000  1.0
  C  C96  1  0.35290000  0.14862000  0.06347000  1.0
  C  C97  1  0.42453000  0.07562000  0.06341000  1.0
  C  C98  1  0.64862000  0.85290000  0.93501000  1.0
  C  C99  1  0.57562000  0.92453000  0.93644000  1.0
  C  C100  1  0.65129000  0.85047000  0.05931000  1.0
  C  C101  1  0.57821000  0.92200000  0.06171000  1.0
  C  C102  1  0.35046000  0.15130000  0.93893000  1.0
  C  C103  1  0.42200000  0.07822000  0.93808000  1.0
  C  C104  1  0.46125000  0.03851000  0.00040000  1.0
  C  C105  1  0.53851000  0.96125000  0.99984000  1.0
  C  C106  1  0.99575000  0.81353000  0.00150000  1.0
  C  C107  1  0.00150000  0.18922000  0.99575000  1.0
  C  C108  1  0.93501000  0.85290000  0.06347000  1.0
  C  C109  1  0.93644000  0.92453000  0.06341000  1.0
  C  C110  1  0.06346000  0.14862000  0.93501000  1.0
  C  C111  1  0.06340000  0.07562000  0.93645000  1.0
  C  C112  1  0.93892000  0.15130000  0.05931000  1.0
  C  C113  1  0.93807000  0.07822000  0.06171000  1.0
  C  C114  1  0.05931000  0.85047000  0.93892000  1.0
  C  C115  1  0.06170000  0.92200000  0.93808000  1.0
  C  C116  1  0.99984000  0.96125000  0.00040000  1.0
  C  C117  1  0.00040000  0.03851000  0.99984000  1.0
  C  C118  1  0.31353000  0.49575000  0.68922000  1.0
  C  C119  1  0.68922000  0.50149000  0.31354000  1.0
  C  C120  1  0.35289000  0.43502000  0.64862000  1.0
  C  C121  1  0.42452000  0.43645000  0.57562000  1.0
  C  C122  1  0.64863000  0.56346000  0.35290000  1.0
  C  C123  1  0.57563000  0.56340000  0.42453000  1.0
  C  C124  1  0.65130000  0.43892000  0.35047000  1.0
  C  C125  1  0.57822000  0.43808000  0.42200000  1.0
  C  C126  1  0.35047000  0.55931000  0.65130000  1.0
  C  C127  1  0.42199000  0.56171000  0.57822000  1.0
  C  C128  1  0.46125000  0.49984000  0.53851000  1.0
  C  C129  1  0.53851000  0.50040000  0.46125000  1.0
  O  O130  1  0.93765000  0.29967000  0.20494000  1.0
  O  O131  1  0.20494000  0.55774000  0.93765000  1.0
  O  O132  1  0.05774000  0.70493000  0.79967000  1.0
  O  O133  1  0.79967000  0.43765000  0.05775000  1.0
  O  O134  1  0.05774000  0.29967000  0.93765000  1.0
  O  O135  1  0.79967000  0.55774000  0.20494000  1.0
  O  O136  1  0.93765000  0.70493000  0.05775000  1.0
  O  O137  1  0.20493000  0.43765000  0.79967000  1.0
  O  O138  1  0.20494000  0.29966000  0.05777000  1.0
  O  O139  1  0.93763000  0.55776000  0.79966000  1.0
  O  O140  1  0.79965000  0.70495000  0.93763000  1.0
  O  O141  1  0.05777000  0.43763000  0.20495000  1.0
  O  O142  1  0.05681000  0.44023000  0.79637000  1.0
  O  O143  1  0.79636000  0.70659000  0.05681000  1.0
  O  O144  1  0.94023000  0.55681000  0.20659000  1.0
  O  O145  1  0.20658000  0.29637000  0.94024000  1.0
  O  O146  1  0.94022000  0.29635000  0.05683000  1.0
  O  O147  1  0.20660000  0.55683000  0.79635000  1.0
  O  O148  1  0.05682000  0.70660000  0.94022000  1.0
  O  O149  1  0.79635000  0.44021000  0.20661000  1.0
  O  O150  1  0.79635000  0.55683000  0.94022000  1.0
  O  O151  1  0.05683000  0.29635000  0.20661000  1.0
  O  O152  1  0.20660000  0.44021000  0.05684000  1.0
  O  O153  1  0.94021000  0.70660000  0.79636000  1.0
  O  O154  1  0.84437000  0.55187000  0.05186000  1.0
  O  O155  1  0.05185000  0.55189000  0.84438000  1.0
  O  O156  1  0.05190000  0.55185000  0.05188000  1.0
  O  O157  1  0.05188000  0.34437000  0.05190000  1.0
  O  O158  1  0.11469000  0.46176000  0.96180000  1.0
  O  O159  1  0.96179000  0.46174000  0.11470000  1.0
  O  O160  1  0.96176000  0.61470000  0.96175000  1.0
  O  O161  1  0.96175000  0.46178000  0.96178000  1.0
  F  F162  1  0.12734000  0.82244000  0.67908000  1.0
  F  F163  1  0.87114000  0.17908000  0.32243000  1.0
  F  F164  1  0.32243000  0.62735000  0.87114000  1.0
  F  F165  1  0.67907000  0.37114000  0.12735000  1.0
  F  F166  1  0.87113000  0.62736000  0.67908000  1.0
  F  F167  1  0.12736000  0.37113000  0.32243000  1.0
  F  F168  1  0.32242000  0.17908000  0.12736000  1.0
  F  F169  1  0.67908000  0.82244000  0.87113000  1.0
  F  F170  1  0.87114000  0.82243000  0.12736000  1.0
  F  F171  1  0.12735000  0.17907000  0.87114000  1.0
  F  F172  1  0.32243000  0.37114000  0.67907000  1.0
  F  F173  1  0.67908000  0.62735000  0.32244000  1.0
