# generated using pymatgen
data_FeH4Pt(C4N3)2
_symmetry_space_group_name_H-M   'P 1'
_cell_length_a   6.71203000
_cell_length_b   7.05023000
_cell_length_c   7.18591000
_cell_angle_alpha   90.00030000
_cell_angle_beta   89.99990000
_cell_angle_gamma   90.00000000
_symmetry_Int_Tables_number   1
_chemical_formula_structural   FeH4Pt(C4N3)2
_chemical_formula_sum   'Fe1 H4 Pt1 C8 N6'
_cell_volume   340.04700002
_cell_formula_units_Z   1
loop_
 _symmetry_equiv_pos_site_id
 _symmetry_equiv_pos_as_xyz
  1  'x, y, z'
loop_
 _atom_site_type_symbol
 _atom_site_label
 _atom_site_symmetry_multiplicity
 _atom_site_fract_x
 _atom_site_fract_y
 _atom_site_fract_z
 _atom_site_occupancy
  Fe  Fe0  1  0.50000000  0.99999000  0.00001000  1.0
  H  H1  1  0.18670000  0.00000000  0.28919000  1.0
  H  H2  1  0.81330000  0.00000000  0.71080000  1.0
  H  H3  1  0.81330000  0.00000000  0.28919000  1.0
  H  H4  1  0.18671000  0.00000000  0.71080000  1.0
  Pt  Pt5  1  0.50000000  0.50002000  0.49999000  1.0
  C  C6  1  0.50000000  0.69608000  0.69596000  1.0
  C  C7  1  0.50000000  0.69608000  0.30405000  1.0
  C  C8  1  0.50000000  0.30391000  0.69597000  1.0
  C  C9  1  0.50000000  0.30391000  0.30404000  1.0
  C  C10  1  0.10313000  1.00000000  0.15974000  1.0
  C  C11  1  0.89687000  1.00000000  0.84026000  1.0
  C  C12  1  0.89687000  0.00000000  0.15974000  1.0
  C  C13  1  0.10313000  0.00001000  0.84026000  1.0
  N  N14  1  0.50000000  0.81147000  0.81312000  1.0
  N  N15  1  0.50000000  0.81148000  0.18689000  1.0
  N  N16  1  0.50000000  0.18852000  0.81312000  1.0
  N  N17  1  0.50000000  0.18851000  0.18689000  1.0
  N  N18  1  0.20909000  0.00000000  0.00000000  1.0
  N  N19  1  0.79090000  0.00000000  0.00000000  1.0
