# generated using pymatgen
data_NiH20C22N4O5
_symmetry_space_group_name_H-M   'P 1'
_cell_length_a   6.45775000
_cell_length_b   10.30880000
_cell_length_c   15.66640000
_cell_angle_alpha   81.72510000
_cell_angle_beta   86.36700000
_cell_angle_gamma   77.01950000
_symmetry_Int_Tables_number   1
_chemical_formula_structural   NiH20C22N4O5
_chemical_formula_sum   'Ni2 H40 C44 N8 O10'
_cell_volume   1005.18578512
_cell_formula_units_Z   2
loop_
 _symmetry_equiv_pos_site_id
 _symmetry_equiv_pos_as_xyz
  1  'x, y, z'
loop_
 _atom_site_type_symbol
 _atom_site_label
 _atom_site_symmetry_multiplicity
 _atom_site_fract_x
 _atom_site_fract_y
 _atom_site_fract_z
 _atom_site_occupancy
  Ni  Ni0  1  0.84010000  0.94700000  0.74188000  1.0
  Ni  Ni1  1  0.15989000  0.05300000  0.25812000  1.0
  H  H2  1  0.79538000  0.41282000  0.72143000  1.0
  H  H3  1  0.20462000  0.58717000  0.27857000  1.0
  H  H4  1  0.30719000  0.58960000  0.77672000  1.0
  H  H5  1  0.69281000  0.41040000  0.22328000  1.0
  H  H6  1  0.54783000  0.36386000  0.79384000  1.0
  H  H7  1  0.45217000  0.63614000  0.20617000  1.0
  H  H8  1  0.42049000  0.16386000  0.77127000  1.0
  H  H9  1  0.57950000  0.83614000  0.22873000  1.0
  H  H10  1  0.67322000  0.21632000  0.61065000  1.0
  H  H11  1  0.32677000  0.78368000  0.38935000  1.0
  H  H12  1  0.85233000  0.81292000  0.56616000  1.0
  H  H13  1  0.14769000  0.18708000  0.43384000  1.0
  H  H14  1  0.75000000  0.97466000  0.40896000  1.0
  H  H15  1  0.25003000  0.02534000  0.59103000  1.0
  H  H16  1  0.49819000  0.23286000  0.39051000  1.0
  H  H17  1  0.50181000  0.76714000  0.60949000  1.0
  H  H18  1  0.76472000  0.25154000  0.38062000  1.0
  H  H19  1  0.23529000  0.74846000  0.61938000  1.0
  H  H20  1  0.26328000  0.33776000  0.51929000  1.0
  H  H21  1  0.73673000  0.66224000  0.48071000  1.0
  H  H22  1  0.84643000  0.44781000  0.42029000  1.0
  H  H23  1  0.15357000  0.55218000  0.57971000  1.0
  H  H24  1  0.24642000  0.81630000  0.86197000  1.0
  H  H25  1  0.75357000  0.18370000  0.13803000  1.0
  H  H26  1  0.82935000  0.85615000  0.08088000  1.0
  H  H27  1  0.17065000  0.14387000  0.91912000  1.0
  H  H28  1  0.60147000  0.95530000  0.92935000  1.0
  H  H29  1  0.39853000  0.04470000  0.07066000  1.0
  H  H30  1  0.20174000  0.75139000  0.11003000  1.0
  H  H31  1  0.79825000  0.24862000  0.88997000  1.0
  H  H32  1  0.37308000  0.82970000  0.03887000  1.0
  H  H33  1  0.62691000  0.17032000  0.96113000  1.0
  H  H34  1  0.16045000  0.51601000  0.08625000  1.0
  H  H35  1  0.83954000  0.48400000  0.91376000  1.0
  H  H36  1  0.64151000  0.70403000  0.95163000  1.0
  H  H37  1  0.35849000  0.29597000  0.04838000  1.0
  H  H38  1  0.57112000  0.80931000  0.75971000  1.0
  H  H39  1  0.42888000  0.19069000  0.24029000  1.0
  H  H40  1  0.40552000  0.95647000  0.74736000  1.0
  H  H41  1  0.59447000  0.04353000  0.25264000  1.0
  C  C42  1  0.01283000  0.15181000  0.74049000  1.0
  C  C43  1  0.98716000  0.84819000  0.25951000  1.0
  C  C44  1  0.09753000  0.27377000  0.74614000  1.0
  C  C45  1  0.90247000  0.72623000  0.25387000  1.0
  C  C46  1  0.96061000  0.40130000  0.73748000  1.0
  C  C47  1  0.03938000  0.59871000  0.26252000  1.0
  C  C48  1  0.03483000  0.51547000  0.74778000  1.0
  C  C49  1  0.96517000  0.48454000  0.25222000  1.0
  C  C50  1  0.24760000  0.50149000  0.76853000  1.0
  C  C51  1  0.75239000  0.49851000  0.23147000  1.0
  C  C52  1  0.38329000  0.37494000  0.77762000  1.0
  C  C53  1  0.61670000  0.62506000  0.22239000  1.0
  C  C54  1  0.31103000  0.26163000  0.76511000  1.0
  C  C55  1  0.68896000  0.73837000  0.23489000  1.0
  C  C56  1  0.88789000  0.65221000  0.73758000  1.0
  C  C57  1  0.11211000  0.34780000  0.26242000  1.0
  C  C58  1  0.70772000  0.12798000  0.57799000  1.0
  C  C59  1  0.29228000  0.87202000  0.42201000  1.0
  C  C60  1  0.79753000  0.92068000  0.55189000  1.0
  C  C61  1  0.20249000  0.07932000  0.44811000  1.0
  C  C62  1  0.74640000  0.99887000  0.47426000  1.0
  C  C63  1  0.25363000  0.00113000  0.52574000  1.0
  C  C64  1  0.62938000  0.24818000  0.42656000  1.0
  C  C65  1  0.37063000  0.75181000  0.57343000  1.0
  C  C66  1  0.56302000  0.37747000  0.46518000  1.0
  C  C67  1  0.43699000  0.62253000  0.53482000  1.0
  C  C68  1  0.36725000  0.40911000  0.50996000  1.0
  C  C69  1  0.63274000  0.59089000  0.49004000  1.0
  C  C70  1  0.69488000  0.46990000  0.45585000  1.0
  C  C71  1  0.30513000  0.53010000  0.54415000  1.0
  C  C72  1  0.09978000  0.84095000  0.89976000  1.0
  C  C73  1  0.90021000  0.15905000  0.10024000  1.0
  C  C74  1  0.87890000  0.86443000  0.01329000  1.0
  C  C75  1  0.12109000  0.13558000  0.98672000  1.0
  C  C76  1  0.76923000  0.91360000  0.93875000  1.0
  C  C77  1  0.23077000  0.08640000  0.06125000  1.0
  C  C78  1  0.26728000  0.75905000  0.04367000  1.0
  C  C79  1  0.73272000  0.24095000  0.95633000  1.0
  C  C80  1  0.38757000  0.62480000  0.02115000  1.0
  C  C81  1  0.61243000  0.37521000  0.97885000  1.0
  C  C82  1  0.30873000  0.50933000  0.04809000  1.0
  C  C83  1  0.69125000  0.49068000  0.95191000  1.0
  C  C84  1  0.57920000  0.61452000  0.97289000  1.0
  C  C85  1  0.42080000  0.38549000  0.02711000  1.0
  N  N86  1  0.77316000  0.00204000  0.61608000  1.0
  N  N87  1  0.22684000  0.99796000  0.38391000  1.0
  N  N88  1  0.69013000  0.12975000  0.49197000  1.0
  N  N89  1  0.30989000  0.87024000  0.50803000  1.0
  N  N90  1  0.90884000  0.89845000  0.86871000  1.0
  N  N91  1  0.09117000  0.10155000  0.13129000  1.0
  N  N92  1  0.08758000  0.81854000  0.98731000  1.0
  N  N93  1  0.91242000  0.18146000  0.01269000  1.0
  O  O94  1  0.81381000  0.15912000  0.75435000  1.0
  O  O95  1  0.18619000  0.84087000  0.24565000  1.0
  O  O96  1  0.13694000  0.04145000  0.72450000  1.0
  O  O97  1  0.86307000  0.95854000  0.27550000  1.0
  O  O98  1  0.68876000  0.66052000  0.74241000  1.0
  O  O99  1  0.31124000  0.33948000  0.25758000  1.0
  O  O100  1  0.97986000  0.75199000  0.72472000  1.0
  O  O101  1  0.02013000  0.24801000  0.27528000  1.0
  O  O102  1  0.53426000  0.90339000  0.77727000  1.0
  O  O103  1  0.46574000  0.09661000  0.22273000  1.0
