# generated using pymatgen
data_CdH9C14(N3O)2
_symmetry_space_group_name_H-M   'P 1'
_cell_length_a   9.44308000
_cell_length_b   9.86119000
_cell_length_c   17.34320000
_cell_angle_alpha   101.73100000
_cell_angle_beta   90.00000000
_cell_angle_gamma   89.99990000
_symmetry_Int_Tables_number   1
_chemical_formula_structural   CdH9C14(N3O)2
_chemical_formula_sum   'Cd4 H36 C56 N24 O8'
_cell_volume   1581.26632472
_cell_formula_units_Z   4
loop_
 _symmetry_equiv_pos_site_id
 _symmetry_equiv_pos_as_xyz
  1  'x, y, z'
loop_
 _atom_site_type_symbol
 _atom_site_label
 _atom_site_symmetry_multiplicity
 _atom_site_fract_x
 _atom_site_fract_y
 _atom_site_fract_z
 _atom_site_occupancy
  Cd  Cd0  1  0.17026000  0.78523000  0.24984000  1.0
  Cd  Cd1  1  0.67026000  0.21478000  0.25016000  1.0
  Cd  Cd2  1  0.82974000  0.21478000  0.75016000  1.0
  Cd  Cd3  1  0.32974000  0.78522000  0.74984000  1.0
  H  H4  1  0.11278000  0.16411000  0.35915000  1.0
  H  H5  1  0.10213000  0.24815000  0.50466000  1.0
  H  H6  1  0.31861000  0.26412000  0.58513000  1.0
  H  H7  1  0.56088000  0.09836000  0.37627000  1.0
  H  H8  1  0.53706000  0.28229000  0.66046000  1.0
  H  H9  1  0.91895000  0.12019000  0.55506000  1.0
  H  H10  1  0.25482000  0.58349000  0.98525000  1.0
  H  H11  1  0.60356000  0.52395000  0.13384000  1.0
  H  H12  1  0.73777000  0.09470000  0.44464000  1.0
  H  H13  1  0.61278000  0.83589000  0.14086000  1.0
  H  H14  1  0.60213000  0.75185000  0.99534000  1.0
  H  H15  1  0.81861000  0.73588000  0.91487000  1.0
  H  H16  1  0.06088000  0.90165000  0.12373000  1.0
  H  H17  1  0.03706000  0.71771000  0.83954000  1.0
  H  H18  1  0.41896000  0.87981000  0.94494000  1.0
  H  H19  1  0.75482000  0.41652000  0.51475000  1.0
  H  H20  1  0.10356000  0.47605000  0.36616000  1.0
  H  H21  1  0.23777000  0.90530000  0.05536000  1.0
  H  H22  1  0.88722000  0.83589000  0.64085000  1.0
  H  H23  1  0.89787000  0.75185000  0.49534000  1.0
  H  H24  1  0.68139000  0.73588000  0.41487000  1.0
  H  H25  1  0.43912000  0.90164000  0.62373000  1.0
  H  H26  1  0.46294000  0.71771000  0.33954000  1.0
  H  H27  1  0.08105000  0.87982000  0.44494000  1.0
  H  H28  1  0.74518000  0.41652000  0.01475000  1.0
  H  H29  1  0.39644000  0.47605000  0.86616000  1.0
  H  H30  1  0.26223000  0.90530000  0.55536000  1.0
  H  H31  1  0.38722000  0.16411000  0.85914000  1.0
  H  H32  1  0.39787000  0.24815000  0.00466000  1.0
  H  H33  1  0.18139000  0.26411000  0.08513000  1.0
  H  H34  1  0.93912000  0.09835000  0.87627000  1.0
  H  H35  1  0.96295000  0.28228000  0.16046000  1.0
  H  H36  1  0.58104000  0.12019000  0.05507000  1.0
  H  H37  1  0.24518000  0.58348000  0.48525000  1.0
  H  H38  1  0.89644000  0.52395000  0.63384000  1.0
  H  H39  1  0.76223000  0.09470000  0.94464000  1.0
  C  C40  1  0.33888000  0.12745000  0.35904000  1.0
  C  C41  1  0.20798000  0.16694000  0.39497000  1.0
  C  C42  1  0.20274000  0.21501000  0.47635000  1.0
  C  C43  1  0.32513000  0.22453000  0.52180000  1.0
  C  C44  1  0.45671000  0.18340000  0.48665000  1.0
  C  C45  1  0.46141000  0.13416000  0.40493000  1.0
  C  C46  1  0.34904000  0.08505000  0.27321000  1.0
  C  C47  1  0.58470000  0.18893000  0.53394000  1.0
  C  C48  1  0.60878000  0.23596000  0.61369000  1.0
  C  C49  1  0.80949000  0.15346000  0.56172000  1.0
  C  C50  1  0.36264000  0.54786000  0.99117000  1.0
  C  C51  1  0.42121000  0.56069000  0.06667000  1.0
  C  C52  1  0.55884000  0.51190000  0.07493000  1.0
  C  C53  1  0.34160000  0.63186000  0.13816000  1.0
  C  C54  1  0.83888000  0.87255000  0.14096000  1.0
  C  C55  1  0.70798000  0.83306000  0.10503000  1.0
  C  C56  1  0.70275000  0.78499000  0.02365000  1.0
  C  C57  1  0.82513000  0.77548000  0.97820000  1.0
  C  C58  1  0.95672000  0.81660000  0.01336000  1.0
  C  C59  1  0.96142000  0.86584000  0.09507000  1.0
  C  C60  1  0.84904000  0.91495000  0.22679000  1.0
  C  C61  1  0.08471000  0.81107000  0.96606000  1.0
  C  C62  1  0.10878000  0.76404000  0.88631000  1.0
  C  C63  1  0.30949000  0.84654000  0.93828000  1.0
  C  C64  1  0.86264000  0.45214000  0.50883000  1.0
  C  C65  1  0.92120000  0.43931000  0.43333000  1.0
  C  C66  1  0.05884000  0.48810000  0.42507000  1.0
  C  C67  1  0.84160000  0.36814000  0.36184000  1.0
  C  C68  1  0.66112000  0.87255000  0.64096000  1.0
  C  C69  1  0.79202000  0.83306000  0.60503000  1.0
  C  C70  1  0.79726000  0.78499000  0.52365000  1.0
  C  C71  1  0.67487000  0.77548000  0.47820000  1.0
  C  C72  1  0.54329000  0.81660000  0.51335000  1.0
  C  C73  1  0.53859000  0.86584000  0.59507000  1.0
  C  C74  1  0.65096000  0.91495000  0.72679000  1.0
  C  C75  1  0.41530000  0.81107000  0.46606000  1.0
  C  C76  1  0.39121000  0.76404000  0.38631000  1.0
  C  C77  1  0.19051000  0.84654000  0.43828000  1.0
  C  C78  1  0.63736000  0.45214000  0.00883000  1.0
  C  C79  1  0.57879000  0.43931000  0.93333000  1.0
  C  C80  1  0.44116000  0.48810000  0.92507000  1.0
  C  C81  1  0.65840000  0.36814000  0.86184000  1.0
  C  C82  1  0.16112000  0.12744000  0.85904000  1.0
  C  C83  1  0.29202000  0.16694000  0.89497000  1.0
  C  C84  1  0.29725000  0.21500000  0.97635000  1.0
  C  C85  1  0.17487000  0.22452000  0.02180000  1.0
  C  C86  1  0.04328000  0.18340000  0.98664000  1.0
  C  C87  1  0.03858000  0.13416000  0.90493000  1.0
  C  C88  1  0.15096000  0.08505000  0.77320000  1.0
  C  C89  1  0.91530000  0.18892000  0.03394000  1.0
  C  C90  1  0.89122000  0.23595000  0.11369000  1.0
  C  C91  1  0.69051000  0.15346000  0.06172000  1.0
  C  C92  1  0.13736000  0.54786000  0.49117000  1.0
  C  C93  1  0.07879000  0.56069000  0.56667000  1.0
  C  C94  1  0.94116000  0.51190000  0.57493000  1.0
  C  C95  1  0.15840000  0.63186000  0.63816000  1.0
  N  N96  1  0.44446000  0.13461000  0.22779000  1.0
  N  N97  1  0.41406000  0.07556000  0.15226000  1.0
  N  N98  1  0.30565000  0.99341000  0.15177000  1.0
  N  N99  1  0.26190000  0.99637000  0.22642000  1.0
  N  N100  1  0.71409000  0.13789000  0.50311000  1.0
  N  N101  1  0.74888000  0.21318000  0.62986000  1.0
  N  N102  1  0.94446000  0.86539000  0.27221000  1.0
  N  N103  1  0.91406000  0.92444000  0.34774000  1.0
  N  N104  1  0.80564000  0.00659000  0.34823000  1.0
  N  N105  1  0.76190000  0.00363000  0.27358000  1.0
  N  N106  1  0.21410000  0.86211000  0.99689000  1.0
  N  N107  1  0.24888000  0.78682000  0.87014000  1.0
  N  N108  1  0.55554000  0.86539000  0.77221000  1.0
  N  N109  1  0.58594000  0.92444000  0.84774000  1.0
  N  N110  1  0.69436000  0.00659000  0.84823000  1.0
  N  N111  1  0.73810000  0.00364000  0.77358000  1.0
  N  N112  1  0.28591000  0.86211000  0.49689000  1.0
  N  N113  1  0.25112000  0.78682000  0.37014000  1.0
  N  N114  1  0.05554000  0.13461000  0.72779000  1.0
  N  N115  1  0.08594000  0.07556000  0.65226000  1.0
  N  N116  1  0.19435000  0.99340000  0.65177000  1.0
  N  N117  1  0.23810000  0.99636000  0.72642000  1.0
  N  N118  1  0.78590000  0.13789000  0.00311000  1.0
  N  N119  1  0.75112000  0.21318000  0.12986000  1.0
  O  O120  1  0.20753000  0.65360000  0.13063000  1.0
  O  O121  1  0.40718000  0.67200000  0.20237000  1.0
  O  O122  1  0.70753000  0.34641000  0.36937000  1.0
  O  O123  1  0.90719000  0.32799000  0.29763000  1.0
  O  O124  1  0.79247000  0.34641000  0.86937000  1.0
  O  O125  1  0.59282000  0.32800000  0.79763000  1.0
  O  O126  1  0.29247000  0.65360000  0.63063000  1.0
  O  O127  1  0.09282000  0.67200000  0.70237000  1.0
