# generated using pymatgen
data_TbH13(CO)10
_symmetry_space_group_name_H-M   'P 1'
_cell_length_a   6.37204000
_cell_length_b   13.16550000
_cell_length_c   17.53830000
_cell_angle_alpha   71.53610000
_cell_angle_beta   82.51790000
_cell_angle_gamma   88.69950000
_symmetry_Int_Tables_number   1
_chemical_formula_structural   TbH13(CO)10
_chemical_formula_sum   'Tb4 H52 C40 O40'
_cell_volume   1383.41776297
_cell_formula_units_Z   4
loop_
 _symmetry_equiv_pos_site_id
 _symmetry_equiv_pos_as_xyz
  1  'x, y, z'
loop_
 _atom_site_type_symbol
 _atom_site_label
 _atom_site_symmetry_multiplicity
 _atom_site_fract_x
 _atom_site_fract_y
 _atom_site_fract_z
 _atom_site_occupancy
  Tb  Tb0  1  0.04431000  0.60315000  0.08694000  1.0
  Tb  Tb1  1  0.95569000  0.39685000  0.91306000  1.0
  Tb  Tb2  1  0.96209000  0.88142000  0.44200000  1.0
  Tb  Tb3  1  0.03791000  0.11858000  0.55800000  1.0
  H  H4  1  0.95452000  0.99293000  0.21332000  1.0
  H  H5  1  0.04547000  0.00707000  0.78668000  1.0
  H  H6  1  0.72475000  0.51823000  0.72461000  1.0
  H  H7  1  0.27525000  0.48177000  0.27539000  1.0
  H  H8  1  0.97420000  0.61635000  0.26014000  1.0
  H  H9  1  0.02580000  0.38365000  0.73986000  1.0
  H  H10  1  0.93391000  0.72856000  0.19771000  1.0
  H  H11  1  0.06609000  0.27144000  0.80229000  1.0
  H  H12  1  0.60198000  0.67452000  0.04677000  1.0
  H  H13  1  0.39802000  0.32548000  0.95323000  1.0
  H  H14  1  0.72238000  0.62570000  0.98045000  1.0
  H  H15  1  0.27762000  0.37430000  0.01955000  1.0
  H  H16  1  0.28022000  0.88415000  0.54643000  1.0
  H  H17  1  0.71978000  0.11584000  0.45357000  1.0
  H  H18  1  0.39437000  0.81944000  0.48932000  1.0
  H  H19  1  0.60563000  0.18056000  0.51068000  1.0
  H  H20  1  0.14880000  0.82005000  0.29865000  1.0
  H  H21  1  0.85120000  0.17995000  0.70135000  1.0
  H  H22  1  0.07813000  0.70682000  0.36505000  1.0
  H  H23  1  0.92187000  0.29318000  0.63495000  1.0
  H  H24  1  0.54341000  0.26423000  0.11873000  1.0
  H  H25  1  0.45659000  0.73577000  0.88127000  1.0
  H  H26  1  0.51889000  0.37244000  0.25022000  1.0
  H  H27  1  0.48111000  0.62757000  0.74978000  1.0
  H  H28  1  0.20632000  0.21324000  0.22841000  1.0
  H  H29  1  0.79368000  0.78676000  0.77158000  1.0
  H  H30  1  0.16803000  0.28067000  0.30240000  1.0
  H  H31  1  0.83197000  0.71933000  0.69760000  1.0
  H  H32  1  0.48091000  0.19668000  0.36268000  1.0
  H  H33  1  0.51909000  0.80332000  0.63732000  1.0
  H  H34  1  0.51272000  0.07748000  0.23708000  1.0
  H  H35  1  0.48728000  0.92252000  0.76292000  1.0
  H  H36  1  0.85428000  0.17590000  0.17971000  1.0
  H  H37  1  0.14572000  0.82410000  0.82029000  1.0
  H  H38  1  0.81990000  0.24375000  0.25326000  1.0
  H  H39  1  0.18010000  0.75625000  0.74674000  1.0
  H  H40  1  0.42686000  0.94275000  0.91205000  1.0
  H  H41  1  0.57313000  0.05725000  0.08795000  1.0
  H  H42  1  0.63394000  0.85291000  0.94666000  1.0
  H  H43  1  0.36606000  0.14709000  0.05334000  1.0
  H  H44  1  0.54519000  0.86369000  0.08493000  1.0
  H  H45  1  0.45481000  0.13631000  0.91507000  1.0
  H  H46  1  0.18435000  0.00981000  0.01740000  1.0
  H  H47  1  0.81565000  0.99019000  0.98260000  1.0
  H  H48  1  0.39429000  0.67884000  0.41487000  1.0
  H  H49  1  0.60572000  0.32116000  0.58513000  1.0
  H  H50  1  0.60093000  0.59871000  0.38876000  1.0
  H  H51  1  0.39907000  0.40129000  0.61124000  1.0
  H  H52  1  0.43923000  0.60354000  0.55978000  1.0
  H  H53  1  0.56077000  0.39646000  0.44022000  1.0
  H  H54  1  0.81513000  0.48453000  0.50091000  1.0
  H  H55  1  0.18487000  0.51547000  0.49909000  1.0
  C  C56  1  0.61255000  0.29667000  0.16064000  1.0
  C  C57  1  0.38745000  0.70333000  0.83936000  1.0
  C  C58  1  0.44011000  0.33899000  0.21099000  1.0
  C  C59  1  0.55990000  0.66101000  0.78901000  1.0
  C  C60  1  0.28847000  0.24849000  0.26586000  1.0
  C  C61  1  0.71153000  0.75151000  0.73413000  1.0
  C  C62  1  0.41187000  0.16118000  0.32246000  1.0
  C  C63  1  0.58813000  0.83882000  0.67754000  1.0
  C  C64  1  0.58715000  0.11720000  0.27364000  1.0
  C  C65  1  0.41285000  0.88280000  0.72636000  1.0
  C  C66  1  0.73534000  0.20793000  0.21679000  1.0
  C  C67  1  0.26466000  0.79207000  0.78321000  1.0
  C  C68  1  0.77092000  0.38476000  0.11106000  1.0
  C  C69  1  0.22908000  0.61524000  0.88894000  1.0
  C  C70  1  0.31351000  0.42900000  0.16154000  1.0
  C  C71  1  0.68649000  0.57100000  0.83846000  1.0
  C  C72  1  0.25527000  0.07379000  0.37400000  1.0
  C  C73  1  0.74474000  0.92621000  0.62600000  1.0
  C  C74  1  0.71558000  0.03225000  0.32792000  1.0
  C  C75  1  0.28442000  0.96775000  0.67208000  1.0
  C  C76  1  0.54314000  0.92101000  0.95569000  1.0
  C  C77  1  0.45686000  0.07899000  0.04431000  1.0
  C  C78  1  0.42572000  0.88890000  0.04285000  1.0
  C  C79  1  0.57429000  0.11110000  0.95715000  1.0
  C  C80  1  0.30444000  0.98333000  0.05908000  1.0
  C  C81  1  0.69556000  0.01666000  0.94092000  1.0
  C  C82  1  0.28285000  0.79151000  0.05927000  1.0
  C  C83  1  0.71715000  0.20849000  0.94073000  1.0
  C  C84  1  0.18606000  0.95045000  0.14458000  1.0
  C  C85  1  0.81394000  0.04955000  0.85543000  1.0
  C  C86  1  0.47375000  0.60237000  0.43679000  1.0
  C  C87  1  0.52625000  0.39763000  0.56321000  1.0
  C  C88  1  0.57003000  0.59764000  0.51354000  1.0
  C  C89  1  0.42996000  0.40236000  0.48646000  1.0
  C  C90  1  0.68362000  0.49182000  0.54607000  1.0
  C  C91  1  0.31637000  0.50818000  0.45393000  1.0
  C  C92  1  0.71072000  0.69553000  0.49622000  1.0
  C  C93  1  0.28928000  0.30447000  0.50378000  1.0
  C  C94  1  0.77279000  0.48056000  0.62380000  1.0
  C  C95  1  0.22721000  0.51944000  0.37620000  1.0
  O  O96  1  0.81914000  0.45386000  0.14276000  1.0
  O  O97  1  0.18086000  0.54614000  0.85724000  1.0
  O  O98  1  0.85426000  0.38227000  0.04191000  1.0
  O  O99  1  0.14574000  0.61774000  0.95809000  1.0
  O  O100  1  0.29512000  0.44615000  0.08755000  1.0
  O  O101  1  0.70488000  0.55385000  0.91245000  1.0
  O  O102  1  0.21430000  0.49032000  0.19839000  1.0
  O  O103  1  0.78570000  0.50968000  0.80161000  1.0
  O  O104  1  0.22329000  0.99626000  0.34850000  1.0
  O  O105  1  0.77671000  0.00374000  0.65150000  1.0
  O  O106  1  0.15190000  0.08253000  0.43917000  1.0
  O  O107  1  0.84810000  0.91748000  0.56083000  1.0
  O  O108  1  0.71592000  0.02662000  0.40216000  1.0
  O  O109  1  0.28408000  0.97338000  0.59784000  1.0
  O  O110  1  0.82598000  0.96679000  0.30005000  1.0
  O  O111  1  0.17402000  0.03321000  0.69995000  1.0
  O  O112  1  0.36730000  0.69812000  0.07655000  1.0
  O  O113  1  0.63270000  0.30188000  0.92345000  1.0
  O  O114  1  0.08510000  0.79957000  0.05603000  1.0
  O  O115  1  0.91490000  0.20043000  0.94397000  1.0
  O  O116  1  0.03429000  0.01700000  0.15529000  1.0
  O  O117  1  0.96571000  0.98300000  0.84471000  1.0
  O  O118  1  0.22987000  0.86844000  0.19809000  1.0
  O  O119  1  0.77012000  0.13156000  0.80191000  1.0
  O  O120  1  0.63427000  0.78833000  0.46190000  1.0
  O  O121  1  0.36573000  0.21167000  0.53810000  1.0
  O  O122  1  0.89934000  0.68860000  0.51245000  1.0
  O  O123  1  0.10066000  0.31140000  0.48755000  1.0
  O  O124  1  0.66535000  0.53096000  0.66899000  1.0
  O  O125  1  0.33465000  0.46904000  0.33101000  1.0
  O  O126  1  0.92704000  0.42228000  0.64525000  1.0
  O  O127  1  0.07296000  0.57772000  0.35475000  1.0
  O  O128  1  0.92017000  0.65182000  0.20722000  1.0
  O  O129  1  0.07983000  0.34818000  0.79277000  1.0
  O  O130  1  0.74612000  0.66015000  0.02146000  1.0
  O  O131  1  0.25388000  0.33985000  0.97854000  1.0
  O  O132  1  0.25295000  0.83762000  0.51371000  1.0
  O  O133  1  0.74705000  0.16238000  0.48629000  1.0
  O  O134  1  0.10064000  0.78374000  0.35734000  1.0
  O  O135  1  0.89936000  0.21626000  0.64266000  1.0
