# generated using pymatgen
data_Zn4H6C24S6O13
_symmetry_space_group_name_H-M   'P 1'
_cell_length_a   20.81220000
_cell_length_b   20.82630000
_cell_length_c   20.82460000
_cell_angle_alpha   60.04140000
_cell_angle_beta   60.01870000
_cell_angle_gamma   60.01730000
_symmetry_Int_Tables_number   1
_chemical_formula_structural   Zn4H6C24S6O13
_chemical_formula_sum   'Zn8 H12 C48 S12 O26'
_cell_volume   6386.24620871
_cell_formula_units_Z   2
loop_
 _symmetry_equiv_pos_site_id
 _symmetry_equiv_pos_as_xyz
  1  'x, y, z'
loop_
 _atom_site_type_symbol
 _atom_site_label
 _atom_site_symmetry_multiplicity
 _atom_site_fract_x
 _atom_site_fract_y
 _atom_site_fract_z
 _atom_site_occupancy
  Zn  Zn0  1  0.21179000  0.36558000  0.21085000  1.0
  Zn  Zn1  1  0.21200000  0.21109000  0.21110000  1.0
  Zn  Zn2  1  0.21078000  0.21186000  0.36559000  1.0
  Zn  Zn3  1  0.36581000  0.21110000  0.21207000  1.0
  Zn  Zn4  1  0.78821000  0.63443000  0.78915000  1.0
  Zn  Zn5  1  0.78800000  0.78891000  0.78890000  1.0
  Zn  Zn6  1  0.78922000  0.78814000  0.63441000  1.0
  Zn  Zn7  1  0.63419000  0.78890000  0.78793000  1.0
  H  H8  1  0.54196000  0.06074000  0.06092000  1.0
  H  H9  1  0.06086000  0.54186000  0.33645000  1.0
  H  H10  1  0.33633000  0.06074000  0.54219000  1.0
  H  H11  1  0.06100000  0.33650000  0.06087000  1.0
  H  H12  1  0.54163000  0.33650000  0.06104000  1.0
  H  H13  1  0.06104000  0.06083000  0.33649000  1.0
  H  H14  1  0.45804000  0.93926000  0.93908000  1.0
  H  H15  1  0.93914000  0.45814000  0.66355000  1.0
  H  H16  1  0.66367000  0.93926000  0.45781000  1.0
  H  H17  1  0.93900000  0.66350000  0.93913000  1.0
  H  H18  1  0.45837000  0.66350000  0.93896000  1.0
  H  H19  1  0.93896000  0.93917000  0.66351000  1.0
  C  C20  1  0.50509000  0.04843000  0.04853000  1.0
  C  C21  1  0.04853000  0.50497000  0.39798000  1.0
  C  C22  1  0.39787000  0.04845000  0.50522000  1.0
  C  C23  1  0.04860000  0.39806000  0.04849000  1.0
  C  C24  1  0.50485000  0.39806000  0.04859000  1.0
  C  C25  1  0.04861000  0.04848000  0.39806000  1.0
  C  C26  1  0.12706000  0.37444000  0.37103000  1.0
  C  C27  1  0.07731000  0.42365000  0.42163000  1.0
  C  C28  1  0.37458000  0.12696000  0.12735000  1.0
  C  C29  1  0.42371000  0.07725000  0.07733000  1.0
  C  C30  1  0.37084000  0.12722000  0.37473000  1.0
  C  C31  1  0.42145000  0.07731000  0.42390000  1.0
  C  C32  1  0.12762000  0.37132000  0.12680000  1.0
  C  C33  1  0.07744000  0.42188000  0.07722000  1.0
  C  C34  1  0.37426000  0.37133000  0.12721000  1.0
  C  C35  1  0.42347000  0.42188000  0.07731000  1.0
  C  C36  1  0.12720000  0.12721000  0.37132000  1.0
  C  C37  1  0.07733000  0.07732000  0.42188000  1.0
  C  C38  1  0.99728000  0.46896000  0.53644000  1.0
  C  C39  1  0.53110000  0.00266000  0.00270000  1.0
  C  C40  1  0.53643000  0.99734000  0.46889000  1.0
  C  C41  1  0.99728000  0.53647000  0.99728000  1.0
  C  C42  1  0.46896000  0.53647000  0.99725000  1.0
  C  C43  1  0.99725000  0.99731000  0.53647000  1.0
  C  C44  1  0.49491000  0.95157000  0.95147000  1.0
  C  C45  1  0.95147000  0.49503000  0.60203000  1.0
  C  C46  1  0.60213000  0.95155000  0.49478000  1.0
  C  C47  1  0.95140000  0.60194000  0.95151000  1.0
  C  C48  1  0.49515000  0.60194000  0.95141000  1.0
  C  C49  1  0.95139000  0.95152000  0.60194000  1.0
  C  C50  1  0.87294000  0.62557000  0.62897000  1.0
  C  C51  1  0.92269000  0.57635000  0.57836000  1.0
  C  C52  1  0.62542000  0.87304000  0.87265000  1.0
  C  C53  1  0.57629000  0.92275000  0.92266000  1.0
  C  C54  1  0.62916000  0.87278000  0.62527000  1.0
  C  C55  1  0.57855000  0.92269000  0.57610000  1.0
  C  C56  1  0.87238000  0.62868000  0.87320000  1.0
  C  C57  1  0.92256000  0.57812000  0.92278000  1.0
  C  C58  1  0.62574000  0.62867000  0.87279000  1.0
  C  C59  1  0.57653000  0.57812000  0.92269000  1.0
  C  C60  1  0.87280000  0.87278000  0.62868000  1.0
  C  C61  1  0.92267000  0.92268000  0.57812000  1.0
  C  C62  1  0.00272000  0.53104000  0.46356000  1.0
  C  C63  1  0.46890000  0.99734000  0.99730000  1.0
  C  C64  1  0.46357000  0.00266000  0.53111000  1.0
  C  C65  1  0.00271000  0.46353000  0.00272000  1.0
  C  C66  1  0.53104000  0.46353000  0.00275000  1.0
  C  C67  1  0.00275000  0.00269000  0.46353000  1.0
  S  S68  1  0.04898000  0.37864000  0.52323000  1.0
  S  S69  1  0.37855000  0.04909000  0.04903000  1.0
  S  S70  1  0.52309000  0.04911000  0.37867000  1.0
  S  S71  1  0.04906000  0.52348000  0.04894000  1.0
  S  S72  1  0.37851000  0.52348000  0.04888000  1.0
  S  S73  1  0.04889000  0.04910000  0.52349000  1.0
  S  S74  1  0.95102000  0.62136000  0.47677000  1.0
  S  S75  1  0.62145000  0.95091000  0.95097000  1.0
  S  S76  1  0.47691000  0.95089000  0.62133000  1.0
  S  S77  1  0.95094000  0.47652000  0.95106000  1.0
  S  S78  1  0.62148000  0.47652000  0.95112000  1.0
  S  S79  1  0.95111000  0.95090000  0.47651000  1.0
  O  O80  1  0.25011000  0.24989000  0.24990000  1.0
  O  O81  1  0.14661000  0.40995000  0.29681000  1.0
  O  O82  1  0.30010000  0.14661000  0.14660000  1.0
  O  O83  1  0.14621000  0.30000000  0.40650000  1.0
  O  O84  1  0.41022000  0.14591000  0.14701000  1.0
  O  O85  1  0.29655000  0.14664000  0.41021000  1.0
  O  O86  1  0.14702000  0.29712000  0.14592000  1.0
  O  O87  1  0.40648000  0.14663000  0.30031000  1.0
  O  O88  1  0.14730000  0.40673000  0.14620000  1.0
  O  O89  1  0.40995000  0.29713000  0.14703000  1.0
  O  O90  1  0.14700000  0.14593000  0.29712000  1.0
  O  O91  1  0.29977000  0.40674000  0.14621000  1.0
  O  O92  1  0.14618000  0.14732000  0.40673000  1.0
  O  O93  1  0.74990000  0.75011000  0.75010000  1.0
  O  O94  1  0.85339000  0.59005000  0.70319000  1.0
  O  O95  1  0.69991000  0.85339000  0.85340000  1.0
  O  O96  1  0.85379000  0.70001000  0.59350000  1.0
  O  O97  1  0.58978000  0.85409000  0.85299000  1.0
  O  O98  1  0.70345000  0.85337000  0.58979000  1.0
  O  O99  1  0.85298000  0.70288000  0.85408000  1.0
  O  O100  1  0.59352000  0.85337000  0.69969000  1.0
  O  O101  1  0.85270000  0.59326000  0.85380000  1.0
  O  O102  1  0.59005000  0.70287000  0.85297000  1.0
  O  O103  1  0.85300000  0.85407000  0.70288000  1.0
  O  O104  1  0.70023000  0.59326000  0.85379000  1.0
  O  O105  1  0.85382000  0.85268000  0.59327000  1.0
