# generated using pymatgen
data_CuH4C4IN2
_symmetry_space_group_name_H-M   'P 1'
_cell_length_a   5.79792000
_cell_length_b   7.64464000
_cell_length_c   7.64479000
_cell_angle_alpha   109.00200000
_cell_angle_beta   97.18690000
_cell_angle_gamma   97.18560000
_symmetry_Int_Tables_number   1
_chemical_formula_structural   CuH4C4IN2
_chemical_formula_sum   'Cu2 H8 C8 I2 N4'
_cell_volume   312.85343849
_cell_formula_units_Z   2
loop_
 _symmetry_equiv_pos_site_id
 _symmetry_equiv_pos_as_xyz
  1  'x, y, z'
loop_
 _atom_site_type_symbol
 _atom_site_label
 _atom_site_symmetry_multiplicity
 _atom_site_fract_x
 _atom_site_fract_y
 _atom_site_fract_z
 _atom_site_occupancy
  Cu  Cu0  1  0.26126000  0.46432000  0.46432000  1.0
  Cu  Cu1  1  0.73870000  0.53568000  0.53568000  1.0
  H  H2  1  0.31921000  0.58947000  0.13662000  1.0
  H  H3  1  0.68071000  0.86342000  0.41058000  1.0
  H  H4  1  0.68069000  0.41058000  0.86342000  1.0
  H  H5  1  0.31919000  0.13662000  0.58947000  1.0
  H  H6  1  0.16325000  0.82843000  0.01577000  1.0
  H  H7  1  0.83678000  0.98424000  0.17160000  1.0
  H  H8  1  0.83676000  0.17159000  0.98422000  1.0
  H  H9  1  0.16322000  0.01576000  0.82842000  1.0
  C  C10  1  0.17597000  0.65825000  0.19067000  1.0
  C  C11  1  0.82404000  0.80936000  0.34174000  1.0
  C  C12  1  0.82403000  0.34173000  0.80935000  1.0
  C  C13  1  0.17595000  0.19067000  0.65825000  1.0
  C  C14  1  0.08955000  0.79214000  0.12617000  1.0
  C  C15  1  0.91050000  0.87383000  0.20783000  1.0
  C  C16  1  0.91047000  0.20783000  0.87382000  1.0
  C  C17  1  0.08955000  0.12617000  0.79213000  1.0
  I  I18  1  0.49304000  0.24307000  0.24308000  1.0
  I  I19  1  0.50695000  0.75693000  0.75693000  1.0
  N  N20  1  0.09168000  0.60414000  0.32424000  1.0
  N  N21  1  0.90841000  0.67576000  0.39581000  1.0
  N  N22  1  0.90840000  0.39580000  0.67575000  1.0
  N  N23  1  0.09169000  0.32423000  0.60413000  1.0
