# generated using pymatgen
data_TlH4C6NO3
_symmetry_space_group_name_H-M   'P 1'
_cell_length_a   3.82840000
_cell_length_b   9.38210000
_cell_length_c   10.18790000
_cell_angle_alpha   83.50680000
_cell_angle_beta   86.57180000
_cell_angle_gamma   79.24360000
_symmetry_Int_Tables_number   1
_chemical_formula_structural   TlH4C6NO3
_chemical_formula_sum   'Tl2 H8 C12 N2 O6'
_cell_volume   356.91693766
_cell_formula_units_Z   2
loop_
 _symmetry_equiv_pos_site_id
 _symmetry_equiv_pos_as_xyz
  1  'x, y, z'
loop_
 _atom_site_type_symbol
 _atom_site_label
 _atom_site_symmetry_multiplicity
 _atom_site_fract_x
 _atom_site_fract_y
 _atom_site_fract_z
 _atom_site_occupancy
  Tl  Tl0  1  0.27315000  0.86577000  0.14410000  1.0
  Tl  Tl1  1  0.72691000  0.13422000  0.85591000  1.0
  H  H2  1  0.26669000  0.64524000  0.93484000  1.0
  H  H3  1  0.73337000  0.35474000  0.06515000  1.0
  H  H4  1  0.20648000  0.58976000  0.52259000  1.0
  H  H5  1  0.79349000  0.41025000  0.47740000  1.0
  H  H6  1  0.28368000  0.84790000  0.46189000  1.0
  H  H7  1  0.71621000  0.15212000  0.53811000  1.0
  H  H8  1  0.34318000  0.00502000  0.63584000  1.0
  H  H9  1  0.65675000  0.99498000  0.36417000  1.0
  C  C10  1  0.31176000  0.83898000  0.79967000  1.0
  C  C11  1  0.68827000  0.16102000  0.20033000  1.0
  C  C12  1  0.27255000  0.69236000  0.83239000  1.0
  C  C13  1  0.72749000  0.30763000  0.16760000  1.0
  C  C14  1  0.23405000  0.60790000  0.73184000  1.0
  C  C15  1  0.76597000  0.39210000  0.26816000  1.0
  C  C16  1  0.23780000  0.65947000  0.59752000  1.0
  C  C17  1  0.76215000  0.34053000  0.40248000  1.0
  C  C18  1  0.27996000  0.80349000  0.56546000  1.0
  C  C19  1  0.71996000  0.19652000  0.43455000  1.0
  C  C20  1  0.31430000  0.89186000  0.66329000  1.0
  C  C21  1  0.68567000  0.10815000  0.33671000  1.0
  N  N22  1  0.18721000  0.45816000  0.76873000  1.0
  N  N23  1  0.81281000  0.54183000  0.23126000  1.0
  O  O24  1  0.33540000  0.92606000  0.89187000  1.0
  O  O25  1  0.66468000  0.07393000  0.10813000  1.0
  O  O26  1  0.20623000  0.40799000  0.88790000  1.0
  O  O27  1  0.79379000  0.59201000  0.11209000  1.0
  O  O28  1  0.13518000  0.38295000  0.68058000  1.0
  O  O29  1  0.86485000  0.61704000  0.31942000  1.0
