# generated using pymatgen
data_DyH15C15NO8
_symmetry_space_group_name_H-M   'P 1'
_cell_length_a   8.58745000
_cell_length_b   10.20190000
_cell_length_c   10.90410000
_cell_angle_alpha   63.92390000
_cell_angle_beta   71.01610000
_cell_angle_gamma   80.05470000
_symmetry_Int_Tables_number   1
_chemical_formula_structural   DyH15C15NO8
_chemical_formula_sum   'Dy2 H30 C30 N2 O16'
_cell_volume   810.88558407
_cell_formula_units_Z   2
loop_
 _symmetry_equiv_pos_site_id
 _symmetry_equiv_pos_as_xyz
  1  'x, y, z'
loop_
 _atom_site_type_symbol
 _atom_site_label
 _atom_site_symmetry_multiplicity
 _atom_site_fract_x
 _atom_site_fract_y
 _atom_site_fract_z
 _atom_site_occupancy
  Dy  Dy0  1  0.63619000  0.93984000  0.65071000  1.0
  Dy  Dy1  1  0.36381000  0.06016000  0.34929000  1.0
  H  H2  1  0.44095000  0.25438000  0.70005000  1.0
  H  H3  1  0.55904000  0.74562000  0.29994000  1.0
  H  H4  1  0.49716000  0.53860000  0.25962000  1.0
  H  H5  1  0.50282000  0.46140000  0.74038000  1.0
  H  H6  1  0.04972000  0.83121000  0.88197000  1.0
  H  H7  1  0.95030000  0.16881000  0.11802000  1.0
  H  H8  1  0.23608000  0.12804000  0.97910000  1.0
  H  H9  1  0.76393000  0.87197000  0.02089000  1.0
  H  H10  1  0.70784000  0.56792000  0.09060000  1.0
  H  H11  1  0.29215000  0.43207000  0.90942000  1.0
  H  H12  1  0.14892000  0.63342000  0.74396000  1.0
  H  H13  1  0.85107000  0.36657000  0.25605000  1.0
  H  H14  1  0.64043000  0.15846000  0.83119000  1.0
  H  H15  1  0.35957000  0.84154000  0.16880000  1.0
  H  H16  1  0.70121000  0.31788000  0.88997000  1.0
  H  H17  1  0.29879000  0.68213000  0.11002000  1.0
  H  H18  1  0.79679000  0.47035000  0.73461000  1.0
  H  H19  1  0.20320000  0.52965000  0.26538000  1.0
  H  H20  1  0.91399000  0.34653000  0.85130000  1.0
  H  H21  1  0.08601000  0.65348000  0.14869000  1.0
  H  H22  1  0.04395000  0.19684000  0.58187000  1.0
  H  H23  1  0.95606000  0.80315000  0.41814000  1.0
  H  H24  1  0.11386000  0.28550000  0.66403000  1.0
  H  H25  1  0.88614000  0.71449000  0.33599000  1.0
  H  H26  1  0.01893000  0.38999000  0.52474000  1.0
  H  H27  1  0.98109000  0.61000000  0.47526000  1.0
  H  H28  1  0.76364000  0.08362000  0.34216000  1.0
  H  H29  1  0.23636000  0.91638000  0.65784000  1.0
  H  H30  1  0.91695000  0.09776000  0.38980000  1.0
  H  H31  1  0.08305000  0.90223000  0.61020000  1.0
  C  C32  1  0.43270000  0.26345000  0.44835000  1.0
  C  C33  1  0.56729000  0.73655000  0.55165000  1.0
  C  C34  1  0.46753000  0.38443000  0.47648000  1.0
  C  C35  1  0.53246000  0.61557000  0.52351000  1.0
  C  C36  1  0.46759000  0.36194000  0.61283000  1.0
  C  C37  1  0.53240000  0.63806000  0.38717000  1.0
  C  C38  1  0.49916000  0.52307000  0.36448000  1.0
  C  C39  1  0.50082000  0.47693000  0.63551000  1.0
  C  C40  1  0.32717000  0.95411000  0.83663000  1.0
  C  C41  1  0.67284000  0.04590000  0.16337000  1.0
  C  C42  1  0.15840000  0.97827000  0.92085000  1.0
  C  C43  1  0.84161000  0.02175000  0.07914000  1.0
  C  C44  1  0.02602000  0.90562000  0.93343000  1.0
  C  C45  1  0.97399000  0.09440000  0.06656000  1.0
  C  C46  1  0.13213000  0.07332000  0.98782000  1.0
  C  C47  1  0.86789000  0.92670000  0.01217000  1.0
  C  C48  1  0.82933000  0.73509000  0.81596000  1.0
  C  C49  1  0.17066000  0.26490000  0.18405000  1.0
  C  C50  1  0.91898000  0.61270000  0.90884000  1.0
  C  C51  1  0.08101000  0.38730000  0.09118000  1.0
  C  C52  1  0.83603000  0.53685000  0.05287000  1.0
  C  C53  1  0.16396000  0.46315000  0.94714000  1.0
  C  C54  1  0.08417000  0.57491000  0.85596000  1.0
  C  C55  1  0.91582000  0.42509000  0.14406000  1.0
  C  C56  1  0.75457000  0.17059000  0.74383000  1.0
  C  C57  1  0.24544000  0.82941000  0.25616000  1.0
  C  C58  1  0.81555000  0.35530000  0.80416000  1.0
  C  C59  1  0.18445000  0.64471000  0.19583000  1.0
  C  C60  1  0.01830000  0.28545000  0.61725000  1.0
  C  C61  1  0.98171000  0.71454000  0.38275000  1.0
  N  N62  1  0.85927000  0.26497000  0.72430000  1.0
  N  N63  1  0.14073000  0.73502000  0.27570000  1.0
  O  O64  1  0.47243000  0.13063000  0.52041000  1.0
  O  O65  1  0.52757000  0.86937000  0.47959000  1.0
  O  O66  1  0.36308000  0.29442000  0.35213000  1.0
  O  O67  1  0.63692000  0.70557000  0.64786000  1.0
  O  O68  1  0.34982000  0.87083000  0.77086000  1.0
  O  O69  1  0.65018000  0.12919000  0.22914000  1.0
  O  O70  1  0.44785000  0.01736000  0.82812000  1.0
  O  O71  1  0.55217000  0.98264000  0.17187000  1.0
  O  O72  1  0.90207000  0.80845000  0.68396000  1.0
  O  O73  1  0.09792000  0.19154000  0.31605000  1.0
  O  O74  1  0.67964000  0.76530000  0.87016000  1.0
  O  O75  1  0.32035000  0.23469000  0.12984000  1.0
  O  O76  1  0.78169000  0.09859000  0.66995000  1.0
  O  O77  1  0.21832000  0.90141000  0.33005000  1.0
  O  O78  1  0.81567000  0.04289000  0.42179000  1.0
  O  O79  1  0.18433000  0.95710000  0.57821000  1.0
