# generated using pymatgen
data_MgH9C16O3
_symmetry_space_group_name_H-M   'P 1'
_cell_length_a   6.90830000
_cell_length_b   34.38700000
_cell_length_c   34.38960000
_cell_angle_alpha   119.55100000
_cell_angle_beta   93.83530000
_cell_angle_gamma   93.84660000
_symmetry_Int_Tables_number   1
_chemical_formula_structural   MgH9C16O3
_chemical_formula_sum   'Mg6 H54 C96 O18'
_cell_volume   7043.53547378
_cell_formula_units_Z   6
loop_
 _symmetry_equiv_pos_site_id
 _symmetry_equiv_pos_as_xyz
  1  'x, y, z'
loop_
 _atom_site_type_symbol
 _atom_site_label
 _atom_site_symmetry_multiplicity
 _atom_site_fract_x
 _atom_site_fract_y
 _atom_site_fract_z
 _atom_site_occupancy
  Mg  Mg0  1  0.24590000  0.66980000  0.30463000  1.0
  Mg  Mg1  1  0.57620000  0.63481000  0.33014000  1.0
  Mg  Mg2  1  0.94126000  0.69531000  0.36513000  1.0
  Mg  Mg3  1  0.75410000  0.33020000  0.69537000  1.0
  Mg  Mg4  1  0.42379000  0.36519000  0.66986000  1.0
  Mg  Mg5  1  0.05874000  0.30469000  0.63487000  1.0
  H  H6  1  0.28129000  0.17873000  0.57808000  1.0
  H  H7  1  0.52505000  0.07031000  0.53776000  1.0
  H  H8  1  0.14865000  0.11470000  0.56425000  1.0
  H  H9  1  0.38362000  0.04986000  0.47018000  1.0
  H  H10  1  0.42370000  0.99365000  0.39264000  1.0
  H  H11  1  0.20136000  0.92118000  0.35242000  1.0
  H  H12  1  0.94290000  0.90651000  0.39075000  1.0
  H  H13  1  0.00237000  0.80323000  0.38259000  1.0
  H  H14  1  0.18496000  0.88010000  0.42580000  1.0
  H  H15  1  0.10262000  0.39934000  0.82135000  1.0
  H  H16  1  0.45473000  0.46753000  0.92977000  1.0
  H  H17  1  0.03408000  0.44958000  0.88530000  1.0
  H  H18  1  0.33408000  0.42041000  0.95024000  1.0
  H  H19  1  0.43031000  0.39910000  0.00645000  1.0
  H  H20  1  0.28025000  0.43129000  0.07888000  1.0
  H  H21  1  0.03645000  0.48427000  0.09351000  1.0
  H  H22  1  0.19914000  0.57938000  0.19673000  1.0
  H  H23  1  0.30470000  0.54569000  0.11988000  1.0
  H  H24  1  0.70314000  0.42193000  0.60064000  1.0
  H  H25  1  0.98727000  0.46226000  0.53252000  1.0
  H  H26  1  0.58443000  0.43577000  0.55046000  1.0
  H  H27  1  0.91342000  0.52986000  0.57964000  1.0
  H  H28  1  0.03088000  0.60744000  0.60101000  1.0
  H  H29  1  0.84855000  0.64765000  0.56879000  1.0
  H  H30  1  0.55192000  0.60927000  0.51576000  1.0
  H  H31  1  0.61990000  0.61738000  0.42065000  1.0
  H  H32  1  0.75924000  0.57422000  0.45435000  1.0
  H  H33  1  0.71872000  0.82127000  0.42192000  1.0
  H  H34  1  0.47495000  0.92969000  0.46224000  1.0
  H  H35  1  0.85135000  0.88530000  0.43575000  1.0
  H  H36  1  0.61638000  0.95014000  0.52982000  1.0
  H  H37  1  0.57629000  0.00635000  0.60736000  1.0
  H  H38  1  0.79863000  0.07882000  0.64758000  1.0
  H  H39  1  0.05710000  0.09349000  0.60925000  1.0
  H  H40  1  0.99763000  0.19677000  0.61741000  1.0
  H  H41  1  0.81505000  0.11990000  0.57420000  1.0
  H  H42  1  0.89737000  0.60066000  0.17865000  1.0
  H  H43  1  0.54527000  0.53248000  0.07023000  1.0
  H  H44  1  0.96592000  0.55042000  0.11470000  1.0
  H  H45  1  0.66592000  0.57959000  0.04976000  1.0
  H  H46  1  0.56969000  0.60090000  0.99355000  1.0
  H  H47  1  0.71975000  0.56871000  0.92113000  1.0
  H  H48  1  0.96355000  0.51573000  0.90649000  1.0
  H  H49  1  0.80086000  0.42062000  0.80327000  1.0
  H  H50  1  0.69530000  0.45431000  0.88012000  1.0
  H  H51  1  0.29686000  0.57807000  0.39936000  1.0
  H  H52  1  0.01273000  0.53775000  0.46748000  1.0
  H  H53  1  0.41558000  0.56423000  0.44954000  1.0
  H  H54  1  0.08658000  0.47014000  0.42036000  1.0
  H  H55  1  0.96912000  0.39256000  0.39899000  1.0
  H  H56  1  0.15145000  0.35235000  0.43121000  1.0
  H  H57  1  0.44808000  0.39073000  0.48424000  1.0
  H  H58  1  0.38010000  0.38262000  0.57935000  1.0
  H  H59  1  0.24076000  0.42578000  0.54565000  1.0
  C  C60  1  0.74372000  0.23123000  0.62443000  1.0
  C  C61  1  0.53677000  0.22515000  0.61197000  1.0
  C  C62  1  0.43774000  0.18149000  0.58732000  1.0
  C  C63  1  0.53254000  0.14297000  0.57428000  1.0
  C  C64  1  0.43121000  0.09737000  0.55101000  1.0
  C  C65  1  0.23605000  0.08683000  0.54703000  1.0
  C  C66  1  0.12451000  0.04219000  0.52313000  1.0
  C  C67  1  0.97653000  0.03228000  0.54487000  1.0
  C  C68  1  0.84982000  0.99028000  0.52179000  1.0
  C  C69  1  0.29192000  0.01776000  0.45380000  1.0
  C  C70  1  0.31310000  0.98648000  0.41014000  1.0
  C  C71  1  0.18751000  0.94553000  0.38739000  1.0
  C  C72  1  0.04510000  0.93706000  0.40916000  1.0
  C  C73  1  0.16035000  0.80786000  0.39099000  1.0
  C  C74  1  0.26246000  0.85046000  0.41522000  1.0
  C  C75  1  0.57919000  0.73688000  0.37677000  1.0
  C  C76  1  0.51252000  0.39317000  0.76881000  1.0
  C  C77  1  0.31167000  0.38679000  0.77492000  1.0
  C  C78  1  0.25634000  0.40582000  0.81859000  1.0
  C  C79  1  0.38962000  0.43134000  0.85711000  1.0
  C  C80  1  0.33390000  0.45368000  0.90269000  1.0
  C  C81  1  0.14921000  0.46024000  0.91319000  1.0
  C  C82  1  0.08232000  0.48096000  0.95782000  1.0
  C  C83  1  0.94393000  0.51251000  0.96768000  1.0
  C  C84  1  0.85918000  0.53142000  0.00966000  1.0
  C  C85  1  0.27454000  0.43615000  0.98233000  1.0
  C  C86  1  0.32707000  0.42381000  0.01364000  1.0
  C  C87  1  0.24241000  0.44199000  0.05457000  1.0
  C  C88  1  0.10838000  0.47221000  0.06301000  1.0
  C  C89  1  0.35248000  0.58315000  0.19210000  1.0
  C  C90  1  0.41196000  0.56475000  0.14949000  1.0
  C  C91  1  0.84238000  0.63989000  0.26303000  1.0
  C  C92  1  0.11916000  0.37560000  0.60681000  1.0
  C  C93  1  0.92466000  0.38804000  0.61315000  1.0
  C  C94  1  0.85033000  0.41268000  0.59413000  1.0
  C  C95  1  0.95815000  0.42571000  0.56864000  1.0
  C  C96  1  0.88021000  0.44901000  0.54634000  1.0
  C  C97  1  0.68899000  0.45300000  0.53981000  1.0
  C  C98  1  0.60138000  0.47688000  0.51906000  1.0
  C  C99  1  0.43164000  0.45513000  0.48745000  1.0
  C  C100  1  0.32796000  0.47820000  0.46853000  1.0
  C  C101  1  0.83810000  0.54625000  0.56394000  1.0
  C  C102  1  0.90284000  0.58992000  0.57633000  1.0
  C  C103  1  0.79990000  0.61266000  0.55814000  1.0
  C  C104  1  0.63578000  0.59086000  0.52788000  1.0
  C  C105  1  0.76952000  0.60901000  0.41689000  1.0
  C  C106  1  0.84739000  0.58481000  0.43530000  1.0
  C  C107  1  0.20267000  0.62320000  0.36013000  1.0
  C  C108  1  0.25628000  0.76877000  0.37557000  1.0
  C  C109  1  0.46323000  0.77485000  0.38803000  1.0
  C  C110  1  0.56226000  0.81851000  0.41268000  1.0
  C  C111  1  0.46747000  0.85703000  0.42572000  1.0
  C  C112  1  0.56879000  0.90263000  0.44899000  1.0
  C  C113  1  0.76395000  0.91317000  0.45297000  1.0
  C  C114  1  0.87549000  0.95781000  0.47687000  1.0
  C  C115  1  0.02347000  0.96772000  0.45513000  1.0
  C  C116  1  0.15019000  0.00972000  0.47821000  1.0
  C  C117  1  0.70808000  0.98224000  0.54620000  1.0
  C  C118  1  0.68690000  0.01352000  0.58986000  1.0
  C  C119  1  0.81249000  0.05447000  0.61261000  1.0
  C  C120  1  0.95490000  0.06294000  0.59084000  1.0
  C  C121  1  0.83966000  0.19214000  0.60901000  1.0
  C  C122  1  0.73755000  0.14954000  0.58478000  1.0
  C  C123  1  0.42081000  0.26312000  0.62323000  1.0
  C  C124  1  0.48748000  0.60683000  0.23119000  1.0
  C  C125  1  0.68833000  0.61321000  0.22508000  1.0
  C  C126  1  0.74366000  0.59418000  0.18141000  1.0
  C  C127  1  0.61037000  0.56866000  0.14289000  1.0
  C  C128  1  0.66610000  0.54632000  0.09731000  1.0
  C  C129  1  0.85078000  0.53976000  0.08681000  1.0
  C  C130  1  0.91768000  0.51904000  0.04218000  1.0
  C  C131  1  0.05607000  0.48749000  0.03232000  1.0
  C  C132  1  0.14081000  0.46858000  0.99034000  1.0
  C  C133  1  0.72546000  0.56385000  0.01767000  1.0
  C  C134  1  0.67293000  0.57619000  0.98636000  1.0
  C  C135  1  0.75759000  0.55801000  0.94543000  1.0
  C  C136  1  0.89162000  0.52779000  0.93699000  1.0
  C  C137  1  0.64752000  0.41685000  0.80790000  1.0
  C  C138  1  0.58804000  0.43525000  0.85051000  1.0
  C  C139  1  0.15762000  0.36011000  0.73697000  1.0
  C  C140  1  0.88084000  0.62440000  0.39319000  1.0
  C  C141  1  0.07534000  0.61196000  0.38685000  1.0
  C  C142  1  0.14967000  0.58732000  0.40587000  1.0
  C  C143  1  0.04185000  0.57429000  0.43136000  1.0
  C  C144  1  0.11980000  0.55099000  0.45366000  1.0
  C  C145  1  0.31101000  0.54700000  0.46019000  1.0
  C  C146  1  0.39862000  0.52312000  0.48093000  1.0
  C  C147  1  0.56836000  0.54487000  0.51255000  1.0
  C  C148  1  0.67204000  0.52180000  0.53147000  1.0
  C  C149  1  0.16190000  0.45375000  0.43606000  1.0
  C  C150  1  0.09716000  0.41008000  0.42367000  1.0
  C  C151  1  0.20010000  0.38734000  0.44186000  1.0
  C  C152  1  0.36422000  0.40914000  0.47212000  1.0
  C  C153  1  0.23048000  0.39099000  0.58311000  1.0
  C  C154  1  0.15261000  0.41519000  0.56470000  1.0
  C  C155  1  0.79733000  0.37680000  0.63987000  1.0
  O  O156  1  0.75911000  0.74340000  0.39166000  1.0
  O  O157  1  0.49282000  0.69651000  0.35087000  1.0
  O  O158  1  0.15063000  0.72841000  0.35053000  1.0
  O  O159  1  0.01578000  0.64828000  0.25651000  1.0
  O  O160  1  0.79647000  0.65429000  0.30340000  1.0
  O  O161  1  0.42232000  0.62214000  0.27155000  1.0
  O  O162  1  0.36775000  0.60834000  0.35179000  1.0
  O  O163  1  0.14211000  0.64908000  0.34564000  1.0
  O  O164  1  0.80018000  0.64941000  0.37784000  1.0
  O  O165  1  0.24089000  0.25660000  0.60834000  1.0
  O  O166  1  0.50718000  0.30349000  0.64913000  1.0
  O  O167  1  0.84937000  0.27159000  0.64947000  1.0
  O  O168  1  0.98422000  0.35172000  0.74349000  1.0
  O  O169  1  0.20353000  0.34571000  0.69660000  1.0
  O  O170  1  0.57768000  0.37786000  0.72845000  1.0
  O  O171  1  0.63225000  0.39166000  0.64821000  1.0
  O  O172  1  0.85789000  0.35092000  0.65436000  1.0
  O  O173  1  0.19982000  0.35059000  0.62216000  1.0
