# generated using pymatgen
data_Nd2H42C36S3(N2O3)6
_symmetry_space_group_name_H-M   'P 1'
_cell_length_a   12.14170000
_cell_length_b   16.94980000
_cell_length_c   25.65750000
_cell_angle_alpha   102.24000000
_cell_angle_beta   90.00000000
_cell_angle_gamma   90.00000000
_symmetry_Int_Tables_number   1
_chemical_formula_structural   Nd2H42C36S3(N2O3)6
_chemical_formula_sum   'Nd8 H168 C144 S12 N48 O72'
_cell_volume   5160.26668695
_cell_formula_units_Z   4
loop_
 _symmetry_equiv_pos_site_id
 _symmetry_equiv_pos_as_xyz
  1  'x, y, z'
loop_
 _atom_site_type_symbol
 _atom_site_label
 _atom_site_symmetry_multiplicity
 _atom_site_fract_x
 _atom_site_fract_y
 _atom_site_fract_z
 _atom_site_occupancy
  Nd  Nd0  1  0.52360000  0.51290000  0.58065000  1.0
  Nd  Nd1  1  0.52360000  0.98710000  0.91935000  1.0
  Nd  Nd2  1  0.47640000  0.48710000  0.41935000  1.0
  Nd  Nd3  1  0.47640000  0.01290000  0.08065000  1.0
  Nd  Nd4  1  0.99913000  0.04043000  0.58256000  1.0
  Nd  Nd5  1  0.99913000  0.45957000  0.91743000  1.0
  Nd  Nd6  1  0.00087000  0.95957000  0.41743000  1.0
  Nd  Nd7  1  0.00087000  0.54043000  0.08257000  1.0
  H  H8  1  0.83453000  0.39013000  0.63441000  1.0
  H  H9  1  0.83453000  0.10987000  0.86559000  1.0
  H  H10  1  0.16547000  0.60987000  0.36559000  1.0
  H  H11  1  0.16547000  0.89013000  0.13441000  1.0
  H  H12  1  0.79783000  0.48392000  0.50378000  1.0
  H  H13  1  0.79783000  0.01608000  0.99622000  1.0
  H  H14  1  0.20217000  0.51608000  0.49622000  1.0
  H  H15  1  0.20217000  0.98392000  0.00378000  1.0
  H  H16  1  0.38516000  0.66434000  0.66829000  1.0
  H  H17  1  0.38517000  0.83566000  0.83170000  1.0
  H  H18  1  0.61484000  0.33566000  0.33171000  1.0
  H  H19  1  0.61484000  0.16434000  0.16829000  1.0
  H  H20  1  0.66830000  0.79020000  0.66499000  1.0
  H  H21  1  0.66830000  0.70980000  0.83501000  1.0
  H  H22  1  0.33170000  0.20981000  0.33501000  1.0
  H  H23  1  0.33170000  0.29019000  0.16499000  1.0
  H  H24  1  0.93031000  0.31481000  0.69232000  1.0
  H  H25  1  0.93031000  0.18519000  0.80768000  1.0
  H  H26  1  0.06969000  0.68519000  0.30768000  1.0
  H  H27  1  0.06969000  0.81481000  0.19232000  1.0
  H  H28  1  0.20398000  0.17801000  0.64903000  1.0
  H  H29  1  0.20398000  0.32199000  0.85097000  1.0
  H  H30  1  0.79602000  0.82199000  0.35096000  1.0
  H  H31  1  0.79602000  0.67801000  0.14904000  1.0
  H  H32  1  0.67442000  0.96842000  0.68343000  1.0
  H  H33  1  0.67443000  0.53158000  0.81657000  1.0
  H  H34  1  0.32557000  0.03158000  0.31657000  1.0
  H  H35  1  0.32557000  0.46842000  0.18343000  1.0
  H  H36  1  0.00103000  0.99272000  0.71095000  1.0
  H  H37  1  0.00103000  0.50728000  0.78905000  1.0
  H  H38  1  0.99897000  0.00728000  0.28905000  1.0
  H  H39  1  0.99897000  0.49272000  0.21095000  1.0
  H  H40  1  0.26275000  0.35287000  0.41651000  1.0
  H  H41  1  0.26274000  0.14713000  0.08350000  1.0
  H  H42  1  0.73725000  0.64713000  0.58349000  1.0
  H  H43  1  0.73725000  0.85287000  0.91651000  1.0
  H  H44  1  0.13421000  0.22136000  0.39834000  1.0
  H  H45  1  0.13421000  0.27864000  0.10166000  1.0
  H  H46  1  0.86579000  0.77863000  0.60166000  1.0
  H  H47  1  0.86579000  0.72136000  0.89834000  1.0
  H  H48  1  0.51867000  0.39585000  0.75399000  1.0
  H  H49  1  0.51866000  0.10415000  0.74601000  1.0
  H  H50  1  0.48133000  0.60415000  0.24601000  1.0
  H  H51  1  0.48133000  0.89585000  0.25399000  1.0
  H  H52  1  0.39538000  0.38899000  0.83911000  1.0
  H  H53  1  0.39538000  0.11101000  0.66089000  1.0
  H  H54  1  0.60462000  0.61101000  0.16089000  1.0
  H  H55  1  0.60462000  0.88899000  0.33911000  1.0
  H  H56  1  0.74184000  0.26129000  0.39100000  1.0
  H  H57  1  0.74185000  0.23871000  0.10900000  1.0
  H  H58  1  0.25816000  0.73871000  0.60900000  1.0
  H  H59  1  0.25815000  0.76129000  0.89100000  1.0
  H  H60  1  0.84670000  0.12945000  0.40570000  1.0
  H  H61  1  0.84670000  0.37055000  0.09430000  1.0
  H  H62  1  0.15330000  0.87055000  0.59430000  1.0
  H  H63  1  0.15329000  0.62945000  0.90570000  1.0
  H  H64  1  0.00143000  0.41964000  0.49600000  1.0
  H  H65  1  0.00144000  0.08036000  0.00400000  1.0
  H  H66  1  0.99857000  0.58036000  0.50400000  1.0
  H  H67  1  0.99857000  0.91964000  0.99600000  1.0
  H  H68  1  0.89033000  0.34914000  0.48466000  1.0
  H  H69  1  0.89033000  0.15086000  0.01534000  1.0
  H  H70  1  0.10967000  0.65087000  0.51534000  1.0
  H  H71  1  0.10967000  0.84913000  0.98466000  1.0
  H  H72  1  0.95520000  0.30820000  0.56292000  1.0
  H  H73  1  0.95520000  0.19180000  0.93708000  1.0
  H  H74  1  0.04480000  0.69180000  0.43708000  1.0
  H  H75  1  0.04480000  0.80820000  0.06292000  1.0
  H  H76  1  0.03197000  0.39858000  0.58388000  1.0
  H  H77  1  0.03197000  0.10142000  0.91612000  1.0
  H  H78  1  0.96803000  0.60142000  0.41612000  1.0
  H  H79  1  0.96803000  0.89858000  0.08388000  1.0
  H  H80  1  0.35716000  0.81866000  0.66462000  1.0
  H  H81  1  0.35716000  0.68135000  0.83538000  1.0
  H  H82  1  0.64284000  0.18135000  0.33538000  1.0
  H  H83  1  0.64283000  0.31866000  0.16462000  1.0
  H  H84  1  0.35399000  0.80759000  0.73227000  1.0
  H  H85  1  0.35400000  0.69241000  0.76773000  1.0
  H  H86  1  0.64600000  0.19241000  0.26773000  1.0
  H  H87  1  0.64600000  0.30759000  0.23227000  1.0
  H  H88  1  0.54144000  0.84736000  0.74709000  1.0
  H  H89  1  0.54144000  0.65263000  0.75291000  1.0
  H  H90  1  0.45856000  0.15264000  0.25292000  1.0
  H  H91  1  0.45856000  0.34736000  0.24709000  1.0
  H  H92  1  0.51545000  0.89778000  0.69312000  1.0
  H  H93  1  0.51545000  0.60222000  0.80689000  1.0
  H  H94  1  0.48455000  0.10222000  0.30689000  1.0
  H  H95  1  0.48454000  0.39778000  0.19311000  1.0
  H  H96  1  0.24239000  0.32649000  0.65285000  1.0
  H  H97  1  0.24239000  0.17351000  0.84715000  1.0
  H  H98  1  0.75761000  0.67351000  0.34715000  1.0
  H  H99  1  0.75761000  0.82649000  0.15285000  1.0
  H  H100  1  0.27013000  0.31257000  0.71859000  1.0
  H  H101  1  0.27013000  0.18743000  0.78141000  1.0
  H  H102  1  0.72987000  0.68743000  0.28141000  1.0
  H  H103  1  0.72987000  0.81257000  0.21859000  1.0
  H  H104  1  0.10021000  0.37154000  0.75231000  1.0
  H  H105  1  0.10021000  0.12846000  0.74769000  1.0
  H  H106  1  0.89979000  0.62846000  0.24769000  1.0
  H  H107  1  0.89979000  0.87154000  0.25231000  1.0
  H  H108  1  0.09701000  0.41277000  0.69393000  1.0
  H  H109  1  0.09701000  0.08723000  0.80606000  1.0
  H  H110  1  0.90299000  0.58723000  0.30606000  1.0
  H  H111  1  0.90299000  0.91277000  0.19394000  1.0
  H  H112  1  0.72083000  0.00736000  0.78587000  1.0
  H  H113  1  0.72084000  0.49264000  0.71413000  1.0
  H  H114  1  0.27916000  0.99264000  0.21413000  1.0
  H  H115  1  0.27917000  0.50736000  0.28587000  1.0
  H  H116  1  0.71825000  0.90026000  0.76613000  1.0
  H  H117  1  0.71825000  0.59974000  0.73388000  1.0
  H  H118  1  0.28175000  0.09974000  0.23388000  1.0
  H  H119  1  0.28176000  0.40027000  0.26612000  1.0
  H  H120  1  0.91572000  0.89126000  0.75800000  1.0
  H  H121  1  0.91572000  0.60874000  0.74200000  1.0
  H  H122  1  0.08428000  0.10874000  0.24200000  1.0
  H  H123  1  0.08428000  0.39126000  0.25800000  1.0
  H  H124  1  0.90922000  0.98518000  0.80551000  1.0
  H  H125  1  0.90922000  0.51482000  0.69449000  1.0
  H  H126  1  0.09078000  0.01482000  0.19449000  1.0
  H  H127  1  0.09078000  0.48518000  0.30551000  1.0
  H  H128  1  0.81367000  0.18431000  0.66732000  1.0
  H  H129  1  0.81366000  0.31569000  0.83268000  1.0
  H  H130  1  0.18634000  0.81569000  0.33268000  1.0
  H  H131  1  0.18634000  0.68431000  0.16732000  1.0
  H  H132  1  0.58428000  0.35952000  0.66691000  1.0
  H  H133  1  0.58428000  0.14047000  0.83309000  1.0
  H  H134  1  0.41573000  0.64048000  0.33309000  1.0
  H  H135  1  0.41573000  0.85953000  0.16691000  1.0
  H  H136  1  0.49280000  0.22275000  0.62612000  1.0
  H  H137  1  0.49280000  0.27725000  0.87388000  1.0
  H  H138  1  0.50720000  0.77725000  0.37388000  1.0
  H  H139  1  0.50720000  0.72275000  0.12613000  1.0
  H  H140  1  0.50121000  0.23028000  0.69645000  1.0
  H  H141  1  0.50121000  0.26972000  0.80355000  1.0
  H  H142  1  0.49879000  0.76972000  0.30355000  1.0
  H  H143  1  0.49879000  0.73028000  0.19646000  1.0
  H  H144  1  0.62004000  0.11360000  0.67128000  1.0
  H  H145  1  0.62004000  0.38640000  0.82872000  1.0
  H  H146  1  0.37996000  0.88640000  0.32872000  1.0
  H  H147  1  0.37996000  0.61360000  0.17129000  1.0
  H  H148  1  0.65328000  0.13772000  0.60915000  1.0
  H  H149  1  0.65328000  0.36228000  0.89085000  1.0
  H  H150  1  0.34672000  0.86228000  0.39085000  1.0
  H  H151  1  0.34673000  0.63772000  0.10915000  1.0
  H  H152  1  0.43552000  0.87950000  0.56221000  1.0
  H  H153  1  0.43552000  0.62050000  0.93779000  1.0
  H  H154  1  0.56448000  0.12050000  0.43779000  1.0
  H  H155  1  0.56448000  0.37950000  0.06220000  1.0
  H  H156  1  0.73339000  0.98757000  0.58143000  1.0
  H  H157  1  0.73338000  0.51242000  0.91857000  1.0
  H  H158  1  0.26661000  0.01243000  0.41857000  1.0
  H  H159  1  0.26662000  0.48757000  0.08143000  1.0
  H  H160  1  0.49696000  0.89237000  0.46526000  1.0
  H  H161  1  0.49696000  0.60762000  0.03474000  1.0
  H  H162  1  0.50304000  0.10762000  0.53474000  1.0
  H  H163  1  0.50304000  0.39238000  0.96526000  1.0
  H  H164  1  0.57366000  0.82001000  0.49219000  1.0
  H  H165  1  0.57366000  0.67999000  0.00781000  1.0
  H  H166  1  0.42634000  0.17998000  0.50781000  1.0
  H  H167  1  0.42634000  0.32001000  0.99218000  1.0
  H  H168  1  0.72367000  0.90959000  0.48181000  1.0
  H  H169  1  0.72367000  0.59041000  0.01819000  1.0
  H  H170  1  0.27633000  0.09041000  0.51819000  1.0
  H  H171  1  0.27633000  0.40959000  0.98181000  1.0
  H  H172  1  0.63513000  0.99448000  0.48973000  1.0
  H  H173  1  0.63513000  0.50551000  0.01027000  1.0
  H  H174  1  0.36487000  0.00551000  0.51027000  1.0
  H  H175  1  0.36487000  0.49449000  0.98973000  1.0
  C  C176  1  0.27120000  0.34023000  0.49916000  1.0
  C  C177  1  0.27120000  0.15977000  0.00084000  1.0
  C  C178  1  0.72880000  0.65977000  0.50084000  1.0
  C  C179  1  0.72880000  0.84023000  0.99916000  1.0
  C  C180  1  0.23699000  0.31963000  0.44637000  1.0
  C  C181  1  0.23699000  0.18037000  0.05363000  1.0
  C  C182  1  0.76301000  0.68038000  0.55363000  1.0
  C  C183  1  0.76301000  0.81962000  0.94637000  1.0
  C  C184  1  0.16942000  0.25031000  0.43668000  1.0
  C  C185  1  0.16942000  0.24969000  0.06332000  1.0
  C  C186  1  0.83058000  0.74969000  0.56332000  1.0
  C  C187  1  0.83058000  0.75031000  0.93668000  1.0
  C  C188  1  0.15125000  0.22044000  0.48224000  1.0
  C  C189  1  0.15125000  0.27956000  0.01776000  1.0
  C  C190  1  0.84875000  0.77956000  0.51776000  1.0
  C  C191  1  0.84875000  0.72044000  0.98224000  1.0
  C  C192  1  0.34722000  0.40399000  0.52491000  1.0
  C  C193  1  0.34722000  0.09601000  0.97509000  1.0
  C  C194  1  0.65278000  0.59601000  0.47508000  1.0
  C  C195  1  0.65278000  0.90399000  0.02492000  1.0
  C  C196  1  0.08943000  0.14738000  0.48766000  1.0
  C  C197  1  0.08943000  0.35262000  0.01234000  1.0
  C  C198  1  0.91057000  0.85262000  0.51234000  1.0
  C  C199  1  0.91057000  0.64737000  0.98766000  1.0
  C  C200  1  0.39392000  0.47529000  0.73279000  1.0
  C  C201  1  0.39391000  0.02471000  0.76721000  1.0
  C  C202  1  0.60608000  0.52470000  0.26721000  1.0
  C  C203  1  0.60608000  0.97530000  0.23279000  1.0
  C  C204  1  0.44000000  0.42611000  0.76375000  1.0
  C  C205  1  0.43999000  0.07389000  0.73625000  1.0
  C  C206  1  0.56000000  0.57389000  0.23625000  1.0
  C  C207  1  0.56000000  0.92611000  0.26375000  1.0
  C  C208  1  0.37500000  0.42222000  0.80856000  1.0
  C  C209  1  0.37500000  0.07778000  0.69144000  1.0
  C  C210  1  0.62499000  0.57779000  0.19144000  1.0
  C  C211  1  0.62500000  0.92221000  0.30856000  1.0
  C  C212  1  0.27974000  0.46778000  0.81100000  1.0
  C  C213  1  0.27974000  0.03222000  0.68900000  1.0
  C  C214  1  0.72026000  0.53222000  0.18900000  1.0
  C  C215  1  0.72026000  0.96778000  0.31100000  1.0
  C  C216  1  0.43861000  0.49457000  0.68357000  1.0
  C  C217  1  0.43861000  0.00543000  0.81643000  1.0
  C  C218  1  0.56139000  0.50543000  0.31643000  1.0
  C  C219  1  0.56139000  0.99457000  0.18357000  1.0
  C  C220  1  0.19095000  0.47279000  0.85045000  1.0
  C  C221  1  0.19095000  0.02721000  0.64955000  1.0
  C  C222  1  0.80905000  0.52721000  0.14955000  1.0
  C  C223  1  0.80905000  0.97279000  0.35045000  1.0
  C  C224  1  0.68683000  0.27938000  0.47297000  1.0
  C  C225  1  0.68683000  0.22062000  0.02703000  1.0
  C  C226  1  0.31317000  0.72063000  0.52703000  1.0
  C  C227  1  0.31317000  0.77938000  0.97297000  1.0
  C  C228  1  0.74154000  0.23888000  0.42767000  1.0
  C  C229  1  0.74154000  0.26112000  0.07233000  1.0
  C  C230  1  0.25846000  0.76113000  0.57233000  1.0
  C  C231  1  0.25846000  0.73888000  0.92767000  1.0
  C  C232  1  0.79758000  0.16938000  0.43573000  1.0
  C  C233  1  0.79759000  0.33062000  0.06427000  1.0
  C  C234  1  0.20242000  0.83063000  0.56427000  1.0
  C  C235  1  0.20241000  0.66938000  0.93573000  1.0
  C  C236  1  0.78516000  0.15837000  0.48751000  1.0
  C  C237  1  0.78516000  0.34163000  0.01249000  1.0
  C  C238  1  0.21484000  0.84163000  0.51249000  1.0
  C  C239  1  0.21483000  0.65837000  0.98751000  1.0
  C  C240  1  0.62083000  0.35477000  0.48064000  1.0
  C  C241  1  0.62083000  0.14523000  0.01936000  1.0
  C  C242  1  0.37917000  0.64523000  0.51936000  1.0
  C  C243  1  0.37917000  0.85477000  0.98064000  1.0
  C  C244  1  0.83335000  0.09740000  0.51400000  1.0
  C  C245  1  0.83335000  0.40260000  0.98600000  1.0
  C  C246  1  0.16665000  0.90260000  0.48600000  1.0
  C  C247  1  0.16665000  0.59740000  0.01400000  1.0
  C  C248  1  0.92727000  0.39926000  0.51377000  1.0
  C  C249  1  0.92727000  0.10074000  0.98623000  1.0
  C  C250  1  0.07274000  0.60074000  0.48623000  1.0
  C  C251  1  0.07273000  0.89926000  0.01377000  1.0
  C  C252  1  0.95244000  0.37397000  0.56719000  1.0
  C  C253  1  0.95244000  0.12603000  0.93281000  1.0
  C  C254  1  0.04756000  0.62603000  0.43281000  1.0
  C  C255  1  0.04756000  0.87397000  0.06719000  1.0
  C  C256  1  0.80223000  0.46146000  0.57891000  1.0
  C  C257  1  0.80222000  0.03854000  0.92109000  1.0
  C  C258  1  0.19778000  0.53854000  0.42109000  1.0
  C  C259  1  0.19778000  0.96146000  0.07891000  1.0
  C  C260  1  0.40361000  0.79720000  0.69579000  1.0
  C  C261  1  0.40361000  0.70280000  0.80421000  1.0
  C  C262  1  0.59639000  0.20280000  0.30421000  1.0
  C  C263  1  0.59639000  0.29720000  0.19579000  1.0
  C  C264  1  0.51604000  0.83968000  0.70513000  1.0
  C  C265  1  0.51604000  0.66031000  0.79487000  1.0
  C  C266  1  0.48396000  0.16031000  0.29487000  1.0
  C  C267  1  0.48396000  0.33968000  0.20513000  1.0
  C  C268  1  0.54100000  0.70654000  0.65967000  1.0
  C  C269  1  0.54100000  0.79346000  0.84033000  1.0
  C  C270  1  0.45900000  0.29346000  0.34033000  1.0
  C  C271  1  0.45900000  0.20654000  0.15967000  1.0
  C  C272  1  0.20668000  0.30709000  0.68756000  1.0
  C  C273  1  0.20668000  0.19291000  0.81244000  1.0
  C  C274  1  0.79332000  0.69291000  0.31244000  1.0
  C  C275  1  0.79332000  0.80709000  0.18756000  1.0
  C  C276  1  0.10236000  0.35643000  0.70847000  1.0
  C  C277  1  0.10236000  0.14357000  0.79153000  1.0
  C  C278  1  0.89764000  0.64357000  0.29153000  1.0
  C  C279  1  0.89764000  0.85643000  0.20847000  1.0
  C  C280  1  0.05105000  0.22552000  0.66959000  1.0
  C  C281  1  0.05105000  0.27448000  0.83041000  1.0
  C  C282  1  0.94895000  0.77448000  0.33041000  1.0
  C  C283  1  0.94895000  0.72551000  0.16959000  1.0
  C  C284  1  0.75746000  0.95510000  0.75868000  1.0
  C  C285  1  0.75746000  0.54490000  0.74132000  1.0
  C  C286  1  0.24254000  0.04490000  0.24132000  1.0
  C  C287  1  0.24254000  0.45511000  0.25868000  1.0
  C  C288  1  0.88382000  0.95369000  0.76544000  1.0
  C  C289  1  0.88383000  0.54631000  0.73456000  1.0
  C  C290  1  0.11617000  0.04631000  0.23456000  1.0
  C  C291  1  0.11618000  0.45370000  0.26544000  1.0
  C  C292  1  0.84114000  0.99339000  0.68679000  1.0
  C  C293  1  0.84115000  0.50660000  0.81321000  1.0
  C  C294  1  0.15885000  0.00661000  0.31321000  1.0
  C  C295  1  0.15886000  0.49340000  0.18679000  1.0
  C  C296  1  0.54998000  0.22971000  0.66000000  1.0
  C  C297  1  0.54998000  0.27029000  0.84000000  1.0
  C  C298  1  0.45002000  0.77029000  0.34001000  1.0
  C  C299  1  0.45002000  0.72971000  0.16000000  1.0
  C  C300  1  0.63955000  0.16341000  0.65176000  1.0
  C  C301  1  0.63955000  0.33659000  0.84824000  1.0
  C  C302  1  0.36045000  0.83659000  0.34825000  1.0
  C  C303  1  0.36045000  0.66341000  0.15176000  1.0
  C  C304  1  0.72226000  0.28898000  0.67638000  1.0
  C  C305  1  0.72226000  0.21102000  0.82362000  1.0
  C  C306  1  0.27774000  0.71102000  0.32362000  1.0
  C  C307  1  0.27774000  0.78898000  0.17638000  1.0
  C  C308  1  0.55015000  0.88421000  0.49830000  1.0
  C  C309  1  0.55014000  0.61579000  0.00170000  1.0
  C  C310  1  0.44985000  0.11579000  0.50170000  1.0
  C  C311  1  0.44985000  0.38421000  0.99830000  1.0
  C  C312  1  0.65258000  0.93888000  0.50402000  1.0
  C  C313  1  0.65258000  0.56112000  0.99598000  1.0
  C  C314  1  0.34741000  0.06112000  0.49598000  1.0
  C  C315  1  0.34742000  0.43888000  0.00402000  1.0
  C  C316  1  0.57494000  0.94548000  0.58769000  1.0
  C  C317  1  0.57495000  0.55452000  0.91232000  1.0
  C  C318  1  0.42506000  0.05452000  0.41231000  1.0
  C  C319  1  0.42505000  0.44547000  0.08768000  1.0
  S  S320  1  0.21758000  0.27648000  0.53677000  1.0
  S  S321  1  0.21758000  0.22351000  0.96323000  1.0
  S  S322  1  0.78242000  0.72352000  0.46323000  1.0
  S  S323  1  0.78242000  0.77648000  0.03677000  1.0
  S  S324  1  0.27109000  0.51657000  0.75874000  1.0
  S  S325  1  0.27109000  0.98343000  0.74126000  1.0
  S  S326  1  0.72891000  0.48343000  0.24126000  1.0
  S  S327  1  0.72891000  0.01657000  0.25874000  1.0
  S  S328  1  0.70729000  0.23392000  0.52600000  1.0
  S  S329  1  0.70729000  0.26608000  0.97400000  1.0
  S  S330  1  0.29271000  0.76608000  0.47399000  1.0
  S  S331  1  0.29271000  0.73392000  0.02600000  1.0
  N  N332  1  0.86151000  0.40982000  0.60115000  1.0
  N  N333  1  0.86151000  0.09018000  0.89885000  1.0
  N  N334  1  0.13850000  0.59019000  0.39885000  1.0
  N  N335  1  0.13850000  0.90982000  0.10115000  1.0
  N  N336  1  0.84824000  0.46540000  0.53041000  1.0
  N  N337  1  0.84824000  0.03461000  0.96960000  1.0
  N  N338  1  0.15176000  0.53461000  0.46959000  1.0
  N  N339  1  0.15176000  0.96539000  0.03041000  1.0
  N  N340  1  0.43597000  0.71299000  0.67849000  1.0
  N  N341  1  0.43598000  0.78701000  0.82150000  1.0
  N  N342  1  0.56403000  0.28701000  0.32150000  1.0
  N  N343  1  0.56403000  0.21299000  0.17849000  1.0
  N  N344  1  0.58686000  0.78164000  0.67007000  1.0
  N  N345  1  0.58686000  0.71836000  0.82993000  1.0
  N  N346  1  0.41314000  0.21836000  0.32993000  1.0
  N  N347  1  0.41314000  0.28164000  0.17007000  1.0
  N  N348  1  0.01359000  0.30117000  0.68752000  1.0
  N  N349  1  0.01359000  0.19883000  0.81248000  1.0
  N  N350  1  0.98641000  0.69883000  0.31248000  1.0
  N  N351  1  0.98640000  0.80117000  0.18752000  1.0
  N  N352  1  0.16349000  0.22486000  0.67315000  1.0
  N  N353  1  0.16349000  0.27514000  0.82685000  1.0
  N  N354  1  0.83651000  0.77514000  0.32685000  1.0
  N  N355  1  0.83651000  0.72486000  0.17315000  1.0
  N  N356  1  0.74730000  0.96211000  0.70293000  1.0
  N  N357  1  0.74730000  0.53788000  0.79707000  1.0
  N  N358  1  0.25270000  0.03788000  0.29707000  1.0
  N  N359  1  0.25270000  0.46212000  0.20293000  1.0
  N  N360  1  0.92143000  0.99546000  0.72436000  1.0
  N  N361  1  0.92143000  0.50453000  0.77564000  1.0
  N  N362  1  0.07857000  0.00454000  0.27564000  1.0
  N  N363  1  0.07857000  0.49547000  0.22436000  1.0
  N  N364  1  0.73672000  0.20854000  0.67499000  1.0
  N  N365  1  0.73672000  0.29146000  0.82501000  1.0
  N  N366  1  0.26328000  0.79146000  0.32501000  1.0
  N  N367  1  0.26328000  0.70854000  0.17499000  1.0
  N  N368  1  0.61548000  0.30268000  0.66546000  1.0
  N  N369  1  0.61548000  0.19732000  0.83454000  1.0
  N  N370  1  0.38452000  0.69732000  0.33454000  1.0
  N  N371  1  0.38452000  0.80268000  0.16546000  1.0
  N  N372  1  0.49662000  0.91234000  0.55009000  1.0
  N  N373  1  0.49662000  0.58766000  0.94990000  1.0
  N  N374  1  0.50338000  0.08766000  0.44991000  1.0
  N  N375  1  0.50338000  0.41234000  0.05010000  1.0
  N  N376  1  0.66935000  0.95558000  0.56158000  1.0
  N  N377  1  0.66935000  0.54442000  0.93841000  1.0
  N  N378  1  0.33065000  0.04442000  0.43841000  1.0
  N  N379  1  0.33065000  0.45558000  0.06159000  1.0
  O  O380  1  0.38989000  0.45160000  0.49726000  1.0
  O  O381  1  0.38989000  0.04840000  0.00275000  1.0
  O  O382  1  0.61011000  0.54840000  0.50274000  1.0
  O  O383  1  0.61011000  0.95160000  0.99726000  1.0
  O  O384  1  0.36967000  0.41083000  0.57391000  1.0
  O  O385  1  0.36967000  0.08917000  0.92609000  1.0
  O  O386  1  0.63033000  0.58917000  0.42609000  1.0
  O  O387  1  0.63034000  0.91083000  0.07391000  1.0
  O  O388  1  0.06611000  0.14091000  0.53508000  1.0
  O  O389  1  0.06611000  0.35909000  0.96492000  1.0
  O  O390  1  0.93389000  0.85909000  0.46492000  1.0
  O  O391  1  0.93389000  0.64091000  0.03508000  1.0
  O  O392  1  0.06741000  0.09716000  0.44475000  1.0
  O  O393  1  0.06742000  0.40284000  0.05525000  1.0
  O  O394  1  0.93259000  0.90284000  0.55525000  1.0
  O  O395  1  0.93259000  0.59716000  0.94475000  1.0
  O  O396  1  0.38927000  0.54572000  0.66196000  1.0
  O  O397  1  0.38927000  0.95428000  0.83804000  1.0
  O  O398  1  0.61073000  0.45428000  0.33804000  1.0
  O  O399  1  0.61074000  0.04572000  0.16196000  1.0
  O  O400  1  0.52678000  0.45835000  0.66385000  1.0
  O  O401  1  0.52677000  0.04165000  0.83615000  1.0
  O  O402  1  0.47322000  0.54165000  0.33615000  1.0
  O  O403  1  0.47322000  0.95835000  0.16385000  1.0
  O  O404  1  0.20016000  0.43265000  0.88703000  1.0
  O  O405  1  0.20016000  0.06735000  0.61297000  1.0
  O  O406  1  0.79984000  0.56735000  0.11297000  1.0
  O  O407  1  0.79984000  0.93264000  0.38703000  1.0
  O  O408  1  0.10476000  0.51532000  0.84647000  1.0
  O  O409  1  0.10475000  0.98467000  0.65353000  1.0
  O  O410  1  0.89524000  0.48467000  0.15353000  1.0
  O  O411  1  0.89524000  0.01532000  0.34647000  1.0
  O  O412  1  0.59137000  0.38447000  0.52834000  1.0
  O  O413  1  0.59137000  0.11554000  0.97166000  1.0
  O  O414  1  0.40863000  0.61554000  0.47166000  1.0
  O  O415  1  0.40864000  0.88446000  0.02834000  1.0
  O  O416  1  0.60015000  0.38299000  0.43950000  1.0
  O  O417  1  0.60015000  0.11701000  0.06050000  1.0
  O  O418  1  0.39986000  0.61701000  0.56050000  1.0
  O  O419  1  0.39986000  0.88299000  0.93950000  1.0
  O  O420  1  0.82516000  0.10972000  0.56459000  1.0
  O  O421  1  0.82516000  0.39028000  0.93541000  1.0
  O  O422  1  0.17484000  0.89028000  0.43541000  1.0
  O  O423  1  0.17484000  0.60972000  0.06459000  1.0
  O  O424  1  0.88443000  0.03571000  0.48759000  1.0
  O  O425  1  0.88443000  0.46429000  0.01241000  1.0
  O  O426  1  0.11556000  0.96429000  0.51241000  1.0
  O  O427  1  0.11557000  0.53571000  0.98759000  1.0
  O  O428  1  0.72067000  0.50175000  0.59978000  1.0
  O  O429  1  0.72067000  0.99826000  0.90022000  1.0
  O  O430  1  0.27934000  0.49826000  0.40022000  1.0
  O  O431  1  0.27934000  0.00174000  0.09978000  1.0
  O  O432  1  0.58856000  0.64236000  0.63719000  1.0
  O  O433  1  0.58856000  0.85764000  0.86281000  1.0
  O  O434  1  0.41144000  0.35764000  0.36281000  1.0
  O  O435  1  0.41144000  0.14235000  0.13719000  1.0
  O  O436  1  0.99127000  0.16402000  0.65315000  1.0
  O  O437  1  0.99127000  0.33598000  0.84685000  1.0
  O  O438  1  0.00873000  0.83598000  0.34685000  1.0
  O  O439  1  0.00873000  0.66402000  0.15315000  1.0
  O  O440  1  0.85167000  0.01735000  0.64377000  1.0
  O  O441  1  0.85167000  0.48265000  0.85623000  1.0
  O  O442  1  0.14833000  0.98265000  0.35623000  1.0
  O  O443  1  0.14833000  0.51735000  0.14377000  1.0
  O  O444  1  0.79563000  0.34273000  0.68667000  1.0
  O  O445  1  0.79563000  0.15727000  0.81333000  1.0
  O  O446  1  0.20437000  0.65728000  0.31333000  1.0
  O  O447  1  0.20437000  0.84273000  0.18667000  1.0
  O  O448  1  0.55913000  0.96401000  0.63691000  1.0
  O  O449  1  0.55913000  0.53599000  0.86308000  1.0
  O  O450  1  0.44087000  0.03599000  0.36309000  1.0
  O  O451  1  0.44087000  0.46401000  0.13692000  1.0
