# generated using pymatgen
data_NiHC4O3
_symmetry_space_group_name_H-M   'P 1'
_cell_length_a   6.80032000
_cell_length_b   15.29359566
_cell_length_c   15.29620000
_cell_angle_alpha   117.83971588
_cell_angle_beta   98.52400000
_cell_angle_gamma   98.51935517
_symmetry_Int_Tables_number   1
_chemical_formula_structural   NiHC4O3
_chemical_formula_sum   'Ni6 H6 C24 O18'
_cell_volume   1347.50084760
_cell_formula_units_Z   6
loop_
 _symmetry_equiv_pos_site_id
 _symmetry_equiv_pos_as_xyz
  1  'x, y, z'
loop_
 _atom_site_type_symbol
 _atom_site_label
 _atom_site_symmetry_multiplicity
 _atom_site_fract_x
 _atom_site_fract_y
 _atom_site_fract_z
 _atom_site_occupancy
  Ni  Ni0  1  0.13209000  0.30446000  0.72118000  1.0
  Ni  Ni1  1  0.82787000  0.41682000  0.69567000  1.0
  Ni  Ni2  1  0.41112000  0.27895000  0.58344000  1.0
  Ni  Ni3  1  0.82767000  0.69551000  0.41658000  1.0
  Ni  Ni4  1  0.13218000  0.72114000  0.30432000  1.0
  Ni  Ni5  1  0.41091000  0.58327000  0.27882000  1.0
  H  H6  1  0.25410000  0.52919000  0.00000000  1.0
  H  H7  1  0.72481000  0.47082000  0.47078000  1.0
  H  H8  1  0.25401000  0.00004000  0.52923000  1.0
  H  H9  1  0.52673000  0.43598000  0.00000000  1.0
  H  H10  1  0.09081000  0.56420000  0.56429000  1.0
  H  H11  1  0.52650000  0.99990000  0.43571000  1.0
  C  C12  1  0.94795000  0.45088000  0.90542000  1.0
  C  C13  1  0.49707000  0.45456000  0.54917000  1.0
  C  C14  1  0.04229000  0.09457000  0.54548000  1.0
  C  C15  1  0.49681000  0.54908000  0.45451000  1.0
  C  C16  1  0.94788000  0.90539000  0.45083000  1.0
  C  C17  1  0.04254000  0.54545000  0.09457000  1.0
  C  C18  1  0.09418000  0.50739000  1.00000000  1.0
  C  C19  1  0.58664000  0.49257000  0.49256000  1.0
  C  C20  1  0.09406000  0.00001000  0.50743000  1.0
  C  C21  1  0.73602000  0.42353000  0.90615000  1.0
  C  C22  1  0.31250000  0.48271000  0.57660000  1.0
  C  C23  1  0.82954000  0.09381000  0.51737000  1.0
  C  C24  1  0.31215000  0.57644000  0.48262000  1.0
  C  C25  1  0.73585000  0.90610000  0.42340000  1.0
  C  C26  1  0.82984000  0.51738000  0.09385000  1.0
  C  C27  1  0.56107000  0.37116000  0.81643000  1.0
  C  C28  1  0.18996000  0.44536000  0.62900000  1.0
  C  C29  1  0.74436000  0.18360000  0.55483000  1.0
  C  C30  1  0.18953000  0.62877000  0.44516000  1.0
  C  C31  1  0.56095000  0.81635000  0.37101000  1.0
  C  C32  1  0.74465000  0.55473000  0.18358000  1.0
  C  C33  1  0.68712000  0.45624000  0.00000000  1.0
  C  C34  1  0.23080000  0.54386000  0.54390000  1.0
  C  C35  1  0.68687000  0.99995000  0.45610000  1.0
  O  O36  1  0.01206000  0.42972000  0.82096000  1.0
  O  O37  1  0.58242000  0.39133000  0.57043000  1.0
  O  O38  1  0.19072000  0.17905000  0.60880000  1.0
  O  O39  1  0.58193000  0.57024000  0.39118000  1.0
  O  O40  1  0.01199000  0.82090000  0.42958000  1.0
  O  O41  1  0.19111000  0.60876000  0.17904000  1.0
  O  O42  1  0.58809000  0.36230000  0.73064000  1.0
  O  O43  1  0.22559000  0.36828000  0.63766000  1.0
  O  O44  1  0.85714000  0.26938000  0.63175000  1.0
  O  O45  1  0.22536000  0.63761000  0.36824000  1.0
  O  O46  1  0.58791000  0.73060000  0.36233000  1.0
  O  O47  1  0.85743000  0.63164000  0.26935000  1.0
  O  O48  1  0.38396000  0.33922000  0.82410000  1.0
  O  O49  1  0.04496000  0.48507000  0.66105000  1.0
  O  O50  1  0.55954000  0.17590000  0.51522000  1.0
  O  O51  1  0.04435000  0.66068000  0.48478000  1.0
  O  O52  1  0.38390000  0.82401000  0.33896000  1.0
  O  O53  1  0.55988000  0.51512000  0.17590000  1.0
