# generated using pymatgen
data_CdH24C22N2O7
_symmetry_space_group_name_H-M   'P 1'
_cell_length_a   7.67611000
_cell_length_b   16.49780000
_cell_length_c   21.22980000
_cell_angle_alpha   90.00010000
_cell_angle_beta   90.00030000
_cell_angle_gamma   79.69600000
_symmetry_Int_Tables_number   1
_chemical_formula_structural   CdH24C22N2O7
_chemical_formula_sum   'Cd4 H96 C88 N8 O28'
_cell_volume   2645.16015430
_cell_formula_units_Z   4
loop_
 _symmetry_equiv_pos_site_id
 _symmetry_equiv_pos_as_xyz
  1  'x, y, z'
loop_
 _atom_site_type_symbol
 _atom_site_label
 _atom_site_symmetry_multiplicity
 _atom_site_fract_x
 _atom_site_fract_y
 _atom_site_fract_z
 _atom_site_occupancy
  Cd  Cd0  1  0.64967000  0.96319000  0.82798000  1.0
  Cd  Cd1  1  0.85034000  0.03682000  0.32797000  1.0
  Cd  Cd2  1  0.35034000  0.03681000  0.17202000  1.0
  Cd  Cd3  1  0.14967000  0.96319000  0.67202000  1.0
  H  H4  1  0.65742000  0.26863000  0.83158000  1.0
  H  H5  1  0.84256000  0.73137000  0.33158000  1.0
  H  H6  1  0.34258000  0.73137000  0.16843000  1.0
  H  H7  1  0.15741000  0.26862000  0.66842000  1.0
  H  H8  1  0.67236000  0.40052000  0.77500000  1.0
  H  H9  1  0.82765000  0.59948000  0.27500000  1.0
  H  H10  1  0.32764000  0.59948000  0.22501000  1.0
  H  H11  1  0.17236000  0.40051000  0.72500000  1.0
  H  H12  1  0.65783000  0.40711000  0.65954000  1.0
  H  H13  1  0.84219000  0.59289000  0.15955000  1.0
  H  H14  1  0.34217000  0.59289000  0.34046000  1.0
  H  H15  1  0.15782000  0.40711000  0.84045000  1.0
  H  H16  1  0.62758000  0.14851000  0.65314000  1.0
  H  H17  1  0.87237000  0.85149000  0.15314000  1.0
  H  H18  1  0.37239000  0.85149000  0.34687000  1.0
  H  H19  1  0.12759000  0.14850000  0.84686000  1.0
  H  H20  1  0.60180000  0.33162000  0.49484000  1.0
  H  H21  1  0.89818000  0.66838000  0.99483000  1.0
  H  H22  1  0.39819000  0.66836000  0.50517000  1.0
  H  H23  1  0.10181000  0.33163000  0.00516000  1.0
  H  H24  1  0.67775000  0.39501000  0.55089000  1.0
  H  H25  1  0.82224000  0.60499000  0.05088000  1.0
  H  H26  1  0.32226000  0.60498000  0.44911000  1.0
  H  H27  1  0.17774000  0.39501000  0.94911000  1.0
  H  H28  1  0.46823000  0.51342000  0.57287000  1.0
  H  H29  1  0.03177000  0.48658000  0.07286000  1.0
  H  H30  1  0.53178000  0.48658000  0.42714000  1.0
  H  H31  1  0.96823000  0.51342000  0.92713000  1.0
  H  H32  1  0.15671000  0.58390000  0.59004000  1.0
  H  H33  1  0.34329000  0.41610000  0.09003000  1.0
  H  H34  1  0.84330000  0.41610000  0.40997000  1.0
  H  H35  1  0.65671000  0.58390000  0.90996000  1.0
  H  H36  1  0.97933000  0.35324000  0.56412000  1.0
  H  H37  1  0.52064000  0.64677000  0.06412000  1.0
  H  H38  1  0.02066000  0.64677000  0.43588000  1.0
  H  H39  1  0.47932000  0.35324000  0.93589000  1.0
  H  H40  1  0.28780000  0.28296000  0.54864000  1.0
  H  H41  1  0.21217000  0.71704000  0.04863000  1.0
  H  H42  1  0.71219000  0.71703000  0.45136000  1.0
  H  H43  1  0.78779000  0.28296000  0.95136000  1.0
  H  H44  1  0.79740000  0.52041000  0.53368000  1.0
  H  H45  1  0.70258000  0.47960000  0.03368000  1.0
  H  H46  1  0.20259000  0.47958000  0.46632000  1.0
  H  H47  1  0.29739000  0.52041000  0.96631000  1.0
  H  H48  1  0.78151000  0.48095000  0.61015000  1.0
  H  H49  1  0.71848000  0.51906000  0.11015000  1.0
  H  H50  1  0.21850000  0.51904000  0.38985000  1.0
  H  H51  1  0.28151000  0.48095000  0.88985000  1.0
  H  H52  1  0.91850000  0.49165000  0.69806000  1.0
  H  H53  1  0.58156000  0.50836000  0.19807000  1.0
  H  H54  1  0.08156000  0.50835000  0.30193000  1.0
  H  H55  1  0.41849000  0.49166000  0.80193000  1.0
  H  H56  1  0.91174000  0.52406000  0.81050000  1.0
  H  H57  1  0.58835000  0.47595000  0.31050000  1.0
  H  H58  1  0.08839000  0.47594000  0.18950000  1.0
  H  H59  1  0.41174000  0.52407000  0.68950000  1.0
  H  H60  1  0.82502000  0.67076000  0.84766000  1.0
  H  H61  1  0.67504000  0.32925000  0.34766000  1.0
  H  H62  1  0.17509000  0.32924000  0.15233000  1.0
  H  H63  1  0.32500000  0.67076000  0.65234000  1.0
  H  H64  1  0.74785000  0.75018000  0.65551000  1.0
  H  H65  1  0.75212000  0.24982000  0.15550000  1.0
  H  H66  1  0.25208000  0.24981000  0.34449000  1.0
  H  H67  1  0.24786000  0.75018000  0.84450000  1.0
  H  H68  1  0.62984000  0.22337000  0.56209000  1.0
  H  H69  1  0.87013000  0.77663000  0.06210000  1.0
  H  H70  1  0.37014000  0.77663000  0.43792000  1.0
  H  H71  1  0.12985000  0.22336000  0.93791000  1.0
  H  H72  1  0.78319000  0.64737000  0.57445000  1.0
  H  H73  1  0.71679000  0.35263000  0.07444000  1.0
  H  H74  1  0.21680000  0.35262000  0.42555000  1.0
  H  H75  1  0.28319000  0.64737000  0.92556000  1.0
  H  H76  1  0.28486000  0.01136000  0.81159000  1.0
  H  H77  1  0.21514000  0.98865000  0.31158000  1.0
  H  H78  1  0.71514000  0.98864000  0.18842000  1.0
  H  H79  1  0.78486000  0.01136000  0.68842000  1.0
  H  H80  1  0.32283000  0.91655000  0.81785000  1.0
  H  H81  1  0.17717000  0.08347000  0.31783000  1.0
  H  H82  1  0.67715000  0.08346000  0.18216000  1.0
  H  H83  1  0.82283000  0.91655000  0.68215000  1.0
  H  H84  1  0.03102000  0.91688000  0.81518000  1.0
  H  H85  1  0.46899000  0.08313000  0.31518000  1.0
  H  H86  1  0.96897000  0.08313000  0.18482000  1.0
  H  H87  1  0.53103000  0.91687000  0.68482000  1.0
  H  H88  1  0.99304000  0.01246000  0.81214000  1.0
  H  H89  1  0.50696000  0.98753000  0.31215000  1.0
  H  H90  1  0.00695000  0.98754000  0.18786000  1.0
  H  H91  1  0.49304000  0.01246000  0.68786000  1.0
  H  H92  1  0.69040000  0.03633000  0.94618000  1.0
  H  H93  1  0.80961000  0.96367000  0.44617000  1.0
  H  H94  1  0.30959000  0.96366000  0.05382000  1.0
  H  H95  1  0.19041000  0.03634000  0.55382000  1.0
  H  H96  1  0.85594000  0.97860000  0.91935000  1.0
  H  H97  1  0.64406000  0.02140000  0.41934000  1.0
  H  H98  1  0.14406000  0.02140000  0.08065000  1.0
  H  H99  1  0.35594000  0.97860000  0.58065000  1.0
  C  C100  1  0.63194000  0.12191000  0.77757000  1.0
  C  C101  1  0.86805000  0.87809000  0.27756000  1.0
  C  C102  1  0.36804000  0.87809000  0.22244000  1.0
  C  C103  1  0.13194000  0.12190000  0.72244000  1.0
  C  C104  1  0.64091000  0.20112000  0.74539000  1.0
  C  C105  1  0.85906000  0.79888000  0.24539000  1.0
  C  C106  1  0.35908000  0.79887000  0.25462000  1.0
  C  C107  1  0.14091000  0.20112000  0.75461000  1.0
  C  C108  1  0.65365000  0.27190000  0.78046000  1.0
  C  C109  1  0.84633000  0.72810000  0.28046000  1.0
  C  C110  1  0.34635000  0.72809000  0.21955000  1.0
  C  C111  1  0.15365000  0.27190000  0.71954000  1.0
  C  C112  1  0.66067000  0.34500000  0.74862000  1.0
  C  C113  1  0.83933000  0.65500000  0.24862000  1.0
  C  C114  1  0.33933000  0.65500000  0.25139000  1.0
  C  C115  1  0.16066000  0.34499000  0.75138000  1.0
  C  C116  1  0.65419000  0.34866000  0.68293000  1.0
  C  C117  1  0.84579000  0.65134000  0.18293000  1.0
  C  C118  1  0.34580000  0.65134000  0.31707000  1.0
  C  C119  1  0.15419000  0.34865000  0.81707000  1.0
  C  C120  1  0.64576000  0.27750000  0.64726000  1.0
  C  C121  1  0.85422000  0.72249000  0.14726000  1.0
  C  C122  1  0.35423000  0.72249000  0.35275000  1.0
  C  C123  1  0.14576000  0.27750000  0.85274000  1.0
  C  C124  1  0.63793000  0.20410000  0.67965000  1.0
  C  C125  1  0.86205000  0.79590000  0.17965000  1.0
  C  C126  1  0.36205000  0.79590000  0.32036000  1.0
  C  C127  1  0.13793000  0.20409000  0.82035000  1.0
  C  C128  1  0.58851000  0.35047000  0.54460000  1.0
  C  C129  1  0.91148000  0.64954000  0.04459000  1.0
  C  C130  1  0.41150000  0.64953000  0.45541000  1.0
  C  C131  1  0.08850000  0.35047000  0.95540000  1.0
  C  C132  1  0.40002000  0.39359000  0.55755000  1.0
  C  C133  1  0.09996000  0.60642000  0.05754000  1.0
  C  C134  1  0.59998000  0.60641000  0.44245000  1.0
  C  C135  1  0.90002000  0.39359000  0.94245000  1.0
  C  C136  1  0.36098000  0.47804000  0.57056000  1.0
  C  C137  1  0.13901000  0.52197000  0.07055000  1.0
  C  C138  1  0.63903000  0.52196000  0.42944000  1.0
  C  C139  1  0.86097000  0.47804000  0.92944000  1.0
  C  C140  1  0.18653000  0.51803000  0.58011000  1.0
  C  C141  1  0.31346000  0.48197000  0.08011000  1.0
  C  C142  1  0.81349000  0.48196000  0.41989000  1.0
  C  C143  1  0.68651000  0.51804000  0.91989000  1.0
  C  C144  1  0.04689000  0.47446000  0.57668000  1.0
  C  C145  1  0.45310000  0.52554000  0.07667000  1.0
  C  C146  1  0.95311000  0.52554000  0.42333000  1.0
  C  C147  1  0.54689000  0.47446000  0.92333000  1.0
  C  C148  1  0.08568000  0.38925000  0.56567000  1.0
  C  C149  1  0.41429000  0.61075000  0.06567000  1.0
  C  C150  1  0.91431000  0.61075000  0.43433000  1.0
  C  C151  1  0.58567000  0.38925000  0.93433000  1.0
  C  C152  1  0.25984000  0.34955000  0.55629000  1.0
  C  C153  1  0.24014000  0.65046000  0.05629000  1.0
  C  C154  1  0.74017000  0.65045000  0.44371000  1.0
  C  C155  1  0.75982000  0.34955000  0.94371000  1.0
  C  C156  1  0.85586000  0.51839000  0.58095000  1.0
  C  C157  1  0.64412000  0.48162000  0.08095000  1.0
  C  C158  1  0.14414000  0.48161000  0.41905000  1.0
  C  C159  1  0.35586000  0.51838000  0.91905000  1.0
  C  C160  1  0.83149000  0.61846000  0.66806000  1.0
  C  C161  1  0.66850000  0.38155000  0.16805000  1.0
  C  C162  1  0.16849000  0.38154000  0.33194000  1.0
  C  C163  1  0.33149000  0.61846000  0.83195000  1.0
  C  C164  1  0.87888000  0.55546000  0.71292000  1.0
  C  C165  1  0.62114000  0.44455000  0.21292000  1.0
  C  C166  1  0.12115000  0.44454000  0.28708000  1.0
  C  C167  1  0.37887000  0.55546000  0.78708000  1.0
  C  C168  1  0.87607000  0.57423000  0.77695000  1.0
  C  C169  1  0.62398000  0.42578000  0.27694000  1.0
  C  C170  1  0.12400000  0.42577000  0.22305000  1.0
  C  C171  1  0.37607000  0.57423000  0.72306000  1.0
  C  C172  1  0.82772000  0.65498000  0.79787000  1.0
  C  C173  1  0.67234000  0.34503000  0.29787000  1.0
  C  C174  1  0.17237000  0.34502000  0.20213000  1.0
  C  C175  1  0.32770000  0.65498000  0.70214000  1.0
  C  C176  1  0.78253000  0.71818000  0.75334000  1.0
  C  C177  1  0.71747000  0.28182000  0.25334000  1.0
  C  C178  1  0.21749000  0.28181000  0.24666000  1.0
  C  C179  1  0.28252000  0.71819000  0.74666000  1.0
  C  C180  1  0.78487000  0.70009000  0.68917000  1.0
  C  C181  1  0.71512000  0.29991000  0.18917000  1.0
  C  C182  1  0.21509000  0.29990000  0.31083000  1.0
  C  C183  1  0.28486000  0.70010000  0.81083000  1.0
  C  C184  1  0.73161000  0.80525000  0.77410000  1.0
  C  C185  1  0.76841000  0.19475000  0.27410000  1.0
  C  C186  1  0.26845000  0.19474000  0.22589000  1.0
  C  C187  1  0.23159000  0.80526000  0.72590000  1.0
  N  N188  1  0.64992000  0.27694000  0.58176000  1.0
  N  N189  1  0.85006000  0.72306000  0.08176000  1.0
  N  N190  1  0.35007000  0.72305000  0.41825000  1.0
  N  N191  1  0.14991000  0.27694000  0.91824000  1.0
  N  N192  1  0.83023000  0.60115000  0.60454000  1.0
  N  N193  1  0.66975000  0.39885000  0.10454000  1.0
  N  N194  1  0.16974000  0.39884000  0.39546000  1.0
  N  N195  1  0.33022000  0.60115000  0.89546000  1.0
  O  O196  1  0.63448000  0.11583000  0.83682000  1.0
  O  O197  1  0.86556000  0.88417000  0.33682000  1.0
  O  O198  1  0.36551000  0.88416000  0.16319000  1.0
  O  O199  1  0.13447000  0.11583000  0.66318000  1.0
  O  O200  1  0.62535000  0.05747000  0.74240000  1.0
  O  O201  1  0.87462000  0.94253000  0.24239000  1.0
  O  O202  1  0.37463000  0.94253000  0.25761000  1.0
  O  O203  1  0.12536000  0.05747000  0.75761000  1.0
  O  O204  1  0.69800000  0.86278000  0.73231000  1.0
  O  O205  1  0.80200000  0.13722000  0.23232000  1.0
  O  O206  1  0.30200000  0.13721000  0.26768000  1.0
  O  O207  1  0.19801000  0.86279000  0.76769000  1.0
  O  O208  1  0.72308000  0.82181000  0.83280000  1.0
  O  O209  1  0.77698000  0.17819000  0.33280000  1.0
  O  O210  1  0.27703000  0.17818000  0.16720000  1.0
  O  O211  1  0.22303000  0.82181000  0.66721000  1.0
  O  O212  1  0.35521000  0.96659000  0.83729000  1.0
  O  O213  1  0.14478000  0.03344000  0.33728000  1.0
  O  O214  1  0.64479000  0.03342000  0.16271000  1.0
  O  O215  1  0.85521000  0.96659000  0.66271000  1.0
  O  O216  1  0.95673000  0.96577000  0.83494000  1.0
  O  O217  1  0.54328000  0.03423000  0.33494000  1.0
  O  O218  1  0.04327000  0.03423000  0.16506000  1.0
  O  O219  1  0.45673000  0.96577000  0.66506000  1.0
  O  O220  1  0.73871000  0.97847000  0.93826000  1.0
  O  O221  1  0.76129000  0.02153000  0.43826000  1.0
  O  O222  1  0.26129000  0.02153000  0.06174000  1.0
  O  O223  1  0.23871000  0.97847000  0.56174000  1.0
