# generated using pymatgen
data_CdH11C18(NO2)2
_symmetry_space_group_name_H-M   'P 1'
_cell_length_a   5.90579000
_cell_length_b   10.55300000
_cell_length_c   12.52400000
_cell_angle_alpha   106.37400000
_cell_angle_beta   93.11270000
_cell_angle_gamma   92.02830000
_symmetry_Int_Tables_number   1
_chemical_formula_structural   CdH11C18(NO2)2
_chemical_formula_sum   'Cd2 H22 C36 N4 O8'
_cell_volume   746.73325281
_cell_formula_units_Z   2
loop_
 _symmetry_equiv_pos_site_id
 _symmetry_equiv_pos_as_xyz
  1  'x, y, z'
loop_
 _atom_site_type_symbol
 _atom_site_label
 _atom_site_symmetry_multiplicity
 _atom_site_fract_x
 _atom_site_fract_y
 _atom_site_fract_z
 _atom_site_occupancy
  Cd  Cd0  1  0.64018000  0.57693000  0.39106000  1.0
  Cd  Cd1  1  0.35981000  0.42307000  0.60894000  1.0
  H  H2  1  0.21275000  0.56630000  0.20278000  1.0
  H  H3  1  0.78725000  0.43370000  0.79721000  1.0
  H  H4  1  0.19977000  0.58558000  0.00593000  1.0
  H  H5  1  0.80025000  0.41443000  0.99406000  1.0
  H  H6  1  0.52930000  0.69843000  0.94790000  1.0
  H  H7  1  0.47072000  0.30159000  0.05210000  1.0
  H  H8  1  0.84609000  0.80339000  0.08904000  1.0
  H  H9  1  0.15393000  0.19662000  0.91097000  1.0
  H  H10  1  0.97188000  0.96318000  0.24503000  1.0
  H  H11  1  0.02810000  0.03683000  0.75498000  1.0
  H  H12  1  0.28411000  0.04985000  0.39187000  1.0
  H  H13  1  0.71588000  0.95016000  0.60813000  1.0
  H  H14  1  0.37398000  0.91972000  0.52954000  1.0
  H  H15  1  0.62601000  0.08028000  0.47046000  1.0
  H  H16  1  0.12808000  0.72046000  0.52166000  1.0
  H  H17  1  0.87191000  0.27954000  0.47834000  1.0
  H  H18  1  0.51426000  0.10886000  0.23895000  1.0
  H  H19  1  0.48574000  0.89115000  0.76106000  1.0
  H  H20  1  0.36245000  0.94798000  0.06547000  1.0
  H  H21  1  0.63755000  0.05201000  0.93454000  1.0
  H  H22  1  0.77629000  0.18199000  0.06530000  1.0
  H  H23  1  0.22372000  0.81800000  0.93470000  1.0
  C  C24  1  0.34819000  0.62000000  0.17482000  1.0
  C  C25  1  0.65182000  0.38000000  0.82517000  1.0
  C  C26  1  0.34043000  0.63067000  0.06619000  1.0
  C  C27  1  0.65958000  0.36933000  0.93381000  1.0
  C  C28  1  0.52323000  0.69556000  0.03407000  1.0
  C  C29  1  0.47677000  0.30445000  0.96593000  1.0
  C  C30  1  0.70074000  0.75335000  0.11245000  1.0
  C  C31  1  0.29927000  0.24666000  0.88755000  1.0
  C  C32  1  0.69554000  0.74008000  0.22037000  1.0
  C  C33  1  0.30446000  0.25992000  0.77963000  1.0
  C  C34  1  0.88498000  0.79591000  0.30551000  1.0
  C  C35  1  0.11502000  0.20409000  0.69449000  1.0
  C  C36  1  0.01319000  0.91017000  0.30598000  1.0
  C  C37  1  0.98680000  0.08983000  0.69402000  1.0
  C  C38  1  0.18981000  0.95758000  0.38763000  1.0
  C  C39  1  0.81019000  0.04242000  0.61237000  1.0
  C  C40  1  0.23660000  0.88809000  0.46497000  1.0
  C  C41  1  0.76339000  0.11191000  0.53502000  1.0
  C  C42  1  0.09983000  0.77619000  0.46103000  1.0
  C  C43  1  0.90016000  0.22381000  0.53897000  1.0
  C  C44  1  0.31751000  0.32773000  0.36180000  1.0
  C  C45  1  0.68249000  0.67227000  0.63820000  1.0
  C  C46  1  0.23127000  0.23415000  0.25220000  1.0
  C  C47  1  0.76873000  0.76585000  0.74780000  1.0
  C  C48  1  0.35079000  0.12348000  0.20050000  1.0
  C  C49  1  0.64921000  0.87652000  0.79951000  1.0
  C  C50  1  0.26365000  0.03285000  0.10176000  1.0
  C  C51  1  0.73635000  0.96715000  0.89825000  1.0
  C  C52  1  0.05081000  0.04881000  0.05137000  1.0
  C  C53  1  0.94918000  0.95118000  0.94863000  1.0
  C  C54  1  0.93745000  0.16269000  0.10226000  1.0
  C  C55  1  0.06256000  0.83731000  0.89774000  1.0
  C  C56  1  0.02426000  0.25483000  0.20047000  1.0
  C  C57  1  0.97574000  0.74517000  0.79953000  1.0
  C  C58  1  0.88835000  0.37340000  0.24837000  1.0
  C  C59  1  0.11165000  0.62660000  0.75163000  1.0
  N  N60  1  0.52337000  0.67162000  0.24936000  1.0
  N  N61  1  0.47664000  0.32838000  0.75064000  1.0
  N  N62  1  0.92727000  0.73261000  0.38366000  1.0
  N  N63  1  0.07273000  0.26738000  0.61633000  1.0
  O  O64  1  0.30835000  0.45147000  0.37457000  1.0
  O  O65  1  0.69165000  0.54853000  0.62543000  1.0
  O  O66  1  0.38721000  0.27581000  0.43716000  1.0
  O  O67  1  0.61278000  0.72419000  0.56285000  1.0
  O  O68  1  0.81672000  0.38471000  0.34566000  1.0
  O  O69  1  0.18328000  0.61529000  0.65433000  1.0
  O  O70  1  0.84795000  0.44951000  0.18944000  1.0
  O  O71  1  0.15205000  0.55049000  0.81055000  1.0
