# generated using pymatgen
data_CoH14C10(N4O)2
_symmetry_space_group_name_H-M   'P 1'
_cell_length_a   7.38663000
_cell_length_b   7.50134000
_cell_length_c   8.03252000
_cell_angle_alpha   71.80810000
_cell_angle_beta   89.98000000
_cell_angle_gamma   60.73210000
_symmetry_Int_Tables_number   1
_chemical_formula_structural   CoH14C10(N4O)2
_chemical_formula_sum   'Co1 H14 C10 N8 O2'
_cell_volume   362.57409046
_cell_formula_units_Z   1
loop_
 _symmetry_equiv_pos_site_id
 _symmetry_equiv_pos_as_xyz
  1  'x, y, z'
loop_
 _atom_site_type_symbol
 _atom_site_label
 _atom_site_symmetry_multiplicity
 _atom_site_fract_x
 _atom_site_fract_y
 _atom_site_fract_z
 _atom_site_occupancy
  Co  Co0  1  0.00000000  0.00000000  0.50000000  1.0
  H  H1  1  0.76555000  0.46910000  0.23452000  1.0
  H  H2  1  0.23445000  0.53090000  0.76549000  1.0
  H  H3  1  0.76554000  0.46818000  0.71684000  1.0
  H  H4  1  0.23447000  0.53182000  0.28316000  1.0
  H  H5  1  0.75698000  0.24750000  0.87778000  1.0
  H  H6  1  0.00487000  0.75034000  0.12330000  1.0
  H  H7  1  0.24303000  0.75249000  0.12222000  1.0
  H  H8  1  0.99513000  0.24967000  0.87670000  1.0
  H  H9  1  0.61084000  0.77802000  0.01057000  1.0
  H  H10  1  0.38915000  0.22197000  0.98943000  1.0
  H  H11  1  0.49110000  0.77518000  0.81876000  1.0
  H  H12  1  0.26718000  0.22340000  0.18168000  1.0
  H  H13  1  0.50890000  0.22481000  0.18125000  1.0
  H  H14  1  0.73281000  0.77660000  0.81832000  1.0
  C  C15  1  0.23286000  0.22727000  0.57741000  1.0
  C  C16  1  0.45896000  0.77318000  0.42228000  1.0
  C  C17  1  0.76714000  0.77273000  0.42258000  1.0
  C  C18  1  0.54105000  0.22683000  0.57770000  1.0
  C  C19  1  0.81645000  0.36739000  0.15076000  1.0
  C  C20  1  0.18355000  0.63261000  0.84924000  1.0
  C  C21  1  0.82296000  0.35426000  0.85470000  1.0
  C  C22  1  0.17704000  0.64574000  0.14530000  1.0
  C  C23  1  0.64230000  0.71522000  0.90095000  1.0
  C  C24  1  0.35769000  0.28478000  0.09906000  1.0
  N  N25  1  0.09802000  0.20455000  0.52765000  1.0
  N  N26  1  0.30123000  0.79637000  0.47167000  1.0
  N  N27  1  0.90197000  0.79546000  0.47235000  1.0
  N  N28  1  0.69877000  0.20364000  0.52833000  1.0
  N  N29  1  0.37228000  0.25640000  0.64364000  1.0
  N  N30  1  0.62771000  0.74361000  0.35635000  1.0
  N  N31  1  0.76161000  0.47684000  0.97497000  1.0
  N  N32  1  0.23839000  0.52316000  0.02503000  1.0
  O  O33  1  0.91971000  0.16141000  0.21678000  1.0
  O  O34  1  0.08029000  0.83858000  0.78322000  1.0
