# generated using pymatgen
data_Zr3H14C54(N3O10)4
_symmetry_space_group_name_H-M   'P 1'
_cell_length_a   19.05600000
_cell_length_b   19.05605000
_cell_length_c   19.05597120
_cell_angle_alpha   60.00013680
_cell_angle_beta   60.00005000
_cell_angle_gamma   60.00026039
_symmetry_Int_Tables_number   1
_chemical_formula_structural   Zr3H14C54(N3O10)4
_chemical_formula_sum   'Zr6 H28 C108 N24 O80'
_cell_volume   4893.07852445
_cell_formula_units_Z   2
loop_
 _symmetry_equiv_pos_site_id
 _symmetry_equiv_pos_as_xyz
  1  'x, y, z'
loop_
 _atom_site_type_symbol
 _atom_site_label
 _atom_site_symmetry_multiplicity
 _atom_site_fract_x
 _atom_site_fract_y
 _atom_site_fract_z
 _atom_site_occupancy
  Zr  Zr0  1  0.90709000  0.40709000  0.09291000  1.0
  Zr  Zr1  1  0.09292000  0.59291000  0.90709000  1.0
  Zr  Zr2  1  0.09291000  0.40709000  0.90709000  1.0
  Zr  Zr3  1  0.90709000  0.59291000  0.09291000  1.0
  Zr  Zr4  1  0.09291000  0.40709000  0.09291000  1.0
  Zr  Zr5  1  0.90709000  0.59291000  0.90709000  1.0
  H  H6  1  0.07312000  0.28062000  0.07313000  1.0
  H  H7  1  0.07313000  0.57313000  0.07313000  1.0
  H  H8  1  0.07312000  0.57313000  0.78062000  1.0
  H  H9  1  0.78061000  0.57313000  0.07313000  1.0
  H  H10  1  0.88870000  0.81975000  0.67844000  1.0
  H  H11  1  0.10816000  0.82464000  0.68323000  1.0
  H  H12  1  0.11311000  0.17844000  0.31976000  1.0
  H  H13  1  0.88397000  0.18323000  0.32464000  1.0
  H  H14  1  0.31975000  0.38869000  0.11312000  1.0
  H  H15  1  0.32465000  0.60815000  0.88397000  1.0
  H  H16  1  0.67845000  0.61311000  0.88869000  1.0
  H  H17  1  0.68323000  0.38397000  0.10816000  1.0
  H  H18  1  0.11311000  0.38869000  0.67844000  1.0
  H  H19  1  0.88397000  0.60815000  0.68324000  1.0
  H  H20  1  0.88869000  0.61311000  0.31976000  1.0
  H  H21  1  0.10815000  0.38397000  0.32464000  1.0
  H  H22  1  0.31975000  0.17844000  0.88869000  1.0
  H  H23  1  0.32464000  0.18323000  0.10815000  1.0
  H  H24  1  0.67844000  0.81976000  0.11311000  1.0
  H  H25  1  0.68323000  0.82464000  0.88397000  1.0
  H  H26  1  0.11311000  0.81976000  0.88869000  1.0
  H  H27  1  0.88396000  0.82465000  0.10815000  1.0
  H  H28  1  0.88870000  0.17844000  0.11311000  1.0
  H  H29  1  0.10817000  0.18323000  0.88396000  1.0
  H  H30  1  0.31975000  0.61312000  0.67844000  1.0
  H  H31  1  0.32464000  0.38398000  0.68323000  1.0
  H  H32  1  0.67844000  0.38869000  0.31976000  1.0
  H  H33  1  0.68323000  0.60816000  0.32464000  1.0
  C  C34  1  0.99772000  0.26638000  0.23830000  1.0
  C  C35  1  0.23829000  0.49760000  0.99772000  1.0
  C  C36  1  0.99759000  0.73830000  0.76639000  1.0
  C  C37  1  0.76639000  0.49772000  0.99760000  1.0
  C  C38  1  0.99760000  0.26639000  0.99771000  1.0
  C  C39  1  0.76638000  0.49760000  0.23830000  1.0
  C  C40  1  0.99772000  0.73830000  0.99760000  1.0
  C  C41  1  0.23830000  0.49772000  0.76639000  1.0
  C  C42  1  0.23829000  0.26639000  0.99760000  1.0
  C  C43  1  0.99771000  0.49760000  0.76639000  1.0
  C  C44  1  0.76639000  0.73829000  0.99772000  1.0
  C  C45  1  0.99759000  0.49772000  0.23830000  1.0
  C  C46  1  0.93647000  0.85050000  0.64913000  1.0
  C  C47  1  0.93507000  0.92444000  0.57580000  1.0
  C  C48  1  0.87151000  0.96401000  0.53558000  1.0
  C  C49  1  0.06077000  0.85356000  0.65212000  1.0
  C  C50  1  0.06359000  0.92543000  0.57681000  1.0
  C  C51  1  0.12808000  0.96466000  0.53643000  1.0
  C  C52  1  0.06389000  0.14913000  0.35051000  1.0
  C  C53  1  0.06470000  0.07579000  0.42444000  1.0
  C  C54  1  0.12892000  0.03557000  0.46400000  1.0
  C  C55  1  0.93355000  0.15212000  0.35357000  1.0
  C  C56  1  0.93417000  0.07681000  0.42544000  1.0
  C  C57  1  0.87082000  0.03643000  0.46467000  1.0
  C  C58  1  0.99809000  0.81645000  0.68725000  1.0
  C  C59  1  0.99949000  0.96308000  0.53788000  1.0
  C  C60  1  0.99821000  0.18725000  0.31645000  1.0
  C  C61  1  0.99956000  0.03788000  0.46308000  1.0
  C  C62  1  0.35051000  0.43646000  0.06390000  1.0
  C  C63  1  0.42444000  0.43507000  0.06470000  1.0
  C  C64  1  0.46400000  0.37151000  0.12891000  1.0
  C  C65  1  0.35356000  0.56076000  0.93356000  1.0
  C  C66  1  0.42543000  0.56358000  0.93418000  1.0
  C  C67  1  0.46466000  0.62808000  0.87083000  1.0
  C  C68  1  0.64914000  0.56390000  0.93646000  1.0
  C  C69  1  0.57580000  0.56469000  0.93507000  1.0
  C  C70  1  0.53557000  0.62891000  0.87151000  1.0
  C  C71  1  0.65213000  0.43355000  0.06076000  1.0
  C  C72  1  0.57682000  0.43417000  0.06358000  1.0
  C  C73  1  0.53644000  0.37082000  0.12808000  1.0
  C  C74  1  0.31646000  0.49809000  0.99821000  1.0
  C  C75  1  0.46309000  0.49948000  0.99955000  1.0
  C  C76  1  0.68725000  0.49821000  0.99809000  1.0
  C  C77  1  0.53789000  0.49954000  0.99949000  1.0
  C  C78  1  0.06389000  0.43647000  0.64913000  1.0
  C  C79  1  0.06470000  0.43507000  0.57579000  1.0
  C  C80  1  0.12890000  0.37151000  0.53558000  1.0
  C  C81  1  0.93354000  0.56076000  0.65213000  1.0
  C  C82  1  0.93416000  0.56358000  0.57682000  1.0
  C  C83  1  0.87082000  0.62807000  0.53644000  1.0
  C  C84  1  0.93647000  0.56390000  0.35050000  1.0
  C  C85  1  0.93507000  0.56469000  0.42444000  1.0
  C  C86  1  0.87151000  0.62890000  0.46401000  1.0
  C  C87  1  0.06076000  0.43355000  0.35356000  1.0
  C  C88  1  0.06359000  0.43417000  0.42543000  1.0
  C  C89  1  0.12808000  0.37083000  0.46466000  1.0
  C  C90  1  0.99820000  0.49809000  0.68725000  1.0
  C  C91  1  0.99954000  0.49948000  0.53789000  1.0
  C  C92  1  0.99809000  0.49821000  0.31645000  1.0
  C  C93  1  0.99948000  0.49954000  0.46309000  1.0
  C  C94  1  0.35051000  0.14913000  0.93646000  1.0
  C  C95  1  0.42444000  0.07580000  0.93506000  1.0
  C  C96  1  0.46400000  0.03558000  0.87151000  1.0
  C  C97  1  0.35356000  0.15212000  0.06076000  1.0
  C  C98  1  0.42543000  0.07681000  0.06358000  1.0
  C  C99  1  0.46466000  0.03644000  0.12807000  1.0
  C  C100  1  0.64913000  0.85051000  0.06390000  1.0
  C  C101  1  0.57580000  0.92444000  0.06469000  1.0
  C  C102  1  0.53558000  0.96401000  0.12890000  1.0
  C  C103  1  0.65213000  0.85356000  0.93355000  1.0
  C  C104  1  0.57682000  0.92543000  0.93417000  1.0
  C  C105  1  0.53644000  0.96466000  0.87082000  1.0
  C  C106  1  0.31645000  0.18725000  0.99809000  1.0
  C  C107  1  0.46308000  0.03789000  0.99948000  1.0
  C  C108  1  0.68724000  0.81646000  0.99821000  1.0
  C  C109  1  0.53789000  0.96309000  0.99954000  1.0
  C  C110  1  0.06389000  0.85051000  0.93647000  1.0
  C  C111  1  0.06470000  0.92444000  0.93507000  1.0
  C  C112  1  0.12890000  0.96401000  0.87151000  1.0
  C  C113  1  0.93355000  0.85357000  0.06075000  1.0
  C  C114  1  0.93416000  0.92544000  0.06358000  1.0
  C  C115  1  0.87081000  0.96468000  0.12807000  1.0
  C  C116  1  0.93646000  0.14914000  0.06390000  1.0
  C  C117  1  0.93507000  0.07580000  0.06469000  1.0
  C  C118  1  0.87150000  0.03559000  0.12890000  1.0
  C  C119  1  0.06076000  0.15213000  0.93355000  1.0
  C  C120  1  0.06359000  0.07681000  0.93417000  1.0
  C  C121  1  0.12808000  0.03644000  0.87082000  1.0
  C  C122  1  0.99820000  0.81646000  0.99809000  1.0
  C  C123  1  0.99954000  0.96309000  0.99948000  1.0
  C  C124  1  0.99809000  0.18725000  0.99821000  1.0
  C  C125  1  0.99948000  0.03789000  0.99954000  1.0
  C  C126  1  0.35051000  0.56390000  0.64913000  1.0
  C  C127  1  0.42445000  0.56470000  0.57579000  1.0
  C  C128  1  0.46401000  0.62891000  0.53558000  1.0
  C  C129  1  0.35356000  0.43356000  0.65212000  1.0
  C  C130  1  0.42543000  0.43418000  0.57681000  1.0
  C  C131  1  0.46467000  0.37083000  0.53643000  1.0
  C  C132  1  0.64914000  0.43647000  0.35050000  1.0
  C  C133  1  0.57580000  0.43507000  0.42444000  1.0
  C  C134  1  0.53558000  0.37151000  0.46401000  1.0
  C  C135  1  0.65214000  0.56076000  0.35356000  1.0
  C  C136  1  0.57682000  0.56358000  0.42544000  1.0
  C  C137  1  0.53644000  0.62808000  0.46466000  1.0
  C  C138  1  0.31645000  0.49821000  0.68725000  1.0
  C  C139  1  0.46309000  0.49955000  0.53788000  1.0
  C  C140  1  0.68726000  0.49809000  0.31645000  1.0
  C  C141  1  0.53789000  0.49949000  0.46308000  1.0
  N  N142  1  0.80143000  0.07614000  0.42824000  1.0
  N  N143  1  0.80596000  0.92385000  0.57113000  1.0
  N  N144  1  0.19908000  0.07111000  0.42384000  1.0
  N  N145  1  0.19420000  0.92823000  0.57614000  1.0
  N  N146  1  0.57615000  0.30142000  0.19420000  1.0
  N  N147  1  0.42385000  0.30597000  0.19907000  1.0
  N  N148  1  0.57113000  0.69905000  0.80597000  1.0
  N  N149  1  0.42822000  0.69420000  0.80144000  1.0
  N  N150  1  0.19420000  0.30143000  0.42823000  1.0
  N  N151  1  0.19906000  0.30598000  0.57112000  1.0
  N  N152  1  0.80596000  0.69906000  0.42385000  1.0
  N  N153  1  0.80141000  0.69419000  0.57615000  1.0
  N  N154  1  0.57615000  0.92823000  0.80142000  1.0
  N  N155  1  0.42384000  0.07112000  0.80597000  1.0
  N  N156  1  0.57113000  0.92385000  0.19905000  1.0
  N  N157  1  0.42823000  0.07614000  0.19420000  1.0
  N  N158  1  0.19421000  0.07614000  0.80142000  1.0
  N  N159  1  0.19908000  0.92384000  0.80597000  1.0
  N  N160  1  0.80597000  0.07113000  0.19905000  1.0
  N  N161  1  0.80141000  0.92825000  0.19419000  1.0
  N  N162  1  0.57615000  0.69420000  0.42823000  1.0
  N  N163  1  0.42385000  0.69907000  0.57111000  1.0
  N  N164  1  0.57114000  0.30597000  0.42385000  1.0
  N  N165  1  0.42823000  0.30144000  0.57614000  1.0
  O  O166  1  0.93816000  0.29688000  0.20769000  1.0
  O  O167  1  0.20770000  0.55727000  0.93815000  1.0
  O  O168  1  0.05728000  0.70769000  0.79688000  1.0
  O  O169  1  0.79687000  0.43816000  0.05728000  1.0
  O  O170  1  0.05728000  0.29688000  0.93815000  1.0
  O  O171  1  0.79688000  0.55728000  0.20769000  1.0
  O  O172  1  0.93815000  0.70770000  0.05727000  1.0
  O  O173  1  0.20770000  0.43815000  0.79688000  1.0
  O  O174  1  0.20770000  0.29688000  0.05727000  1.0
  O  O175  1  0.93816000  0.55727000  0.79688000  1.0
  O  O176  1  0.79689000  0.70769000  0.93815000  1.0
  O  O177  1  0.05727000  0.43815000  0.20769000  1.0
  O  O178  1  0.05769000  0.43833000  0.79658000  1.0
  O  O179  1  0.79658000  0.70739000  0.05770000  1.0
  O  O180  1  0.93833000  0.55769000  0.20740000  1.0
  O  O181  1  0.20740000  0.29658000  0.93832000  1.0
  O  O182  1  0.93833000  0.29658000  0.05769000  1.0
  O  O183  1  0.20741000  0.55769000  0.79658000  1.0
  O  O184  1  0.05770000  0.70740000  0.93833000  1.0
  O  O185  1  0.79658000  0.43833000  0.20740000  1.0
  O  O186  1  0.79658000  0.55769000  0.93833000  1.0
  O  O187  1  0.05769000  0.29658000  0.20740000  1.0
  O  O188  1  0.20740000  0.43833000  0.05769000  1.0
  O  O189  1  0.93833000  0.70740000  0.79658000  1.0
  O  O190  1  0.84295000  0.55235000  0.05235000  1.0
  O  O191  1  0.05235000  0.55235000  0.84295000  1.0
  O  O192  1  0.05235000  0.55235000  0.05235000  1.0
  O  O193  1  0.05235000  0.34295000  0.05235000  1.0
  O  O194  1  0.11546000  0.46152000  0.96151000  1.0
  O  O195  1  0.96152000  0.46151000  0.11546000  1.0
  O  O196  1  0.96152000  0.61546000  0.96151000  1.0
  O  O197  1  0.96152000  0.46151000  0.96151000  1.0
  O  O198  1  0.82426000  0.09220000  0.35014000  1.0
  O  O199  1  0.72721000  0.09110000  0.47861000  1.0
  O  O200  1  0.76578000  0.90807000  0.64902000  1.0
  O  O201  1  0.79847000  0.90836000  0.52021000  1.0
  O  O202  1  0.17715000  0.14901000  0.40806000  1.0
  O  O203  1  0.27297000  0.02018000  0.40837000  1.0
  O  O204  1  0.23341000  0.85013000  0.59219000  1.0
  O  O205  1  0.20308000  0.97860000  0.59110000  1.0
  O  O206  1  0.59220000  0.32426000  0.23340000  1.0
  O  O207  1  0.59110000  0.22721000  0.20308000  1.0
  O  O208  1  0.40806000  0.26578000  0.17715000  1.0
  O  O209  1  0.40837000  0.29848000  0.27297000  1.0
  O  O210  1  0.64902000  0.67711000  0.76577000  1.0
  O  O211  1  0.52023000  0.77295000  0.79847000  1.0
  O  O212  1  0.35013000  0.73340000  0.82429000  1.0
  O  O213  1  0.47859000  0.70309000  0.72722000  1.0
  O  O214  1  0.23340000  0.32427000  0.35013000  1.0
  O  O215  1  0.20308000  0.22722000  0.47860000  1.0
  O  O216  1  0.17716000  0.26578000  0.64900000  1.0
  O  O217  1  0.27298000  0.29848000  0.52018000  1.0
  O  O218  1  0.76578000  0.67713000  0.40807000  1.0
  O  O219  1  0.79848000  0.77295000  0.40836000  1.0
  O  O220  1  0.82425000  0.73340000  0.59220000  1.0
  O  O221  1  0.72720000  0.70308000  0.59109000  1.0
  O  O222  1  0.59220000  0.85014000  0.82426000  1.0
  O  O223  1  0.59110000  0.97861000  0.72721000  1.0
  O  O224  1  0.40806000  0.14901000  0.76578000  1.0
  O  O225  1  0.40836000  0.02019000  0.79848000  1.0
  O  O226  1  0.64902000  0.90809000  0.17711000  1.0
  O  O227  1  0.52022000  0.90835000  0.27295000  1.0
  O  O228  1  0.35013000  0.09219000  0.23340000  1.0
  O  O229  1  0.47859000  0.09110000  0.20309000  1.0
  O  O230  1  0.23341000  0.09219000  0.82426000  1.0
  O  O231  1  0.20308000  0.09110000  0.72721000  1.0
  O  O232  1  0.17715000  0.90806000  0.76578000  1.0
  O  O233  1  0.27297000  0.90837000  0.79848000  1.0
  O  O234  1  0.76578000  0.14902000  0.17713000  1.0
  O  O235  1  0.79848000  0.02021000  0.27295000  1.0
  O  O236  1  0.82424000  0.85016000  0.23340000  1.0
  O  O237  1  0.72720000  0.97863000  0.20308000  1.0
  O  O238  1  0.59220000  0.73340000  0.35014000  1.0
  O  O239  1  0.59110000  0.70308000  0.47861000  1.0
  O  O240  1  0.40806000  0.67715000  0.64901000  1.0
  O  O241  1  0.40836000  0.77297000  0.52019000  1.0
  O  O242  1  0.64903000  0.26577000  0.40810000  1.0
  O  O243  1  0.52023000  0.29847000  0.40835000  1.0
  O  O244  1  0.35013000  0.32429000  0.59219000  1.0
  O  O245  1  0.47859000  0.22722000  0.59110000  1.0
