# generated using pymatgen
data_AlH5C10O6F
_symmetry_space_group_name_H-M   'P 1'
_cell_length_a   6.69602000
_cell_length_b   11.08525455
_cell_length_c   11.10168941
_cell_angle_alpha   83.56418439
_cell_angle_beta   73.19752886
_cell_angle_gamma   73.91093229
_symmetry_Int_Tables_number   1
_chemical_formula_structural   AlH5C10O6F
_chemical_formula_sum   'Al2 H10 C20 O12 F2'
_cell_volume   757.50862747
_cell_formula_units_Z   2
loop_
 _symmetry_equiv_pos_site_id
 _symmetry_equiv_pos_as_xyz
  1  'x, y, z'
loop_
 _atom_site_type_symbol
 _atom_site_label
 _atom_site_symmetry_multiplicity
 _atom_site_fract_x
 _atom_site_fract_y
 _atom_site_fract_z
 _atom_site_occupancy
  Al  Al0  1  0.49794000  0.50760000  0.49997000  1.0
  Al  Al1  1  0.99852000  0.50758000  0.49877000  1.0
  H  H2  1  0.77627000  0.59266000  0.35553000  1.0
  H  H3  1  0.20709000  0.43547000  0.64752000  1.0
  H  H4  1  0.61581000  0.11731000  0.51298000  1.0
  H  H5  1  0.37986000  0.89678000  0.49177000  1.0
  H  H6  1  0.20107000  0.32086000  0.23379000  1.0
  H  H7  1  0.10649000  0.17893000  0.11702000  1.0
  H  H8  1  0.44820000  0.32329000  0.76550000  1.0
  H  H9  1  0.23230000  0.17960000  0.88153000  1.0
  H  H10  1  0.76229000  0.78669000  0.52446000  1.0
  H  H11  1  0.23280000  0.22762000  0.48231000  1.0
  C  C12  1  0.36898000  0.49515000  0.27390000  1.0
  C  C13  1  0.13604000  0.73642000  0.50524000  1.0
  C  C14  1  0.63438000  0.50735000  0.72573000  1.0
  C  C15  1  0.86086000  0.27770000  0.49609000  1.0
  C  C16  1  0.06277000  0.87495000  0.50587000  1.0
  C  C17  1  0.93308000  0.13926000  0.49861000  1.0
  C  C18  1  0.84317000  0.93882000  0.51356000  1.0
  C  C19  1  0.15202000  0.07535000  0.49253000  1.0
  C  C20  1  0.78283000  0.06974000  0.50925000  1.0
  C  C21  1  0.21265000  0.94443000  0.49607000  1.0
  C  C22  1  0.44003000  0.48905000  0.13363000  1.0
  C  C23  1  0.37565000  0.40901000  0.06735000  1.0
  C  C24  1  0.57054000  0.56435000  0.06637000  1.0
  C  C25  1  0.25289000  0.32363000  0.13145000  1.0
  C  C26  1  0.19999000  0.24405000  0.06574000  1.0
  C  C27  1  0.57114000  0.49539000  0.86617000  1.0
  C  C28  1  0.63484000  0.56799000  0.93369000  1.0
  C  C29  1  0.44389000  0.41135000  0.93200000  1.0
  C  C30  1  0.39002000  0.32617000  0.86766000  1.0
  C  C31  1  0.27004000  0.24479000  0.93298000  1.0
  O  O32  1  0.51465000  0.48553000  0.32914000  1.0
  O  O33  1  0.98837000  0.67803000  0.51565000  1.0
  O  O34  1  0.83260000  0.49851000  0.67098000  1.0
  O  O35  1  0.66251000  0.33301000  0.51042000  1.0
  O  O36  1  0.48476000  0.52434000  0.67175000  1.0
  O  O37  1  0.00987000  0.33638000  0.48077000  1.0
  O  O38  1  0.16825000  0.51111000  0.32706000  1.0
  O  O39  1  0.33399000  0.68125000  0.49251000  1.0
  O  O40  1  0.74968000  0.56307000  0.44298000  1.0
  O  O41  1  0.24594000  0.45161000  0.55696000  1.0
  O  O42  1  0.68853000  0.87815000  0.52457000  1.0
  O  O43  1  0.30595000  0.13618000  0.48375000  1.0
  F  F44  1  0.75246000  0.64966000  0.87585000  1.0
  F  F45  1  0.63324000  0.64286000  0.12436000  1.0
