# generated using pymatgen
data_GeH26C30(NO)4
_symmetry_space_group_name_H-M   'P 1'
_cell_length_a   8.57611000
_cell_length_b   12.17260000
_cell_length_c   15.30000000
_cell_angle_alpha   86.60190000
_cell_angle_beta   89.19860000
_cell_angle_gamma   75.56380000
_symmetry_Int_Tables_number   1
_chemical_formula_structural   GeH26C30(NO)4
_chemical_formula_sum   'Ge2 H52 C60 N8 O8'
_cell_volume   1544.07040420
_cell_formula_units_Z   2
loop_
 _symmetry_equiv_pos_site_id
 _symmetry_equiv_pos_as_xyz
  1  'x, y, z'
loop_
 _atom_site_type_symbol
 _atom_site_label
 _atom_site_symmetry_multiplicity
 _atom_site_fract_x
 _atom_site_fract_y
 _atom_site_fract_z
 _atom_site_occupancy
  Ge  Ge0  1  0.77978000  0.20083000  0.22573000  1.0
  Ge  Ge1  1  0.22022000  0.79917000  0.77427000  1.0
  H  H2  1  0.65257000  0.56692000  0.30873000  1.0
  H  H3  1  0.34743000  0.43308000  0.69127000  1.0
  H  H4  1  0.47535000  0.71021000  0.20876000  1.0
  H  H5  1  0.52465000  0.28979000  0.79124000  1.0
  H  H6  1  0.34426000  0.64877000  0.08168000  1.0
  H  H7  1  0.65574000  0.35123000  0.91832000  1.0
  H  H8  1  0.39465000  0.44551000  0.05474000  1.0
  H  H9  1  0.60535000  0.55449000  0.94526000  1.0
  H  H10  1  0.26918000  0.31677000  0.13393000  1.0
  H  H11  1  0.73082000  0.68323000  0.86607000  1.0
  H  H12  1  0.27404000  0.18205000  0.09299000  1.0
  H  H13  1  0.72596000  0.81795000  0.90701000  1.0
  H  H14  1  0.32405000  0.29025000  0.02372000  1.0
  H  H15  1  0.67595000  0.70976000  0.97628000  1.0
  H  H16  1  0.50118000  0.04732000  0.07324000  1.0
  H  H17  1  0.49882000  0.95268000  0.92676000  1.0
  H  H18  1  0.86278000  0.85065000  0.13766000  1.0
  H  H19  1  0.13722000  0.14935000  0.86234000  1.0
  H  H20  1  0.83724000  0.89915000  0.02573000  1.0
  H  H21  1  0.16276000  0.10085000  0.97427000  1.0
  H  H22  1  0.66950000  0.87724000  0.08662000  1.0
  H  H23  1  0.33050000  0.12276000  0.91338000  1.0
  H  H24  1  0.06529000  0.91877000  0.05648000  1.0
  H  H25  1  0.93471000  0.08124000  0.94352000  1.0
  H  H26  1  0.35160000  0.85243000  0.08521000  1.0
  H  H27  1  0.64840000  0.14757000  0.91479000  1.0
  H  H28  1  0.47492000  0.91976000  0.21423000  1.0
  H  H29  1  0.52508000  0.08023000  0.78577000  1.0
  H  H30  1  0.30464000  0.05480000  0.30994000  1.0
  H  H31  1  0.69536000  0.94520000  0.69006000  1.0
  H  H32  1  0.13990000  0.99146000  0.41874000  1.0
  H  H33  1  0.86010000  0.00854000  0.58126000  1.0
  H  H34  1  0.07341000  0.08515000  0.50535000  1.0
  H  H35  1  0.92658000  0.91484000  0.49466000  1.0
  H  H36  1  0.22369000  0.10814000  0.43237000  1.0
  H  H37  1  0.77631000  0.89186000  0.56763000  1.0
  H  H38  1  0.88688000  0.24550000  0.48883000  1.0
  H  H39  1  0.11311000  0.75450000  0.51117000  1.0
  H  H40  1  0.53315000  0.45345000  0.41523000  1.0
  H  H41  1  0.46685000  0.54654000  0.58477000  1.0
  H  H42  1  0.71258000  0.48966000  0.44482000  1.0
  H  H43  1  0.28742000  0.51034000  0.55517000  1.0
  H  H44  1  0.65291000  0.37872000  0.50530000  1.0
  H  H45  1  0.34709000  0.62128000  0.49470000  1.0
  H  H46  1  0.93374000  0.48124000  0.15816000  1.0
  H  H47  1  0.06627000  0.51876000  0.84184000  1.0
  H  H48  1  0.97222000  0.34932000  0.90258000  1.0
  H  H49  1  0.02778000  0.65068000  0.09742000  1.0
  H  H50  1  0.54795000  0.18829000  0.45419000  1.0
  H  H51  1  0.45205000  0.81171000  0.54581000  1.0
  H  H52  1  0.60210000  0.83746000  0.40594000  1.0
  H  H53  1  0.39789000  0.16254000  0.59406000  1.0
  C  C54  1  0.61041000  0.42336000  0.24501000  1.0
  C  C55  1  0.38959000  0.57664000  0.75499000  1.0
  C  C56  1  0.58948000  0.53949000  0.25620000  1.0
  C  C57  1  0.41052000  0.46051000  0.74380000  1.0
  C  C58  1  0.49249000  0.62018000  0.19848000  1.0
  C  C59  1  0.50751000  0.37982000  0.80152000  1.0
  C  C60  1  0.41984000  0.58598000  0.12724000  1.0
  C  C61  1  0.58016000  0.41403000  0.87276000  1.0
  C  C62  1  0.44514000  0.47061000  0.11287000  1.0
  C  C63  1  0.55486000  0.52939000  0.88713000  1.0
  C  C64  1  0.53813000  0.38797000  0.17143000  1.0
  C  C65  1  0.46187000  0.61203000  0.82857000  1.0
  C  C66  1  0.50699000  0.20614000  0.11823000  1.0
  C  C67  1  0.49301000  0.79386000  0.88177000  1.0
  C  C68  1  0.33422000  0.25172000  0.09098000  1.0
  C  C69  1  0.66578000  0.74828000  0.90902000  1.0
  C  C70  1  0.58059000  0.09258000  0.10174000  1.0
  C  C71  1  0.41941000  0.90743000  0.89826000  1.0
  C  C72  1  0.73898000  0.02714000  0.11739000  1.0
  C  C73  1  0.26102000  0.97286000  0.88261000  1.0
  C  C74  1  0.77994000  0.90663000  0.09055000  1.0
  C  C75  1  0.22006000  0.09337000  0.90945000  1.0
  C  C76  1  0.01254000  0.01914000  0.17092000  1.0
  C  C77  1  0.98746000  0.98086000  0.82908000  1.0
  C  C78  1  0.11283000  0.94679000  0.11423000  1.0
  C  C79  1  0.88717000  0.05321000  0.88577000  1.0
  C  C80  1  0.27766000  0.90899000  0.13072000  1.0
  C  C81  1  0.72234000  0.09101000  0.86928000  1.0
  C  C82  1  0.34554000  0.94613000  0.20225000  1.0
  C  C83  1  0.65445000  0.05387000  0.79775000  1.0
  C  C84  1  0.24875000  0.02143000  0.25777000  1.0
  C  C85  1  0.75125000  0.97857000  0.74223000  1.0
  C  C86  1  0.08206000  0.05663000  0.24456000  1.0
  C  C87  1  0.91794000  0.94337000  0.75545000  1.0
  C  C88  1  0.98370000  0.15462000  0.37889000  1.0
  C  C89  1  0.01630000  0.84538000  0.62111000  1.0
  C  C90  1  0.11149000  0.08014000  0.43679000  1.0
  C  C91  1  0.88851000  0.91986000  0.56321000  1.0
  C  C92  1  0.87293000  0.24342000  0.41840000  1.0
  C  C93  1  0.12706000  0.75657000  0.58160000  1.0
  C  C94  1  0.75072000  0.33117000  0.37990000  1.0
  C  C95  1  0.24928000  0.66883000  0.62010000  1.0
  C  C96  1  0.65646000  0.41838000  0.43923000  1.0
  C  C97  1  0.34355000  0.58162000  0.56077000  1.0
  C  C98  1  0.89206000  0.30478000  0.06823000  1.0
  C  C99  1  0.10795000  0.69522000  0.93177000  1.0
  C  C100  1  0.94868000  0.40580000  0.03365000  1.0
  C  C101  1  0.05132000  0.59420000  0.96635000  1.0
  C  C102  1  0.96331000  0.49043000  0.08907000  1.0
  C  C103  1  0.03669000  0.50957000  0.91093000  1.0
  C  C104  1  0.98540000  0.41586000  0.94447000  1.0
  C  C105  1  0.01460000  0.58414000  0.05553000  1.0
  C  C106  1  0.68062000  0.02590000  0.34180000  1.0
  C  C107  1  0.31937000  0.97410000  0.65820000  1.0
  C  C108  1  0.58209000  0.01428000  0.42215000  1.0
  C  C109  1  0.41791000  0.98572000  0.57784000  1.0
  C  C110  1  0.52587000  0.10634000  0.47496000  1.0
  C  C111  1  0.47413000  0.89365000  0.52504000  1.0
  C  C112  1  0.55545000  0.90803000  0.44753000  1.0
  C  C113  1  0.44455000  0.09197000  0.55246000  1.0
  N  N114  1  0.71347000  0.33545000  0.29484000  1.0
  N  N115  1  0.28653000  0.66455000  0.70516000  1.0
  N  N116  1  0.58382000  0.27092000  0.16030000  1.0
  N  N117  1  0.41618000  0.72909000  0.83969000  1.0
  N  N118  1  0.84819000  0.06788000  0.15793000  1.0
  N  N119  1  0.15181000  0.93213000  0.84207000  1.0
  N  N120  1  0.97452000  0.13535000  0.29398000  1.0
  N  N121  1  0.02548000  0.86465000  0.70602000  1.0
  O  O122  1  0.90367000  0.28821000  0.15394000  1.0
  O  O123  1  0.09633000  0.71179000  0.84606000  1.0
  O  O124  1  0.84005000  0.24582000  0.01796000  1.0
  O  O125  1  0.15997000  0.75417000  0.98204000  1.0
  O  O126  1  0.64826000  0.13060000  0.30698000  1.0
  O  O127  1  0.35174000  0.86940000  0.69302000  1.0
  O  O128  1  0.78078000  0.94221000  0.31592000  1.0
  O  O129  1  0.21920000  0.05778000  0.68406000  1.0
