# generated using pymatgen
data_ZnH11C17NO4
_symmetry_space_group_name_H-M   'P 1'
_cell_length_a   13.97750000
_cell_length_b   14.78610000
_cell_length_c   16.19450000
_cell_angle_alpha   90.16260000
_cell_angle_beta   90.12640000
_cell_angle_gamma   82.09080000
_symmetry_Int_Tables_number   1
_chemical_formula_structural   ZnH11C17NO4
_chemical_formula_sum   'Zn2 H22 C34 N2 O8'
_cell_volume   3315.10396043
_cell_formula_units_Z   2
loop_
 _symmetry_equiv_pos_site_id
 _symmetry_equiv_pos_as_xyz
  1  'x, y, z'
loop_
 _atom_site_type_symbol
 _atom_site_label
 _atom_site_symmetry_multiplicity
 _atom_site_fract_x
 _atom_site_fract_y
 _atom_site_fract_z
 _atom_site_occupancy
  Zn  Zn0  1  0.50088000  0.40451000  0.49966000  1.0
  Zn  Zn1  1  0.49912000  0.59549000  0.50036000  1.0
  H  H2  1  0.02775000  0.39523000  0.49969000  1.0
  H  H3  1  0.43855000  0.15545000  0.81642000  1.0
  H  H4  1  0.50524000  0.06312000  0.87061000  1.0
  H  H5  1  0.44093000  0.00642000  0.73883000  1.0
  H  H6  1  0.56851000  0.99263000  0.73749000  1.0
  H  H7  1  0.56275000  0.13930000  0.65705000  1.0
  H  H8  1  0.43669000  0.15308000  0.65863000  1.0
  H  H9  1  0.56160000  0.84441000  0.18359000  1.0
  H  H10  1  0.43345000  0.85893000  0.18476000  1.0
  H  H11  1  0.49511000  0.93682000  0.12936000  1.0
  H  H12  1  0.43184000  0.00743000  0.26242000  1.0
  H  H13  1  0.97225000  0.60467000  0.50035000  1.0
  H  H14  1  0.55943000  0.99342000  0.26117000  1.0
  H  H15  1  0.56330000  0.84681000  0.34140000  1.0
  H  H16  1  0.43723000  0.86081000  0.34288000  1.0
  H  H17  1  0.50913000  0.35302000  0.92316000  1.0
  H  H18  1  0.49090000  0.64703000  0.07686000  1.0
  H  H19  1  0.50842000  0.91302000  0.63146000  1.0
  H  H20  1  0.49169000  0.08698000  0.36850000  1.0
  H  H21  1  0.50918000  0.35365000  0.07712000  1.0
  H  H22  1  0.49086000  0.64640000  0.92289000  1.0
  H  H23  1  0.56669000  0.14115000  0.81517000  1.0
  C  C24  1  0.50017000  0.49858000  0.66098000  1.0
  C  C25  1  0.50478000  0.95285000  0.57484000  1.0
  C  C26  1  0.49268000  0.18941000  0.50006000  1.0
  C  C27  1  0.50737000  0.81058000  0.49992000  1.0
  C  C28  1  0.68802000  0.46842000  0.49996000  1.0
  C  C29  1  0.31198000  0.53156000  0.50006000  1.0
  C  C30  1  0.20767000  0.54037000  0.50003000  1.0
  C  C31  1  0.79232000  0.45958000  0.50000000  1.0
  C  C32  1  0.02006000  0.53955000  0.50010000  1.0
  C  C33  1  0.97995000  0.46037000  0.49994000  1.0
  C  C34  1  0.87976000  0.45899000  0.49993000  1.0
  C  C35  1  0.49982000  0.50145000  0.33905000  1.0
  C  C36  1  0.12024000  0.54094000  0.50010000  1.0
  C  C37  1  0.50519000  0.41739000  0.04288000  1.0
  C  C38  1  0.49484000  0.58267000  0.95714000  1.0
  C  C39  1  0.49997000  0.50039000  0.08712000  1.0
  C  C40  1  0.50005000  0.49966000  0.91290000  1.0
  C  C41  1  0.49485000  0.58300000  0.04273000  1.0
  C  C42  1  0.50518000  0.41706000  0.95729000  1.0
  C  C43  1  0.49992000  0.50077000  0.17451000  1.0
  C  C44  1  0.50008000  0.49928000  0.82551000  1.0
  C  C45  1  0.50080000  0.10033000  0.65786000  1.0
  C  C46  1  0.50009000  0.49882000  0.75026000  1.0
  C  C47  1  0.50360000  0.04424000  0.73712000  1.0
  C  C48  1  0.50351000  0.10427000  0.81412000  1.0
  C  C49  1  0.49927000  0.89966000  0.34211000  1.0
  C  C50  1  0.49667000  0.95571000  0.26284000  1.0
  C  C51  1  0.49671000  0.89568000  0.18584000  1.0
  C  C52  1  0.49990000  0.50123000  0.24977000  1.0
  C  C53  1  0.50051000  0.04746000  0.57817000  1.0
  C  C54  1  0.49957000  0.95254000  0.42179000  1.0
  C  C55  1  0.49591000  0.09304000  0.50122000  1.0
  C  C56  1  0.50417000  0.90696000  0.49875000  1.0
  C  C57  1  0.49532000  0.04716000  0.42513000  1.0
  N  N58  1  0.50909000  0.73191000  0.50095000  1.0
  N  N59  1  0.49094000  0.26809000  0.49904000  1.0
  O  O60  1  0.50228000  0.42099000  0.62603000  1.0
  O  O61  1  0.49779000  0.57903000  0.37399000  1.0
  O  O62  1  0.49826000  0.57594000  0.62609000  1.0
  O  O63  1  0.50167000  0.42409000  0.37393000  1.0
  O  O64  1  0.64925000  0.39532000  0.49999000  1.0
  O  O65  1  0.35074000  0.60465000  0.49998000  1.0
  O  O66  1  0.64505000  0.55027000  0.49984000  1.0
  O  O67  1  0.35495000  0.44970000  0.50024000  1.0
