# generated using pymatgen
data_Ag6H15C12NO15
_symmetry_space_group_name_H-M   'P 1'
_cell_length_a   7.93263000
_cell_length_b   10.14220000
_cell_length_c   13.72530000
_cell_angle_alpha   74.08580000
_cell_angle_beta   81.07470000
_cell_angle_gamma   67.80760000
_symmetry_Int_Tables_number   1
_chemical_formula_structural   Ag6H15C12NO15
_chemical_formula_sum   'Ag12 H30 C24 N2 O30'
_cell_volume   981.61867303
_cell_formula_units_Z   2
loop_
 _symmetry_equiv_pos_site_id
 _symmetry_equiv_pos_as_xyz
  1  'x, y, z'
loop_
 _atom_site_type_symbol
 _atom_site_label
 _atom_site_symmetry_multiplicity
 _atom_site_fract_x
 _atom_site_fract_y
 _atom_site_fract_z
 _atom_site_occupancy
  Ag  Ag0  1  0.16706000  0.32522000  0.99999000  1.0
  Ag  Ag1  1  0.83293000  0.67478000  0.00001000  1.0
  Ag  Ag2  1  0.87968000  0.95020000  0.94873000  1.0
  Ag  Ag3  1  0.12032000  0.04981000  0.05127000  1.0
  Ag  Ag4  1  0.15665000  0.35235000  0.67605000  1.0
  Ag  Ag5  1  0.84335000  0.64765000  0.32395000  1.0
  Ag  Ag6  1  0.85538000  0.36247000  0.45738000  1.0
  Ag  Ag7  1  0.14462000  0.63753000  0.54262000  1.0
  Ag  Ag8  1  0.48031000  0.36224000  0.56573000  1.0
  Ag  Ag9  1  0.51968000  0.63776000  0.43427000  1.0
  Ag  Ag10  1  0.81012000  0.08721000  0.54495000  1.0
  Ag  Ag11  1  0.18988000  0.91280000  0.45506000  1.0
  H  H12  1  0.51593000  0.08942000  0.08415000  1.0
  H  H13  1  0.48407000  0.91059000  0.91585000  1.0
  H  H14  1  0.55613000  0.19772000  0.98558000  1.0
  H  H15  1  0.44386000  0.80228000  0.01442000  1.0
  H  H16  1  0.82957000  0.89446000  0.15260000  1.0
  H  H17  1  0.17043000  0.10554000  0.84740000  1.0
  H  H18  1  0.68511000  0.83395000  0.13951000  1.0
  H  H19  1  0.31489000  0.16605000  0.86049000  1.0
  H  H20  1  0.26336000  0.16561000  0.53216000  1.0
  H  H21  1  0.73664000  0.83439000  0.46784000  1.0
  H  H22  1  0.39788000  0.07114000  0.62382000  1.0
  H  H23  1  0.60212000  0.92886000  0.37618000  1.0
  H  H24  1  0.98750000  0.95289000  0.71461000  1.0
  H  H25  1  0.01250000  0.04711000  0.28539000  1.0
  H  H26  1  0.08314000  0.07222000  0.64721000  1.0
  H  H27  1  0.91686000  0.92779000  0.35279000  1.0
  H  H28  1  0.88959000  0.12874000  0.71289000  1.0
  H  H29  1  0.11041000  0.87126000  0.28711000  1.0
  H  H30  1  0.44740000  0.65259000  0.91085000  1.0
  H  H31  1  0.55259000  0.34742000  0.08915000  1.0
  H  H32  1  0.47031000  0.41331000  0.93140000  1.0
  H  H33  1  0.52969000  0.58669000  0.06860000  1.0
  H  H34  1  0.73338000  0.47656000  0.89427000  1.0
  H  H35  1  0.26663000  0.52344000  0.10573000  1.0
  H  H36  1  0.89193000  0.53247000  0.74130000  1.0
  H  H37  1  0.10807000  0.46753000  0.25870000  1.0
  H  H38  1  0.67027000  0.72112000  0.80919000  1.0
  H  H39  1  0.32973000  0.27888000  0.19081000  1.0
  H  H40  1  0.36894000  0.85152000  0.77015000  1.0
  H  H41  1  0.63106000  0.14848000  0.22985000  1.0
  C  C42  1  0.38625000  0.63459000  0.85056000  1.0
  C  C43  1  0.61375000  0.36541000  0.14944000  1.0
  C  C44  1  0.49029000  0.47081000  0.85264000  1.0
  C  C45  1  0.50971000  0.52919000  0.14736000  1.0
  C  C46  1  0.69553000  0.44522000  0.83182000  1.0
  C  C47  1  0.30448000  0.55478000  0.16818000  1.0
  C  C48  1  0.74864000  0.54744000  0.73472000  1.0
  C  C49  1  0.25136000  0.45256000  0.26528000  1.0
  C  C50  1  0.63414000  0.70670000  0.73910000  1.0
  C  C51  1  0.36586000  0.29330000  0.26090000  1.0
  C  C52  1  0.42526000  0.74150000  0.75516000  1.0
  C  C53  1  0.57474000  0.25850000  0.24484000  1.0
  C  C54  1  0.18610000  0.68101000  0.88830000  1.0
  C  C55  1  0.81390000  0.31899000  0.11170000  1.0
  C  C56  1  0.42660000  0.39927000  0.78742000  1.0
  C  C57  1  0.57341000  0.60073000  0.21258000  1.0
  C  C58  1  0.80916000  0.28197000  0.85051000  1.0
  C  C59  1  0.19084000  0.71803000  0.14949000  1.0
  C  C60  1  0.74235000  0.52009000  0.63101000  1.0
  C  C61  1  0.25765000  0.47991000  0.36899000  1.0
  C  C62  1  0.68461000  0.82344000  0.65514000  1.0
  C  C63  1  0.31539000  0.17656000  0.34486000  1.0
  C  C64  1  0.32604000  0.75503000  0.66364000  1.0
  C  C65  1  0.67397000  0.24497000  0.33636000  1.0
  N  N66  1  0.96031000  0.05625000  0.66908000  1.0
  N  N67  1  0.03970000  0.94376000  0.33092000  1.0
  O  O68  1  0.13012000  0.58999000  0.95671000  1.0
  O  O69  1  0.86988000  0.41001000  0.04330000  1.0
  O  O70  1  0.09057000  0.81528000  0.85661000  1.0
  O  O71  1  0.90943000  0.18471000  0.14339000  1.0
  O  O72  1  0.27464000  0.37817000  0.81243000  1.0
  O  O73  1  0.72536000  0.62183000  0.18757000  1.0
  O  O74  1  0.53817000  0.35461000  0.71639000  1.0
  O  O75  1  0.46183000  0.64540000  0.28361000  1.0
  O  O76  1  0.74241000  0.19521000  0.91785000  1.0
  O  O77  1  0.25758000  0.80480000  0.08214000  1.0
  O  O78  1  0.96401000  0.23724000  0.80624000  1.0
  O  O79  1  0.03600000  0.76276000  0.19376000  1.0
  O  O80  1  0.88244000  0.42859000  0.59457000  1.0
  O  O81  1  0.11755000  0.57141000  0.40543000  1.0
  O  O82  1  0.59772000  0.59590000  0.58557000  1.0
  O  O83  1  0.40228000  0.40409000  0.41443000  1.0
  O  O84  1  0.80753000  0.78278000  0.58670000  1.0
  O  O85  1  0.19247000  0.21722000  0.41330000  1.0
  O  O86  1  0.60521000  0.95521000  0.66242000  1.0
  O  O87  1  0.39478000  0.04478000  0.33759000  1.0
  O  O88  1  0.33026000  0.85889000  0.58719000  1.0
  O  O89  1  0.66974000  0.14111000  0.41282000  1.0
  O  O90  1  0.23699000  0.67015000  0.67430000  1.0
  O  O91  1  0.76301000  0.32985000  0.32570000  1.0
  O  O92  1  0.45587000  0.18372000  0.03676000  1.0
  O  O93  1  0.54413000  0.81628000  0.96324000  1.0
  O  O94  1  0.71298000  0.92495000  0.11953000  1.0
  O  O95  1  0.28702000  0.07505000  0.88047000  1.0
  O  O96  1  0.27721000  0.14923000  0.60606000  1.0
  O  O97  1  0.72279000  0.85077000  0.39394000  1.0
