# generated using pymatgen
data_CuH10C15NO4
_symmetry_space_group_name_H-M   'P 1'
_cell_length_a   10.31500000
_cell_length_b   13.19330000
_cell_length_c   13.19330000
_cell_angle_alpha   101.99500000
_cell_angle_beta   105.81800000
_cell_angle_gamma   105.81900000
_symmetry_Int_Tables_number   1
_chemical_formula_structural   CuH10C15NO4
_chemical_formula_sum   'Cu4 H40 C60 N4 O16'
_cell_volume   1582.97322094
_cell_formula_units_Z   4
loop_
 _symmetry_equiv_pos_site_id
 _symmetry_equiv_pos_as_xyz
  1  'x, y, z'
loop_
 _atom_site_type_symbol
 _atom_site_label
 _atom_site_symmetry_multiplicity
 _atom_site_fract_x
 _atom_site_fract_y
 _atom_site_fract_z
 _atom_site_occupancy
  Cu  Cu0  1  0.88805000  0.27077000  0.82719000  1.0
  Cu  Cu1  1  0.61195000  0.17281000  0.72923000  1.0
  Cu  Cu2  1  0.11195000  0.72923000  0.17281000  1.0
  Cu  Cu3  1  0.38805000  0.82720000  0.27077000  1.0
  H  H4  1  0.58600000  0.83130000  0.65936000  1.0
  H  H5  1  0.91400000  0.34064000  0.16870000  1.0
  H  H6  1  0.41399000  0.16870000  0.34064000  1.0
  H  H7  1  0.08600000  0.65936000  0.83130000  1.0
  H  H8  1  0.59183000  0.65150000  0.67979000  1.0
  H  H9  1  0.90817000  0.32021000  0.34849000  1.0
  H  H10  1  0.40816000  0.34850000  0.32021000  1.0
  H  H11  1  0.09184000  0.67979000  0.65151000  1.0
  H  H12  1  0.00489000  0.99617000  0.91101000  1.0
  H  H13  1  0.49510000  0.08898000  0.00383000  1.0
  H  H14  1  0.99510000  0.00383000  0.08898000  1.0
  H  H15  1  0.50490000  0.91102000  0.99618000  1.0
  H  H16  1  0.35926000  0.61460000  0.99294000  1.0
  H  H17  1  0.14074000  0.00705000  0.38540000  1.0
  H  H18  1  0.64074000  0.38540000  0.00705000  1.0
  H  H19  1  0.85925000  0.99295000  0.61460000  1.0
  H  H20  1  0.09814000  0.50783000  0.92399000  1.0
  H  H21  1  0.40185000  0.07601000  0.49216000  1.0
  H  H22  1  0.90185000  0.49216000  0.07601000  1.0
  H  H23  1  0.59814000  0.92399000  0.50783000  1.0
  H  H24  1  0.16695000  0.21042000  0.88475000  1.0
  H  H25  1  0.33304000  0.11526000  0.78958000  1.0
  H  H26  1  0.83305000  0.78958000  0.11526000  1.0
  H  H27  1  0.66695000  0.88475000  0.21042000  1.0
  H  H28  1  0.43147000  0.30288000  0.94966000  1.0
  H  H29  1  0.06853000  0.05033000  0.69712000  1.0
  H  H30  1  0.56853000  0.69712000  0.05034000  1.0
  H  H31  1  0.93147000  0.94966000  0.30288000  1.0
  H  H32  1  0.00933000  0.81461000  0.93687000  1.0
  H  H33  1  0.49068000  0.06312000  0.18539000  1.0
  H  H34  1  0.99067000  0.18539000  0.06313000  1.0
  H  H35  1  0.50933000  0.93688000  0.81461000  1.0
  H  H36  1  0.59715000  0.50556000  0.72129000  1.0
  H  H37  1  0.90286000  0.27870000  0.49444000  1.0
  H  H38  1  0.40285000  0.49444000  0.27870000  1.0
  H  H39  1  0.09715000  0.72130000  0.50556000  1.0
  H  H40  1  0.91103000  0.61916000  0.88280000  1.0
  H  H41  1  0.58897000  0.11720000  0.38084000  1.0
  H  H42  1  0.08897000  0.38084000  0.11720000  1.0
  H  H43  1  0.41104000  0.88280000  0.61916000  1.0
  C  C44  1  0.78362000  0.03439000  0.77688000  1.0
  C  C45  1  0.71637000  0.22312000  0.96561000  1.0
  C  C46  1  0.21637000  0.96561000  0.22312000  1.0
  C  C47  1  0.28362000  0.77688000  0.03439000  1.0
  C  C48  1  0.79390000  0.92559000  0.78537000  1.0
  C  C49  1  0.70610000  0.21463000  0.07441000  1.0
  C  C50  1  0.20609000  0.07441000  0.21463000  1.0
  C  C51  1  0.29390000  0.78537000  0.92559000  1.0
  C  C52  1  0.67842000  0.82736000  0.72012000  1.0
  C  C53  1  0.82158000  0.27988000  0.17264000  1.0
  C  C54  1  0.32158000  0.17264000  0.27988000  1.0
  C  C55  1  0.17842000  0.72012000  0.82736000  1.0
  C  C56  1  0.68215000  0.72643000  0.73232000  1.0
  C  C57  1  0.81785000  0.26768000  0.27357000  1.0
  C  C58  1  0.31785000  0.27357000  0.26768000  1.0
  C  C59  1  0.18216000  0.73232000  0.72643000  1.0
  C  C60  1  0.91463000  0.92006000  0.86159000  1.0
  C  C61  1  0.58537000  0.13840000  0.07994000  1.0
  C  C62  1  0.08537000  0.07994000  0.13840000  1.0
  C  C63  1  0.41463000  0.86160000  0.92006000  1.0
  C  C64  1  0.32285000  0.52494000  0.96950000  1.0
  C  C65  1  0.17715000  0.03050000  0.47506000  1.0
  C  C66  1  0.67715000  0.47506000  0.03050000  1.0
  C  C67  1  0.82284000  0.96950000  0.52494000  1.0
  C  C68  1  0.17616000  0.46583000  0.93098000  1.0
  C  C69  1  0.32384000  0.06902000  0.53417000  1.0
  C  C70  1  0.82384000  0.53417000  0.06902000  1.0
  C  C71  1  0.67615000  0.93098000  0.46583000  1.0
  C  C72  1  0.21502000  0.30035000  0.90945000  1.0
  C  C73  1  0.28497000  0.09055000  0.69965000  1.0
  C  C74  1  0.78498000  0.69964000  0.09055000  1.0
  C  C75  1  0.71502000  0.90945000  0.30035000  1.0
  C  C76  1  0.36331000  0.35316000  0.94671000  1.0
  C  C77  1  0.13669000  0.05328000  0.64683000  1.0
  C  C78  1  0.63669000  0.64683000  0.05328000  1.0
  C  C79  1  0.86331000  0.94671000  0.35317000  1.0
  C  C80  1  0.91718000  0.81878000  0.87547000  1.0
  C  C81  1  0.58283000  0.12453000  0.18122000  1.0
  C  C82  1  0.08282000  0.18122000  0.12453000  1.0
  C  C83  1  0.41718000  0.87547000  0.81878000  1.0
  C  C84  1  0.42151000  0.46932000  0.97898000  1.0
  C  C85  1  0.07848000  0.02102000  0.53068000  1.0
  C  C86  1  0.57848000  0.53068000  0.02102000  1.0
  C  C87  1  0.92151000  0.97898000  0.46932000  1.0
  C  C88  1  0.80076000  0.72011000  0.81140000  1.0
  C  C89  1  0.69924000  0.18860000  0.27990000  1.0
  C  C90  1  0.19924000  0.27989000  0.18860000  1.0
  C  C91  1  0.30076000  0.81141000  0.72011000  1.0
  C  C92  1  0.80929000  0.61532000  0.82587000  1.0
  C  C93  1  0.69072000  0.17414000  0.38469000  1.0
  C  C94  1  0.19071000  0.38469000  0.17413000  1.0
  C  C95  1  0.30929000  0.82587000  0.61532000  1.0
  C  C96  1  0.70393000  0.51554000  0.77500000  1.0
  C  C97  1  0.79608000  0.22500000  0.48446000  1.0
  C  C98  1  0.29607000  0.48446000  0.22500000  1.0
  C  C99  1  0.20393000  0.77500000  0.51554000  1.0
  C  C100  1  0.72318000  0.41080000  0.78507000  1.0
  C  C101  1  0.77683000  0.21493000  0.58921000  1.0
  C  C102  1  0.27683000  0.58920000  0.21493000  1.0
  C  C103  1  0.22318000  0.78507000  0.41080000  1.0
  N  N104  1  0.12168000  0.35486000  0.90155000  1.0
  N  N105  1  0.37832000  0.09845000  0.64514000  1.0
  N  N106  1  0.87832000  0.64514000  0.09845000  1.0
  N  N107  1  0.62168000  0.90155000  0.35486000  1.0
  O  O108  1  0.89945000  0.11882000  0.81724000  1.0
  O  O109  1  0.60055000  0.18277000  0.88118000  1.0
  O  O110  1  0.10055000  0.88118000  0.18276000  1.0
  O  O111  1  0.39945000  0.81724000  0.11882000  1.0
  O  O112  1  0.85026000  0.41159000  0.83054000  1.0
  O  O113  1  0.64974000  0.16946000  0.58841000  1.0
  O  O114  1  0.14974000  0.58841000  0.16946000  1.0
  O  O115  1  0.35026000  0.83054000  0.41159000  1.0
  O  O116  1  0.60819000  0.32534000  0.74383000  1.0
  O  O117  1  0.89181000  0.25617000  0.67466000  1.0
  O  O118  1  0.39181000  0.67466000  0.25617000  1.0
  O  O119  1  0.10820000  0.74383000  0.32535000  1.0
  O  O120  1  0.65740000  0.03448000  0.73062000  1.0
  O  O121  1  0.84260000  0.26938000  0.96552000  1.0
  O  O122  1  0.34260000  0.96552000  0.26938000  1.0
  O  O123  1  0.15740000  0.73062000  0.03448000  1.0
