# generated using pymatgen
data_Cd2CuH10(C9O7)2
_symmetry_space_group_name_H-M   'P 1'
_cell_length_a   6.27781000
_cell_length_b   9.32601000
_cell_length_c   10.09320000
_cell_angle_alpha   64.28190000
_cell_angle_beta   77.84010000
_cell_angle_gamma   76.42440000
_symmetry_Int_Tables_number   1
_chemical_formula_structural   Cd2CuH10(C9O7)2
_chemical_formula_sum   'Cd2 Cu1 H10 C18 O14'
_cell_volume   513.50641511
_cell_formula_units_Z   1
loop_
 _symmetry_equiv_pos_site_id
 _symmetry_equiv_pos_as_xyz
  1  'x, y, z'
loop_
 _atom_site_type_symbol
 _atom_site_label
 _atom_site_symmetry_multiplicity
 _atom_site_fract_x
 _atom_site_fract_y
 _atom_site_fract_z
 _atom_site_occupancy
  Cd  Cd0  1  0.78051000  0.57848000  0.13998000  1.0
  Cd  Cd1  1  0.21950000  0.42152000  0.86002000  1.0
  Cu  Cu2  1  0.50000000  0.50000000  0.50000000  1.0
  H  H3  1  0.30857000  0.56074000  0.16814000  1.0
  H  H4  1  0.69143000  0.43925000  0.83186000  1.0
  H  H5  1  0.28649000  0.72782000  0.17409000  1.0
  H  H6  1  0.71351000  0.27217000  0.82592000  1.0
  H  H7  1  0.70879000  0.02350000  0.68946000  1.0
  H  H8  1  0.29121000  0.97650000  0.31054000  1.0
  H  H9  1  0.83608000  0.59141000  0.61126000  1.0
  H  H10  1  0.16391000  0.40859000  0.38874000  1.0
  H  H11  1  0.78796000  0.05583000  0.24340000  1.0
  H  H12  1  0.21205000  0.94417000  0.75660000  1.0
  C  C13  1  0.74331000  0.05863000  0.46073000  1.0
  C  C14  1  0.25669000  0.94137000  0.53927000  1.0
  C  C15  1  0.73867000  0.96541000  0.61282000  1.0
  C  C16  1  0.26133000  0.03460000  0.38718000  1.0
  C  C17  1  0.77697000  0.79687000  0.66769000  1.0
  C  C18  1  0.22303000  0.20313000  0.33231000  1.0
  C  C19  1  0.80994000  0.72223000  0.56979000  1.0
  C  C20  1  0.19006000  0.27777000  0.43020000  1.0
  C  C21  1  0.81045000  0.81513000  0.41767000  1.0
  C  C22  1  0.18956000  0.18487000  0.58233000  1.0
  C  C23  1  0.78342000  0.98349000  0.36223000  1.0
  C  C24  1  0.21658000  0.01651000  0.63777000  1.0
  C  C25  1  0.70147000  0.23872000  0.40441000  1.0
  C  C26  1  0.29853000  0.76128000  0.59559000  1.0
  C  C27  1  0.78406000  0.69942000  0.82938000  1.0
  C  C28  1  0.21594000  0.30058000  0.17062000  1.0
  C  C29  1  0.83358000  0.73443000  0.31573000  1.0
  C  C30  1  0.16642000  0.26557000  0.68427000  1.0
  O  O31  1  0.64670000  0.29317000  0.50598000  1.0
  O  O32  1  0.35329000  0.70683000  0.49401000  1.0
  O  O33  1  0.72085000  0.32026000  0.26552000  1.0
  O  O34  1  0.27915000  0.67974000  0.73448000  1.0
  O  O35  1  0.92035000  0.79370000  0.18387000  1.0
  O  O36  1  0.07967000  0.20629000  0.81613000  1.0
  O  O37  1  0.76204000  0.59628000  0.36637000  1.0
  O  O38  1  0.23796000  0.40372000  0.63362000  1.0
  O  O39  1  0.83344000  0.54366000  0.87978000  1.0
  O  O40  1  0.16656000  0.45634000  0.12023000  1.0
  O  O41  1  0.74227000  0.77304000  0.91431000  1.0
  O  O42  1  0.25773000  0.22696000  0.08569000  1.0
  O  O43  1  0.38250000  0.62299000  0.19931000  1.0
  O  O44  1  0.61751000  0.37700000  0.80069000  1.0
