# generated using pymatgen
data_SnH10C6(BrN)2
_symmetry_space_group_name_H-M   'P 1'
_cell_length_a   6.47997000
_cell_length_b   6.47966000
_cell_length_c   7.62182000
_cell_angle_alpha   66.86210000
_cell_angle_beta   66.86260000
_cell_angle_gamma   71.52850000
_symmetry_Int_Tables_number   1
_chemical_formula_structural   SnH10C6(BrN)2
_chemical_formula_sum   'Sn1 H10 C6 Br2 N2'
_cell_volume   265.57270499
_cell_formula_units_Z   1
loop_
 _symmetry_equiv_pos_site_id
 _symmetry_equiv_pos_as_xyz
  1  'x, y, z'
loop_
 _atom_site_type_symbol
 _atom_site_label
 _atom_site_symmetry_multiplicity
 _atom_site_fract_x
 _atom_site_fract_y
 _atom_site_fract_z
 _atom_site_occupancy
  Sn  Sn0  1  0.00000000  0.00000000  0.00000000  1.0
  H  H1  1  0.97113000  0.97115000  0.37284000  1.0
  H  H2  1  0.02885000  0.02884000  0.62714000  1.0
  H  H3  1  0.25177000  0.01371000  0.20213000  1.0
  H  H4  1  0.98633000  0.74823000  0.79784000  1.0
  H  H5  1  0.74826000  0.98630000  0.79784000  1.0
  H  H6  1  0.01368000  0.25182000  0.20211000  1.0
  H  H7  1  0.46017000  0.79232000  0.68806000  1.0
  H  H8  1  0.20772000  0.53980000  0.31194000  1.0
  H  H9  1  0.53982000  0.20767000  0.31198000  1.0
  H  H10  1  0.79227000  0.46017000  0.68809000  1.0
  C  C11  1  0.47776000  0.66140000  0.82761000  1.0
  C  C12  1  0.33852000  0.52222000  0.17247000  1.0
  C  C13  1  0.52224000  0.33857000  0.17242000  1.0
  C  C14  1  0.66143000  0.47775000  0.82760000  1.0
  C  C15  1  0.06745000  0.06749000  0.22437000  1.0
  C  C16  1  0.93256000  0.93254000  0.77556000  1.0
  Br  Br17  1  0.71239000  0.71241000  0.29127000  1.0
  Br  Br18  1  0.28765000  0.28762000  0.70870000  1.0
  N  N19  1  0.31811000  0.68187000  0.00002000  1.0
  N  N20  1  0.68188000  0.31811000  0.00001000  1.0
