# generated using pymatgen
data_CdH6C5(NO3)2
_symmetry_space_group_name_H-M   'P 1'
_cell_length_a   7.45389000
_cell_length_b   10.49950000
_cell_length_c   11.70590000
_cell_angle_alpha   84.14660000
_cell_angle_beta   71.46920000
_cell_angle_gamma   71.24370000
_symmetry_Int_Tables_number   1
_chemical_formula_structural   CdH6C5(NO3)2
_chemical_formula_sum   'Cd4 H24 C20 N8 O24'
_cell_volume   822.50115619
_cell_formula_units_Z   4
loop_
 _symmetry_equiv_pos_site_id
 _symmetry_equiv_pos_as_xyz
  1  'x, y, z'
loop_
 _atom_site_type_symbol
 _atom_site_label
 _atom_site_symmetry_multiplicity
 _atom_site_fract_x
 _atom_site_fract_y
 _atom_site_fract_z
 _atom_site_occupancy
  Cd  Cd0  1  0.99732000  0.40229000  0.15625000  1.0
  Cd  Cd1  1  0.84617000  0.09785000  0.15631000  1.0
  Cd  Cd2  1  0.00268000  0.59771000  0.84375000  1.0
  Cd  Cd3  1  0.15383000  0.90215000  0.84369000  1.0
  H  H4  1  0.77796000  0.48694000  0.44688000  1.0
  H  H5  1  0.77516000  0.01307000  0.44677000  1.0
  H  H6  1  0.22205000  0.51306000  0.55312000  1.0
  H  H7  1  0.22484000  0.98693000  0.55323000  1.0
  H  H8  1  0.44444000  0.87213000  0.35272000  1.0
  H  H9  1  0.20318000  0.62807000  0.35256000  1.0
  H  H10  1  0.55556000  0.12787000  0.64728000  1.0
  H  H11  1  0.79682000  0.37193000  0.64744000  1.0
  H  H12  1  0.28890000  0.52271000  0.14057000  1.0
  H  H13  1  0.57054000  0.97726000  0.14047000  1.0
  H  H14  1  0.71110000  0.47729000  0.85943000  1.0
  H  H15  1  0.42946000  0.02274000  0.85953000  1.0
  H  H16  1  0.30874000  0.41078000  0.24400000  1.0
  H  H17  1  0.44710000  0.08930000  0.24381000  1.0
  H  H18  1  0.69126000  0.58922000  0.75600000  1.0
  H  H19  1  0.55290000  0.91070000  0.75619000  1.0
  H  H20  1  0.69609000  0.34784000  0.06648000  1.0
  H  H21  1  0.23744000  0.15223000  0.06636000  1.0
  H  H22  1  0.30391000  0.65216000  0.93352000  1.0
  H  H23  1  0.76256000  0.84777000  0.93364000  1.0
  H  H24  1  0.60870000  0.36312000  0.21725000  1.0
  H  H25  1  0.17468000  0.13691000  0.21695000  1.0
  H  H26  1  0.39130000  0.63688000  0.78275000  1.0
  H  H27  1  0.82532000  0.86309000  0.78305000  1.0
  C  C28  1  0.67551000  0.69236000  0.24914000  1.0
  C  C29  1  0.07513000  0.80764000  0.24900000  1.0
  C  C30  1  0.32449000  0.30764000  0.75086000  1.0
  C  C31  1  0.92487000  0.19236000  0.75100000  1.0
  C  C32  1  0.54616000  0.77121000  0.35064000  1.0
  C  C33  1  0.10330000  0.72892000  0.35051000  1.0
  C  C34  1  0.45384000  0.22879000  0.64936000  1.0
  C  C35  1  0.89670000  0.27108000  0.64949000  1.0
  C  C36  1  0.57582000  0.69076000  0.44990000  1.0
  C  C37  1  0.97454000  0.80940000  0.44979000  1.0
  C  C38  1  0.42418000  0.30924000  0.55009000  1.0
  C  C39  1  0.02546000  0.19061000  0.55021000  1.0
  C  C40  1  0.72612000  0.71709000  0.11686000  1.0
  C  C41  1  0.15724000  0.78294000  0.11672000  1.0
  C  C42  1  0.27388000  0.28291000  0.88314000  1.0
  C  C43  1  0.84275000  0.21706000  0.88328000  1.0
  C  C44  1  0.48742000  0.71259000  0.58208000  1.0
  C  C45  1  0.93016000  0.78745000  0.58201000  1.0
  C  C46  1  0.51258000  0.28741000  0.41792000  1.0
  C  C47  1  0.06984000  0.21255000  0.41799000  1.0
  N  N48  1  0.71452000  0.57256000  0.40480000  1.0
  N  N49  1  0.88075000  0.92749000  0.40467000  1.0
  N  N50  1  0.28548000  0.42744000  0.59520000  1.0
  N  N51  1  0.11925000  0.07251000  0.59533000  1.0
  N  N52  1  0.77547000  0.57193000  0.28548000  1.0
  N  N53  1  0.93889000  0.92807000  0.28533000  1.0
  N  N54  1  0.22453000  0.42807000  0.71452000  1.0
  N  N55  1  0.06111000  0.07192000  0.71467000  1.0
  O  O56  1  0.85898000  0.61948000  0.05203000  1.0
  O  O57  1  0.09012000  0.88080000  0.05183000  1.0
  O  O58  1  0.14103000  0.38052000  0.94797000  1.0
  O  O59  1  0.90987000  0.11920000  0.94817000  1.0
  O  O60  1  0.64207000  0.82989000  0.07710000  1.0
  O  O61  1  0.28077000  0.67000000  0.07703000  1.0
  O  O62  1  0.35793000  0.17011000  0.92290000  1.0
  O  O63  1  0.71923000  0.33000000  0.92297000  1.0
  O  O64  1  0.55160000  0.61480000  0.64840000  1.0
  O  O65  1  0.79867000  0.88496000  0.64824000  1.0
  O  O66  1  0.44841000  0.38520000  0.35159000  1.0
  O  O67  1  0.20133000  0.11504000  0.35176000  1.0
  O  O68  1  0.35632000  0.82350000  0.61841000  1.0
  O  O69  1  0.02512000  0.67665000  0.61842000  1.0
  O  O70  1  0.64368000  0.17650000  0.38159000  1.0
  O  O71  1  0.97488000  0.32335000  0.38158000  1.0
  O  O72  1  0.28250000  0.42966000  0.16570000  1.0
  O  O73  1  0.55170000  0.07036000  0.16555000  1.0
  O  O74  1  0.71750000  0.57034000  0.83430000  1.0
  O  O75  1  0.44830000  0.92964000  0.83445000  1.0
  O  O76  1  0.73041000  0.33514000  0.14458000  1.0
  O  O77  1  0.12521000  0.16484000  0.14448000  1.0
  O  O78  1  0.26959000  0.66486000  0.85542000  1.0
  O  O79  1  0.87479000  0.83516000  0.85552000  1.0
