# generated using pymatgen
data_CuH8(C7N4)2
_symmetry_space_group_name_H-M   'P 1'
_cell_length_a   8.63582000
_cell_length_b   9.53306000
_cell_length_c   10.35563085
_cell_angle_alpha   79.25885380
_cell_angle_beta   65.65047190
_cell_angle_gamma   63.13310000
_symmetry_Int_Tables_number   1
_chemical_formula_structural   CuH8(C7N4)2
_chemical_formula_sum   'Cu2 H16 C28 N16'
_cell_volume   692.86210796
_cell_formula_units_Z   2
loop_
 _symmetry_equiv_pos_site_id
 _symmetry_equiv_pos_as_xyz
  1  'x, y, z'
loop_
 _atom_site_type_symbol
 _atom_site_label
 _atom_site_symmetry_multiplicity
 _atom_site_fract_x
 _atom_site_fract_y
 _atom_site_fract_z
 _atom_site_occupancy
  Cu  Cu0  1  0.83001000  0.62849000  0.28428000  1.0
  Cu  Cu1  1  0.95857000  0.37162000  0.78412000  1.0
  H  H2  1  0.53886000  0.86415000  0.16856000  1.0
  H  H3  1  0.90314000  0.13584000  0.66800000  1.0
  H  H4  1  0.33905000  0.84625000  0.05734000  1.0
  H  H5  1  0.68542000  0.15365000  0.55678000  1.0
  H  H6  1  0.35943000  0.58000000  0.03277000  1.0
  H  H7  1  0.43964000  0.41985000  0.53272000  1.0
  H  H8  1  0.58396000  0.34328000  0.11187000  1.0
  H  H9  1  0.42757000  0.65650000  0.61224000  1.0
  H  H10  1  0.12608000  0.32777000  0.35133000  1.0
  H  H11  1  0.95405000  0.67263000  0.85143000  1.0
  H  H12  1  0.21515000  0.03898000  0.34362000  1.0
  H  H13  1  0.75441000  0.96137000  0.84390000  1.0
  H  H14  1  0.03266000  0.95287000  0.26311000  1.0
  H  H15  1  0.48588000  0.04703000  0.76371000  1.0
  H  H16  1  0.77769000  0.15697000  0.18746000  1.0
  H  H17  1  0.43503000  0.84265000  0.68797000  1.0
  C  C18  1  0.67730000  0.47896000  0.18357000  1.0
  C  C19  1  0.65652000  0.52089000  0.68373000  1.0
  C  C20  1  0.54172000  0.75172000  0.15610000  1.0
  C  C21  1  0.79353000  0.24816000  0.65580000  1.0
  C  C22  1  0.43168000  0.74060000  0.09441000  1.0
  C  C23  1  0.67235000  0.25927000  0.59413000  1.0
  C  C24  1  0.44453000  0.59297000  0.07938000  1.0
  C  C25  1  0.53763000  0.40686000  0.57939000  1.0
  C  C26  1  0.56942000  0.46014000  0.12392000  1.0
  C  C27  1  0.52977000  0.53968000  0.62416000  1.0
  C  C28  1  0.82021000  0.34858000  0.22804000  1.0
  C  C29  1  0.66913000  0.65133000  0.72828000  1.0
  C  C30  1  0.05564000  0.28378000  0.31364000  1.0
  C  C31  1  0.83969000  0.71649000  0.81381000  1.0
  C  C32  1  0.10350000  0.12370000  0.30914000  1.0
  C  C33  1  0.72749000  0.87652000  0.80942000  1.0
  C  C34  1  0.00194000  0.07684000  0.26467000  1.0
  C  C35  1  0.57907000  0.92311000  0.76516000  1.0
  C  C36  1  0.85912000  0.19028000  0.22272000  1.0
  C  C37  1  0.54972000  0.80954000  0.72315000  1.0
  C  C38  1  0.07432000  0.64689000  0.42043000  1.0
  C  C39  1  0.22099000  0.35321000  0.92029000  1.0
  C  C40  1  0.16223000  0.78442000  0.52105000  1.0
  C  C41  1  0.44621000  0.21570000  0.02087000  1.0
  C  C42  1  0.57263000  0.97069000  0.40284000  1.0
  C  C43  1  0.04359000  0.02926000  0.90242000  1.0
  C  C44  1  0.33709000  0.20424000  0.51840000  1.0
  C  C45  1  0.04159000  0.79574000  0.01810000  1.0
  N  N46  1  0.65940000  0.62358000  0.20064000  1.0
  N  N47  1  0.78315000  0.37632000  0.70053000  1.0
  N  N48  1  0.91713000  0.39280000  0.27479000  1.0
  N  N49  1  0.81021000  0.60730000  0.77492000  1.0
  N  N50  1  0.98216000  0.60525000  0.39191000  1.0
  N  N51  1  0.08712000  0.39504000  0.89193000  1.0
  N  N52  1  0.19216000  0.67356000  0.44525000  1.0
  N  N53  1  0.36556000  0.32640000  0.94499000  1.0
  N  N54  1  0.15670000  0.87772000  0.58567000  1.0
  N  N55  1  0.53380000  0.12251000  0.08555000  1.0
  N  N56  1  0.65199000  0.83944000  0.36377000  1.0
  N  N57  1  0.99131000  0.16057000  0.86355000  1.0
  N  N58  1  0.50491000  0.11481000  0.43871000  1.0
  N  N59  1  0.12004000  0.88516000  0.93820000  1.0
  N  N60  1  0.19234000  0.30066000  0.58785000  1.0
  N  N61  1  0.99302000  0.69940000  0.08780000  1.0
