# generated using pymatgen
data_Na2CdH24(C5O6)4
_symmetry_space_group_name_H-M   'P 1'
_cell_length_a   7.07625000
_cell_length_b   10.57030000
_cell_length_c   10.89380000
_cell_angle_alpha   84.46450000
_cell_angle_beta   73.49890000
_cell_angle_gamma   70.47600000
_symmetry_Int_Tables_number   1
_chemical_formula_structural   Na2CdH24(C5O6)4
_chemical_formula_sum   'Na2 Cd1 H24 C20 O24'
_cell_volume   736.35261454
_cell_formula_units_Z   1
loop_
 _symmetry_equiv_pos_site_id
 _symmetry_equiv_pos_as_xyz
  1  'x, y, z'
loop_
 _atom_site_type_symbol
 _atom_site_label
 _atom_site_symmetry_multiplicity
 _atom_site_fract_x
 _atom_site_fract_y
 _atom_site_fract_z
 _atom_site_occupancy
  Na  Na0  1  0.68156000  0.00008000  0.34352000  1.0
  Na  Na1  1  0.31819000  0.99991000  0.65625000  1.0
  Cd  Cd2  1  0.99992000  1.00000000  0.00007000  1.0
  H  H3  1  0.63613000  0.72838000  0.49981000  1.0
  H  H4  1  0.36397000  0.27161000  0.50020000  1.0
  H  H5  1  0.88052000  0.23827000  0.50010000  1.0
  H  H6  1  0.11946000  0.76172000  0.49991000  1.0
  H  H7  1  0.06974000  0.71999000  0.07182000  1.0
  H  H8  1  0.21209000  0.72014000  0.92811000  1.0
  H  H9  1  0.93015000  0.27999000  0.92818000  1.0
  H  H10  1  0.78779000  0.27988000  0.07189000  1.0
  H  H11  1  0.23965000  0.07802000  0.39845000  1.0
  H  H12  1  0.68228000  0.07802000  0.60146000  1.0
  H  H13  1  0.76031000  0.92198000  0.60149000  1.0
  H  H14  1  0.31768000  0.92198000  0.39849000  1.0
  H  H15  1  0.59309000  0.92086000  0.12055000  1.0
  H  H16  1  0.48567000  0.92088000  0.87962000  1.0
  H  H17  1  0.40697000  0.07922000  0.87868000  1.0
  H  H18  1  0.51445000  0.07914000  0.11962000  1.0
  H  H19  1  0.04748000  0.07972000  0.23139000  1.0
  H  H20  1  0.87302000  0.07928000  0.76862000  1.0
  H  H21  1  0.95255000  0.92027000  0.76863000  1.0
  H  H22  1  0.12700000  0.92072000  0.23140000  1.0
  H  H23  1  0.09270000  0.47363000  0.17201000  1.0
  H  H24  1  0.43302000  0.47333000  0.82775000  1.0
  H  H25  1  0.90732000  0.52635000  0.82800000  1.0
  H  H26  1  0.56699000  0.52668000  0.17227000  1.0
  C  C27  1  0.69051000  0.61929000  0.49987000  1.0
  C  C28  1  0.30955000  0.38071000  0.50015000  1.0
  C  C29  1  0.82594000  0.34731000  0.50002000  1.0
  C  C30  1  0.17407000  0.65268000  0.50001000  1.0
  C  C31  1  0.83069000  0.55499000  0.38825000  1.0
  C  C32  1  0.61440000  0.55485000  0.61160000  1.0
  C  C33  1  0.16938000  0.44498000  0.61179000  1.0
  C  C34  1  0.38565000  0.44516000  0.38843000  1.0
  C  C35  1  0.90344000  0.41238000  0.38857000  1.0
  C  C36  1  0.68363000  0.41223000  0.61137000  1.0
  C  C37  1  0.09659000  0.58761000  0.61146000  1.0
  C  C38  1  0.31639000  0.58777000  0.38866000  1.0
  C  C39  1  0.05696000  0.31746000  0.28241000  1.0
  C  C40  1  0.62498000  0.31721000  0.71773000  1.0
  C  C41  1  0.94304000  0.68252000  0.71761000  1.0
  C  C42  1  0.37501000  0.68279000  0.28229000  1.0
  C  C43  1  0.88454000  0.65195000  0.28190000  1.0
  C  C44  1  0.46393000  0.65172000  0.71784000  1.0
  C  C45  1  0.11559000  0.34802000  0.71815000  1.0
  C  C46  1  0.53618000  0.34830000  0.28221000  1.0
  O  O47  1  0.09902000  0.19326000  0.30208000  1.0
  O  O48  1  0.70714000  0.19303000  0.69841000  1.0
  O  O49  1  0.90092000  0.80673000  0.69795000  1.0
  O  O50  1  0.29281000  0.80697000  0.30163000  1.0
  O  O51  1  0.14430000  0.36224000  0.17419000  1.0
  O  O52  1  0.49270000  0.36191000  0.82574000  1.0
  O  O53  1  0.85568000  0.63773000  0.82581000  1.0
  O  O54  1  0.50726000  0.63811000  0.17427000  1.0
  O  O55  1  0.02653000  0.60393000  0.17775000  1.0
  O  O56  1  0.36922000  0.60368000  0.82190000  1.0
  O  O57  1  0.97356000  0.39603000  0.82227000  1.0
  O  O58  1  0.63085000  0.39635000  0.17813000  1.0
  O  O59  1  0.79260000  0.77453000  0.29917000  1.0
  O  O60  1  0.43432000  0.77427000  0.70050000  1.0
  O  O61  1  0.20766000  0.22543000  0.70092000  1.0
  O  O62  1  0.56591000  0.22576000  0.29958000  1.0
  O  O63  1  0.32633000  0.99996000  0.43708000  1.0
  O  O64  1  0.67343000  0.00004000  0.56298000  1.0
  O  O65  1  0.63818000  0.99996000  0.10867000  1.0
  O  O66  1  0.36180000  0.00010000  0.89239000  1.0
  O  O67  1  0.01841000  0.00023000  0.20877000  1.0
  O  O68  1  0.98160000  0.99977000  0.79126000  1.0
  O  O69  1  0.11202000  0.78000000  0.00020000  1.0
  O  O70  1  0.88758000  0.22000000  0.99973000  1.0
