# generated using pymatgen
data_MnH19C23N3O8
_symmetry_space_group_name_H-M   'P 1'
_cell_length_a   7.32241000
_cell_length_b   8.02263000
_cell_length_c   10.30980000
_cell_angle_alpha   84.48490000
_cell_angle_beta   74.12770000
_cell_angle_gamma   64.50760000
_symmetry_Int_Tables_number   1
_chemical_formula_structural   MnH19C23N3O8
_chemical_formula_sum   'Mn1 H19 C23 N3 O8'
_cell_volume   525.67864389
_cell_formula_units_Z   1
loop_
 _symmetry_equiv_pos_site_id
 _symmetry_equiv_pos_as_xyz
  1  'x, y, z'
loop_
 _atom_site_type_symbol
 _atom_site_label
 _atom_site_symmetry_multiplicity
 _atom_site_fract_x
 _atom_site_fract_y
 _atom_site_fract_z
 _atom_site_occupancy
  Mn  Mn0  1  0.05022000  0.49048000  0.45995000  1.0
  H  H1  1  0.49507000  0.48012000  0.45834000  1.0
  H  H2  1  0.08813000  0.12779000  0.48874000  1.0
  H  H3  1  0.42713000  0.94512000  0.51030000  1.0
  H  H4  1  0.50125000  0.12330000  0.43010000  1.0
  H  H5  1  0.44528000  0.98483000  0.33471000  1.0
  H  H6  1  0.80590000  0.68893000  0.09906000  1.0
  H  H7  1  0.76417000  0.83550000  0.87766000  1.0
  H  H8  1  0.56231000  0.93849000  0.70425000  1.0
  H  H9  1  0.24235000  0.88350000  0.73510000  1.0
  H  H10  1  0.12420000  0.72737000  0.93652000  1.0
  H  H11  1  0.16347000  0.58754000  0.15937000  1.0
  H  H12  1  0.46321000  0.27834000  0.63834000  1.0
  H  H13  1  0.33669000  0.52265000  0.65520000  1.0
  H  H14  1  0.37975000  0.39045000  0.79817000  1.0
  H  H15  1  0.59084000  0.20816000  0.88273000  1.0
  H  H16  1  0.63943000  0.05385000  0.10173000  1.0
  H  H17  1  0.83887000  0.96493000  0.27822000  1.0
  H  H18  1  0.12323000  0.06208000  0.25914000  1.0
  H  H19  1  0.21687000  0.24556000  0.06414000  1.0
  C  C20  1  0.40177000  0.05202000  0.43381000  1.0
  C  C21  1  0.72012000  0.54009000  0.32669000  1.0
  C  C22  1  0.59587000  0.58741000  0.22758000  1.0
  C  C23  1  0.66445000  0.66846000  0.11038000  1.0
  C  C24  1  0.55626000  0.72664000  0.00907000  1.0
  C  C25  1  0.62160000  0.81581000  0.89140000  1.0
  C  C26  1  0.50970000  0.87295000  0.79526000  1.0
  C  C27  1  0.32864000  0.84072000  0.81252000  1.0
  C  C28  1  0.26296000  0.75250000  0.92466000  1.0
  C  C29  1  0.37244000  0.69382000  0.02732000  1.0
  C  C30  1  0.30521000  0.60861000  0.14515000  1.0
  C  C31  1  0.40809000  0.55688000  0.24871000  1.0
  C  C32  1  0.44918000  0.39792000  0.69107000  1.0
  C  C33  1  0.65649000  0.40504000  0.66390000  1.0
  C  C34  1  0.77028000  0.34994000  0.76884000  1.0
  C  C35  1  0.71558000  0.25046000  0.87727000  1.0
  C  C36  1  0.81860000  0.19604000  0.98248000  1.0
  C  C37  1  0.76667000  0.09378000  0.09450000  1.0
  C  C38  1  0.87636000  0.04537000  0.19234000  1.0
  C  C39  1  0.03906000  0.09935000  0.18111000  1.0
  C  C40  1  0.09319000  0.20088000  0.07275000  1.0
  C  C41  1  0.98252000  0.24744000  0.97451000  1.0
  C  C42  1  0.94182000  0.39863000  0.76305000  1.0
  N  N43  1  0.97568000  0.88219000  0.52120000  1.0
  N  N44  1  0.74092000  0.45406000  0.54651000  1.0
  N  N45  1  0.63380000  0.49368000  0.45073000  1.0
  O  O46  1  0.01325000  0.48604000  0.67469000  1.0
  O  O47  1  0.03838000  0.34562000  0.86717000  1.0
  O  O48  1  0.89639000  0.54575000  0.30071000  1.0
  O  O49  1  0.34030000  0.48215000  0.36111000  1.0
  O  O50  1  0.88499000  0.79374000  0.48749000  1.0
  O  O51  1  0.13473000  0.80041000  0.56499000  1.0
  O  O52  1  0.89898000  0.05658000  0.50720000  1.0
  O  O53  1  0.18806000  0.18753000  0.46639000  1.0
