# generated using pymatgen
data_FeH12C4(ClO2)2
_symmetry_space_group_name_H-M   'P 1'
_cell_length_a   6.92836000
_cell_length_b   7.85352000
_cell_length_c   9.15294000
_cell_angle_alpha   90.00000000
_cell_angle_beta   89.99930000
_cell_angle_gamma   115.14700000
_symmetry_Int_Tables_number   1
_chemical_formula_structural   FeH12C4(ClO2)2
_chemical_formula_sum   'Fe2 H24 C8 Cl4 O8'
_cell_volume   450.82688384
_cell_formula_units_Z   2
loop_
 _symmetry_equiv_pos_site_id
 _symmetry_equiv_pos_as_xyz
  1  'x, y, z'
loop_
 _atom_site_type_symbol
 _atom_site_label
 _atom_site_symmetry_multiplicity
 _atom_site_fract_x
 _atom_site_fract_y
 _atom_site_fract_z
 _atom_site_occupancy
  Fe  Fe0  1  0.00000000  0.00000000  0.50000000  1.0
  Fe  Fe1  1  0.50000000  0.50000000  0.00000000  1.0
  H  H2  1  0.74957000  0.64331000  0.42347000  1.0
  H  H3  1  0.75045000  0.85668000  0.92348000  1.0
  H  H4  1  0.25043000  0.35669000  0.57653000  1.0
  H  H5  1  0.24955000  0.14332000  0.07652000  1.0
  H  H6  1  0.71515000  0.65983000  0.59293000  1.0
  H  H7  1  0.78489000  0.84017000  0.09294000  1.0
  H  H8  1  0.28485000  0.34017000  0.40707000  1.0
  H  H9  1  0.21511000  0.15983000  0.90706000  1.0
  H  H10  1  0.79396000  0.24993000  0.61870000  1.0
  H  H11  1  0.70605000  0.25009000  0.11871000  1.0
  H  H12  1  0.20604000  0.75007000  0.38130000  1.0
  H  H13  1  0.29395000  0.74991000  0.88129000  1.0
  H  H14  1  0.63289000  0.27324000  0.47307000  1.0
  H  H15  1  0.86712000  0.22674000  0.97309000  1.0
  H  H16  1  0.36711000  0.72676000  0.52693000  1.0
  H  H17  1  0.13288000  0.77326000  0.02691000  1.0
  H  H18  1  0.51088000  0.03174000  0.28741000  1.0
  H  H19  1  0.98912000  0.46822000  0.78741000  1.0
  H  H20  1  0.48913000  0.96826000  0.71259000  1.0
  H  H21  1  0.01088000  0.53178000  0.21259000  1.0
  H  H22  1  0.58932000  0.84218000  0.30347000  1.0
  H  H23  1  0.91066000  0.65778000  0.80346000  1.0
  H  H24  1  0.41069000  0.15782000  0.69653000  1.0
  H  H25  1  0.08933000  0.34222000  0.19654000  1.0
  C  C26  1  0.65802000  0.17376000  0.54696000  1.0
  C  C27  1  0.84198000  0.32623000  0.04697000  1.0
  C  C28  1  0.34199000  0.82623000  0.45304000  1.0
  C  C29  1  0.15802000  0.67377000  0.95303000  1.0
  C  C30  1  0.53989000  0.93705000  0.36420000  1.0
  C  C31  1  0.96008000  0.56292000  0.86419000  1.0
  C  C32  1  0.46011000  0.06295000  0.63580000  1.0
  C  C33  1  0.03992000  0.43708000  0.13581000  1.0
  Cl  Cl34  1  0.96153000  0.03034000  0.76337000  1.0
  Cl  Cl35  1  0.53846000  0.46966000  0.26337000  1.0
  Cl  Cl36  1  0.03847000  0.96967000  0.23663000  1.0
  Cl  Cl37  1  0.46154000  0.53034000  0.73663000  1.0
  O  O38  1  0.82348000  0.70910000  0.51369000  1.0
  O  O39  1  0.67654000  0.79091000  0.01369000  1.0
  O  O40  1  0.17652000  0.29090000  0.48631000  1.0
  O  O41  1  0.32346000  0.20909000  0.98631000  1.0
  O  O42  1  0.71494000  0.04869000  0.45920000  1.0
  O  O43  1  0.78503000  0.45130000  0.95921000  1.0
  O  O44  1  0.28506000  0.95131000  0.54080000  1.0
  O  O45  1  0.21496000  0.54870000  0.04079000  1.0
