# generated using pymatgen
data_AgH15C13N2ClO4
_symmetry_space_group_name_H-M   'P 1'
_cell_length_a   5.65118000
_cell_length_b   15.67500000
_cell_length_c   16.11370000
_cell_angle_alpha   90.00000000
_cell_angle_beta   90.00000000
_cell_angle_gamma   95.14080000
_symmetry_Int_Tables_number   1
_chemical_formula_structural   AgH15C13N2ClO4
_chemical_formula_sum   'Ag4 H60 C52 N8 Cl4 O16'
_cell_volume   1421.64609500
_cell_formula_units_Z   4
loop_
 _symmetry_equiv_pos_site_id
 _symmetry_equiv_pos_as_xyz
  1  'x, y, z'
loop_
 _atom_site_type_symbol
 _atom_site_label
 _atom_site_symmetry_multiplicity
 _atom_site_fract_x
 _atom_site_fract_y
 _atom_site_fract_z
 _atom_site_occupancy
  Ag  Ag0  1  0.42488000  0.22658000  0.63186000  1.0
  Ag  Ag1  1  0.57511000  0.27343000  0.13186000  1.0
  Ag  Ag2  1  0.57511000  0.77342000  0.36815000  1.0
  Ag  Ag3  1  0.42490000  0.72658000  0.86814000  1.0
  H  H4  1  0.82810000  0.43357000  0.49900000  1.0
  H  H5  1  0.17188000  0.06643000  0.99900000  1.0
  H  H6  1  0.17192000  0.56644000  0.50100000  1.0
  H  H7  1  0.82810000  0.93356000  0.00100000  1.0
  H  H8  1  0.50173000  0.46336000  0.40121000  1.0
  H  H9  1  0.49827000  0.03664000  0.90122000  1.0
  H  H10  1  0.49830000  0.53664000  0.59879000  1.0
  H  H11  1  0.50174000  0.96336000  0.09879000  1.0
  H  H12  1  0.17973000  0.30268000  0.27270000  1.0
  H  H13  1  0.82023000  0.19733000  0.77270000  1.0
  H  H14  1  0.82027000  0.69732000  0.72730000  1.0
  H  H15  1  0.17975000  0.80268000  0.22730000  1.0
  H  H16  1  0.21298000  0.41361000  0.30057000  1.0
  H  H17  1  0.78703000  0.08640000  0.80056000  1.0
  H  H18  1  0.78704000  0.58640000  0.69943000  1.0
  H  H19  1  0.21298000  0.91361000  0.19943000  1.0
  H  H20  1  0.71479000  0.44818000  0.23443000  1.0
  H  H21  1  0.28521000  0.05182000  0.73443000  1.0
  H  H22  1  0.28525000  0.55182000  0.76557000  1.0
  H  H23  1  0.71478000  0.94818000  0.26558000  1.0
  H  H24  1  0.47313000  0.51130000  0.21974000  1.0
  H  H25  1  0.52687000  0.98870000  0.71974000  1.0
  H  H26  1  0.52689000  0.48870000  0.78026000  1.0
  H  H27  1  0.47312000  0.01130000  0.28026000  1.0
  H  H28  1  0.75613000  0.42945000  0.08302000  1.0
  H  H29  1  0.24386000  0.07054000  0.58302000  1.0
  H  H30  1  0.24388000  0.57055000  0.91697000  1.0
  H  H31  1  0.75613000  0.92946000  0.41698000  1.0
  H  H32  1  0.77754000  0.53894000  0.11092000  1.0
  H  H33  1  0.22247000  0.96105000  0.61092000  1.0
  H  H34  1  0.22246000  0.46106000  0.88907000  1.0
  H  H35  1  0.77754000  0.03895000  0.38908000  1.0
  H  H36  1  0.36666000  0.55094000  0.06310000  1.0
  H  H37  1  0.63335000  0.94906000  0.56310000  1.0
  H  H38  1  0.63334000  0.44906000  0.93690000  1.0
  H  H39  1  0.36665000  0.05094000  0.43690000  1.0
  H  H40  1  0.10649000  0.42651000  0.01491000  1.0
  H  H41  1  0.89351000  0.07349000  0.51492000  1.0
  H  H42  1  0.89351000  0.57349000  0.98509000  1.0
  H  H43  1  0.10650000  0.92651000  0.48509000  1.0
  H  H44  1  0.34013000  0.35933000  0.02298000  1.0
  H  H45  1  0.65988000  0.14067000  0.52297000  1.0
  H  H46  1  0.65987000  0.64067000  0.97702000  1.0
  H  H47  1  0.34013000  0.85933000  0.47703000  1.0
  H  H48  1  0.10774000  0.45000000  0.16672000  1.0
  H  H49  1  0.89226000  0.05000000  0.66666667  1.0
  H  H50  1  0.89228000  0.55000000  0.83328000  1.0
  H  H51  1  0.10774000  0.95000000  0.33328000  1.0
  H  H52  1  0.06506000  0.33830000  0.14248000  1.0
  H  H53  1  0.93493000  0.16170000  0.64248000  1.0
  H  H54  1  0.93494000  0.66170000  0.85752000  1.0
  H  H55  1  0.06506000  0.83830000  0.35752000  1.0
  H  H56  1  0.88137000  0.18942000  0.37811000  1.0
  H  H57  1  0.11860000  0.31058000  0.87811000  1.0
  H  H58  1  0.11861000  0.81058000  0.62190000  1.0
  H  H59  1  0.88139000  0.68941000  0.12189000  1.0
  H  H60  1  0.53886000  0.21499000  0.28905000  1.0
  H  H61  1  0.46116000  0.28501000  0.78905000  1.0
  H  H62  1  0.46113000  0.78501000  0.71096000  1.0
  H  H63  1  0.53887000  0.71498000  0.21095000  1.0
  C  C64  1  0.06700000  0.29298000  0.49583000  1.0
  C  C65  1  0.93297000  0.20702000  0.99583000  1.0
  C  C66  1  0.93299000  0.70702000  0.50417000  1.0
  C  C67  1  0.06701000  0.79297000  0.00416000  1.0
  C  C68  1  0.87508000  0.31026000  0.44382000  1.0
  C  C69  1  0.12490000  0.18973000  0.94382000  1.0
  C  C70  1  0.12491000  0.68973000  0.55618000  1.0
  C  C71  1  0.87509000  0.81026000  0.05618000  1.0
  C  C72  1  0.76681000  0.38733000  0.45147000  1.0
  C  C73  1  0.23317000  0.11267000  0.95147000  1.0
  C  C74  1  0.23321000  0.61267000  0.54853000  1.0
  C  C75  1  0.76682000  0.88733000  0.04853000  1.0
  C  C76  1  0.58305000  0.40286000  0.39764000  1.0
  C  C77  1  0.41694000  0.09713000  0.89764000  1.0
  C  C78  1  0.41698000  0.59714000  0.60236000  1.0
  C  C79  1  0.58306000  0.90286000  0.10236000  1.0
  C  C80  1  0.50165000  0.34197000  0.33803000  1.0
  C  C81  1  0.49833000  0.15804000  0.83802000  1.0
  C  C82  1  0.49835000  0.65803000  0.66198000  1.0
  C  C83  1  0.50167000  0.84196000  0.16198000  1.0
  C  C84  1  0.30725000  0.35946000  0.27843000  1.0
  C  C85  1  0.69273000  0.14055000  0.77843000  1.0
  C  C86  1  0.69276000  0.64055000  0.72157000  1.0
  C  C87  1  0.30727000  0.85945000  0.22157000  1.0
  C  C88  1  0.56535000  0.45852000  0.19333000  1.0
  C  C89  1  0.43465000  0.04148000  0.69333000  1.0
  C  C90  1  0.43467000  0.54148000  0.80667000  1.0
  C  C91  1  0.56534000  0.95852000  0.30667000  1.0
  C  C92  1  0.65332000  0.48119000  0.10631000  1.0
  C  C93  1  0.34668000  0.01881000  0.60631000  1.0
  C  C94  1  0.34669000  0.51881000  0.89369000  1.0
  C  C95  1  0.65332000  0.98119000  0.39369000  1.0
  C  C96  1  0.45269000  0.49319000  0.04457000  1.0
  C  C97  1  0.54731000  0.00681000  0.54457000  1.0
  C  C98  1  0.54731000  0.50681000  0.95543000  1.0
  C  C99  1  0.45268000  0.99319000  0.45543000  1.0
  C  C100  1  0.26672000  0.41581000  0.05075000  1.0
  C  C101  1  0.73327000  0.08418000  0.55075000  1.0
  C  C102  1  0.73328000  0.58418000  0.94925000  1.0
  C  C103  1  0.26673000  0.91582000  0.44925000  1.0
  C  C104  1  0.19210000  0.39556000  0.13980000  1.0
  C  C105  1  0.80789000  0.10444000  0.63981000  1.0
  C  C106  1  0.80791000  0.60444000  0.86020000  1.0
  C  C107  1  0.19210000  0.89556000  0.36020000  1.0
  C  C108  1  0.79475000  0.24844000  0.38428000  1.0
  C  C109  1  0.20525000  0.25157000  0.88428000  1.0
  C  C110  1  0.20525000  0.75156000  0.61572000  1.0
  C  C111  1  0.79474000  0.74843000  0.11572000  1.0
  C  C112  1  0.60606000  0.26417000  0.33308000  1.0
  C  C113  1  0.39393000  0.23582000  0.83309000  1.0
  C  C114  1  0.39393000  0.73582000  0.66692000  1.0
  C  C115  1  0.60609000  0.76417000  0.16691000  1.0
  N  N116  1  0.39896000  0.37920000  0.19289000  1.0
  N  N117  1  0.60103000  0.12080000  0.69289000  1.0
  N  N118  1  0.60106000  0.62080000  0.80711000  1.0
  N  N119  1  0.39895000  0.87920000  0.30711000  1.0
  N  N120  1  0.22553000  0.27634000  0.53721000  1.0
  N  N121  1  0.77443000  0.22366000  0.03720000  1.0
  N  N122  1  0.77445000  0.72366000  0.46279000  1.0
  N  N123  1  0.22556000  0.77634000  0.96279000  1.0
  Cl  Cl124  1  0.95613000  0.38633000  0.70376000  1.0
  Cl  Cl125  1  0.04384000  0.11368000  0.20376000  1.0
  Cl  Cl126  1  0.04385000  0.61368000  0.29624000  1.0
  Cl  Cl127  1  0.95616000  0.88632000  0.79624000  1.0
  O  O128  1  0.82556000  0.31026000  0.66666667  1.0
  O  O129  1  0.17441000  0.18975000  0.16663000  1.0
  O  O130  1  0.17440000  0.68975000  0.33337000  1.0
  O  O131  1  0.82560000  0.81025000  0.83337000  1.0
  O  O132  1  0.20923000  0.37392000  0.70577000  1.0
  O  O133  1  0.79074000  0.12609000  0.20577000  1.0
  O  O134  1  0.79075000  0.62608000  0.29422000  1.0
  O  O135  1  0.20926000  0.87391000  0.79422000  1.0
  O  O136  1  0.87009000  0.39733000  0.78848000  1.0
  O  O137  1  0.12987000  0.10268000  0.28848000  1.0
  O  O138  1  0.12991000  0.60268000  0.21152000  1.0
  O  O139  1  0.87011000  0.89732000  0.71152000  1.0
  O  O140  1  0.91710000  0.46146000  0.65378000  1.0
  O  O141  1  0.08289000  0.03855000  0.15378000  1.0
  O  O142  1  0.08288000  0.53855000  0.34622000  1.0
  O  O143  1  0.91712000  0.96146000  0.84621000  1.0
