# generated using pymatgen
data_ZnH13C10N5O4
_symmetry_space_group_name_H-M   'P 1'
_cell_length_a   9.06068000
_cell_length_b   9.58769000
_cell_length_c   10.47970000
_cell_angle_alpha   105.16300000
_cell_angle_beta   89.99980000
_cell_angle_gamma   89.99990000
_symmetry_Int_Tables_number   1
_chemical_formula_structural   ZnH13C10N5O4
_chemical_formula_sum   'Zn2 H26 C20 N10 O8'
_cell_volume   878.68753115
_cell_formula_units_Z   2
loop_
 _symmetry_equiv_pos_site_id
 _symmetry_equiv_pos_as_xyz
  1  'x, y, z'
loop_
 _atom_site_type_symbol
 _atom_site_label
 _atom_site_symmetry_multiplicity
 _atom_site_fract_x
 _atom_site_fract_y
 _atom_site_fract_z
 _atom_site_occupancy
  Zn  Zn0  1  0.47775000  0.15422000  0.91572000  1.0
  Zn  Zn1  1  0.97775000  0.84578000  0.08428000  1.0
  H  H2  1  0.50355000  0.65156000  0.04871000  1.0
  H  H3  1  0.00355000  0.34844000  0.95129000  1.0
  H  H4  1  0.33608000  0.55713000  0.83283000  1.0
  H  H5  1  0.83608000  0.44287000  0.16717000  1.0
  H  H6  1  0.14330000  0.56817000  0.86895000  1.0
  H  H7  1  0.64330000  0.43183000  0.13105000  1.0
  H  H8  1  0.16449000  0.10421000  0.03358000  1.0
  H  H9  1  0.66450000  0.89579000  0.96642000  1.0
  H  H10  1  0.43068000  0.19350000  0.68097000  1.0
  H  H11  1  0.93067000  0.80650000  0.31903000  1.0
  H  H12  1  0.60989000  0.20690000  0.71303000  1.0
  H  H13  1  0.10989000  0.79310000  0.28697000  1.0
  H  H14  1  0.65717000  0.85134000  0.42831000  1.0
  H  H15  1  0.15717000  0.14866000  0.57169000  1.0
  H  H16  1  0.62631000  0.81353000  0.19923000  1.0
  H  H17  1  0.12631000  0.18647000  0.80077000  1.0
  H  H18  1  0.48933000  0.94987000  0.22974000  1.0
  H  H19  1  0.98933000  0.05013000  0.77027000  1.0
  H  H20  1  0.46626000  0.92353000  0.66244000  1.0
  H  H21  1  0.96626000  0.07647000  0.33756000  1.0
  H  H22  1  0.65329000  0.96919000  0.63655000  1.0
  H  H23  1  0.15328000  0.03081000  0.36345000  1.0
  H  H24  1  0.47121000  0.80278000  0.81936000  1.0
  H  H25  1  0.97121000  0.19722000  0.18064000  1.0
  H  H26  1  0.18542000  0.60617000  0.10353000  1.0
  H  H27  1  0.68541000  0.39383000  0.89647000  1.0
  C  C28  1  0.25234000  0.61134000  0.90491000  1.0
  C  C29  1  0.75234000  0.38866000  0.09509000  1.0
  C  C30  1  0.29755000  0.40965000  0.01142000  1.0
  C  C31  1  0.79755000  0.59035000  0.98858000  1.0
  C  C32  1  0.21706000  0.00142000  0.98868000  1.0
  C  C33  1  0.71706000  0.99858000  0.01132000  1.0
  C  C34  1  0.52813000  0.85358000  0.25876000  1.0
  C  C35  1  0.02812000  0.14642000  0.74124000  1.0
  C  C36  1  0.53764000  0.00166000  0.63133000  1.0
  C  C37  1  0.03763000  0.99834000  0.36867000  1.0
  C  C38  1  0.37339000  0.84505000  0.87606000  1.0
  C  C39  1  0.87339000  0.15495000  0.12394000  1.0
  C  C40  1  0.26245000  0.76981000  0.91891000  1.0
  C  C41  1  0.76245000  0.23019000  0.08109000  1.0
  C  C42  1  0.49202000  0.99524000  0.48996000  1.0
  C  C43  1  0.99203000  0.00477000  0.51004000  1.0
  C  C44  1  0.40151000  0.74374000  0.22555000  1.0
  C  C45  1  0.90152000  0.25626000  0.77445000  1.0
  C  C46  1  0.28112000  0.57383000  0.03877000  1.0
  C  C47  1  0.78112000  0.42617000  0.96122000  1.0
  N  N48  1  0.40847000  0.65317000  0.10359000  1.0
  N  N49  1  0.90846000  0.34683000  0.89640000  1.0
  N  N50  1  0.16378000  0.87081000  0.99088000  1.0
  N  N51  1  0.66378000  0.12919000  0.00912000  1.0
  N  N52  1  0.34396000  0.99155000  0.92013000  1.0
  N  N53  1  0.84396000  0.00845000  0.07987000  1.0
  N  N54  1  0.51593000  0.14707000  0.71980000  1.0
  N  N55  1  0.01593000  0.85293000  0.28020000  1.0
  N  N56  1  0.56579000  0.89497000  0.39749000  1.0
  N  N57  1  0.06579000  0.10503000  0.60251000  1.0
  O  O58  1  0.42912000  0.36142000  0.98134000  1.0
  O  O59  1  0.92912000  0.63858000  0.01866000  1.0
  O  O60  1  0.18582000  0.33311000  0.01337000  1.0
  O  O61  1  0.68582000  0.66689000  0.98663000  1.0
  O  O62  1  0.39166000  0.07394000  0.46697000  1.0
  O  O63  1  0.89166000  0.92606000  0.53304000  1.0
  O  O64  1  0.29814000  0.74789000  0.30503000  1.0
  O  O65  1  0.79814000  0.25211000  0.69497000  1.0
