# generated using pymatgen
data_Cu3H10C12(IN2)3
_symmetry_space_group_name_H-M   'P 1'
_cell_length_a   7.52321000
_cell_length_b   7.53722000
_cell_length_c   16.00670000
_cell_angle_alpha   77.22830000
_cell_angle_beta   87.52160000
_cell_angle_gamma   88.73320000
_symmetry_Int_Tables_number   1
_chemical_formula_structural   Cu3H10C12(IN2)3
_chemical_formula_sum   'Cu6 H20 C24 I6 N12'
_cell_volume   884.28762544
_cell_formula_units_Z   2
loop_
 _symmetry_equiv_pos_site_id
 _symmetry_equiv_pos_as_xyz
  1  'x, y, z'
loop_
 _atom_site_type_symbol
 _atom_site_label
 _atom_site_symmetry_multiplicity
 _atom_site_fract_x
 _atom_site_fract_y
 _atom_site_fract_z
 _atom_site_occupancy
  Cu  Cu0  1  0.68237000  0.42164000  0.37519000  1.0
  Cu  Cu1  1  0.31763000  0.57836000  0.62481000  1.0
  Cu  Cu2  1  0.67186000  0.27623000  0.17275000  1.0
  Cu  Cu3  1  0.32814000  0.72376000  0.82725000  1.0
  Cu  Cu4  1  0.77657000  0.98548000  0.27121000  1.0
  Cu  Cu5  1  0.22343000  0.01453000  0.72879000  1.0
  H  H6  1  0.90731000  0.26084000  0.86120000  1.0
  H  H7  1  0.09269000  0.73916000  0.13880000  1.0
  H  H8  1  0.94980000  0.24574000  0.76009000  1.0
  H  H9  1  0.05020000  0.75427000  0.23992000  1.0
  H  H10  1  0.70953000  0.02804000  0.45787000  1.0
  H  H11  1  0.29046000  0.97195000  0.54213000  1.0
  H  H12  1  0.70740000  0.84251000  0.60711000  1.0
  H  H13  1  0.29259000  0.15748000  0.39288000  1.0
  H  H14  1  0.66778000  0.99959000  0.73025000  1.0
  H  H15  1  0.33222000  0.00041000  0.26974000  1.0
  H  H16  1  0.64424000  0.50805000  0.54309000  1.0
  H  H17  1  0.35577000  0.49195000  0.45691000  1.0
  H  H18  1  0.79575000  0.80359000  0.84507000  1.0
  H  H19  1  0.20425000  0.19641000  0.15492000  1.0
  H  H20  1  0.89345000  0.86231000  0.98387000  1.0
  H  H21  1  0.10655000  0.13768000  0.01613000  1.0
  H  H22  1  0.85351000  0.61610000  0.11759000  1.0
  H  H23  1  0.14649000  0.38389000  0.88241000  1.0
  H  H24  1  0.64068000  0.26517000  0.98435000  1.0
  H  H25  1  0.35932000  0.73482000  0.01565000  1.0
  C  C26  1  0.69175000  0.09248000  0.51237000  1.0
  C  C27  1  0.30824000  0.90752000  0.48762000  1.0
  C  C28  1  0.69115000  0.98973000  0.59597000  1.0
  C  C29  1  0.30885000  0.01028000  0.40402000  1.0
  C  C30  1  0.67059000  0.07643000  0.66418000  1.0
  C  C31  1  0.32940000  0.92357000  0.33582000  1.0
  C  C32  1  0.65117000  0.26636000  0.64553000  1.0
  C  C33  1  0.34884000  0.73363000  0.35447000  1.0
  C  C34  1  0.65371000  0.35988000  0.55973000  1.0
  C  C35  1  0.34629000  0.64013000  0.44026000  1.0
  C  C36  1  0.62377000  0.37361000  0.71069000  1.0
  C  C37  1  0.37624000  0.62639000  0.28931000  1.0
  C  C38  1  0.65289000  0.48973000  0.82397000  1.0
  C  C39  1  0.34710000  0.51027000  0.17603000  1.0
  C  C40  1  0.71516000  0.52759000  0.90360000  1.0
  C  C41  1  0.28483000  0.47241000  0.09640000  1.0
  C  C42  1  0.78377000  0.69938000  0.90396000  1.0
  C  C43  1  0.21623000  0.30062000  0.09604000  1.0
  C  C44  1  0.83840000  0.73161000  0.98097000  1.0
  C  C45  1  0.16160000  0.26839000  0.01903000  1.0
  C  C46  1  0.81769000  0.59569000  0.05512000  1.0
  C  C47  1  0.18229000  0.40431000  0.94488000  1.0
  C  C48  1  0.69844000  0.39863000  0.98104000  1.0
  C  C49  1  0.30156000  0.60137000  0.01897000  1.0
  I  I50  1  0.92960000  0.28177000  0.28286000  1.0
  I  I51  1  0.07040000  0.71824000  0.71714000  1.0
  I  I52  1  0.62618000  0.96044000  0.13480000  1.0
  I  I53  1  0.37383000  0.03955000  0.86519000  1.0
  I  I54  1  0.85033000  0.72128000  0.39124000  1.0
  I  I55  1  0.14967000  0.27872000  0.60876000  1.0
  N  N56  1  0.67340000  0.27584000  0.49395000  1.0
  N  N57  1  0.32660000  0.72416000  0.50605000  1.0
  N  N58  1  0.50489000  0.50962000  0.70742000  1.0
  N  N59  1  0.49512000  0.49039000  0.29257000  1.0
  N  N60  1  0.52130000  0.58050000  0.77872000  1.0
  N  N61  1  0.47871000  0.41949000  0.22128000  1.0
  N  N62  1  0.71832000  0.35955000  0.78300000  1.0
  N  N63  1  0.28168000  0.64045000  0.21700000  1.0
  N  N64  1  0.85247000  0.22968000  0.80897000  1.0
  N  N65  1  0.14753000  0.77032000  0.19103000  1.0
  N  N66  1  0.74661000  0.43258000  0.05608000  1.0
  N  N67  1  0.25339000  0.56742000  0.94392000  1.0
