# generated using pymatgen
data_Ag2H4C4O5
_symmetry_space_group_name_H-M   'P 1'
_cell_length_a   5.44711000
_cell_length_b   6.53110000
_cell_length_c   19.05200000
_cell_angle_alpha   89.99980000
_cell_angle_beta   89.99980000
_cell_angle_gamma   69.08000000
_symmetry_Int_Tables_number   1
_chemical_formula_structural   Ag2H4C4O5
_chemical_formula_sum   'Ag8 H16 C16 O20'
_cell_volume   633.10694136
_cell_formula_units_Z   4
loop_
 _symmetry_equiv_pos_site_id
 _symmetry_equiv_pos_as_xyz
  1  'x, y, z'
loop_
 _atom_site_type_symbol
 _atom_site_label
 _atom_site_symmetry_multiplicity
 _atom_site_fract_x
 _atom_site_fract_y
 _atom_site_fract_z
 _atom_site_occupancy
  Ag  Ag0  1  0.59676000  0.95092000  0.39888000  1.0
  Ag  Ag1  1  0.40324000  0.54907000  0.89888000  1.0
  Ag  Ag2  1  0.40326000  0.04907000  0.60112000  1.0
  Ag  Ag3  1  0.59674000  0.45093000  0.10112000  1.0
  Ag  Ag4  1  0.72882000  0.71804000  0.82338000  1.0
  Ag  Ag5  1  0.27117000  0.78196000  0.32339000  1.0
  Ag  Ag6  1  0.27116000  0.28195000  0.17661000  1.0
  Ag  Ag7  1  0.72884000  0.21805000  0.67661000  1.0
  H  H8  1  0.89556000  0.98703000  0.16610000  1.0
  H  H9  1  0.10446000  0.51296000  0.66610000  1.0
  H  H10  1  0.10442000  0.01299000  0.83390000  1.0
  H  H11  1  0.89559000  0.48701000  0.33390000  1.0
  H  H12  1  0.06067000  0.70134000  0.17936000  1.0
  H  H13  1  0.93934000  0.79865000  0.67935000  1.0
  H  H14  1  0.93934000  0.29867000  0.82064000  1.0
  H  H15  1  0.06066000  0.20131000  0.32064000  1.0
  H  H16  1  0.09066000  0.72676000  0.05148000  1.0
  H  H17  1  0.90934000  0.77326000  0.55148000  1.0
  H  H18  1  0.90930000  0.27325000  0.94851000  1.0
  H  H19  1  0.09070000  0.22675000  0.44852000  1.0
  H  H20  1  0.84879000  0.99444000  0.04337000  1.0
  H  H21  1  0.15117000  0.50557000  0.54337000  1.0
  H  H22  1  0.15115000  0.00558000  0.95662000  1.0
  H  H23  1  0.84885000  0.49443000  0.45662000  1.0
  C  C24  1  0.77098000  0.74869000  0.98279000  1.0
  C  C25  1  0.22901000  0.75132000  0.48279000  1.0
  C  C26  1  0.22898000  0.25132000  0.01721000  1.0
  C  C27  1  0.77103000  0.24868000  0.51722000  1.0
  C  C28  1  0.69727000  0.84245000  0.23549000  1.0
  C  C29  1  0.30273000  0.65754000  0.73549000  1.0
  C  C30  1  0.30273000  0.15755000  0.76451000  1.0
  C  C31  1  0.69728000  0.34245000  0.26452000  1.0
  C  C32  1  0.86436000  0.82959000  0.17090000  1.0
  C  C33  1  0.13564000  0.67041000  0.67090000  1.0
  C  C34  1  0.13562000  0.17043000  0.82910000  1.0
  C  C35  1  0.86438000  0.32957000  0.32910000  1.0
  C  C36  1  0.87671000  0.81935000  0.04835000  1.0
  C  C37  1  0.12329000  0.68066000  0.54836000  1.0
  C  C38  1  0.12325000  0.18067000  0.95164000  1.0
  C  C39  1  0.87675000  0.31934000  0.45164000  1.0
  O  O40  1  0.88272000  0.76955000  0.92585000  1.0
  O  O41  1  0.11726000  0.73045000  0.42585000  1.0
  O  O42  1  0.11724000  0.23042000  0.07414000  1.0
  O  O43  1  0.88277000  0.26958000  0.57415000  1.0
  O  O44  1  0.80918000  0.85195000  0.29347000  1.0
  O  O45  1  0.19082000  0.64805000  0.79347000  1.0
  O  O46  1  0.19083000  0.14804000  0.70653000  1.0
  O  O47  1  0.80918000  0.35196000  0.20654000  1.0
  O  O48  1  0.58592000  0.67531000  0.98903000  1.0
  O  O49  1  0.41407000  0.82470000  0.48903000  1.0
  O  O50  1  0.41405000  0.32469000  0.01098000  1.0
  O  O51  1  0.58597000  0.17530000  0.51098000  1.0
  O  O52  1  0.46303000  0.84776000  0.22853000  1.0
  O  O53  1  0.53696000  0.65222000  0.72853000  1.0
  O  O54  1  0.53696000  0.15224000  0.77147000  1.0
  O  O55  1  0.46304000  0.34776000  0.27147000  1.0
  O  O56  1  0.74459000  0.78552000  0.10938000  1.0
  O  O57  1  0.25542000  0.71448000  0.60938000  1.0
  O  O58  1  0.25539000  0.21450000  0.89062000  1.0
  O  O59  1  0.74461000  0.28550000  0.39063000  1.0
