# generated using pymatgen
data_Zr6H23C50N5(O21F)2
_symmetry_space_group_name_H-M   'P 1'
_cell_length_a   14.75690000
_cell_length_b   14.77656846
_cell_length_c   14.78860000
_cell_angle_alpha   90.06117353
_cell_angle_beta   119.88670000
_cell_angle_gamma   119.83166629
_symmetry_Int_Tables_number   1
_chemical_formula_structural   Zr6H23C50N5(O21F)2
_chemical_formula_sum   'Zr6 H23 C50 N5 O42 F2'
_cell_volume   2288.70834855
_cell_formula_units_Z   1
loop_
 _symmetry_equiv_pos_site_id
 _symmetry_equiv_pos_as_xyz
  1  'x, y, z'
loop_
 _atom_site_type_symbol
 _atom_site_label
 _atom_site_symmetry_multiplicity
 _atom_site_fract_x
 _atom_site_fract_y
 _atom_site_fract_z
 _atom_site_occupancy
  Zr  Zr0  1  0.49387000  0.61683000  0.11713000  1.0
  Zr  Zr1  1  0.49647000  0.37811000  0.87987000  1.0
  Zr  Zr2  1  0.73373000  0.61684000  0.11813000  1.0
  Zr  Zr3  1  0.25620000  0.37802000  0.87867000  1.0
  Zr  Zr4  1  0.49430000  0.37773000  0.11818000  1.0
  Zr  Zr5  1  0.49525000  0.61691000  0.87850000  1.0
  H  H6  1  0.68186000  0.59209000  0.28031000  1.0
  H  H7  1  0.30797000  0.21557000  0.90487000  1.0
  H  H8  1  0.68472000  0.59145000  0.90548000  1.0
  H  H9  1  0.30654000  0.59217000  0.90359000  1.0
  H  H10  1  0.47236000  0.63250000  0.40531000  1.0
  H  H11  1  0.51251000  0.36251000  0.41881000  1.0
  H  H12  1  0.47678000  0.63055000  0.57721000  1.0
  H  H13  1  0.51571000  0.92423000  0.15474000  1.0
  H  H14  1  0.51505000  0.91996000  0.86340000  1.0
  H  H15  1  0.51722000  0.09488000  0.15286000  1.0
  H  H16  1  0.22337000  0.09018000  0.15400000  1.0
  H  H17  1  0.93718000  0.08462000  0.85383000  1.0
  H  H18  1  0.05121000  0.91962000  0.15033000  1.0
  H  H19  1  0.22343000  0.63245000  0.56933000  1.0
  H  H20  1  0.93879000  0.35285000  0.58554000  1.0
  H  H21  1  0.05035000  0.62913000  0.40002000  1.0
  H  H22  1  0.69612000  0.95577000  0.37095000  1.0
  H  H23  1  0.70488000  0.87051000  0.45582000  1.0
  H  H24  1  0.87366000  0.03984000  0.62553000  1.0
  H  H25  1  0.86575000  0.12530000  0.54075000  1.0
  H  H26  1  0.93147000  0.34265000  0.86179000  1.0
  H  H27  1  0.22697000  0.64151000  0.14266000  1.0
  H  H28  1  0.76571000  0.34664000  0.86583000  1.0
  C  C29  1  0.48722000  0.49563000  0.29830000  1.0
  C  C30  1  0.50703000  0.19939000  0.00451000  1.0
  C  C31  1  0.49423000  0.49586000  0.69410000  1.0
  C  C32  1  0.50511000  0.80601000  0.00422000  1.0
  C  C33  1  0.79655000  0.80517000  0.29415000  1.0
  C  C34  1  0.18945000  0.49257000  0.00006000  1.0
  C  C35  1  0.19372000  0.20062000  0.69187000  1.0
  C  C36  1  0.80037000  0.49465000  0.00476000  1.0
  C  C37  1  0.79784000  0.49325000  0.29881000  1.0
  C  C38  1  0.79847000  0.80441000  0.00131000  1.0
  C  C39  1  0.19286000  0.49439000  0.68989000  1.0
  C  C40  1  0.19172000  0.19758000  0.00319000  1.0
  C  C41  1  0.49780000  0.49699000  0.59477000  1.0
  C  C42  1  0.48976000  0.49645000  0.40061000  1.0
  C  C43  1  0.51026000  0.42366000  0.54957000  1.0
  C  C44  1  0.48151000  0.57314000  0.44590000  1.0
  C  C45  1  0.50384000  0.42093000  0.45270000  1.0
  C  C46  1  0.48419000  0.57229000  0.54120000  1.0
  C  C47  1  0.51455000  0.10207000  0.00687000  1.0
  C  C48  1  0.51298000  0.91090000  0.00821000  1.0
  C  C49  1  0.51585000  0.05202000  0.92711000  1.0
  C  C50  1  0.51554000  0.96090000  0.09087000  1.0
  C  C51  1  0.51461000  0.95754000  0.92643000  1.0
  C  C52  1  0.51608000  0.05522000  0.08978000  1.0
  C  C53  1  0.89833000  0.90667000  0.00140000  1.0
  C  C54  1  0.09056000  0.09745000  0.00420000  1.0
  C  C55  1  0.86854000  0.95472000  0.91860000  1.0
  C  C56  1  0.12309000  0.05146000  0.08810000  1.0
  C  C57  1  0.96220000  0.04874000  0.91893000  1.0
  C  C58  1  0.02773000  0.95714000  0.08634000  1.0
  C  C59  1  0.89815000  0.49096000  0.39836000  1.0
  C  C60  1  0.09146000  0.49291000  0.58745000  1.0
  C  C61  1  0.86910000  0.41343000  0.45179000  1.0
  C  C62  1  0.12326000  0.57092000  0.53544000  1.0
  C  C63  1  0.96324000  0.41323000  0.54485000  1.0
  C  C64  1  0.02741000  0.56949000  0.44188000  1.0
  C  C65  1  0.89778000  0.90857000  0.39050000  1.0
  C  C66  1  0.09464000  0.10418000  0.58840000  1.0
  C  C67  1  0.87009000  0.95769000  0.44471000  1.0
  C  C68  1  0.12401000  0.05674000  0.53340000  1.0
  C  C69  1  0.96391000  0.05113000  0.53898000  1.0
  C  C70  1  0.02911000  0.96286000  0.43786000  1.0
  C  C71  1  0.76153000  0.94619000  0.44343000  1.0
  C  C72  1  0.86791000  0.05256000  0.55019000  1.0
  C  C73  1  0.90224000  0.49490000  0.00607000  1.0
  C  C74  1  0.08878000  0.49157000  0.00207000  1.0
  C  C75  1  0.03291000  0.57735000  0.08339000  1.0
  C  C76  1  0.95910000  0.40831000  0.92403000  1.0
  C  C77  1  0.12603000  0.57671000  0.08253000  1.0
  C  C78  1  0.86699000  0.41024000  0.92620000  1.0
  N  N79  1  0.53741000  0.34766000  0.60368000  1.0
  N  N80  1  0.51848000  0.09519000  0.83753000  1.0
  N  N81  1  0.73543000  0.90823000  0.82430000  1.0
  N  N82  1  0.73628000  0.32735000  0.41398000  1.0
  N  N83  1  0.08114000  0.67175000  0.17020000  1.0
  O  O84  1  0.48750000  0.57283000  0.25933000  1.0
  O  O85  1  0.50242000  0.23692000  0.92579000  1.0
  O  O86  1  0.49151000  0.41812000  0.73261000  1.0
  O  O87  1  0.49968000  0.76435000  0.07851000  1.0
  O  O88  1  0.83153000  0.76208000  0.25518000  1.0
  O  O89  1  0.15212000  0.41691000  0.92223000  1.0
  O  O90  1  0.15325000  0.23615000  0.73179000  1.0
  O  O91  1  0.83693000  0.57191000  0.08053000  1.0
  O  O92  1  0.68173000  0.41736000  0.25992000  1.0
  O  O93  1  0.68229000  0.76399000  0.92394000  1.0
  O  O94  1  0.30875000  0.57203000  0.72981000  1.0
  O  O95  1  0.30762000  0.23573000  0.07914000  1.0
  O  O96  1  0.83669000  0.76484000  0.07722000  1.0
  O  O97  1  0.15511000  0.41881000  0.73034000  1.0
  O  O98  1  0.15408000  0.23586000  0.92533000  1.0
  O  O99  1  0.83603000  0.57150000  0.26156000  1.0
  O  O100  1  0.68120000  0.76545000  0.25899000  1.0
  O  O101  1  0.68507000  0.41859000  0.92772000  1.0
  O  O102  1  0.31036000  0.23981000  0.73452000  1.0
  O  O103  1  0.30535000  0.57035000  0.07566000  1.0
  O  O104  1  0.50155000  0.76485000  0.92563000  1.0
  O  O105  1  0.48725000  0.41878000  0.25880000  1.0
  O  O106  1  0.50274000  0.23591000  0.07947000  1.0
  O  O107  1  0.49344000  0.57272000  0.73242000  1.0
  O  O108  1  0.35968000  0.56489000  0.93004000  1.0
  O  O109  1  0.63062000  0.56480000  0.93175000  1.0
  O  O110  1  0.36109000  0.29571000  0.93230000  1.0
  O  O111  1  0.62823000  0.56439000  0.20019000  1.0
  O  O112  1  0.59430000  0.44774000  0.04892000  1.0
  O  O113  1  0.39482000  0.44770000  0.04768000  1.0
  O  O114  1  0.39658000  0.44830000  0.85002000  1.0
  O  O115  1  0.59340000  0.64616000  0.04737000  1.0
  O  O116  1  0.64699000  0.39061000  0.68735000  1.0
  O  O117  1  0.45201000  0.24799000  0.55726000  1.0
  O  O118  1  0.41550000  0.05078000  0.74646000  1.0
  O  O119  1  0.62492000  0.16723000  0.86001000  1.0
  O  O120  1  0.69229000  0.84163000  0.73934000  1.0
  O  O121  1  0.68122000  0.94480000  0.83565000  1.0
  O  O122  1  0.69061000  0.35284000  0.45138000  1.0
  O  O123  1  0.68478000  0.23501000  0.35354000  1.0
  O  O124  1  0.09570000  0.75577000  0.14610000  1.0
  O  O125  1  0.11054000  0.66137000  0.26178000  1.0
  F  F126  1  0.24473000  0.09854000  0.56955000  1.0
  F  F127  1  0.07155000  0.92722000  0.39421000  1.0
