# generated using pymatgen
data_ZnH19C26N5O6
_symmetry_space_group_name_H-M   'P 1'
_cell_length_a   9.60730000
_cell_length_b   11.30200000
_cell_length_c   12.77270000
_cell_angle_alpha   66.58750000
_cell_angle_beta   76.09280000
_cell_angle_gamma   84.81770000
_symmetry_Int_Tables_number   1
_chemical_formula_structural   ZnH19C26N5O6
_chemical_formula_sum   'Zn2 H38 C52 N10 O12'
_cell_volume   1235.36841288
_cell_formula_units_Z   2
loop_
 _symmetry_equiv_pos_site_id
 _symmetry_equiv_pos_as_xyz
  1  'x, y, z'
loop_
 _atom_site_type_symbol
 _atom_site_label
 _atom_site_symmetry_multiplicity
 _atom_site_fract_x
 _atom_site_fract_y
 _atom_site_fract_z
 _atom_site_occupancy
  Zn  Zn0  1  0.09512000  0.46182000  0.80083000  1.0
  Zn  Zn1  1  0.90489000  0.53818000  0.19917000  1.0
  H  H2  1  0.99837000  0.23971000  0.44544000  1.0
  H  H3  1  0.00163000  0.76028000  0.55457000  1.0
  H  H4  1  0.61873000  0.49589000  0.78768000  1.0
  H  H5  1  0.38126000  0.50412000  0.21232000  1.0
  H  H6  1  0.95334000  0.18181000  0.26880000  1.0
  H  H7  1  0.04665000  0.81818000  0.73121000  1.0
  H  H8  1  0.28567000  0.69668000  0.93953000  1.0
  H  H9  1  0.71433000  0.30333000  0.06047000  1.0
  H  H10  1  0.33929000  0.81262000  0.04711000  1.0
  H  H11  1  0.66072000  0.18737000  0.95290000  1.0
  H  H12  1  0.48445000  0.92151000  0.95887000  1.0
  H  H13  1  0.51556000  0.07848000  0.04115000  1.0
  H  H14  1  0.50795000  0.78634000  0.08536000  1.0
  H  H15  1  0.49206000  0.21364000  0.91465000  1.0
  H  H16  1  0.72714000  0.76527000  0.91789000  1.0
  H  H17  1  0.27287000  0.23473000  0.08211000  1.0
  H  H18  1  0.94110000  0.33750000  0.70190000  1.0
  H  H19  1  0.05890000  0.66250000  0.29811000  1.0
  H  H20  1  0.32715000  0.53771000  0.58050000  1.0
  H  H21  1  0.67284000  0.46229000  0.41950000  1.0
  H  H22  1  0.38647000  0.48717000  0.39861000  1.0
  H  H23  1  0.61353000  0.51281000  0.60140000  1.0
  H  H24  1  0.21832000  0.34378000  0.37975000  1.0
  H  H25  1  0.78168000  0.65621000  0.62026000  1.0
  H  H26  1  0.64049000  0.01926000  0.73619000  1.0
  H  H27  1  0.35952000  0.98073000  0.26381000  1.0
  H  H28  1  0.53508000  0.86111000  0.68124000  1.0
  H  H29  1  0.46493000  0.13887000  0.31877000  1.0
  H  H30  1  0.63297000  0.86310000  0.47734000  1.0
  H  H31  1  0.36703000  0.13689000  0.52267000  1.0
  H  H32  1  0.95404000  0.33224000  0.05449000  1.0
  H  H33  1  0.04594000  0.66776000  0.94551000  1.0
  H  H34  1  0.08788000  0.93441000  0.16526000  1.0
  H  H35  1  0.91213000  0.06559000  0.83473000  1.0
  H  H36  1  0.22705000  0.98545000  0.95855000  1.0
  H  H37  1  0.77298000  0.01455000  0.04145000  1.0
  H  H38  1  0.23025000  0.21005000  0.81154000  1.0
  H  H39  1  0.76975000  0.78996000  0.18846000  1.0
  C  C40  1  0.84543000  0.60425000  0.80741000  1.0
  C  C41  1  0.15457000  0.39574000  0.19258000  1.0
  C  C42  1  0.69018000  0.63025000  0.84668000  1.0
  C  C43  1  0.30982000  0.36976000  0.15331000  1.0
  C  C44  1  0.58760000  0.56762000  0.82580000  1.0
  C  C45  1  0.41239000  0.43238000  0.17419000  1.0
  C  C46  1  0.44264000  0.59721000  0.85325000  1.0
  C  C47  1  0.55736000  0.40280000  0.14674000  1.0
  C  C48  1  0.33780000  0.53673000  0.81950000  1.0
  C  C49  1  0.66220000  0.46328000  0.18049000  1.0
  C  C50  1  0.39969000  0.68040000  0.91222000  1.0
  C  C51  1  0.60031000  0.31961000  0.08778000  1.0
  C  C52  1  0.50085000  0.73819000  0.93986000  1.0
  C  C53  1  0.49916000  0.26181000  0.06013000  1.0
  C  C54  1  0.45540000  0.81938000  0.01113000  1.0
  C  C55  1  0.54461000  0.18060000  0.98888000  1.0
  C  C56  1  0.64669000  0.71689000  0.90143000  1.0
  C  C57  1  0.35332000  0.28311000  0.09857000  1.0
  C  C58  1  0.03852000  0.36746000  0.63381000  1.0
  C  C59  1  0.96148000  0.63254000  0.36619000  1.0
  C  C60  1  0.25513000  0.48194000  0.56342000  1.0
  C  C61  1  0.74488000  0.51806000  0.43658000  1.0
  C  C62  1  0.28757000  0.45161000  0.46481000  1.0
  C  C63  1  0.71243000  0.54839000  0.53519000  1.0
  C  C64  1  0.19336000  0.37366000  0.45322000  1.0
  C  C65  1  0.80664000  0.62634000  0.54679000  1.0
  C  C66  1  0.06523000  0.33069000  0.53786000  1.0
  C  C67  1  0.93477000  0.66932000  0.46214000  1.0
  C  C68  1  0.85380000  0.18860000  0.60279000  1.0
  C  C69  1  0.14619000  0.81141000  0.39720000  1.0
  C  C70  1  0.78758000  0.09770000  0.56845000  1.0
  C  C71  1  0.21242000  0.90229000  0.43155000  1.0
  C  C72  1  0.67740000  0.01477000  0.65035000  1.0
  C  C73  1  0.32261000  0.98522000  0.34966000  1.0
  C  C74  1  0.61982000  0.92806000  0.61903000  1.0
  C  C75  1  0.38020000  0.07192000  0.38097000  1.0
  C  C76  1  0.67335000  0.92804000  0.50747000  1.0
  C  C77  1  0.32665000  0.07195000  0.49254000  1.0
  C  C78  1  0.78360000  0.01472000  0.43144000  1.0
  C  C79  1  0.21640000  0.98528000  0.56856000  1.0
  C  C80  1  0.84386000  0.01394000  0.31139000  1.0
  C  C81  1  0.15613000  0.98607000  0.68861000  1.0
  C  C82  1  0.01529000  0.25344000  0.03668000  1.0
  C  C83  1  0.98470000  0.74656000  0.96331000  1.0
  C  C84  1  0.01122000  0.13025000  0.12536000  1.0
  C  C85  1  0.98877000  0.86975000  0.87464000  1.0
  C  C86  1  0.08778000  0.03089000  0.09801000  1.0
  C  C87  1  0.91223000  0.96911000  0.90199000  1.0
  C  C88  1  0.16700000  0.05945000  0.98424000  1.0
  C  C89  1  0.83301000  0.94056000  0.01575000  1.0
  C  C90  1  0.16914000  0.18463000  0.90113000  1.0
  C  C91  1  0.83087000  0.81537000  0.09887000  1.0
  N  N92  1  0.13331000  0.43944000  0.64578000  1.0
  N  N93  1  0.86669000  0.56056000  0.35422000  1.0
  N  N94  1  0.97351000  0.25222000  0.52347000  1.0
  N  N95  1  0.02649000  0.74778000  0.47653000  1.0
  N  N96  1  0.83999000  0.09790000  0.46119000  1.0
  N  N97  1  0.16000000  0.90210000  0.53880000  1.0
  N  N98  1  0.93600000  0.11281000  0.23936000  1.0
  N  N99  1  0.06399000  0.88718000  0.76064000  1.0
  N  N100  1  0.09360000  0.27919000  0.92737000  1.0
  N  N101  1  0.90640000  0.72081000  0.07262000  1.0
  O  O102  1  0.88384000  0.48546000  0.84702000  1.0
  O  O103  1  0.11616000  0.51454000  0.15299000  1.0
  O  O104  1  0.92794000  0.69621000  0.73549000  1.0
  O  O105  1  0.07206000  0.30378000  0.26450000  1.0
  O  O106  1  0.37949000  0.45767000  0.77189000  1.0
  O  O107  1  0.62050000  0.54235000  0.22810000  1.0
  O  O108  1  0.20433000  0.57162000  0.84033000  1.0
  O  O109  1  0.79567000  0.42839000  0.15967000  1.0
  O  O110  1  0.80314000  0.19974000  0.69731000  1.0
  O  O111  1  0.19683000  0.80028000  0.30268000  1.0
  O  O112  1  0.80867000  0.92901000  0.28401000  1.0
  O  O113  1  0.19130000  0.07101000  0.71598000  1.0
