# generated using pymatgen
data_ZnH9C14NO5
_symmetry_space_group_name_H-M   'P 1'
_cell_length_a   9.71026000
_cell_length_b   11.05510000
_cell_length_c   11.06390000
_cell_angle_alpha   94.24190000
_cell_angle_beta   92.71180000
_cell_angle_gamma   91.00680000
_symmetry_Int_Tables_number   1
_chemical_formula_structural   ZnH9C14NO5
_chemical_formula_sum   'Zn2 H18 C28 N2 O10'
_cell_volume   1182.84180853
_cell_formula_units_Z   2
loop_
 _symmetry_equiv_pos_site_id
 _symmetry_equiv_pos_as_xyz
  1  'x, y, z'
loop_
 _atom_site_type_symbol
 _atom_site_label
 _atom_site_symmetry_multiplicity
 _atom_site_fract_x
 _atom_site_fract_y
 _atom_site_fract_z
 _atom_site_occupancy
  Zn  Zn0  1  0.63630000  0.50250000  0.50905000  1.0
  Zn  Zn1  1  0.35131000  0.49703000  0.49639000  1.0
  H  H2  1  0.28721000  0.56278000  0.88195000  1.0
  H  H3  1  0.31112000  0.12607000  0.59166000  1.0
  H  H4  1  0.13670000  0.32819000  0.71665000  1.0
  H  H5  1  0.11541000  0.22694000  0.58303000  1.0
  H  H6  1  0.83214000  0.52756000  0.13423000  1.0
  H  H7  1  0.72175000  0.85174000  0.31507000  1.0
  H  H8  1  0.77857000  0.37248000  0.13424000  1.0
  H  H9  1  0.82037000  0.87890000  0.45581000  1.0
  H  H10  1  0.83662000  0.50787000  0.90793000  1.0
  H  H11  1  0.72201000  0.07618000  0.29016000  1.0
  H  H12  1  0.77764000  0.35328000  0.90672000  1.0
  H  H13  1  0.82462000  0.10189000  0.42748000  1.0
  H  H14  1  0.11953000  0.64452000  0.39159000  1.0
  H  H15  1  0.86106000  0.65001000  0.39925000  1.0
  H  H16  1  0.87702000  0.33828000  0.72756000  1.0
  H  H17  1  0.85638000  0.23682000  0.59427000  1.0
  H  H18  1  0.26257000  0.63845000  0.20932000  1.0
  H  H19  1  0.28783000  0.80519000  0.66379000  1.0
  C  C20  1  0.49799000  0.26485000  0.48856000  1.0
  C  C21  1  0.49708000  0.50072000  0.73779000  1.0
  C  C22  1  0.76373000  0.44607000  0.94668000  1.0
  C  C23  1  0.73488000  0.05123000  0.38429000  1.0
  C  C24  1  0.06642000  0.41746000  0.55358000  1.0
  C  C25  1  0.06313000  0.57875000  0.43997000  1.0
  C  C26  1  0.92008000  0.58244000  0.44500000  1.0
  C  C27  1  0.92337000  0.42198000  0.55945000  1.0
  C  C28  1  0.91482000  0.31575000  0.63696000  1.0
  C  C29  1  0.07786000  0.30991000  0.62993000  1.0
  C  C30  1  0.49229000  0.73659000  0.52071000  1.0
  C  C31  1  0.49348000  0.51515000  0.26894000  1.0
  C  C32  1  0.61493000  0.48544000  0.94644000  1.0
  C  C33  1  0.60418000  0.05591000  0.45426000  1.0
  C  C34  1  0.49868000  0.50804000  0.87320000  1.0
  C  C35  1  0.50001000  0.13076000  0.49718000  1.0
  C  C36  1  0.37974000  0.54057000  0.93472000  1.0
  C  C37  1  0.39388000  0.07226000  0.55381000  1.0
  C  C38  1  0.37597000  0.54811000  0.06164000  1.0
  C  C39  1  0.38975000  0.94683000  0.56597000  1.0
  C  C40  1  0.49483000  0.52236000  0.13485000  1.0
  C  C41  1  0.49613000  0.87187000  0.52092000  1.0
  C  C42  1  0.61278000  0.49385000  0.07319000  1.0
  C  C43  1  0.60204000  0.93092000  0.46696000  1.0
  C  C44  1  0.76191000  0.45709000  0.08986000  1.0
  C  C45  1  0.73337000  0.91012000  0.39995000  1.0
  C  C46  1  0.24790000  0.59231000  0.11671000  1.0
  C  C47  1  0.27373000  0.89711000  0.63112000  1.0
  N  N48  1  0.13984000  0.49500000  0.49518000  1.0
  N  N49  1  0.84698000  0.50316000  0.50646000  1.0
  O  O50  1  0.61013000  0.31762000  0.46444000  1.0
  O  O51  1  0.60974000  0.47369000  0.68818000  1.0
  O  O52  1  0.38396000  0.31649000  0.50802000  1.0
  O  O53  1  0.38341000  0.52232000  0.68198000  1.0
  O  O54  1  0.60530000  0.68606000  0.54682000  1.0
  O  O55  1  0.60766000  0.53695000  0.32865000  1.0
  O  O56  1  0.37699000  0.68332000  0.49013000  1.0
  O  O57  1  0.37995000  0.48435000  0.31264000  1.0
  O  O58  1  0.13306000  0.58462000  0.06478000  1.0
  O  O59  1  0.16767000  0.95283000  0.65096000  1.0
