# generated using pymatgen
data_HgH8C7(N2Cl)2
_symmetry_space_group_name_H-M   'P 1'
_cell_length_a   6.06557000
_cell_length_b   9.45165000
_cell_length_c   9.49226000
_cell_angle_alpha   90.00020000
_cell_angle_beta   90.00110000
_cell_angle_gamma   85.10760000
_symmetry_Int_Tables_number   1
_chemical_formula_structural   HgH8C7(N2Cl)2
_chemical_formula_sum   'Hg2 H16 C14 N8 Cl4'
_cell_volume   542.20520839
_cell_formula_units_Z   2
loop_
 _symmetry_equiv_pos_site_id
 _symmetry_equiv_pos_as_xyz
  1  'x, y, z'
loop_
 _atom_site_type_symbol
 _atom_site_label
 _atom_site_symmetry_multiplicity
 _atom_site_fract_x
 _atom_site_fract_y
 _atom_site_fract_z
 _atom_site_occupancy
  Hg  Hg0  1  0.90983000  0.19450000  0.25000000  1.0
  Hg  Hg1  1  0.09017000  0.80549000  0.75000000  1.0
  H  H2  1  0.52745000  0.49145000  0.74999000  1.0
  H  H3  1  0.47255000  0.50855000  0.25001000  1.0
  H  H4  1  0.25196000  0.43624000  0.75001000  1.0
  H  H5  1  0.74807000  0.56374000  0.25001000  1.0
  H  H6  1  0.78530000  0.39912000  0.94211000  1.0
  H  H7  1  0.21470000  0.60090000  0.44211000  1.0
  H  H8  1  0.21467000  0.60088000  0.05790000  1.0
  H  H9  1  0.78530000  0.39913000  0.55789000  1.0
  H  H10  1  0.41815000  0.08324000  0.12316000  1.0
  H  H11  1  0.58187000  0.91673000  0.62317000  1.0
  H  H12  1  0.58187000  0.91673000  0.87682000  1.0
  H  H13  1  0.41814000  0.08326000  0.37685000  1.0
  H  H14  1  0.20214000  0.18667000  0.88385000  1.0
  H  H15  1  0.79789000  0.81332000  0.38383000  1.0
  H  H16  1  0.79792000  0.81331000  0.11615000  1.0
  H  H17  1  0.20209000  0.18668000  0.61616000  1.0
  C  C18  1  0.42880000  0.39946000  0.74999000  1.0
  C  C19  1  0.57119000  0.60056000  0.24999000  1.0
  C  C20  1  0.65918000  0.32658000  0.96199000  1.0
  C  C21  1  0.34083000  0.67341000  0.46199000  1.0
  C  C22  1  0.34082000  0.67343000  0.03802000  1.0
  C  C23  1  0.65916000  0.32658000  0.53800000  1.0
  C  C24  1  0.46392000  0.16458000  0.05100000  1.0
  C  C25  1  0.53608000  0.83543000  0.55099000  1.0
  C  C26  1  0.53613000  0.83541000  0.94900000  1.0
  C  C27  1  0.46389000  0.16458000  0.44901000  1.0
  C  C28  1  0.35419000  0.21495000  0.93263000  1.0
  C  C29  1  0.64577000  0.78507000  0.43263000  1.0
  C  C30  1  0.64581000  0.78504000  0.06738000  1.0
  C  C31  1  0.35419000  0.21496000  0.56740000  1.0
  N  N32  1  0.65232000  0.23517000  0.06809000  1.0
  N  N33  1  0.34768000  0.76483000  0.56809000  1.0
  N  N34  1  0.34769000  0.76483000  0.93190000  1.0
  N  N35  1  0.65231000  0.23517000  0.43189000  1.0
  N  N36  1  0.47942000  0.31753000  0.87745000  1.0
  N  N37  1  0.52055000  0.68247000  0.37746000  1.0
  N  N38  1  0.52052000  0.68247000  0.12253000  1.0
  N  N39  1  0.47947000  0.31755000  0.62254000  1.0
  Cl  Cl40  1  0.09389000  0.42214000  0.25000000  1.0
  Cl  Cl41  1  0.90612000  0.57785000  0.74999000  1.0
  Cl  Cl42  1  0.09096000  0.95335000  0.25000000  1.0
  Cl  Cl43  1  0.90904000  0.04665000  0.75000000  1.0
