# generated using pymatgen
data_MnH7C7N8
_symmetry_space_group_name_H-M   'P 1'
_cell_length_a   8.12080000
_cell_length_b   10.13390000
_cell_length_c   12.56570000
_cell_angle_alpha   89.96590000
_cell_angle_beta   89.98810000
_cell_angle_gamma   73.57300000
_symmetry_Int_Tables_number   1
_chemical_formula_structural   MnH7C7N8
_chemical_formula_sum   'Mn4 H28 C28 N32'
_cell_volume   991.88774329
_cell_formula_units_Z   4
loop_
 _symmetry_equiv_pos_site_id
 _symmetry_equiv_pos_as_xyz
  1  'x, y, z'
loop_
 _atom_site_type_symbol
 _atom_site_label
 _atom_site_symmetry_multiplicity
 _atom_site_fract_x
 _atom_site_fract_y
 _atom_site_fract_z
 _atom_site_occupancy
  Mn  Mn0  1  0.85062000  0.13067000  0.43428000  1.0
  Mn  Mn1  1  0.64916000  0.86940000  0.93398000  1.0
  Mn  Mn2  1  0.14891000  0.86940000  0.56600000  1.0
  Mn  Mn3  1  0.35043000  0.13064000  0.06549000  1.0
  H  H4  1  0.88830000  0.44481000  0.42394000  1.0
  H  H5  1  0.61392000  0.55374000  0.92317000  1.0
  H  H6  1  0.11400000  0.55400000  0.57735000  1.0
  H  H7  1  0.38825000  0.44518000  0.07550000  1.0
  H  H8  1  0.81140000  0.65118000  0.54268000  1.0
  H  H9  1  0.69074000  0.34771000  0.04234000  1.0
  H  H10  1  0.19020000  0.34820000  0.45806000  1.0
  H  H11  1  0.31063000  0.65175000  0.95686000  1.0
  H  H12  1  0.61198000  0.65532000  0.69719000  1.0
  H  H13  1  0.88882000  0.34456000  0.19741000  1.0
  H  H14  1  0.38774000  0.34518000  0.30274000  1.0
  H  H15  1  0.11061000  0.65605000  0.80268000  1.0
  H  H16  1  0.49297000  0.45372000  0.72201000  1.0
  H  H17  1  0.00650000  0.54681000  0.22231000  1.0
  H  H18  1  0.50593000  0.54721000  0.27778000  1.0
  H  H19  1  0.99207000  0.45421000  0.77796000  1.0
  H  H20  1  0.47181000  0.22563000  0.66037000  1.0
  H  H21  1  0.02705000  0.77505000  0.16047000  1.0
  H  H22  1  0.52746000  0.77508000  0.33987000  1.0
  H  H23  1  0.97204000  0.22564000  0.83938000  1.0
  H  H24  1  0.48559000  0.00681000  0.62298000  1.0
  H  H25  1  0.01314000  0.99405000  0.12224000  1.0
  H  H26  1  0.51365000  0.99403000  0.37793000  1.0
  H  H27  1  0.98595000  0.00676000  0.87714000  1.0
  H  H28  1  0.66618000  0.90836000  0.54817000  1.0
  H  H29  1  0.83252000  0.09167000  0.04700000  1.0
  H  H30  1  0.33289000  0.09181000  0.45293000  1.0
  H  H31  1  0.16641000  0.90868000  0.95224000  1.0
  C  C32  1  0.80235000  0.45064000  0.49153000  1.0
  C  C33  1  0.69913000  0.54844000  0.99106000  1.0
  C  C34  1  0.19907000  0.54871000  0.50937000  1.0
  C  C35  1  0.30213000  0.45099000  0.00801000  1.0
  C  C36  1  0.75818000  0.56584000  0.55786000  1.0
  C  C37  1  0.74323000  0.43340000  0.05766000  1.0
  C  C38  1  0.24287000  0.43380000  0.44273000  1.0
  C  C39  1  0.25755000  0.56634000  0.94174000  1.0
  C  C40  1  0.64684000  0.56833000  0.64260000  1.0
  C  C41  1  0.85387000  0.43144000  0.14266000  1.0
  C  C42  1  0.35322000  0.43193000  0.35757000  1.0
  C  C43  1  0.14592000  0.56891000  0.85717000  1.0
  C  C44  1  0.58083000  0.45659000  0.65711000  1.0
  C  C45  1  0.91926000  0.54351000  0.15717000  1.0
  C  C46  1  0.41882000  0.54388000  0.34301000  1.0
  C  C47  1  0.08014000  0.45705000  0.84273000  1.0
  C  C48  1  0.63236000  0.34463000  0.58793000  1.0
  C  C49  1  0.86785000  0.65526000  0.08768000  1.0
  C  C50  1  0.36778000  0.65549000  0.41257000  1.0
  C  C51  1  0.13202000  0.34497000  0.91187000  1.0
  C  C52  1  0.56952000  0.22340000  0.59948000  1.0
  C  C53  1  0.93014000  0.77681000  0.09915000  1.0
  C  C54  1  0.43029000  0.77692000  0.40104000  1.0
  C  C55  1  0.06938000  0.22362000  0.90045000  1.0
  C  C56  1  0.55794000  0.00254000  0.54837000  1.0
  C  C57  1  0.94121000  0.99780000  0.04755000  1.0
  C  C58  1  0.44144000  0.99783000  0.45254000  1.0
  C  C59  1  0.05796000  0.00273000  0.95184000  1.0
  N  N60  1  0.74291000  0.34168000  0.50647000  1.0
  N  N61  1  0.75787000  0.65774000  0.00599000  1.0
  N  N62  1  0.25793000  0.65795000  0.49434000  1.0
  N  N63  1  0.24281000  0.34197000  0.99319000  1.0
  N  N64  1  0.62718000  0.11949000  0.53770000  1.0
  N  N65  1  0.87278000  0.88041000  0.03699000  1.0
  N  N66  1  0.37275000  0.88059000  0.46308000  1.0
  N  N67  1  0.12682000  0.11987000  0.96247000  1.0
  N  N68  1  0.97435000  0.91032000  0.42542000  1.0
  N  N69  1  0.52574000  0.08994000  0.92503000  1.0
  N  N70  1  0.02587000  0.08977000  0.57499000  1.0
  N  N71  1  0.47388000  0.91010000  0.07397000  1.0
  N  N72  1  0.91175000  0.82617000  0.38781000  1.0
  N  N73  1  0.58856000  0.17393000  0.88729000  1.0
  N  N74  1  0.08867000  0.17368000  0.61277000  1.0
  N  N75  1  0.41157000  0.82592000  0.11191000  1.0
  N  N76  1  0.85154000  0.74386000  0.35212000  1.0
  N  N77  1  0.64906000  0.25605000  0.85147000  1.0
  N  N78  1  0.14914000  0.25574000  0.64864000  1.0
  N  N79  1  0.35158000  0.74361000  0.14792000  1.0
  N  N80  1  0.03285000  0.21248000  0.34970000  1.0
  N  N81  1  0.46925000  0.78590000  0.84901000  1.0
  N  N82  1  0.96701000  0.78665000  0.65000000  1.0
  N  N83  1  0.53173000  0.21288000  0.15042000  1.0
  N  N84  1  0.12760000  0.16129000  0.27961000  1.0
  N  N85  1  0.37271000  0.83731000  0.77980000  1.0
  N  N86  1  0.87224000  0.83820000  0.71999000  1.0
  N  N87  1  0.62681000  0.16191000  0.22042000  1.0
  N  N88  1  0.22262000  0.10986000  0.21067000  1.0
  N  N89  1  0.27580000  0.88888000  0.71177000  1.0
  N  N90  1  0.77725000  0.89003000  0.78882000  1.0
  N  N91  1  0.72220000  0.11073000  0.28930000  1.0
