# generated using pymatgen
data_NaH17C18(NO)10
_symmetry_space_group_name_H-M   'P 1'
_cell_length_a   9.17086000
_cell_length_b   11.09660000
_cell_length_c   11.80310000
_cell_angle_alpha   106.23450000
_cell_angle_beta   99.77610000
_cell_angle_gamma   90.00720000
_symmetry_Int_Tables_number   1
_chemical_formula_structural   NaH17C18(NO)10
_chemical_formula_sum   'Na2 H34 C36 N20 O20'
_cell_volume   1135.06626790
_cell_formula_units_Z   2
loop_
 _symmetry_equiv_pos_site_id
 _symmetry_equiv_pos_as_xyz
  1  'x, y, z'
loop_
 _atom_site_type_symbol
 _atom_site_label
 _atom_site_symmetry_multiplicity
 _atom_site_fract_x
 _atom_site_fract_y
 _atom_site_fract_z
 _atom_site_occupancy
  Na  Na0  1  0.09207000  0.39148000  0.91433000  1.0
  Na  Na1  1  0.90793000  0.60853000  0.08567000  1.0
  H  H2  1  0.90207000  0.32673000  0.05395000  1.0
  H  H3  1  0.09793000  0.67327000  0.94605000  1.0
  H  H4  1  0.98970000  0.20703000  0.05653000  1.0
  H  H5  1  0.01030000  0.79298000  0.94348000  1.0
  H  H6  1  0.21124000  0.57176000  0.78131000  1.0
  H  H7  1  0.78875000  0.42824000  0.21869000  1.0
  H  H8  1  0.30109000  0.60160000  0.91555000  1.0
  H  H9  1  0.69891000  0.39840000  0.08445000  1.0
  H  H10  1  0.42602000  0.59858000  0.12354000  1.0
  H  H11  1  0.57399000  0.40142000  0.87645000  1.0
  H  H12  1  0.10985000  0.12790000  0.45969000  1.0
  H  H13  1  0.89015000  0.87210000  0.54031000  1.0
  H  H14  1  0.95373000  0.08986000  0.51977000  1.0
  H  H15  1  0.04627000  0.91014000  0.48023000  1.0
  H  H16  1  0.27454000  0.23565000  0.75925000  1.0
  H  H17  1  0.72547000  0.76436000  0.24075000  1.0
  H  H18  1  0.45511000  0.31648000  0.48140000  1.0
  H  H19  1  0.54489000  0.68352000  0.51859000  1.0
  H  H20  1  0.49978000  0.42935000  0.33466000  1.0
  H  H21  1  0.50022000  0.57065000  0.66534000  1.0
  H  H22  1  0.02700000  0.45410000  0.24630000  1.0
  H  H23  1  0.97300000  0.54590000  0.75370000  1.0
  H  H24  1  0.55003000  0.90386000  0.45284000  1.0
  H  H25  1  0.44997000  0.09614000  0.54716000  1.0
  H  H26  1  0.29776000  0.81363000  0.18211000  1.0
  H  H27  1  0.70224000  0.18637000  0.81789000  1.0
  H  H28  1  0.17459000  0.79098000  0.27683000  1.0
  H  H29  1  0.82540000  0.20902000  0.72317000  1.0
  H  H30  1  0.66135000  0.04114000  0.21881000  1.0
  H  H31  1  0.33866000  0.95886000  0.78119000  1.0
  H  H32  1  0.68227000  0.18288000  0.09097000  1.0
  H  H33  1  0.31773000  0.81712000  0.90902000  1.0
  H  H34  1  0.20602000  0.18232000  0.02070000  1.0
  H  H35  1  0.79397000  0.81768000  0.97930000  1.0
  C  C36  1  0.28028000  0.51436000  0.18503000  1.0
  C  C37  1  0.71972000  0.48564000  0.81497000  1.0
  C  C38  1  0.02647000  0.16596000  0.51439000  1.0
  C  C39  1  0.97353000  0.83404000  0.48561000  1.0
  C  C40  1  0.10090000  0.23478000  0.64145000  1.0
  C  C41  1  0.89910000  0.76522000  0.35855000  1.0
  C  C42  1  0.11002000  0.36020000  0.38099000  1.0
  C  C43  1  0.88998000  0.63980000  0.61900000  1.0
  C  C44  1  0.36209000  0.34833000  0.42813000  1.0
  C  C45  1  0.63791000  0.65167000  0.57187000  1.0
  C  C46  1  0.38723000  0.41206000  0.34600000  1.0
  C  C47  1  0.61277000  0.58795000  0.65400000  1.0
  C  C48  1  0.26498000  0.45026000  0.27869000  1.0
  C  C49  1  0.73502000  0.54975000  0.72132000  1.0
  C  C50  1  0.12339000  0.42464000  0.29688000  1.0
  C  C51  1  0.87662000  0.57537000  0.70312000  1.0
  C  C52  1  0.96324000  0.32902000  0.40080000  1.0
  C  C53  1  0.03676000  0.67097000  0.59919000  1.0
  C  C54  1  0.44372000  0.27445000  0.96245000  1.0
  C  C55  1  0.55627000  0.72555000  0.03756000  1.0
  C  C56  1  0.24273000  0.86131000  0.25667000  1.0
  C  C57  1  0.75727000  0.13869000  0.74333000  1.0
  C  C58  1  0.35621000  0.92448000  0.36691000  1.0
  C  C59  1  0.64379000  0.07552000  0.63308000  1.0
  C  C60  1  0.30790000  0.07743000  0.14096000  1.0
  C  C61  1  0.69210000  0.92258000  0.85905000  1.0
  C  C62  1  0.56180000  0.07530000  0.17537000  1.0
  C  C63  1  0.43821000  0.92470000  0.82463000  1.0
  C  C64  1  0.57374000  0.15487000  0.10366000  1.0
  C  C65  1  0.42626000  0.84512000  0.89634000  1.0
  C  C66  1  0.44394000  0.19431000  0.04669000  1.0
  C  C67  1  0.55606000  0.80569000  0.95333000  1.0
  C  C68  1  0.30829000  0.15410000  0.06530000  1.0
  C  C69  1  0.69171000  0.84591000  0.93470000  1.0
  C  C70  1  0.16726000  0.04036000  0.16716000  1.0
  C  C71  1  0.83274000  0.95964000  0.83285000  1.0
  N  N72  1  0.22683000  0.32243000  0.44610000  1.0
  N  N73  1  0.77317000  0.67756000  0.55389000  1.0
  N  N74  1  0.93171000  0.24645000  0.46001000  1.0
  N  N75  1  0.06829000  0.75354000  0.53998000  1.0
  N  N76  1  0.78423000  0.24471000  0.46124000  1.0
  N  N77  1  0.21576000  0.75529000  0.53875000  1.0
  N  N78  1  0.72849000  0.32282000  0.40332000  1.0
  N  N79  1  0.27151000  0.67718000  0.59667000  1.0
  N  N80  1  0.83551000  0.37621000  0.36396000  1.0
  N  N81  1  0.16449000  0.62379000  0.63604000  1.0
  N  N82  1  0.43219000  0.03675000  0.19443000  1.0
  N  N83  1  0.56781000  0.96326000  0.80558000  1.0
  N  N84  1  0.14356000  0.95077000  0.22068000  1.0
  N  N85  1  0.85644000  0.04923000  0.77932000  1.0
  N  N86  1  0.00005000  0.95022000  0.23410000  1.0
  N  N87  1  0.99995000  0.04977000  0.76590000  1.0
  N  N88  1  0.93828000  0.03619000  0.18888000  1.0
  N  N89  1  0.06171000  0.96380000  0.81112000  1.0
  N  N90  1  0.03839000  0.09352000  0.14636000  1.0
  N  N91  1  0.96161000  0.90648000  0.85364000  1.0
  O  O92  1  0.96399000  0.26550000  0.00718000  1.0
  O  O93  1  0.03603000  0.73450000  0.99283000  1.0
  O  O94  1  0.20770000  0.56305000  0.86197000  1.0
  O  O95  1  0.79229000  0.43696000  0.13803000  1.0
  O  O96  1  0.41824000  0.54694000  0.18504000  1.0
  O  O97  1  0.58176000  0.45306000  0.81495000  1.0
  O  O98  1  0.17095000  0.53215000  0.11441000  1.0
  O  O99  1  0.82904000  0.46784000  0.88559000  1.0
  O  O100  1  0.23222000  0.19357000  0.67112000  1.0
  O  O101  1  0.76779000  0.80644000  0.32889000  1.0
  O  O102  1  0.03676000  0.31556000  0.70720000  1.0
  O  O103  1  0.96324000  0.68444000  0.29281000  1.0
  O  O104  1  0.56842000  0.32327000  0.95869000  1.0
  O  O105  1  0.43158000  0.67672000  0.04132000  1.0
  O  O106  1  0.32092000  0.28699000  0.90044000  1.0
  O  O107  1  0.67908000  0.71302000  0.09957000  1.0
  O  O108  1  0.47225000  0.85768000  0.37909000  1.0
  O  O109  1  0.52775000  0.14232000  0.62091000  1.0
  O  O110  1  0.33291000  0.02610000  0.43731000  1.0
  O  O111  1  0.66710000  0.97390000  0.56268000  1.0
