# generated using pymatgen
data_MnH28C28(N4Cl)2
_symmetry_space_group_name_H-M   'P 1'
_cell_length_a   7.65737000
_cell_length_b   12.63480000
_cell_length_c   14.22920434
_cell_angle_alpha   90.00000000
_cell_angle_beta   105.38914298
_cell_angle_gamma   90.00000000
_symmetry_Int_Tables_number   1
_chemical_formula_structural   MnH28C28(N4Cl)2
_chemical_formula_sum   'Mn2 H56 C56 N16 Cl4'
_cell_volume   1327.30671779
_cell_formula_units_Z   2
loop_
 _symmetry_equiv_pos_site_id
 _symmetry_equiv_pos_as_xyz
  1  'x, y, z'
loop_
 _atom_site_type_symbol
 _atom_site_label
 _atom_site_symmetry_multiplicity
 _atom_site_fract_x
 _atom_site_fract_y
 _atom_site_fract_z
 _atom_site_occupancy
  Mn  Mn0  1  0.00000000  0.00000000  0.00000000  1.0
  Mn  Mn1  1  0.50000000  0.50000000  0.50000000  1.0
  H  H2  1  0.96340000  0.19469000  0.15359000  1.0
  H  H3  1  0.53661000  0.69469000  0.34642000  1.0
  H  H4  1  0.03660000  0.80531000  0.84641000  1.0
  H  H5  1  0.46339000  0.30531000  0.65358000  1.0
  H  H6  1  0.23172000  0.23358000  0.32964000  1.0
  H  H7  1  0.26827000  0.73358000  0.17036000  1.0
  H  H8  1  0.76828000  0.76642000  0.67036000  1.0
  H  H9  1  0.73172000  0.26642000  0.82964000  1.0
  H  H10  1  0.43440000  0.02641000  0.14870000  1.0
  H  H11  1  0.06560000  0.52641000  0.35130000  1.0
  H  H12  1  0.56560000  0.97359000  0.85130000  1.0
  H  H13  1  0.93440000  0.47359000  0.64870000  1.0
  H  H14  1  0.60317000  0.19988000  0.35971000  1.0
  H  H15  1  0.89683000  0.69987000  0.14029000  1.0
  H  H16  1  0.39683000  0.80012000  0.64029000  1.0
  H  H17  1  0.10316000  0.30012000  0.85971000  1.0
  H  H18  1  0.65144000  0.08207000  0.30329000  1.0
  H  H19  1  0.84856000  0.58206000  0.19671000  1.0
  H  H20  1  0.34856000  0.91793000  0.69671000  1.0
  H  H21  1  0.15144000  0.41793000  0.80329000  1.0
  H  H22  1  0.49648000  0.90813000  0.34535000  1.0
  H  H23  1  0.00354000  0.40813000  0.15466000  1.0
  H  H24  1  0.50353000  0.09186000  0.65466000  1.0
  H  H25  1  0.99648000  0.59186000  0.84535000  1.0
  H  H26  1  0.54717000  0.19502000  0.51383000  1.0
  H  H27  1  0.95283000  0.69502000  0.98617000  1.0
  H  H28  1  0.45283000  0.80498000  0.48617000  1.0
  H  H29  1  0.04717000  0.30498000  0.01383000  1.0
  H  H30  1  0.60705000  0.90985000  0.05368000  1.0
  H  H31  1  0.89293000  0.40986000  0.44632000  1.0
  H  H32  1  0.39293000  0.09014000  0.94632000  1.0
  H  H33  1  0.10707000  0.59014000  0.55368000  1.0
  H  H34  1  0.61452000  0.82821000  0.23520000  1.0
  H  H35  1  0.88547000  0.32822000  0.26479000  1.0
  H  H36  1  0.38548000  0.17178000  0.76480000  1.0
  H  H37  1  0.11454000  0.67178000  0.73521000  1.0
  H  H38  1  0.14830000  0.90372000  0.22616000  1.0
  H  H39  1  0.35168000  0.40372000  0.27383000  1.0
  H  H40  1  0.85168000  0.09628000  0.77383000  1.0
  H  H41  1  0.64832000  0.59629000  0.72617000  1.0
  H  H42  1  0.10944000  0.79330000  0.37034000  1.0
  H  H43  1  0.39055000  0.29330000  0.12965000  1.0
  H  H44  1  0.89056000  0.20670000  0.62966000  1.0
  H  H45  1  0.60945000  0.70671000  0.87034000  1.0
  H  H46  1  0.88904000  0.76245000  0.37961000  1.0
  H  H47  1  0.61097000  0.26245000  0.12039000  1.0
  H  H48  1  0.11096000  0.23755000  0.62039000  1.0
  H  H49  1  0.38903000  0.73755000  0.87960000  1.0
  H  H50  1  0.94228000  0.81579000  0.54560000  1.0
  H  H51  1  0.55773000  0.31580000  0.95440000  1.0
  H  H52  1  0.05772000  0.18421000  0.45440000  1.0
  H  H53  1  0.44229000  0.68421000  0.04560000  1.0
  H  H54  1  0.02624000  0.03999000  0.33349000  1.0
  H  H55  1  0.47376000  0.54000000  0.16651000  1.0
  H  H56  1  0.97375000  0.96001000  0.66650000  1.0
  H  H57  1  0.52625000  0.46001000  0.83349000  1.0
  C  C58  1  0.10226000  0.16721000  0.17930000  1.0
  C  C59  1  0.39774000  0.66721000  0.32070000  1.0
  C  C60  1  0.89774000  0.83279000  0.82070000  1.0
  C  C61  1  0.60226000  0.33279000  0.67930000  1.0
  C  C62  1  0.23165000  0.18657000  0.26539000  1.0
  C  C63  1  0.26834000  0.68657000  0.23461000  1.0
  C  C64  1  0.76835000  0.81343000  0.73461000  1.0
  C  C65  1  0.73165000  0.31343000  0.76539000  1.0
  C  C66  1  0.34124000  0.07851000  0.17204000  1.0
  C  C67  1  0.15876000  0.57851000  0.32796000  1.0
  C  C68  1  0.65876000  0.92148000  0.82796000  1.0
  C  C69  1  0.84124000  0.42148000  0.67204000  1.0
  C  C70  1  0.55290000  0.12039000  0.33595000  1.0
  C  C71  1  0.94710000  0.62039000  0.16405000  1.0
  C  C72  1  0.44710000  0.87961000  0.66405000  1.0
  C  C73  1  0.05290000  0.37961000  0.83595000  1.0
  C  C74  1  0.52741000  0.05772000  0.42128000  1.0
  C  C75  1  0.97259000  0.55772000  0.07872000  1.0
  C  C76  1  0.47259000  0.94228000  0.57872000  1.0
  C  C77  1  0.02741000  0.44228000  0.92128000  1.0
  C  C78  1  0.49777000  0.94849000  0.41334000  1.0
  C  C79  1  0.00223000  0.44849000  0.08666000  1.0
  C  C80  1  0.50223000  0.05151000  0.58666000  1.0
  C  C81  1  0.99777000  0.55151000  0.91334000  1.0
  C  C82  1  0.52910000  0.10930000  0.50842000  1.0
  C  C83  1  0.97090000  0.60930000  0.99158000  1.0
  C  C84  1  0.47090000  0.89070000  0.49158000  1.0
  C  C85  1  0.02910000  0.39070000  0.00842000  1.0
  C  C86  1  0.72211000  0.89780000  0.11628000  1.0
  C  C87  1  0.77787000  0.39781000  0.38371000  1.0
  C  C88  1  0.27787000  0.10219000  0.88371000  1.0
  C  C89  1  0.22213000  0.60219000  0.61629000  1.0
  C  C90  1  0.72268000  0.85762000  0.20636000  1.0
  C  C91  1  0.77731000  0.35763000  0.29364000  1.0
  C  C92  1  0.27731000  0.14237000  0.79364000  1.0
  C  C93  1  0.22269000  0.64237000  0.70636000  1.0
  C  C94  1  0.00228000  0.89564000  0.20247000  1.0
  C  C95  1  0.49770000  0.39564000  0.29752000  1.0
  C  C96  1  0.99771000  0.10436000  0.79753000  1.0
  C  C97  1  0.50229000  0.60436000  0.70247000  1.0
  C  C98  1  0.97311000  0.82630000  0.36233000  1.0
  C  C99  1  0.52689000  0.32630000  0.13767000  1.0
  C  C100  1  0.02689000  0.17370000  0.63767000  1.0
  C  C101  1  0.47312000  0.67371000  0.86233000  1.0
  C  C102  1  0.98311000  0.91779000  0.43194000  1.0
  C  C103  1  0.51689000  0.41779000  0.06806000  1.0
  C  C104  1  0.01688000  0.08221000  0.56806000  1.0
  C  C105  1  0.48313000  0.58222000  0.93194000  1.0
  C  C106  1  0.96945000  0.89664000  0.52616000  1.0
  C  C107  1  0.53056000  0.39664000  0.97384000  1.0
  C  C108  1  0.03055000  0.10336000  0.47384000  1.0
  C  C109  1  0.46946000  0.60337000  0.02616000  1.0
  C  C110  1  0.01374000  0.02167000  0.40633000  1.0
  C  C111  1  0.48627000  0.52167000  0.09367000  1.0
  C  C112  1  0.98626000  0.97833000  0.59367000  1.0
  C  C113  1  0.51375000  0.47834000  0.90633000  1.0
  N  N114  1  0.17187000  0.09966000  0.12172000  1.0
  N  N115  1  0.32813000  0.59966000  0.37828000  1.0
  N  N116  1  0.82813000  0.90034000  0.87828000  1.0
  N  N117  1  0.67187000  0.40034000  0.62172000  1.0
  N  N118  1  0.38295000  0.12998000  0.25911000  1.0
  N  N119  1  0.11705000  0.62998000  0.24089000  1.0
  N  N120  1  0.61705000  0.87002000  0.74089000  1.0
  N  N121  1  0.88294000  0.37002000  0.75911000  1.0
  N  N122  1  0.89749000  0.92122000  0.11499000  1.0
  N  N123  1  0.60249000  0.42122000  0.38500000  1.0
  N  N124  1  0.10250000  0.07878000  0.88501000  1.0
  N  N125  1  0.39751000  0.57878000  0.61500000  1.0
  N  N126  1  0.90217000  0.85622000  0.26025000  1.0
  N  N127  1  0.59783000  0.35623000  0.23975000  1.0
  N  N128  1  0.09783000  0.14377000  0.73975000  1.0
  N  N129  1  0.40217000  0.64377000  0.76025000  1.0
  Cl  Cl130  1  0.25345000  0.86369000  0.02400000  1.0
  Cl  Cl131  1  0.24654000  0.36369000  0.47600000  1.0
  Cl  Cl132  1  0.74654000  0.13631000  0.97600000  1.0
  Cl  Cl133  1  0.75346000  0.63631000  0.52400000  1.0
