# generated using pymatgen
data_AgH19C20(NO)4
_symmetry_space_group_name_H-M   'P 1'
_cell_length_a   6.47565000
_cell_length_b   7.91636000
_cell_length_c   9.01360000
_cell_angle_alpha   83.90990000
_cell_angle_beta   83.17170000
_cell_angle_gamma   88.74780000
_symmetry_Int_Tables_number   1
_chemical_formula_structural   AgH19C20(NO)4
_chemical_formula_sum   'Ag1 H19 C20 N4 O4'
_cell_volume   456.18260668
_cell_formula_units_Z   1
loop_
 _symmetry_equiv_pos_site_id
 _symmetry_equiv_pos_as_xyz
  1  'x, y, z'
loop_
 _atom_site_type_symbol
 _atom_site_label
 _atom_site_symmetry_multiplicity
 _atom_site_fract_x
 _atom_site_fract_y
 _atom_site_fract_z
 _atom_site_occupancy
  Ag  Ag0  1  0.50002000  0.50002000  0.49996000  1.0
  H  H1  1  0.49969000  0.00036000  0.99978000  1.0
  H  H2  1  0.84889000  0.71167000  0.25459000  1.0
  H  H3  1  0.15106000  0.28826000  0.74538000  1.0
  H  H4  1  0.25327000  0.72517000  0.74486000  1.0
  H  H5  1  0.74674000  0.27483000  0.25513000  1.0
  H  H6  1  0.95383000  0.87847000  0.87666000  1.0
  H  H7  1  0.04613000  0.12149000  0.12335000  1.0
  H  H8  1  0.64289000  0.96076000  0.75092000  1.0
  H  H9  1  0.35711000  0.03920000  0.24908000  1.0
  H  H10  1  0.61910000  0.89788000  0.48772000  1.0
  H  H11  1  0.38091000  0.10211000  0.51227000  1.0
  H  H12  1  0.10210000  0.51332000  0.12996000  1.0
  H  H13  1  0.89790000  0.48669000  0.87003000  1.0
  H  H14  1  0.33681000  0.46075000  0.20730000  1.0
  H  H15  1  0.66320000  0.53923000  0.79272000  1.0
  H  H16  1  0.37680000  0.63577000  0.95495000  1.0
  H  H17  1  0.62328000  0.36425000  0.04507000  1.0
  H  H18  1  0.24737000  0.80860000  0.03688000  1.0
  H  H19  1  0.75268000  0.19137000  0.96317000  1.0
  C  C20  1  0.10126000  0.72615000  0.54318000  1.0
  C  C21  1  0.89874000  0.27385000  0.45681000  1.0
  C  C22  1  0.11625000  0.76333000  0.68965000  1.0
  C  C23  1  0.88375000  0.23667000  0.31035000  1.0
  C  C24  1  0.94880000  0.84797000  0.76207000  1.0
  C  C25  1  0.05119000  0.15203000  0.23793000  1.0
  C  C26  1  0.77052000  0.89446000  0.69084000  1.0
  C  C27  1  0.22948000  0.10553000  0.30915000  1.0
  C  C28  1  0.75469000  0.85937000  0.54429000  1.0
  C  C29  1  0.24531000  0.14063000  0.45571000  1.0
  C  C30  1  0.92279000  0.77537000  0.47171000  1.0
  C  C31  1  0.07720000  0.22462000  0.52827000  1.0
  C  C32  1  0.14600000  0.64022000  0.31809000  1.0
  C  C33  1  0.85398000  0.35978000  0.68190000  1.0
  C  C34  1  0.23125000  0.56616000  0.17835000  1.0
  C  C35  1  0.76876000  0.43383000  0.82165000  1.0
  C  C36  1  0.34569000  0.69650000  0.05991000  1.0
  C  C37  1  0.65440000  0.30348000  0.94014000  1.0
  C  C38  1  0.55468000  0.74833000  0.10097000  1.0
  C  C39  1  0.44544000  0.25169000  0.89910000  1.0
  N  N40  1  0.23798000  0.64146000  0.44394000  1.0
  N  N41  1  0.76201000  0.35855000  0.55605000  1.0
  N  N42  1  0.95855000  0.72054000  0.33052000  1.0
  N  N43  1  0.04144000  0.27945000  0.66947000  1.0
  O  O44  1  0.61248000  0.90523000  0.06985000  1.0
  O  O45  1  0.38756000  0.09472000  0.93026000  1.0
  O  O46  1  0.66756000  0.63759000  0.16247000  1.0
  O  O47  1  0.33248000  0.36228000  0.83759000  1.0
