# generated using pymatgen
data_CuH6C9SN
_symmetry_space_group_name_H-M   'P 1'
_cell_length_a   7.89998000
_cell_length_b   10.84170000
_cell_length_c   18.94900000
_cell_angle_alpha   90.00000000
_cell_angle_beta   90.00000000
_cell_angle_gamma   110.12800000
_symmetry_Int_Tables_number   1
_chemical_formula_structural   CuH6C9SN
_chemical_formula_sum   'Cu8 H48 C72 S8 N8'
_cell_volume   1523.84617573
_cell_formula_units_Z   8
loop_
 _symmetry_equiv_pos_site_id
 _symmetry_equiv_pos_as_xyz
  1  'x, y, z'
loop_
 _atom_site_type_symbol
 _atom_site_label
 _atom_site_symmetry_multiplicity
 _atom_site_fract_x
 _atom_site_fract_y
 _atom_site_fract_z
 _atom_site_occupancy
  Cu  Cu0  1  0.62340000  0.51842000  0.44891000  1.0
  Cu  Cu1  1  0.37660000  0.98158000  0.94891000  1.0
  Cu  Cu2  1  0.37659000  0.48158000  0.55109000  1.0
  Cu  Cu3  1  0.62340000  0.01842000  0.05109000  1.0
  Cu  Cu4  1  0.84650000  0.41057000  0.50960000  1.0
  Cu  Cu5  1  0.15350000  0.08944000  0.00960000  1.0
  Cu  Cu6  1  0.15350000  0.58944000  0.49040000  1.0
  Cu  Cu7  1  0.84650000  0.91056000  0.99040000  1.0
  H  H8  1  0.18135000  0.53141000  0.32876000  1.0
  H  H9  1  0.81865000  0.96858000  0.82875000  1.0
  H  H10  1  0.81865000  0.46859000  0.67124000  1.0
  H  H11  1  0.18135000  0.03141000  0.17125000  1.0
  H  H12  1  0.14652000  0.38563000  0.22441000  1.0
  H  H13  1  0.85349000  0.11437000  0.72440000  1.0
  H  H14  1  0.85349000  0.61437000  0.77559000  1.0
  H  H15  1  0.14651000  0.88562000  0.27560000  1.0
  H  H16  1  0.84159000  0.24457000  0.18357000  1.0
  H  H17  1  0.15842000  0.25544000  0.68357000  1.0
  H  H18  1  0.15841000  0.75544000  0.81643000  1.0
  H  H19  1  0.84158000  0.74456000  0.31643000  1.0
  H  H20  1  0.50704000  0.16878000  0.20006000  1.0
  H  H21  1  0.49297000  0.33123000  0.70006000  1.0
  H  H22  1  0.49296000  0.83123000  0.79994000  1.0
  H  H23  1  0.50704000  0.66877000  0.29994000  1.0
  H  H24  1  0.24126000  0.18869000  0.26655000  1.0
  H  H25  1  0.75875000  0.31131000  0.76655000  1.0
  H  H26  1  0.75874000  0.81132000  0.73345000  1.0
  H  H27  1  0.24126000  0.68868000  0.23345000  1.0
  H  H28  1  0.29820000  0.34890000  0.36650000  1.0
  H  H29  1  0.70180000  0.15109000  0.86650000  1.0
  H  H30  1  0.70179000  0.65110000  0.63350000  1.0
  H  H31  1  0.29820000  0.84890000  0.13350000  1.0
  H  H32  1  0.19076000  0.18590000  0.51661000  1.0
  H  H33  1  0.80924000  0.31410000  0.01661000  1.0
  H  H34  1  0.80924000  0.81410000  0.48339000  1.0
  H  H35  1  0.19076000  0.68590000  0.98339000  1.0
  H  H36  1  0.06942000  0.97986000  0.44617000  1.0
  H  H37  1  0.93058000  0.52014000  0.94617000  1.0
  H  H38  1  0.93058000  0.02014000  0.55383000  1.0
  H  H39  1  0.06942000  0.47986000  0.05383000  1.0
  H  H40  1  0.27734000  0.89215000  0.38134000  1.0
  H  H41  1  0.72267000  0.60785000  0.88135000  1.0
  H  H42  1  0.72267000  0.10785000  0.61866000  1.0
  H  H43  1  0.27733000  0.39215000  0.11866000  1.0
  H  H44  1  0.58980000  0.92535000  0.33982000  1.0
  H  H45  1  0.41020000  0.57464000  0.83982000  1.0
  H  H46  1  0.41020000  0.07465000  0.66018000  1.0
  H  H47  1  0.58980000  0.42535000  0.16018000  1.0
  H  H48  1  0.91912000  0.05881000  0.34257000  1.0
  H  H49  1  0.08089000  0.44119000  0.84257000  1.0
  H  H50  1  0.08089000  0.94120000  0.65743000  1.0
  H  H51  1  0.91911000  0.55880000  0.15743000  1.0
  H  H52  1  0.02248000  0.26094000  0.41889000  1.0
  H  H53  1  0.97752000  0.23905000  0.91889000  1.0
  H  H54  1  0.97752000  0.73906000  0.58111000  1.0
  H  H55  1  0.02248000  0.76094000  0.08111000  1.0
  C  C56  1  0.89866000  0.48349000  0.34567000  1.0
  C  C57  1  0.10134000  0.01651000  0.84567000  1.0
  C  C58  1  0.10134000  0.51651000  0.65433000  1.0
  C  C59  1  0.89866000  0.98349000  0.15433000  1.0
  C  C60  1  0.04703000  0.47352000  0.30978000  1.0
  C  C61  1  0.95297000  0.02647000  0.80978000  1.0
  C  C62  1  0.95297000  0.52648000  0.69022000  1.0
  C  C63  1  0.04703000  0.97352000  0.19022000  1.0
  C  C64  1  0.02640000  0.38922000  0.25134000  1.0
  C  C65  1  0.97360000  0.11078000  0.75134000  1.0
  C  C66  1  0.97360000  0.61077000  0.74866000  1.0
  C  C67  1  0.02640000  0.88922000  0.24866000  1.0
  C  C68  1  0.85739000  0.31091000  0.22843000  1.0
  C  C69  1  0.14262000  0.18909000  0.72842000  1.0
  C  C70  1  0.14261000  0.68908000  0.77158000  1.0
  C  C71  1  0.85738000  0.81091000  0.27158000  1.0
  C  C72  1  0.70213000  0.31626000  0.26401000  1.0
  C  C73  1  0.29787000  0.18374000  0.76402000  1.0
  C  C74  1  0.29787000  0.68374000  0.73598000  1.0
  C  C75  1  0.70213000  0.81626000  0.23598000  1.0
  C  C76  1  0.52473000  0.23646000  0.24443000  1.0
  C  C77  1  0.47527000  0.26354000  0.74443000  1.0
  C  C78  1  0.47527000  0.76354000  0.75556000  1.0
  C  C79  1  0.52472000  0.73646000  0.25556000  1.0
  C  C80  1  0.37911000  0.24813000  0.28035000  1.0
  C  C81  1  0.62090000  0.25187000  0.78035000  1.0
  C  C82  1  0.62089000  0.75188000  0.71965000  1.0
  C  C83  1  0.37911000  0.74812000  0.21965000  1.0
  C  C84  1  0.41019000  0.33794000  0.33661000  1.0
  C  C85  1  0.58981000  0.16206000  0.83661000  1.0
  C  C86  1  0.58981000  0.66206000  0.66339000  1.0
  C  C87  1  0.41019000  0.83794000  0.16339000  1.0
  C  C88  1  0.72191000  0.40482000  0.32219000  1.0
  C  C89  1  0.27810000  0.09518000  0.82219000  1.0
  C  C90  1  0.27809000  0.59519000  0.67781000  1.0
  C  C91  1  0.72190000  0.90481000  0.17781000  1.0
  C  C92  1  0.46619000  0.21755000  0.49200000  1.0
  C  C93  1  0.53381000  0.28245000  0.99200000  1.0
  C  C94  1  0.53380000  0.78245000  0.50800000  1.0
  C  C95  1  0.46619000  0.71755000  0.00800000  1.0
  C  C96  1  0.28227000  0.14867000  0.48746000  1.0
  C  C97  1  0.71773000  0.35133000  0.98746000  1.0
  C  C98  1  0.71773000  0.85133000  0.51254000  1.0
  C  C99  1  0.28227000  0.64867000  0.01254000  1.0
  C  C100  1  0.21437000  0.03239000  0.44744000  1.0
  C  C101  1  0.78563000  0.46761000  0.94744000  1.0
  C  C102  1  0.78563000  0.96761000  0.55256000  1.0
  C  C103  1  0.21437000  0.53239000  0.05256000  1.0
  C  C104  1  0.32886000  0.98434000  0.41049000  1.0
  C  C105  1  0.67114000  0.51566000  0.91049000  1.0
  C  C106  1  0.67115000  0.01566000  0.58951000  1.0
  C  C107  1  0.32886000  0.48434000  0.08951000  1.0
  C  C108  1  0.51693000  0.05467000  0.41098000  1.0
  C  C109  1  0.48307000  0.44533000  0.91098000  1.0
  C  C110  1  0.48307000  0.94533000  0.58902000  1.0
  C  C111  1  0.51693000  0.55467000  0.08902000  1.0
  C  C112  1  0.64063000  0.01447000  0.37137000  1.0
  C  C113  1  0.35937000  0.48553000  0.87137000  1.0
  C  C114  1  0.35938000  0.98554000  0.62863000  1.0
  C  C115  1  0.64062000  0.51447000  0.12864000  1.0
  C  C116  1  0.82192000  0.08756000  0.37307000  1.0
  C  C117  1  0.17809000  0.41244000  0.87307000  1.0
  C  C118  1  0.17808000  0.91244000  0.62693000  1.0
  C  C119  1  0.82191000  0.58756000  0.12693000  1.0
  C  C120  1  0.88015000  0.20071000  0.41550000  1.0
  C  C121  1  0.11986000  0.29929000  0.91550000  1.0
  C  C122  1  0.11985000  0.79929000  0.58450000  1.0
  C  C123  1  0.88015000  0.70071000  0.08450000  1.0
  C  C124  1  0.58719000  0.17180000  0.45224000  1.0
  C  C125  1  0.41281000  0.32820000  0.95224000  1.0
  C  C126  1  0.41280000  0.82820000  0.54776000  1.0
  C  C127  1  0.58719000  0.67180000  0.04776000  1.0
  S  S128  1  0.92442000  0.58712000  0.41960000  1.0
  S  S129  1  0.07558000  0.91289000  0.91960000  1.0
  S  S130  1  0.07557000  0.41289000  0.58040000  1.0
  S  S131  1  0.92443000  0.08711000  0.08040000  1.0
  S  S132  1  0.55299000  0.35815000  0.54545000  1.0
  S  S133  1  0.44701000  0.14184000  0.04545000  1.0
  S  S134  1  0.44700000  0.64185000  0.45455000  1.0
  S  S135  1  0.55300000  0.85815000  0.95455000  1.0
  N  N136  1  0.57455000  0.41268000  0.35749000  1.0
  N  N137  1  0.42545000  0.08732000  0.85750000  1.0
  N  N138  1  0.42544000  0.58733000  0.64250000  1.0
  N  N139  1  0.57455000  0.91267000  0.14250000  1.0
  N  N140  1  0.76803000  0.24190000  0.45341000  1.0
  N  N141  1  0.23197000  0.25810000  0.95341000  1.0
  N  N142  1  0.23197000  0.75810000  0.54659000  1.0
  N  N143  1  0.76803000  0.74190000  0.04659000  1.0
