# generated using pymatgen
data_Zn4H18C36O13
_symmetry_space_group_name_H-M   'P 1'
_cell_length_a   18.29808634
_cell_length_b   18.32720000
_cell_length_c   18.30170000
_cell_angle_alpha   119.32200000
_cell_angle_beta   119.37535226
_cell_angle_gamma   60.69595818
_symmetry_Int_Tables_number   1
_chemical_formula_structural   Zn4H18C36O13
_chemical_formula_sum   'Zn8 H36 C72 O26'
_cell_volume   4405.15181636
_cell_formula_units_Z   2
loop_
 _symmetry_equiv_pos_site_id
 _symmetry_equiv_pos_as_xyz
  1  'x, y, z'
loop_
 _atom_site_type_symbol
 _atom_site_label
 _atom_site_symmetry_multiplicity
 _atom_site_fract_x
 _atom_site_fract_y
 _atom_site_fract_z
 _atom_site_occupancy
  Zn  Zn0  1  0.14445000  0.94100000  0.04318000  1.0
  Zn  Zn1  1  0.97612000  0.93727000  0.04808000  1.0
  Zn  Zn2  1  0.97385000  0.93834000  0.87226000  1.0
  Zn  Zn3  1  0.97239000  0.11473000  0.04659000  1.0
  Zn  Zn4  1  0.38431000  0.52754000  0.45792000  1.0
  Zn  Zn5  1  0.56456000  0.52531000  0.46059000  1.0
  Zn  Zn6  1  0.55785000  0.35540000  0.46061000  1.0
  Zn  Zn7  1  0.55957000  0.52366000  0.63202000  1.0
  H  H8  1  0.12714000  0.72438000  0.15212000  1.0
  H  H9  1  0.22477000  0.63006000  0.24975000  1.0
  H  H10  1  0.48045000  0.72692000  0.43207000  1.0
  H  H11  1  0.52339000  0.84338000  0.44892000  1.0
  H  H12  1  0.42636000  0.93633000  0.34941000  1.0
  H  H13  1  0.28745000  0.91211000  0.23513000  1.0
  H  H14  1  0.11844000  0.82825000  0.69995000  1.0
  H  H15  1  0.21448000  0.73163000  0.60332000  1.0
  H  H16  1  0.47446000  0.55183000  0.77146000  1.0
  H  H17  1  0.52103000  0.53534000  0.91452000  1.0
  H  H18  1  0.42595000  0.63344000  0.01193000  1.0
  H  H19  1  0.28514000  0.74618000  0.96442000  1.0
  H  H20  1  0.12041000  0.28052000  0.25670000  1.0
  H  H21  1  0.21546000  0.37750000  0.35328000  1.0
  H  H22  1  0.47970000  0.21483000  0.27094000  1.0
  H  H23  1  0.52805000  0.07473000  0.15831000  1.0
  H  H24  1  0.43226000  0.97802000  0.06042000  1.0
  H  H25  1  0.28971000  0.02246000  0.07690000  1.0
  H  H26  1  0.86585000  0.73292000  0.70847000  1.0
  H  H27  1  0.77146000  0.63532000  0.61226000  1.0
  H  H28  1  0.57958000  0.72479000  0.77124000  1.0
  H  H29  1  0.55585000  0.84048000  0.90961000  1.0
  H  H30  1  0.65128000  0.93745000  0.00658000  1.0
  H  H31  1  0.76929000  0.91772000  0.96365000  1.0
  H  H32  1  0.77061000  0.27813000  0.15651000  1.0
  H  H33  1  0.67294000  0.37617000  0.25129000  1.0
  H  H34  1  0.75327000  0.21534000  0.43727000  1.0
  H  H35  1  0.86559000  0.07557000  0.46004000  1.0
  H  H36  1  0.96435000  0.97798000  0.36636000  1.0
  H  H37  1  0.94913000  0.02123000  0.25086000  1.0
  H  H38  1  0.86224000  0.28287000  0.89735000  1.0
  H  H39  1  0.76505000  0.37878000  0.80121000  1.0
  H  H40  1  0.58548000  0.21067000  0.54142000  1.0
  H  H41  1  0.56619000  0.06951000  0.49665000  1.0
  H  H42  1  0.66119000  0.97475000  0.59438000  1.0
  H  H43  1  0.77485000  0.02174000  0.73480000  1.0
  C  C44  1  0.15823000  0.84312000  0.14006000  1.0
  C  C45  1  0.21870000  0.79205000  0.20334000  1.0
  C  C46  1  0.19135000  0.73144000  0.19934000  1.0
  C  C47  1  0.24614000  0.67854000  0.25419000  1.0
  C  C48  1  0.32842000  0.68610000  0.31390000  1.0
  C  C49  1  0.38345000  0.62410000  0.36673000  1.0
  C  C50  1  0.35779000  0.75070000  0.32310000  1.0
  C  C51  1  0.43784000  0.76683000  0.38858000  1.0
  C  C52  1  0.46191000  0.83208000  0.39772000  1.0
  C  C53  1  0.40724000  0.88455000  0.34178000  1.0
  C  C54  1  0.32908000  0.87114000  0.27765000  1.0
  C  C55  1  0.30175000  0.80464000  0.26622000  1.0
  C  C56  1  0.15452000  0.84250000  0.86296000  1.0
  C  C57  1  0.21306000  0.77837000  0.80738000  1.0
  C  C58  1  0.18343000  0.78163000  0.72298000  1.0
  C  C59  1  0.23716000  0.72746000  0.66887000  1.0
  C  C60  1  0.32061000  0.66936000  0.69859000  1.0
  C  C61  1  0.37614000  0.61873000  0.63952000  1.0
  C  C62  1  0.35177000  0.66005000  0.78336000  1.0
  C  C63  1  0.43272000  0.59516000  0.81314000  1.0
  C  C64  1  0.45882000  0.58603000  0.89365000  1.0
  C  C65  1  0.40520000  0.64120000  0.94846000  1.0
  C  C66  1  0.32604000  0.70455000  0.92177000  1.0
  C  C67  1  0.29681000  0.71613000  0.83920000  1.0
  C  C68  1  0.15634000  0.12030000  0.14147000  1.0
  C  C69  1  0.21571000  0.17570000  0.19386000  1.0
  C  C70  1  0.18581000  0.25846000  0.25248000  1.0
  C  C71  1  0.23920000  0.31291000  0.30678000  1.0
  C  C72  1  0.32309000  0.28489000  0.30316000  1.0
  C  C73  1  0.37773000  0.34469000  0.36635000  1.0
  C  C74  1  0.35533000  0.20153000  0.24086000  1.0
  C  C75  1  0.43760000  0.17340000  0.22923000  1.0
  C  C76  1  0.46474000  0.09461000  0.16593000  1.0
  C  C77  1  0.41078000  0.04011000  0.11085000  1.0
  C  C78  1  0.33059000  0.06505000  0.11996000  1.0
  C  C79  1  0.30028000  0.14570000  0.18474000  1.0
  C  C80  1  0.87253000  0.84978000  0.86731000  1.0
  C  C81  1  0.80918000  0.79851000  0.81184000  1.0
  C  C82  1  0.81685000  0.73833000  0.72990000  1.0
  C  C83  1  0.76380000  0.68358000  0.67585000  1.0
  C  C84  1  0.70248000  0.68874000  0.70322000  1.0
  C  C85  1  0.65292000  0.62401000  0.64404000  1.0
  C  C86  1  0.68908000  0.75305000  0.78544000  1.0
  C  C87  1  0.62145000  0.76649000  0.81261000  1.0
  C  C88  1  0.60831000  0.83140000  0.89044000  1.0
  C  C89  1  0.66209000  0.88612000  0.94508000  1.0
  C  C90  1  0.72823000  0.87525000  0.92103000  1.0
  C  C91  1  0.74387000  0.80912000  0.84114000  1.0
  C  C92  1  0.88416000  0.11828000  0.14796000  1.0
  C  C93  1  0.83256000  0.17396000  0.21106000  1.0
  C  C94  1  0.77421000  0.25676000  0.20458000  1.0
  C  C95  1  0.71945000  0.31164000  0.25760000  1.0
  C  C96  1  0.72229000  0.28384000  0.31730000  1.0
  C  C97  1  0.65802000  0.34350000  0.36730000  1.0
  C  C98  1  0.78440000  0.20068000  0.32944000  1.0
  C  C99  1  0.79528000  0.17335000  0.39576000  1.0
  C  C100  1  0.85840000  0.09477000  0.40847000  1.0
  C  C101  1  0.91395000  0.03978000  0.35560000  1.0
  C  C102  1  0.90563000  0.06402000  0.29078000  1.0
  C  C103  1  0.84109000  0.14444000  0.27527000  1.0
  C  C104  1  0.87497000  0.12113000  0.86400000  1.0
  C  C105  1  0.81067000  0.17624000  0.80468000  1.0
  C  C106  1  0.81492000  0.25981000  0.83292000  1.0
  C  C107  1  0.76046000  0.31361000  0.77891000  1.0
  C  C108  1  0.70181000  0.28390000  0.69586000  1.0
  C  C109  1  0.65037000  0.34303000  0.64036000  1.0
  C  C110  1  0.69221000  0.19963000  0.66536000  1.0
  C  C111  1  0.62741000  0.16988000  0.58414000  1.0
  C  C112  1  0.61678000  0.09054000  0.55902000  1.0
  C  C113  1  0.67039000  0.03711000  0.61403000  1.0
  C  C114  1  0.73412000  0.06350000  0.69308000  1.0
  C  C115  1  0.74747000  0.14476000  0.72130000  1.0
  O  O116  1  0.01493000  0.98441000  0.00243000  1.0
  O  O117  1  0.07524000  0.87059000  0.12733000  1.0
  O  O118  1  0.19353000  0.85406000  0.10242000  1.0
  O  O119  1  0.46729000  0.59442000  0.38332000  1.0
  O  O120  1  0.34118000  0.60434000  0.38925000  1.0
  O  O121  1  0.07120000  0.85626000  0.82338000  1.0
  O  O122  1  0.19174000  0.88000000  0.94492000  1.0
  O  O123  1  0.45946000  0.60604000  0.67682000  1.0
  O  O124  1  0.33537000  0.59389000  0.55600000  1.0
  O  O125  1  0.07310000  0.16080000  0.11447000  1.0
  O  O126  1  0.19324000  0.03713000  0.12917000  1.0
  O  O127  1  0.46022000  0.30824000  0.40331000  1.0
  O  O128  1  0.33738000  0.42756000  0.37968000  1.0
  O  O129  1  0.89047000  0.87534000  0.82614000  1.0
  O  O130  1  0.90536000  0.86194000  0.95048000  1.0
  O  O131  1  0.64001000  0.58990000  0.68125000  1.0
  O  O132  1  0.62940000  0.60627000  0.56049000  1.0
  O  O133  1  0.90699000  0.15953000  0.12731000  1.0
  O  O134  1  0.89949000  0.03475000  0.11802000  1.0
  O  O135  1  0.61962000  0.30735000  0.37622000  1.0
  O  O136  1  0.64526000  0.42640000  0.39565000  1.0
  O  O137  1  0.89342000  0.16210000  0.94755000  1.0
  O  O138  1  0.90779000  0.03820000  0.82670000  1.0
  O  O139  1  0.64227000  0.30691000  0.55802000  1.0
  O  O140  1  0.62010000  0.42588000  0.68040000  1.0
  O  O141  1  0.51495000  0.48464000  0.50216000  1.0
