# generated using pymatgen
data_Tl2H12C7O4
_symmetry_space_group_name_H-M   'P 1'
_cell_length_a   6.73352000
_cell_length_b   10.17920000
_cell_length_c   15.53580000
_cell_angle_alpha   89.99940000
_cell_angle_beta   77.71300000
_cell_angle_gamma   89.99980000
_symmetry_Int_Tables_number   1
_chemical_formula_structural   Tl2H12C7O4
_chemical_formula_sum   'Tl8 H48 C28 O16'
_cell_volume   1040.46079045
_cell_formula_units_Z   4
loop_
 _symmetry_equiv_pos_site_id
 _symmetry_equiv_pos_as_xyz
  1  'x, y, z'
loop_
 _atom_site_type_symbol
 _atom_site_label
 _atom_site_symmetry_multiplicity
 _atom_site_fract_x
 _atom_site_fract_y
 _atom_site_fract_z
 _atom_site_occupancy
  Tl  Tl0  1  0.60498000  0.77379000  0.11823000  1.0
  Tl  Tl1  1  0.89500000  0.27378000  0.38178000  1.0
  Tl  Tl2  1  0.39502000  0.22622000  0.88178000  1.0
  Tl  Tl3  1  0.10499000  0.72622000  0.61822000  1.0
  Tl  Tl4  1  0.11399000  0.95519000  0.10577000  1.0
  Tl  Tl5  1  0.38600000  0.45519000  0.39424000  1.0
  Tl  Tl6  1  0.88601000  0.04481000  0.89423000  1.0
  Tl  Tl7  1  0.61400000  0.54481000  0.60577000  1.0
  H  H8  1  0.77190000  0.48736000  0.25488000  1.0
  H  H9  1  0.72806000  0.98736000  0.24514000  1.0
  H  H10  1  0.22810000  0.51264000  0.74512000  1.0
  H  H11  1  0.27193000  0.01265000  0.75487000  1.0
  H  H12  1  0.02344000  0.43615000  0.20329000  1.0
  H  H13  1  0.47652000  0.93615000  0.29671000  1.0
  H  H14  1  0.97656000  0.56385000  0.79670000  1.0
  H  H15  1  0.52347000  0.06385000  0.70329000  1.0
  H  H16  1  0.92143000  0.58495000  0.17039000  1.0
  H  H17  1  0.57853000  0.08495000  0.32963000  1.0
  H  H18  1  0.07858000  0.41506000  0.82961000  1.0
  H  H19  1  0.42146000  0.91506000  0.67038000  1.0
  H  H20  1  0.85343000  0.78000000  0.28540000  1.0
  H  H21  1  0.64654000  0.28000000  0.21461000  1.0
  H  H22  1  0.14658000  0.22001000  0.71460000  1.0
  H  H23  1  0.35344000  0.72000000  0.78540000  1.0
  H  H24  1  0.70669000  0.65983000  0.35212000  1.0
  H  H25  1  0.79328000  0.15983000  0.14789000  1.0
  H  H26  1  0.29331000  0.34018000  0.64788000  1.0
  H  H27  1  0.20671000  0.84017000  0.85211000  1.0
  H  H28  1  0.72049000  0.88739000  0.52882000  1.0
  H  H29  1  0.77953000  0.38739000  0.97118000  1.0
  H  H30  1  0.27953000  0.11261000  0.47118000  1.0
  H  H31  1  0.22048000  0.61261000  0.02882000  1.0
  H  H32  1  0.56840000  0.78964000  0.47339000  1.0
  H  H33  1  0.93159000  0.28962000  0.02662000  1.0
  H  H34  1  0.43160000  0.21037000  0.52661000  1.0
  H  H35  1  0.06841000  0.71037000  0.97338000  1.0
  H  H36  1  0.68040000  0.93685000  0.42351000  1.0
  H  H37  1  0.81959000  0.43683000  0.07650000  1.0
  H  H38  1  0.31962000  0.06316000  0.57649000  1.0
  H  H39  1  0.18042000  0.56316000  0.92350000  1.0
  H  H40  1  0.21898000  0.80784000  0.37589000  1.0
  H  H41  1  0.28101000  0.30784000  0.12410000  1.0
  H  H42  1  0.78103000  0.19215000  0.62410000  1.0
  H  H43  1  0.71899000  0.69216000  0.87590000  1.0
  H  H44  1  0.09838000  0.91388000  0.46178000  1.0
  H  H45  1  0.40163000  0.41387000  0.03820000  1.0
  H  H46  1  0.90165000  0.08611000  0.53821000  1.0
  H  H47  1  0.59838000  0.58612000  0.96180000  1.0
  H  H48  1  0.06506000  0.93986000  0.35241000  1.0
  H  H49  1  0.43493000  0.43986000  0.14758000  1.0
  H  H50  1  0.93496000  0.06014000  0.64759000  1.0
  H  H51  1  0.56508000  0.56015000  0.85242000  1.0
  H  H52  1  0.97839000  0.59330000  0.44146000  1.0
  H  H53  1  0.52160000  0.09330000  0.05854000  1.0
  H  H54  1  0.02161000  0.40670000  0.55853000  1.0
  H  H55  1  0.47840000  0.90670000  0.94146000  1.0
  C  C56  1  0.21713000  0.65727000  0.24741000  1.0
  C  C57  1  0.28282000  0.15728000  0.25260000  1.0
  C  C58  1  0.78285000  0.34272000  0.75258000  1.0
  C  C59  1  0.71718000  0.84272000  0.74741000  1.0
  C  C60  1  0.01179000  0.59624000  0.29722000  1.0
  C  C61  1  0.48818000  0.09624000  0.20279000  1.0
  C  C62  1  0.98822000  0.40376000  0.70278000  1.0
  C  C63  1  0.51181000  0.90376000  0.79722000  1.0
  C  C64  1  0.92713000  0.52140000  0.22686000  1.0
  C  C65  1  0.57283000  0.02140000  0.27316000  1.0
  C  C66  1  0.07287000  0.47860000  0.77314000  1.0
  C  C67  1  0.42716000  0.97860000  0.72685000  1.0
  C  C68  1  0.85818000  0.70574000  0.33635000  1.0
  C  C69  1  0.64179000  0.20574000  0.16366000  1.0
  C  C70  1  0.14182000  0.29426000  0.66365000  1.0
  C  C71  1  0.35820000  0.79426000  0.83635000  1.0
  C  C72  1  0.89340000  0.77444000  0.42031000  1.0
  C  C73  1  0.60659000  0.27443000  0.07969000  1.0
  C  C74  1  0.10661000  0.22557000  0.57969000  1.0
  C  C75  1  0.39340000  0.72557000  0.92031000  1.0
  C  C76  1  0.70454000  0.85220000  0.46381000  1.0
  C  C77  1  0.79545000  0.35219000  0.03620000  1.0
  C  C78  1  0.29547000  0.14781000  0.53619000  1.0
  C  C79  1  0.20456000  0.64780000  0.96380000  1.0
  C  C80  1  0.08001000  0.86428000  0.40117000  1.0
  C  C81  1  0.41999000  0.36428000  0.09883000  1.0
  C  C82  1  0.92000000  0.13571000  0.59883000  1.0
  C  C83  1  0.58002000  0.63572000  0.90117000  1.0
  O  O84  1  0.20925000  0.73603000  0.18426000  1.0
  O  O85  1  0.29071000  0.23604000  0.31574000  1.0
  O  O86  1  0.79074000  0.26396000  0.81574000  1.0
  O  O87  1  0.70928000  0.76396000  0.68426000  1.0
  O  O88  1  0.38331000  0.62417000  0.26756000  1.0
  O  O89  1  0.11665000  0.12418000  0.23244000  1.0
  O  O90  1  0.61669000  0.37582000  0.73243000  1.0
  O  O91  1  0.88334000  0.87581000  0.76756000  1.0
  O  O92  1  0.03759000  0.50883000  0.36525000  1.0
  O  O93  1  0.46238000  0.00883000  0.13476000  1.0
  O  O94  1  0.96240000  0.49117000  0.63475000  1.0
  O  O95  1  0.53762000  0.99117000  0.86524000  1.0
  O  O96  1  0.92405000  0.67352000  0.48271000  1.0
  O  O97  1  0.57595000  0.17351000  0.01730000  1.0
  O  O98  1  0.07595000  0.32648000  0.51729000  1.0
  O  O99  1  0.42404000  0.82649000  0.98271000  1.0
