# generated using pymatgen
data_Zn2H15C22N3O10
_symmetry_space_group_name_H-M   'P 1'
_cell_length_a   14.88450000
_cell_length_b   15.80830000
_cell_length_c   21.96440000
_cell_angle_alpha   90.00000000
_cell_angle_beta   89.99980000
_cell_angle_gamma   90.00000000
_symmetry_Int_Tables_number   1
_chemical_formula_structural   Zn2H15C22N3O10
_chemical_formula_sum   'Zn16 H120 C176 N24 O80'
_cell_volume   5168.19347804
_cell_formula_units_Z   8
loop_
 _symmetry_equiv_pos_site_id
 _symmetry_equiv_pos_as_xyz
  1  'x, y, z'
loop_
 _atom_site_type_symbol
 _atom_site_label
 _atom_site_symmetry_multiplicity
 _atom_site_fract_x
 _atom_site_fract_y
 _atom_site_fract_z
 _atom_site_occupancy
  Zn  Zn0  1  0.58988000  0.12480000  0.85090000  1.0
  Zn  Zn1  1  0.91012000  0.37520000  0.35090000  1.0
  Zn  Zn2  1  0.08988000  0.37520000  0.14910000  1.0
  Zn  Zn3  1  0.41012000  0.12480000  0.64910000  1.0
  Zn  Zn4  1  0.41012000  0.87520000  0.14910000  1.0
  Zn  Zn5  1  0.08988000  0.62480000  0.64910000  1.0
  Zn  Zn6  1  0.91012000  0.62480000  0.85090000  1.0
  Zn  Zn7  1  0.58988000  0.87520000  0.35089000  1.0
  Zn  Zn8  1  0.60158000  0.21112000  0.72200000  1.0
  Zn  Zn9  1  0.89842000  0.28888000  0.22200000  1.0
  Zn  Zn10  1  0.10158000  0.28888000  0.27800000  1.0
  Zn  Zn11  1  0.39842000  0.21112000  0.77800000  1.0
  Zn  Zn12  1  0.39842000  0.78888000  0.27800000  1.0
  Zn  Zn13  1  0.10158000  0.71112000  0.77800000  1.0
  Zn  Zn14  1  0.89842000  0.71112000  0.72200000  1.0
  Zn  Zn15  1  0.60158000  0.78888000  0.22200000  1.0
  H  H16  1  0.65476000  0.10165000  0.59633000  1.0
  H  H17  1  0.84524000  0.39835000  0.09633000  1.0
  H  H18  1  0.15476000  0.39835000  0.40367000  1.0
  H  H19  1  0.34524000  0.10165000  0.90367000  1.0
  H  H20  1  0.34524000  0.89835000  0.40367000  1.0
  H  H21  1  0.15476000  0.60165000  0.90367000  1.0
  H  H22  1  0.84524000  0.60165000  0.59633000  1.0
  H  H23  1  0.65476000  0.89835000  0.09633000  1.0
  H  H24  1  0.68289000  0.58758000  0.64258000  1.0
  H  H25  1  0.81711000  0.91243000  0.14258000  1.0
  H  H26  1  0.18289000  0.91243000  0.35742000  1.0
  H  H27  1  0.31711000  0.58758000  0.85742000  1.0
  H  H28  1  0.31710000  0.41242000  0.35742000  1.0
  H  H29  1  0.18289000  0.08758000  0.85742000  1.0
  H  H30  1  0.81710000  0.08758000  0.64258000  1.0
  H  H31  1  0.68290000  0.41242000  0.14258000  1.0
  H  H32  1  0.59328000  0.43264000  0.79329000  1.0
  H  H33  1  0.90672000  0.06737000  0.29328000  1.0
  H  H34  1  0.09328000  0.06737000  0.20672000  1.0
  H  H35  1  0.40672000  0.43264000  0.70672000  1.0
  H  H36  1  0.40672000  0.56737000  0.20672000  1.0
  H  H37  1  0.09328000  0.93264000  0.70672000  1.0
  H  H38  1  0.90672000  0.93264000  0.79328000  1.0
  H  H39  1  0.59328000  0.56736000  0.29328000  1.0
  H  H40  1  0.61609000  0.65394000  0.84930000  1.0
  H  H41  1  0.88391000  0.84606000  0.34929000  1.0
  H  H42  1  0.11609000  0.84605000  0.15071000  1.0
  H  H43  1  0.38391000  0.65395000  0.65071000  1.0
  H  H44  1  0.38391000  0.34606000  0.15071000  1.0
  H  H45  1  0.11609000  0.15395000  0.65071000  1.0
  H  H46  1  0.88391000  0.15394000  0.84929000  1.0
  H  H47  1  0.61609000  0.34606000  0.34929000  1.0
  H  H48  1  0.62811000  0.76487000  0.85227000  1.0
  H  H49  1  0.87189000  0.73513000  0.35227000  1.0
  H  H50  1  0.12812000  0.73513000  0.14773000  1.0
  H  H51  1  0.37189000  0.76486000  0.64773000  1.0
  H  H52  1  0.37189000  0.23514000  0.14773000  1.0
  H  H53  1  0.12811000  0.26486000  0.64773000  1.0
  H  H54  1  0.87189000  0.26486000  0.85227000  1.0
  H  H55  1  0.62811000  0.23514000  0.35227000  1.0
  H  H56  1  0.60431000  0.93205000  0.53882000  1.0
  H  H57  1  0.89569000  0.56795000  0.03882000  1.0
  H  H58  1  0.10431000  0.56795000  0.46118000  1.0
  H  H59  1  0.39569000  0.93205000  0.96118000  1.0
  H  H60  1  0.39569000  0.06795000  0.46118000  1.0
  H  H61  1  0.10431000  0.43205000  0.96118000  1.0
  H  H62  1  0.89569000  0.43205000  0.53882000  1.0
  H  H63  1  0.60431000  0.06795000  0.03882000  1.0
  H  H64  1  0.48557000  0.93005000  0.54005000  1.0
  H  H65  1  0.01443000  0.56995000  0.04006000  1.0
  H  H66  1  0.98557000  0.56994000  0.45995000  1.0
  H  H67  1  0.51443000  0.93006000  0.95994000  1.0
  H  H68  1  0.51443000  0.06995000  0.45994000  1.0
  H  H69  1  0.98557000  0.43006000  0.95994000  1.0
  H  H70  1  0.01443000  0.43006000  0.54006000  1.0
  H  H71  1  0.48557000  0.06994000  0.04006000  1.0
  H  H72  1  0.62949000  0.87492000  0.80350000  1.0
  H  H73  1  0.87051000  0.62508000  0.30350000  1.0
  H  H74  1  0.12949000  0.62508000  0.19650000  1.0
  H  H75  1  0.37051000  0.87493000  0.69650000  1.0
  H  H76  1  0.37051000  0.12508000  0.19650000  1.0
  H  H77  1  0.12949000  0.37492000  0.69650000  1.0
  H  H78  1  0.87051000  0.37492000  0.80350000  1.0
  H  H79  1  0.62949000  0.12507000  0.30350000  1.0
  H  H80  1  0.70961000  0.14302000  0.49352000  1.0
  H  H81  1  0.79039000  0.35698000  0.99352000  1.0
  H  H82  1  0.20960000  0.35698000  0.50648000  1.0
  H  H83  1  0.29040000  0.14303000  0.00648000  1.0
  H  H84  1  0.29039000  0.85698000  0.50648000  1.0
  H  H85  1  0.20961000  0.64302000  0.00648000  1.0
  H  H86  1  0.79039000  0.64302000  0.49352000  1.0
  H  H87  1  0.70961000  0.85698000  0.99352000  1.0
  H  H88  1  0.56945000  0.70674000  0.65331000  1.0
  H  H89  1  0.93055000  0.79326000  0.15331000  1.0
  H  H90  1  0.06946000  0.79326000  0.34669000  1.0
  H  H91  1  0.43054000  0.70674000  0.84669000  1.0
  H  H92  1  0.43054000  0.29326000  0.34669000  1.0
  H  H93  1  0.06945000  0.20674000  0.84669000  1.0
  H  H94  1  0.93054000  0.20674000  0.65331000  1.0
  H  H95  1  0.56945000  0.29326000  0.15331000  1.0
  H  H96  1  0.56940000  0.97806000  0.62809000  1.0
  H  H97  1  0.93060000  0.52194000  0.12809000  1.0
  H  H98  1  0.06940000  0.52194000  0.37191000  1.0
  H  H99  1  0.43060000  0.97806000  0.87191000  1.0
  H  H100  1  0.43060000  0.02194000  0.37191000  1.0
  H  H101  1  0.06940000  0.47806000  0.87191000  1.0
  H  H102  1  0.93060000  0.47806000  0.62809000  1.0
  H  H103  1  0.56940000  0.02194000  0.12809000  1.0
  H  H104  1  0.62862000  0.57466000  0.74894000  1.0
  H  H105  1  0.87138000  0.92534000  0.24893000  1.0
  H  H106  1  0.12862000  0.92534000  0.25107000  1.0
  H  H107  1  0.37138000  0.57466000  0.75107000  1.0
  H  H108  1  0.37138000  0.42534000  0.25106000  1.0
  H  H109  1  0.12862000  0.07466000  0.75107000  1.0
  H  H110  1  0.87138000  0.07466000  0.74893000  1.0
  H  H111  1  0.62862000  0.42534000  0.24893000  1.0
  H  H112  1  0.73491000  0.29582000  0.46734000  1.0
  H  H113  1  0.76509000  0.20418000  0.96734000  1.0
  H  H114  1  0.23490000  0.20418000  0.53266000  1.0
  H  H115  1  0.26510000  0.29582000  0.03266000  1.0
  H  H116  1  0.26509000  0.70418000  0.53266000  1.0
  H  H117  1  0.23491000  0.79582000  0.03266000  1.0
  H  H118  1  0.76509000  0.79582000  0.46734000  1.0
  H  H119  1  0.73491000  0.70418000  0.96734000  1.0
  H  H120  1  0.54476000  0.26810000  0.83321000  1.0
  H  H121  1  0.95524000  0.23190000  0.33320000  1.0
  H  H122  1  0.04476000  0.23190000  0.16679000  1.0
  H  H123  1  0.45524000  0.26810000  0.66680000  1.0
  H  H124  1  0.45524000  0.73190000  0.16679000  1.0
  H  H125  1  0.04476000  0.76810000  0.66679000  1.0
  H  H126  1  0.95524000  0.76810000  0.83321000  1.0
  H  H127  1  0.54476000  0.73190000  0.33321000  1.0
  H  H128  1  0.76967000  0.49732000  0.44542000  1.0
  H  H129  1  0.73033000  0.00269000  0.94542000  1.0
  H  H130  1  0.26967000  0.00268000  0.55458000  1.0
  H  H131  1  0.23033000  0.49731000  0.05458000  1.0
  H  H132  1  0.23033000  0.50269000  0.55458000  1.0
  H  H133  1  0.26967000  0.99731000  0.05458000  1.0
  H  H134  1  0.73033000  0.99732000  0.44542000  1.0
  H  H135  1  0.76967000  0.50269000  0.94542000  1.0
  C  C136  1  0.60771000  0.01954000  0.74357000  1.0
  C  C137  1  0.89229000  0.48046000  0.24357000  1.0
  C  C138  1  0.10771000  0.48046000  0.25643000  1.0
  C  C139  1  0.39229000  0.01954000  0.75643000  1.0
  C  C140  1  0.39229000  0.98046000  0.25643000  1.0
  C  C141  1  0.10771000  0.51954000  0.75643000  1.0
  C  C142  1  0.89229000  0.51954000  0.74357000  1.0
  C  C143  1  0.60771000  0.98046000  0.24357000  1.0
  C  C144  1  0.74347000  0.69760000  0.81564000  1.0
  C  C145  1  0.75653000  0.80240000  0.31564000  1.0
  C  C146  1  0.24347000  0.80240000  0.18436000  1.0
  C  C147  1  0.25653000  0.69760000  0.68436000  1.0
  C  C148  1  0.25653000  0.30240000  0.18436000  1.0
  C  C149  1  0.24347000  0.19760000  0.68436000  1.0
  C  C150  1  0.75653000  0.19760000  0.81564000  1.0
  C  C151  1  0.74347000  0.30240000  0.31564000  1.0
  C  C152  1  0.60028000  0.78179000  0.73263000  1.0
  C  C153  1  0.89972000  0.71821000  0.23263000  1.0
  C  C154  1  0.10028000  0.71821000  0.26737000  1.0
  C  C155  1  0.39972000  0.78179000  0.76737000  1.0
  C  C156  1  0.39972000  0.21821000  0.26737000  1.0
  C  C157  1  0.10028000  0.28179000  0.76737000  1.0
  C  C158  1  0.89972000  0.28179000  0.73263000  1.0
  C  C159  1  0.60028000  0.21821000  0.23263000  1.0
  C  C160  1  0.60444000  0.93238000  0.71713000  1.0
  C  C161  1  0.89556000  0.56762000  0.21713000  1.0
  C  C162  1  0.10444000  0.56762000  0.28287000  1.0
  C  C163  1  0.39556000  0.93238000  0.78287000  1.0
  C  C164  1  0.39556000  0.06762000  0.28287000  1.0
  C  C165  1  0.10444000  0.43238000  0.78287000  1.0
  C  C166  1  0.89556000  0.43238000  0.71713000  1.0
  C  C167  1  0.60444000  0.06762000  0.21713000  1.0
  C  C168  1  0.54833000  0.85882000  0.46736000  1.0
  C  C169  1  0.95167000  0.64117000  0.96736000  1.0
  C  C170  1  0.04833000  0.64117000  0.53264000  1.0
  C  C171  1  0.45167000  0.85883000  0.03264000  1.0
  C  C172  1  0.45167000  0.14117000  0.53264000  1.0
  C  C173  1  0.04833000  0.35883000  0.03264000  1.0
  C  C174  1  0.95167000  0.35883000  0.46736000  1.0
  C  C175  1  0.54833000  0.14117000  0.96736000  1.0
  C  C176  1  0.69544000  0.33615000  0.55863000  1.0
  C  C177  1  0.80455000  0.16385000  0.05863000  1.0
  C  C178  1  0.19544000  0.16385000  0.44137000  1.0
  C  C179  1  0.30455000  0.33615000  0.94137000  1.0
  C  C180  1  0.30455000  0.66385000  0.44137000  1.0
  C  C181  1  0.19545000  0.83615000  0.94137000  1.0
  C  C182  1  0.80455000  0.83615000  0.55863000  1.0
  C  C183  1  0.69545000  0.66385000  0.05863000  1.0
  C  C184  1  0.70230000  0.42931000  0.56474000  1.0
  C  C185  1  0.79770000  0.07069000  0.06473000  1.0
  C  C186  1  0.20230000  0.07069000  0.43527000  1.0
  C  C187  1  0.29770000  0.42931000  0.93527000  1.0
  C  C188  1  0.29770000  0.57069000  0.43527000  1.0
  C  C189  1  0.20230000  0.92931000  0.93527000  1.0
  C  C190  1  0.79770000  0.92931000  0.56473000  1.0
  C  C191  1  0.70230000  0.57069000  0.06473000  1.0
  C  C192  1  0.66739000  0.16767000  0.58497000  1.0
  C  C193  1  0.83261000  0.33233000  0.08497000  1.0
  C  C194  1  0.16739000  0.33233000  0.41503000  1.0
  C  C195  1  0.33261000  0.16767000  0.91503000  1.0
  C  C196  1  0.33261000  0.83233000  0.41503000  1.0
  C  C197  1  0.16739000  0.66767000  0.91503000  1.0
  C  C198  1  0.83261000  0.66767000  0.58497000  1.0
  C  C199  1  0.66739000  0.83233000  0.08497000  1.0
  C  C200  1  0.66740000  0.52551000  0.66144000  1.0
  C  C201  1  0.83260000  0.97450000  0.16144000  1.0
  C  C202  1  0.16740000  0.97449000  0.33856000  1.0
  C  C203  1  0.33260000  0.52551000  0.83856000  1.0
  C  C204  1  0.33260000  0.47449000  0.33856000  1.0
  C  C205  1  0.16740000  0.02551000  0.83856000  1.0
  C  C206  1  0.83260000  0.02551000  0.66144000  1.0
  C  C207  1  0.66740000  0.47449000  0.16144000  1.0
  C  C208  1  0.67588000  0.45115000  0.62792000  1.0
  C  C209  1  0.82412000  0.04886000  0.12792000  1.0
  C  C210  1  0.17588000  0.04886000  0.37208000  1.0
  C  C211  1  0.32412000  0.45115000  0.87208000  1.0
  C  C212  1  0.32412000  0.54886000  0.37208000  1.0
  C  C213  1  0.17588000  0.95114000  0.87208000  1.0
  C  C214  1  0.82412000  0.95115000  0.62792000  1.0
  C  C215  1  0.67589000  0.54886000  0.12792000  1.0
  C  C216  1  0.65369000  0.37476000  0.65759000  1.0
  C  C217  1  0.84631000  0.12524000  0.15759000  1.0
  C  C218  1  0.15369000  0.12524000  0.34241000  1.0
  C  C219  1  0.34631000  0.37476000  0.84241000  1.0
  C  C220  1  0.34631000  0.62524000  0.34241000  1.0
  C  C221  1  0.15369000  0.87476000  0.84241000  1.0
  C  C222  1  0.84631000  0.87476000  0.65759000  1.0
  C  C223  1  0.65369000  0.62524000  0.15759000  1.0
  C  C224  1  0.61694000  0.43841000  0.74642000  1.0
  C  C225  1  0.88306000  0.06159000  0.24642000  1.0
  C  C226  1  0.11694000  0.06159000  0.25358000  1.0
  C  C227  1  0.38306000  0.43841000  0.75358000  1.0
  C  C228  1  0.38306000  0.56159000  0.25358000  1.0
  C  C229  1  0.11694000  0.93841000  0.75358000  1.0
  C  C230  1  0.88306000  0.93841000  0.74642000  1.0
  C  C231  1  0.61694000  0.56159000  0.24642000  1.0
  C  C232  1  0.64229000  0.70873000  0.82416000  1.0
  C  C233  1  0.85772000  0.79127000  0.32416000  1.0
  C  C234  1  0.14229000  0.79127000  0.17585000  1.0
  C  C235  1  0.35771000  0.70873000  0.67585000  1.0
  C  C236  1  0.35771000  0.29128000  0.17585000  1.0
  C  C237  1  0.14228000  0.20873000  0.67585000  1.0
  C  C238  1  0.85771000  0.20872000  0.82415000  1.0
  C  C239  1  0.64228000  0.29128000  0.32415000  1.0
  C  C240  1  0.54565000  0.89050000  0.53253000  1.0
  C  C241  1  0.95435000  0.60950000  0.03253000  1.0
  C  C242  1  0.04565000  0.60950000  0.46747000  1.0
  C  C243  1  0.45435000  0.89050000  0.96747000  1.0
  C  C244  1  0.45435000  0.10950000  0.46747000  1.0
  C  C245  1  0.04565000  0.39050000  0.96747000  1.0
  C  C246  1  0.95435000  0.39050000  0.53253000  1.0
  C  C247  1  0.54565000  0.10950000  0.03253000  1.0
  C  C248  1  0.57097000  0.84011000  0.63281000  1.0
  C  C249  1  0.92903000  0.65988000  0.13281000  1.0
  C  C250  1  0.07097000  0.65988000  0.36719000  1.0
  C  C251  1  0.42903000  0.84012000  0.86719000  1.0
  C  C252  1  0.42903000  0.15988000  0.36719000  1.0
  C  C253  1  0.07097000  0.34012000  0.86719000  1.0
  C  C254  1  0.92903000  0.34012000  0.63281000  1.0
  C  C255  1  0.57097000  0.15988000  0.13281000  1.0
  C  C256  1  0.61511000  0.86289000  0.75581000  1.0
  C  C257  1  0.88489000  0.63711000  0.25581000  1.0
  C  C258  1  0.11512000  0.63711000  0.24419000  1.0
  C  C259  1  0.38489000  0.86289000  0.74419000  1.0
  C  C260  1  0.38489000  0.13711000  0.24419000  1.0
  C  C261  1  0.11511000  0.36289000  0.74419000  1.0
  C  C262  1  0.88489000  0.36289000  0.75581000  1.0
  C  C263  1  0.61511000  0.13711000  0.25581000  1.0
  C  C264  1  0.69706000  0.19206000  0.52721000  1.0
  C  C265  1  0.80293000  0.30794000  0.02721000  1.0
  C  C266  1  0.19706000  0.30794000  0.47279000  1.0
  C  C267  1  0.30294000  0.19206000  0.97279000  1.0
  C  C268  1  0.30294000  0.80794000  0.47279000  1.0
  C  C269  1  0.19706000  0.69206000  0.97279000  1.0
  C  C270  1  0.80293000  0.69206000  0.52721000  1.0
  C  C271  1  0.69707000  0.80794000  0.02721000  1.0
  C  C272  1  0.58039000  0.77013000  0.67121000  1.0
  C  C273  1  0.91961000  0.72987000  0.17121000  1.0
  C  C274  1  0.08039000  0.72987000  0.32879000  1.0
  C  C275  1  0.41961000  0.77013000  0.82879000  1.0
  C  C276  1  0.41961000  0.22987000  0.32879000  1.0
  C  C277  1  0.08039000  0.27013000  0.82879000  1.0
  C  C278  1  0.91961000  0.27013000  0.67121000  1.0
  C  C279  1  0.58039000  0.22987000  0.17121000  1.0
  C  C280  1  0.66656000  0.30502000  0.61552000  1.0
  C  C281  1  0.83344000  0.19498000  0.11552000  1.0
  C  C282  1  0.16656000  0.19498000  0.38448000  1.0
  C  C283  1  0.33344000  0.30502000  0.88448000  1.0
  C  C284  1  0.33343000  0.69498000  0.38448000  1.0
  C  C285  1  0.16657000  0.80502000  0.88448000  1.0
  C  C286  1  0.83344000  0.80502000  0.61552000  1.0
  C  C287  1  0.66657000  0.69498000  0.11552000  1.0
  C  C288  1  0.58208000  0.92219000  0.65559000  1.0
  C  C289  1  0.91792000  0.57781000  0.15559000  1.0
  C  C290  1  0.08208000  0.57781000  0.34441000  1.0
  C  C291  1  0.41792000  0.92219000  0.84441000  1.0
  C  C292  1  0.41792000  0.07781000  0.34441000  1.0
  C  C293  1  0.08208000  0.42219000  0.84441000  1.0
  C  C294  1  0.91792000  0.42219000  0.65559000  1.0
  C  C295  1  0.58208000  0.07781000  0.15559000  1.0
  C  C296  1  0.63750000  0.51776000  0.72176000  1.0
  C  C297  1  0.86250000  0.98224000  0.22176000  1.0
  C  C298  1  0.13750000  0.98224000  0.27824000  1.0
  C  C299  1  0.36250000  0.51776000  0.77824000  1.0
  C  C300  1  0.36250000  0.48224000  0.27824000  1.0
  C  C301  1  0.13750000  0.01776000  0.77824000  1.0
  C  C302  1  0.86250000  0.01776000  0.72176000  1.0
  C  C303  1  0.63750000  0.48224000  0.22176000  1.0
  C  C304  1  0.71172000  0.27731000  0.51249000  1.0
  C  C305  1  0.78828000  0.22269000  0.01249000  1.0
  C  C306  1  0.21172000  0.22269000  0.48751000  1.0
  C  C307  1  0.28828000  0.27731000  0.98751000  1.0
  C  C308  1  0.28828000  0.72269000  0.48751000  1.0
  C  C309  1  0.21173000  0.77731000  0.98751000  1.0
  C  C310  1  0.78828000  0.77731000  0.51249000  1.0
  C  C311  1  0.71173000  0.72269000  0.01249000  1.0
  N  N312  1  0.65246000  0.22437000  0.62979000  1.0
  N  N313  1  0.84754000  0.27563000  0.12979000  1.0
  N  N314  1  0.15246000  0.27563000  0.37021000  1.0
  N  N315  1  0.34754000  0.22437000  0.87021000  1.0
  N  N316  1  0.34754000  0.77563000  0.37021000  1.0
  N  N317  1  0.15246000  0.72437000  0.87021000  1.0
  N  N318  1  0.84754000  0.72437000  0.62979000  1.0
  N  N319  1  0.65247000  0.77563000  0.12979000  1.0
  N  N320  1  0.72625000  0.48660000  0.52573000  1.0
  N  N321  1  0.77375000  0.01340000  0.02573000  1.0
  N  N322  1  0.22625000  0.01340000  0.47427000  1.0
  N  N323  1  0.27375000  0.48660000  0.97427000  1.0
  N  N324  1  0.27375000  0.51340000  0.47427000  1.0
  N  N325  1  0.22625000  0.98660000  0.97427000  1.0
  N  N326  1  0.77375000  0.98660000  0.52573000  1.0
  N  N327  1  0.72625000  0.51340000  0.02573000  1.0
  N  N328  1  0.62430000  0.36589000  0.71450000  1.0
  N  N329  1  0.87570000  0.13411000  0.21450000  1.0
  N  N330  1  0.12430000  0.13411000  0.28550000  1.0
  N  N331  1  0.37570000  0.36589000  0.78550000  1.0
  N  N332  1  0.37570000  0.63411000  0.28550000  1.0
  N  N333  1  0.12430000  0.86589000  0.78550000  1.0
  N  N334  1  0.87570000  0.86589000  0.71450000  1.0
  N  N335  1  0.62430000  0.63411000  0.21450000  1.0
  O  O336  1  0.62277000  0.02550000  0.80087000  1.0
  O  O337  1  0.87723000  0.47450000  0.30087000  1.0
  O  O338  1  0.12277000  0.47450000  0.19913000  1.0
  O  O339  1  0.37723000  0.02549000  0.69913000  1.0
  O  O340  1  0.37723000  0.97451000  0.19913000  1.0
  O  O341  1  0.12277000  0.52549000  0.69913000  1.0
  O  O342  1  0.87723000  0.52549000  0.80087000  1.0
  O  O343  1  0.62277000  0.97451000  0.30087000  1.0
  O  O344  1  0.59664000  0.70986000  0.76758000  1.0
  O  O345  1  0.90337000  0.79014000  0.26758000  1.0
  O  O346  1  0.09663000  0.79014000  0.23242000  1.0
  O  O347  1  0.40337000  0.70987000  0.73242000  1.0
  O  O348  1  0.40337000  0.29013000  0.23242000  1.0
  O  O349  1  0.09663000  0.20987000  0.73242000  1.0
  O  O350  1  0.90337000  0.20987000  0.76758000  1.0
  O  O351  1  0.59663000  0.29013000  0.26758000  1.0
  O  O352  1  0.59223000  0.08157000  0.70815000  1.0
  O  O353  1  0.90777000  0.41843000  0.20815000  1.0
  O  O354  1  0.09222000  0.41843000  0.29185000  1.0
  O  O355  1  0.40778000  0.08157000  0.79185000  1.0
  O  O356  1  0.40777000  0.91844000  0.29185000  1.0
  O  O357  1  0.09223000  0.58156000  0.79185000  1.0
  O  O358  1  0.90777000  0.58156000  0.70815000  1.0
  O  O359  1  0.59223000  0.91843000  0.20815000  1.0
  O  O360  1  0.78682000  0.67843000  0.86370000  1.0
  O  O361  1  0.71318000  0.82157000  0.36370000  1.0
  O  O362  1  0.28682000  0.82157000  0.13630000  1.0
  O  O363  1  0.21318000  0.67843000  0.63630000  1.0
  O  O364  1  0.21318000  0.32157000  0.13630000  1.0
  O  O365  1  0.28682000  0.17843000  0.63630000  1.0
  O  O366  1  0.71318000  0.17843000  0.86370000  1.0
  O  O367  1  0.78682000  0.32157000  0.36370000  1.0
  O  O368  1  0.55198000  0.92206000  0.42875000  1.0
  O  O369  1  0.94802000  0.57794000  0.92875000  1.0
  O  O370  1  0.05198000  0.57794000  0.57125000  1.0
  O  O371  1  0.44802000  0.92206000  0.07125000  1.0
  O  O372  1  0.44802000  0.07794000  0.57125000  1.0
  O  O373  1  0.05198000  0.42206000  0.07125000  1.0
  O  O374  1  0.94802000  0.42206000  0.42875000  1.0
  O  O375  1  0.55198000  0.07794000  0.92875000  1.0
  O  O376  1  0.77367000  0.70660000  0.76228000  1.0
  O  O377  1  0.72633000  0.79340000  0.26228000  1.0
  O  O378  1  0.27368000  0.79340000  0.23772000  1.0
  O  O379  1  0.22632000  0.70660000  0.73772000  1.0
  O  O380  1  0.22632000  0.29340000  0.23772000  1.0
  O  O381  1  0.27368000  0.20660000  0.73772000  1.0
  O  O382  1  0.72632000  0.20660000  0.76228000  1.0
  O  O383  1  0.77368000  0.29340000  0.26228000  1.0
  O  O384  1  0.53237000  0.21991000  0.80693000  1.0
  O  O385  1  0.96763000  0.28009000  0.30693000  1.0
  O  O386  1  0.03237000  0.28009000  0.19307000  1.0
  O  O387  1  0.46763000  0.21991000  0.69308000  1.0
  O  O388  1  0.46763000  0.78008000  0.19307000  1.0
  O  O389  1  0.03237000  0.71991000  0.69307000  1.0
  O  O390  1  0.96763000  0.71991000  0.80693000  1.0
  O  O391  1  0.53237000  0.78008000  0.30693000  1.0
  O  O392  1  0.54900000  0.82129000  0.57393000  1.0
  O  O393  1  0.95100000  0.67871000  0.07393000  1.0
  O  O394  1  0.04900000  0.67870000  0.42607000  1.0
  O  O395  1  0.45100000  0.82129000  0.92607000  1.0
  O  O396  1  0.45100000  0.17870000  0.42607000  1.0
  O  O397  1  0.04900000  0.32129000  0.92607000  1.0
  O  O398  1  0.95100000  0.32129000  0.57393000  1.0
  O  O399  1  0.54900000  0.17871000  0.07393000  1.0
  O  O400  1  0.54927000  0.78288000  0.45344000  1.0
  O  O401  1  0.95074000  0.71712000  0.95344000  1.0
  O  O402  1  0.04926000  0.71712000  0.54656000  1.0
  O  O403  1  0.45074000  0.78288000  0.04656000  1.0
  O  O404  1  0.45074000  0.21712000  0.54656000  1.0
  O  O405  1  0.04927000  0.28288000  0.04656000  1.0
  O  O406  1  0.95073000  0.28288000  0.45344000  1.0
  O  O407  1  0.54926000  0.21711000  0.95344000  1.0
  O  O408  1  0.74450000  0.45088000  0.46927000  1.0
  O  O409  1  0.75550000  0.04912000  0.96927000  1.0
  O  O410  1  0.24450000  0.04912000  0.53073000  1.0
  O  O411  1  0.25550000  0.45088000  0.03073000  1.0
  O  O412  1  0.25550000  0.54912000  0.53073000  1.0
  O  O413  1  0.24450000  0.95088000  0.03073000  1.0
  O  O414  1  0.75550000  0.95088000  0.46927000  1.0
  O  O415  1  0.74450000  0.54912000  0.96927000  1.0
