# generated using pymatgen
data_NiH23C19S(NO)6
_symmetry_space_group_name_H-M   'P 1'
_cell_length_a   8.59213000
_cell_length_b   11.61090000
_cell_length_c   12.87700000
_cell_angle_alpha   85.79910000
_cell_angle_beta   79.00000000
_cell_angle_gamma   73.73720000
_symmetry_Int_Tables_number   1
_chemical_formula_structural   NiH23C19S(NO)6
_chemical_formula_sum   'Ni2 H46 C38 S2 N12 O12'
_cell_volume   1210.31222556
_cell_formula_units_Z   2
loop_
 _symmetry_equiv_pos_site_id
 _symmetry_equiv_pos_as_xyz
  1  'x, y, z'
loop_
 _atom_site_type_symbol
 _atom_site_label
 _atom_site_symmetry_multiplicity
 _atom_site_fract_x
 _atom_site_fract_y
 _atom_site_fract_z
 _atom_site_occupancy
  Ni  Ni0  1  0.04828000  0.26304000  0.69863000  1.0
  Ni  Ni1  1  0.95171000  0.73695000  0.30137000  1.0
  H  H2  1  0.85173000  0.27599000  0.55655000  1.0
  H  H3  1  0.14827000  0.72401000  0.44345000  1.0
  H  H4  1  0.72641000  0.26465000  0.66348000  1.0
  H  H5  1  0.27359000  0.73535000  0.33651000  1.0
  H  H6  1  0.20838000  0.41405000  0.62120000  1.0
  H  H7  1  0.79161000  0.58595000  0.37880000  1.0
  H  H8  1  0.37147000  0.96293000  0.21672000  1.0
  H  H9  1  0.62855000  0.03707000  0.78328000  1.0
  H  H10  1  0.32814000  0.24800000  0.97919000  1.0
  H  H11  1  0.67186000  0.75200000  0.02081000  1.0
  H  H12  1  0.52652000  0.27621000  0.25606000  1.0
  H  H13  1  0.47348000  0.72379000  0.74394000  1.0
  H  H14  1  0.55523000  0.96358000  0.34204000  1.0
  H  H15  1  0.44477000  0.03642000  0.65797000  1.0
  H  H16  1  0.58771000  0.10065000  0.37464000  1.0
  H  H17  1  0.41229000  0.89936000  0.62538000  1.0
  H  H18  1  0.21465000  0.08558000  0.96375000  1.0
  H  H19  1  0.78536000  0.91442000  0.03626000  1.0
  H  H20  1  0.35472000  0.95077000  0.99610000  1.0
  H  H21  1  0.64529000  0.04923000  0.00390000  1.0
  H  H22  1  0.53843000  0.42082000  0.11100000  1.0
  H  H23  1  0.46157000  0.57918000  0.88901000  1.0
  H  H24  1  0.48792000  0.39357000  0.98794000  1.0
  H  H25  1  0.51208000  0.60643000  0.01206000  1.0
  H  H26  1  0.27335000  0.92540000  0.41380000  1.0
  H  H27  1  0.72664000  0.07460000  0.58620000  1.0
  H  H28  1  0.03394000  0.02484000  0.58928000  1.0
  H  H29  1  0.96606000  0.97515000  0.41072000  1.0
  H  H30  1  0.36910000  0.23544000  0.51159000  1.0
  H  H31  1  0.63090000  0.76456000  0.48843000  1.0
  H  H32  1  0.92545000  0.14939000  0.09231000  1.0
  H  H33  1  0.07456000  0.85061000  0.90769000  1.0
  H  H34  1  0.76042000  0.00659000  0.22856000  1.0
  H  H35  1  0.23957000  0.99341000  0.77144000  1.0
  H  H36  1  0.25714000  0.81213000  0.14215000  1.0
  H  H37  1  0.74286000  0.18786000  0.85785000  1.0
  H  H38  1  0.20126000  0.49454000  0.95125000  1.0
  H  H39  1  0.79875000  0.50546000  0.04874000  1.0
  H  H40  1  0.93358000  0.66498000  0.06584000  1.0
  H  H41  1  0.06643000  0.33502000  0.93415000  1.0
  H  H42  1  0.29698000  0.53474000  0.25539000  1.0
  H  H43  1  0.70302000  0.46526000  0.74460000  1.0
  H  H44  1  0.06818000  0.37067000  0.46087000  1.0
  H  H45  1  0.93181000  0.62933000  0.53913000  1.0
  H  H46  1  0.18633000  0.47466000  0.45982000  1.0
  H  H47  1  0.81367000  0.52534000  0.54017000  1.0
  C  C48  1  0.45046000  0.11496000  0.24762000  1.0
  C  C49  1  0.54955000  0.88503000  0.75239000  1.0
  C  C50  1  0.38245000  0.05193000  0.18850000  1.0
  C  C51  1  0.61755000  0.94807000  0.81150000  1.0
  C  C52  1  0.33462000  0.10029000  0.09317000  1.0
  C  C53  1  0.66539000  0.89971000  0.90683000  1.0
  C  C54  1  0.35888000  0.21094000  0.05562000  1.0
  C  C55  1  0.64113000  0.78906000  0.94438000  1.0
  C  C56  1  0.42793000  0.27445000  0.11422000  1.0
  C  C57  1  0.57207000  0.72555000  0.88578000  1.0
  C  C58  1  0.47282000  0.22647000  0.21036000  1.0
  C  C59  1  0.52719000  0.77353000  0.78964000  1.0
  C  C60  1  0.49894000  0.06059000  0.35067000  1.0
  C  C61  1  0.50106000  0.93942000  0.64933000  1.0
  C  C62  1  0.26158000  0.03091000  0.03001000  1.0
  C  C63  1  0.73842000  0.96909000  0.97000000  1.0
  C  C64  1  0.44814000  0.39543000  0.07405000  1.0
  C  C65  1  0.55187000  0.60457000  0.92595000  1.0
  C  C66  1  0.25181000  0.00496000  0.45972000  1.0
  C  C67  1  0.74818000  0.99504000  0.54027000  1.0
  C  C68  1  0.13635000  0.05526000  0.54544000  1.0
  C  C69  1  0.86365000  0.94474000  0.45456000  1.0
  C  C70  1  0.30630000  0.16686000  0.50837000  1.0
  C  C71  1  0.69369000  0.83314000  0.49163000  1.0
  C  C72  1  0.96767000  0.05933000  0.12429000  1.0
  C  C73  1  0.03233000  0.94067000  0.87571000  1.0
  C  C74  1  0.88851000  0.98845000  0.19233000  1.0
  C  C75  1  0.11149000  0.01155000  0.80767000  1.0
  C  C76  1  0.14208000  0.88231000  0.14691000  1.0
  C  C77  1  0.85791000  0.11769000  0.85309000  1.0
  C  C78  1  0.17821000  0.52961000  0.03033000  1.0
  C  C79  1  0.82179000  0.47039000  0.96967000  1.0
  C  C80  1  0.04937000  0.61312000  0.08715000  1.0
  C  C81  1  0.95064000  0.38688000  0.91285000  1.0
  C  C82  1  0.23165000  0.54732000  0.18951000  1.0
  C  C83  1  0.76835000  0.45268000  0.81048000  1.0
  C  C84  1  0.07690000  0.44822000  0.50199000  1.0
  C  C85  1  0.92310000  0.55177000  0.49800000  1.0
  S  S86  1  0.40739000  0.30435000  0.73588000  1.0
  S  S87  1  0.59261000  0.69565000  0.26413000  1.0
  N  N88  1  0.17185000  0.15571000  0.57493000  1.0
  N  N89  1  0.82815000  0.84429000  0.42508000  1.0
  N  N90  1  0.35819000  0.07684000  0.43773000  1.0
  N  N91  1  0.64180000  0.92316000  0.56227000  1.0
  N  N92  1  0.99830000  0.87882000  0.20638000  1.0
  N  N93  1  0.00169000  0.12118000  0.79362000  1.0
  N  N94  1  0.12789000  0.99032000  0.09557000  1.0
  N  N95  1  0.87211000  0.00968000  0.90443000  1.0
  N  N96  1  0.08442000  0.62306000  0.18579000  1.0
  N  N97  1  0.91558000  0.37694000  0.81420000  1.0
  N  N98  1  0.29264000  0.48959000  0.09647000  1.0
  N  N99  1  0.70737000  0.51042000  0.90352000  1.0
  O  O100  1  0.28119000  0.23332000  0.75454000  1.0
  O  O101  1  0.71881000  0.76667000  0.24547000  1.0
  O  O102  1  0.82832000  0.29308000  0.63147000  1.0
  O  O103  1  0.17168000  0.70692000  0.36853000  1.0
  O  O104  1  0.57500000  0.21544000  0.71047000  1.0
  O  O105  1  0.42500000  0.78456000  0.28953000  1.0
  O  O106  1  0.39704000  0.37075000  0.83153000  1.0
  O  O107  1  0.60296000  0.62925000  0.16847000  1.0
  O  O108  1  0.38288000  0.38732000  0.64209000  1.0
  O  O109  1  0.61710000  0.61268000  0.35792000  1.0
  O  O110  1  0.09194000  0.41789000  0.60985000  1.0
  O  O111  1  0.90805000  0.58210000  0.39015000  1.0
