# generated using pymatgen
data_ZnH10C16N4O5
_symmetry_space_group_name_H-M   'P 1'
_cell_length_a   6.82555000
_cell_length_b   7.21319000
_cell_length_c   29.63100000
_cell_angle_alpha   90.01510000
_cell_angle_beta   90.00000000
_cell_angle_gamma   90.00000000
_symmetry_Int_Tables_number   1
_chemical_formula_structural   ZnH10C16N4O5
_chemical_formula_sum   'Zn4 H40 C64 N16 O20'
_cell_volume   1458.85227753
_cell_formula_units_Z   4
loop_
 _symmetry_equiv_pos_site_id
 _symmetry_equiv_pos_as_xyz
  1  'x, y, z'
loop_
 _atom_site_type_symbol
 _atom_site_label
 _atom_site_symmetry_multiplicity
 _atom_site_fract_x
 _atom_site_fract_y
 _atom_site_fract_z
 _atom_site_occupancy
  Zn  Zn0  1  0.04164000  0.05282000  0.76944000  1.0
  Zn  Zn1  1  0.54164000  0.44718000  0.73056000  1.0
  Zn  Zn2  1  0.95836000  0.94718000  0.23056000  1.0
  Zn  Zn3  1  0.45836000  0.55282000  0.26944000  1.0
  H  H4  1  0.70149000  0.86263000  0.77725000  1.0
  H  H5  1  0.20149000  0.63736000  0.72275000  1.0
  H  H6  1  0.29851000  0.13737000  0.22275000  1.0
  H  H7  1  0.79851000  0.36264000  0.27725000  1.0
  H  H8  1  0.86244000  0.75243000  0.74455000  1.0
  H  H9  1  0.36244000  0.74757000  0.75544000  1.0
  H  H10  1  0.13756000  0.24757000  0.25545000  1.0
  H  H11  1  0.63756000  0.25243000  0.24455000  1.0
  H  H12  1  0.23007000  0.12730000  0.89880000  1.0
  H  H13  1  0.73006000  0.37270000  0.60119000  1.0
  H  H14  1  0.76994000  0.87270000  0.10119000  1.0
  H  H15  1  0.26993000  0.62730000  0.39881000  1.0
  H  H16  1  0.76283000  0.17186000  0.97624000  1.0
  H  H17  1  0.26283000  0.32814000  0.52376000  1.0
  H  H18  1  0.23717000  0.82814000  0.02376000  1.0
  H  H19  1  0.73717000  0.67186000  0.47624000  1.0
  H  H20  1  0.94599000  0.02740000  0.91334000  1.0
  H  H21  1  0.44599000  0.47260000  0.58666000  1.0
  H  H22  1  0.05401000  0.97260000  0.08666000  1.0
  H  H23  1  0.55401000  0.52740000  0.41334000  1.0
  H  H24  1  0.77337000  0.92327000  0.84435000  1.0
  H  H25  1  0.27337000  0.57673000  0.65565000  1.0
  H  H26  1  0.22663000  0.07673000  0.15565000  1.0
  H  H27  1  0.72663000  0.42328000  0.34435000  1.0
  H  H28  1  0.77253000  0.34618000  0.06158000  1.0
  H  H29  1  0.27252000  0.15382000  0.43842000  1.0
  H  H30  1  0.22748000  0.65382000  0.93842000  1.0
  H  H31  1  0.72748000  0.84618000  0.56158000  1.0
  H  H32  1  0.59826000  0.44753000  0.13065000  1.0
  H  H33  1  0.09826000  0.05247000  0.36935000  1.0
  H  H34  1  0.40174000  0.55248000  0.86935000  1.0
  H  H35  1  0.90174000  0.94753000  0.63065000  1.0
  H  H36  1  0.78168000  0.58132000  0.19526000  1.0
  H  H37  1  0.28168000  0.91867000  0.30474000  1.0
  H  H38  1  0.21832000  0.41867000  0.80474000  1.0
  H  H39  1  0.71832000  0.08133000  0.69526000  1.0
  H  H40  1  0.32175000  0.49472000  0.12340000  1.0
  H  H41  1  0.82175000  0.00528000  0.37660000  1.0
  H  H42  1  0.67825000  0.50528000  0.87660000  1.0
  H  H43  1  0.17825000  0.99472000  0.62340000  1.0
  C  C44  1  0.38044000  0.97257000  0.82435000  1.0
  C  C45  1  0.88044000  0.52743000  0.67565000  1.0
  C  C46  1  0.61956000  0.02743000  0.17565000  1.0
  C  C47  1  0.11956000  0.47257000  0.32435000  1.0
  C  C48  1  0.48923000  0.02185000  0.86662000  1.0
  C  C49  1  0.98923000  0.47815000  0.63338000  1.0
  C  C50  1  0.51077000  0.97815000  0.13338000  1.0
  C  C51  1  0.01077000  0.52185000  0.36662000  1.0
  C  C52  1  0.38614000  0.10234000  0.90236000  1.0
  C  C53  1  0.88614000  0.39765000  0.59764000  1.0
  C  C54  1  0.61386000  0.89766000  0.09764000  1.0
  C  C55  1  0.11386000  0.60235000  0.40236000  1.0
  C  C56  1  0.48212000  0.15264000  0.94231000  1.0
  C  C57  1  0.98211000  0.34736000  0.55769000  1.0
  C  C58  1  0.51789000  0.84736000  0.05769000  1.0
  C  C59  1  0.01788000  0.65265000  0.44231000  1.0
  C  C60  1  0.68594000  0.12781000  0.94584000  1.0
  C  C61  1  0.18594000  0.37219000  0.55416000  1.0
  C  C62  1  0.31406000  0.87219000  0.05416000  1.0
  C  C63  1  0.81406000  0.62781000  0.44584000  1.0
  C  C64  1  0.78853000  0.04733000  0.91025000  1.0
  C  C65  1  0.28852000  0.45267000  0.58975000  1.0
  C  C66  1  0.21147000  0.95267000  0.08976000  1.0
  C  C67  1  0.71147000  0.54733000  0.41025000  1.0
  C  C68  1  0.69137000  0.99144000  0.87110000  1.0
  C  C69  1  0.19137000  0.50856000  0.62890000  1.0
  C  C70  1  0.30863000  0.00856000  0.12890000  1.0
  C  C71  1  0.80863000  0.49144000  0.37110000  1.0
  C  C72  1  0.36929000  0.23067000  0.97995000  1.0
  C  C73  1  0.86929000  0.26933000  0.52005000  1.0
  C  C74  1  0.63071000  0.76933000  0.02005000  1.0
  C  C75  1  0.13071000  0.73067000  0.47995000  1.0
  C  C76  1  0.16974000  0.35639000  0.04780000  1.0
  C  C77  1  0.66974000  0.14360000  0.45220000  1.0
  C  C78  1  0.83026000  0.64360000  0.95220000  1.0
  C  C79  1  0.33026000  0.85640000  0.54780000  1.0
  C  C80  1  0.05975000  0.41804000  0.08759000  1.0
  C  C81  1  0.55975000  0.08196000  0.41241000  1.0
  C  C82  1  0.94025000  0.58195000  0.91241000  1.0
  C  C83  1  0.44025000  0.91805000  0.58759000  1.0
  C  C84  1  0.85444000  0.40341000  0.08991000  1.0
  C  C85  1  0.35444000  0.09658000  0.41009000  1.0
  C  C86  1  0.14556000  0.59658000  0.91009000  1.0
  C  C87  1  0.64556000  0.90342000  0.58991000  1.0
  C  C88  1  0.75667000  0.46185000  0.12867000  1.0
  C  C89  1  0.25667000  0.03815000  0.37133000  1.0
  C  C90  1  0.24333000  0.53815000  0.87133000  1.0
  C  C91  1  0.74333000  0.96185000  0.62867000  1.0
  C  C92  1  0.85953000  0.53650000  0.16510000  1.0
  C  C93  1  0.35953000  0.96350000  0.33490000  1.0
  C  C94  1  0.14047000  0.46350000  0.83490000  1.0
  C  C95  1  0.64047000  0.03650000  0.66510000  1.0
  C  C96  1  0.06443000  0.54683000  0.16327000  1.0
  C  C97  1  0.56442000  0.95317000  0.33673000  1.0
  C  C98  1  0.93557000  0.45317000  0.83673000  1.0
  C  C99  1  0.43558000  0.04683000  0.66327000  1.0
  C  C100  1  0.16309000  0.48725000  0.12471000  1.0
  C  C101  1  0.66308000  0.01275000  0.37529000  1.0
  C  C102  1  0.83691000  0.51275000  0.87529000  1.0
  C  C103  1  0.33692000  0.98726000  0.62471000  1.0
  C  C104  1  0.18224000  0.60499000  0.20298000  1.0
  C  C105  1  0.68224000  0.89501000  0.29702000  1.0
  C  C106  1  0.81776000  0.39501000  0.79702000  1.0
  C  C107  1  0.31776000  0.10499000  0.70298000  1.0
  N  N108  1  0.17142000  0.23010000  0.97697000  1.0
  N  N109  1  0.67142000  0.26990000  0.52303000  1.0
  N  N110  1  0.82858000  0.76990000  0.02303000  1.0
  N  N111  1  0.32858000  0.73010000  0.47697000  1.0
  N  N112  1  0.06994000  0.29464000  0.01132000  1.0
  N  N113  1  0.56994000  0.20536000  0.48867000  1.0
  N  N114  1  0.93006000  0.70536000  0.98867000  1.0
  N  N115  1  0.43006000  0.79465000  0.51133000  1.0
  N  N116  1  0.36798000  0.36611000  0.04971000  1.0
  N  N117  1  0.86798000  0.13389000  0.45029000  1.0
  N  N118  1  0.63202000  0.63389000  0.95029000  1.0
  N  N119  1  0.13202000  0.86611000  0.54971000  1.0
  N  N120  1  0.46902000  0.30281000  0.01537000  1.0
  N  N121  1  0.96902000  0.19719000  0.48463000  1.0
  N  N122  1  0.53098000  0.69719000  0.98463000  1.0
  N  N123  1  0.03098000  0.80281000  0.51537000  1.0
  O  O124  1  0.84148000  0.85243000  0.76755000  1.0
  O  O125  1  0.34148000  0.64757000  0.73245000  1.0
  O  O126  1  0.15852000  0.14758000  0.23245000  1.0
  O  O127  1  0.65852000  0.35243000  0.26755000  1.0
  O  O128  1  0.46656000  0.88892000  0.79239000  1.0
  O  O129  1  0.96656000  0.61108000  0.70761000  1.0
  O  O130  1  0.53344000  0.11108000  0.20761000  1.0
  O  O131  1  0.03344000  0.38892000  0.29239000  1.0
  O  O132  1  0.19898000  0.02099000  0.82347000  1.0
  O  O133  1  0.69898000  0.47900000  0.67653000  1.0
  O  O134  1  0.80102000  0.97901000  0.17653000  1.0
  O  O135  1  0.30102000  0.52100000  0.32347000  1.0
  O  O136  1  0.12196000  0.72457000  0.23152000  1.0
  O  O137  1  0.62196000  0.77543000  0.26848000  1.0
  O  O138  1  0.87804000  0.27543000  0.76848000  1.0
  O  O139  1  0.37804000  0.22457000  0.73152000  1.0
  O  O140  1  0.34622000  0.52230000  0.20856000  1.0
  O  O141  1  0.84622000  0.97770000  0.29144000  1.0
  O  O142  1  0.65378000  0.47770000  0.79144000  1.0
  O  O143  1  0.15378000  0.02230000  0.70856000  1.0
