# generated using pymatgen
data_YPH15C7NO7
_symmetry_space_group_name_H-M   'P 1'
_cell_length_a   5.42550000
_cell_length_b   12.33520000
_cell_length_c   20.18560000
_cell_angle_alpha   89.99960000
_cell_angle_beta   91.22830000
_cell_angle_gamma   89.99940000
_symmetry_Int_Tables_number   1
_chemical_formula_structural   YPH15C7NO7
_chemical_formula_sum   'Y4 P4 H60 C28 N4 O28'
_cell_volume   1350.60334639
_cell_formula_units_Z   4
loop_
 _symmetry_equiv_pos_site_id
 _symmetry_equiv_pos_as_xyz
  1  'x, y, z'
loop_
 _atom_site_type_symbol
 _atom_site_label
 _atom_site_symmetry_multiplicity
 _atom_site_fract_x
 _atom_site_fract_y
 _atom_site_fract_z
 _atom_site_occupancy
  Y  Y0  1  0.36680000  0.14382000  0.97304000  1.0
  Y  Y1  1  0.63318000  0.64380000  0.52695000  1.0
  Y  Y2  1  0.63318000  0.85620000  0.02696000  1.0
  Y  Y3  1  0.36682000  0.35618000  0.47305000  1.0
  P  P4  1  0.12443000  0.02494000  0.08882000  1.0
  P  P5  1  0.87557000  0.52492000  0.41118000  1.0
  P  P6  1  0.87557000  0.97507000  0.91118000  1.0
  P  P7  1  0.12443000  0.47507000  0.58882000  1.0
  H  H8  1  0.79116000  0.18209000  0.06284000  1.0
  H  H9  1  0.20883000  0.68208000  0.43716000  1.0
  H  H10  1  0.20884000  0.81792000  0.93716000  1.0
  H  H11  1  0.79118000  0.31791000  0.56284000  1.0
  H  H12  1  0.55826000  0.18576000  0.10914000  1.0
  H  H13  1  0.44172000  0.68577000  0.39084000  1.0
  H  H14  1  0.44174000  0.81423000  0.89085000  1.0
  H  H15  1  0.55828000  0.31424000  0.60915000  1.0
  H  H16  1  0.20233000  0.36937000  0.94347000  1.0
  H  H17  1  0.79765000  0.86937000  0.55651000  1.0
  H  H18  1  0.79769000  0.63064000  0.05653000  1.0
  H  H19  1  0.20236000  0.13063000  0.44349000  1.0
  H  H20  1  0.95558000  0.30146000  0.95742000  1.0
  H  H21  1  0.04440000  0.80145000  0.54257000  1.0
  H  H22  1  0.04442000  0.69856000  0.04258000  1.0
  H  H23  1  0.95560000  0.19854000  0.45743000  1.0
  H  H24  1  0.28140000  0.96057000  0.19144000  1.0
  H  H25  1  0.71861000  0.46056000  0.30856000  1.0
  H  H26  1  0.71860000  0.03943000  0.80856000  1.0
  H  H27  1  0.28139000  0.53943000  0.69144000  1.0
  H  H28  1  0.39770000  0.09071000  0.17699000  1.0
  H  H29  1  0.60230000  0.59070000  0.32300000  1.0
  H  H30  1  0.60230000  0.90929000  0.82300000  1.0
  H  H31  1  0.39770000  0.40929000  0.67700000  1.0
  H  H32  1  0.23728000  0.07516000  0.30906000  1.0
  H  H33  1  0.76277000  0.57515000  0.19093000  1.0
  H  H34  1  0.76275000  0.92485000  0.69093000  1.0
  H  H35  1  0.23723000  0.42485000  0.80906000  1.0
  H  H36  1  0.07069000  0.95653000  0.28466000  1.0
  H  H37  1  0.92937000  0.45653000  0.21534000  1.0
  H  H38  1  0.92935000  0.04347000  0.71534000  1.0
  H  H39  1  0.07062000  0.54347000  0.78465000  1.0
  H  H40  1  0.87316000  0.05178000  0.37873000  1.0
  H  H41  1  0.12693000  0.55178000  0.12127000  1.0
  H  H42  1  0.12689000  0.94822000  0.62127000  1.0
  H  H43  1  0.87308000  0.44823000  0.87872000  1.0
  H  H44  1  0.67552000  0.04490000  0.30789000  1.0
  H  H45  1  0.32454000  0.54491000  0.19211000  1.0
  H  H46  1  0.32451000  0.95509000  0.69211000  1.0
  H  H47  1  0.67547000  0.45510000  0.80788000  1.0
  H  H48  1  0.00358000  0.23958000  0.34362000  1.0
  H  H49  1  0.99643000  0.73957000  0.15639000  1.0
  H  H50  1  0.99643000  0.76042000  0.65638000  1.0
  H  H51  1  0.00355000  0.26043000  0.84362000  1.0
  H  H52  1  0.77195000  0.32882000  0.24971000  1.0
  H  H53  1  0.22802000  0.82882000  0.25031000  1.0
  H  H54  1  0.22804000  0.67117000  0.75030000  1.0
  H  H55  1  0.77198000  0.17118000  0.74970000  1.0
  H  H56  1  0.61852000  0.20568000  0.23272000  1.0
  H  H57  1  0.38149000  0.70567000  0.26729000  1.0
  H  H58  1  0.38148000  0.79432000  0.76728000  1.0
  H  H59  1  0.61850000  0.29432000  0.73271000  1.0
  H  H60  1  0.99191000  0.22599000  0.16182000  1.0
  H  H61  1  0.00805000  0.72597000  0.33819000  1.0
  H  H62  1  0.00808000  0.77402000  0.83818000  1.0
  H  H63  1  0.99194000  0.27402000  0.66181000  1.0
  H  H64  1  0.18017000  0.24240000  0.23428000  1.0
  H  H65  1  0.81982000  0.74238000  0.26573000  1.0
  H  H66  1  0.81982000  0.75760000  0.76572000  1.0
  H  H67  1  0.18017000  0.25761000  0.73427000  1.0
  C  C68  1  0.22487000  0.04194000  0.17500000  1.0
  C  C69  1  0.77513000  0.54192000  0.32500000  1.0
  C  C70  1  0.77513000  0.95807000  0.82500000  1.0
  C  C71  1  0.22487000  0.45807000  0.67500000  1.0
  C  C72  1  0.06188000  0.04538000  0.28562000  1.0
  C  C73  1  0.93816000  0.54537000  0.21438000  1.0
  C  C74  1  0.93815000  0.95463000  0.71438000  1.0
  C  C75  1  0.06183000  0.45463000  0.78562000  1.0
  C  C76  1  0.84720000  0.08141000  0.32770000  1.0
  C  C77  1  0.15285000  0.58141000  0.17231000  1.0
  C  C78  1  0.15283000  0.91859000  0.67230000  1.0
  C  C79  1  0.84715000  0.41859000  0.82769000  1.0
  C  C80  1  0.82581000  0.20560000  0.32556000  1.0
  C  C81  1  0.17421000  0.70560000  0.17445000  1.0
  C  C82  1  0.17420000  0.79439000  0.67444000  1.0
  C  C83  1  0.82578000  0.29440000  0.82555000  1.0
  C  C84  1  0.79016000  0.24056000  0.25352000  1.0
  C  C85  1  0.20984000  0.74056000  0.24649000  1.0
  C  C86  1  0.20984000  0.75944000  0.74649000  1.0
  C  C87  1  0.79015000  0.25945000  0.75351000  1.0
  C  C88  1  0.01063000  0.20217000  0.21406000  1.0
  C  C89  1  0.98936000  0.70216000  0.28594000  1.0
  C  C90  1  0.98937000  0.79783000  0.78594000  1.0
  C  C91  1  0.01062000  0.29784000  0.71406000  1.0
  C  C92  1  0.63806000  0.24724000  0.37362000  1.0
  C  C93  1  0.36196000  0.74726000  0.12639000  1.0
  C  C94  1  0.36193000  0.75275000  0.62638000  1.0
  C  C95  1  0.63802000  0.25275000  0.87361000  1.0
  N  N96  1  0.03374000  0.08386000  0.21742000  1.0
  N  N97  1  0.96628000  0.58385000  0.28258000  1.0
  N  N98  1  0.96627000  0.91614000  0.78258000  1.0
  N  N99  1  0.03372000  0.41615000  0.71742000  1.0
  O  O100  1  0.35147000  0.98492000  0.05018000  1.0
  O  O101  1  0.64852000  0.48491000  0.44981000  1.0
  O  O102  1  0.64851000  0.01508000  0.94981000  1.0
  O  O103  1  0.35148000  0.51508000  0.55019000  1.0
  O  O104  1  0.06537000  0.13725000  0.05759000  1.0
  O  O105  1  0.93463000  0.63724000  0.44241000  1.0
  O  O106  1  0.93463000  0.86276000  0.94241000  1.0
  O  O107  1  0.06537000  0.36275000  0.55759000  1.0
  O  O108  1  0.91132000  0.94519000  0.08733000  1.0
  O  O109  1  0.08866000  0.44516000  0.41267000  1.0
  O  O110  1  0.08866000  0.05483000  0.91266000  1.0
  O  O111  1  0.91133000  0.55482000  0.58733000  1.0
  O  O112  1  0.67762000  0.22722000  0.43616000  1.0
  O  O113  1  0.32241000  0.72724000  0.06385000  1.0
  O  O114  1  0.32238000  0.77276000  0.56385000  1.0
  O  O115  1  0.67758000  0.27277000  0.93615000  1.0
  O  O116  1  0.45134000  0.30212000  0.35588000  1.0
  O  O117  1  0.54863000  0.80214000  0.14414000  1.0
  O  O118  1  0.54864000  0.69786000  0.64413000  1.0
  O  O119  1  0.45134000  0.19788000  0.85586000  1.0
  O  O120  1  0.61204000  0.20624000  0.06525000  1.0
  O  O121  1  0.38794000  0.70624000  0.43474000  1.0
  O  O122  1  0.38795000  0.79376000  0.93475000  1.0
  O  O123  1  0.61206000  0.29376000  0.56526000  1.0
  O  O124  1  0.13921000  0.30868000  0.96858000  1.0
  O  O125  1  0.86075000  0.80867000  0.53141000  1.0
  O  O126  1  0.86078000  0.69133000  0.03142000  1.0
  O  O127  1  0.13924000  0.19132000  0.46860000  1.0
