# generated using pymatgen
data_AgH5C4(NO)2
_symmetry_space_group_name_H-M   'P 1'
_cell_length_a   3.93996000
_cell_length_b   11.26920000
_cell_length_c   27.80700000
_cell_angle_alpha   90.00000000
_cell_angle_beta   90.00000000
_cell_angle_gamma   90.00000000
_symmetry_Int_Tables_number   1
_chemical_formula_structural   AgH5C4(NO)2
_chemical_formula_sum   'Ag8 H40 C32 N16 O16'
_cell_volume   1234.63628443
_cell_formula_units_Z   8
loop_
 _symmetry_equiv_pos_site_id
 _symmetry_equiv_pos_as_xyz
  1  'x, y, z'
loop_
 _atom_site_type_symbol
 _atom_site_label
 _atom_site_symmetry_multiplicity
 _atom_site_fract_x
 _atom_site_fract_y
 _atom_site_fract_z
 _atom_site_occupancy
  Ag  Ag0  1  0.03746000  0.39135000  0.02633000  1.0
  Ag  Ag1  1  0.46255000  0.60865000  0.52633000  1.0
  Ag  Ag2  1  0.96256000  0.89136000  0.47367000  1.0
  Ag  Ag3  1  0.53745000  0.10864000  0.97367000  1.0
  Ag  Ag4  1  0.96257000  0.60865000  0.97368000  1.0
  Ag  Ag5  1  0.53743000  0.39136000  0.47367000  1.0
  Ag  Ag6  1  0.03745000  0.10865000  0.52633000  1.0
  Ag  Ag7  1  0.46254000  0.89135000  0.02633000  1.0
  H  H8  1  0.57336000  0.54761000  0.21607000  1.0
  H  H9  1  0.92662000  0.45239000  0.71605000  1.0
  H  H10  1  0.42668000  0.04761000  0.28393000  1.0
  H  H11  1  0.07334000  0.95239000  0.78394000  1.0
  H  H12  1  0.42663000  0.45239000  0.78395000  1.0
  H  H13  1  0.07338000  0.54763000  0.28394000  1.0
  H  H14  1  0.57331000  0.95240000  0.71606000  1.0
  H  H15  1  0.92670000  0.04760000  0.21606000  1.0
  H  H16  1  0.88500000  0.64852000  0.19338000  1.0
  H  H17  1  0.61499000  0.35147000  0.69337000  1.0
  H  H18  1  0.11504000  0.14853000  0.30662000  1.0
  H  H19  1  0.38499000  0.85147000  0.80662000  1.0
  H  H20  1  0.11499000  0.35148000  0.80663000  1.0
  H  H21  1  0.38500000  0.64854000  0.30663000  1.0
  H  H22  1  0.88496000  0.85148000  0.69338000  1.0
  H  H23  1  0.61506000  0.14852000  0.19338000  1.0
  H  H24  1  0.95475000  0.49129000  0.19032000  1.0
  H  H25  1  0.54524000  0.50871000  0.69031000  1.0
  H  H26  1  0.04528000  0.99130000  0.30967000  1.0
  H  H27  1  0.45472000  0.00871000  0.80968000  1.0
  H  H28  1  0.04524000  0.50871000  0.80969000  1.0
  H  H29  1  0.45475000  0.49131000  0.30968000  1.0
  H  H30  1  0.95470000  0.00871000  0.69032000  1.0
  H  H31  1  0.54530000  0.99129000  0.19032000  1.0
  H  H32  1  0.83382000  0.69863000  0.09777000  1.0
  H  H33  1  0.66617000  0.30137000  0.59776000  1.0
  H  H34  1  0.16618000  0.19863000  0.40223000  1.0
  H  H35  1  0.33382000  0.80136000  0.90224000  1.0
  H  H36  1  0.16618000  0.30137000  0.90225000  1.0
  H  H37  1  0.33382000  0.69864000  0.40224000  1.0
  H  H38  1  0.83382000  0.80137000  0.59776000  1.0
  H  H39  1  0.66618000  0.19863000  0.09776000  1.0
  H  H40  1  0.44165000  0.73854000  0.12461000  1.0
  H  H41  1  0.05835000  0.26146000  0.62460000  1.0
  H  H42  1  0.55836000  0.23854000  0.37540000  1.0
  H  H43  1  0.94163000  0.76146000  0.87540000  1.0
  H  H44  1  0.55835000  0.26146000  0.87540000  1.0
  H  H45  1  0.94164000  0.73855000  0.37540000  1.0
  H  H46  1  0.44162000  0.76146000  0.62460000  1.0
  H  H47  1  0.05835000  0.23854000  0.12460000  1.0
  C  C48  1  0.76378000  0.56211000  0.18770000  1.0
  C  C49  1  0.73620000  0.43788000  0.68769000  1.0
  C  C50  1  0.23624000  0.06212000  0.31230000  1.0
  C  C51  1  0.26377000  0.93788000  0.81231000  1.0
  C  C52  1  0.23621000  0.43789000  0.81231000  1.0
  C  C53  1  0.26379000  0.56213000  0.31231000  1.0
  C  C54  1  0.76375000  0.93789000  0.68769000  1.0
  C  C55  1  0.73626000  0.06211000  0.18770000  1.0
  C  C56  1  0.44424000  0.46677000  0.12126000  1.0
  C  C57  1  0.05575000  0.53322000  0.62125000  1.0
  C  C58  1  0.55576000  0.96678000  0.37874000  1.0
  C  C59  1  0.94426000  0.03319000  0.87875000  1.0
  C  C60  1  0.55576000  0.53322000  0.87875000  1.0
  C  C61  1  0.94427000  0.46680000  0.37874000  1.0
  C  C62  1  0.44425000  0.03320000  0.62125000  1.0
  C  C63  1  0.05578000  0.96677000  0.12126000  1.0
  C  C64  1  0.39235000  0.61264000  0.06708000  1.0
  C  C65  1  0.10765000  0.38737000  0.56707000  1.0
  C  C66  1  0.60765000  0.11263000  0.43292000  1.0
  C  C67  1  0.89234000  0.88736000  0.93293000  1.0
  C  C68  1  0.60766000  0.38736000  0.93293000  1.0
  C  C69  1  0.89235000  0.61264000  0.43293000  1.0
  C  C70  1  0.39235000  0.88737000  0.56707000  1.0
  C  C71  1  0.10766000  0.11263000  0.06707000  1.0
  C  C72  1  0.58530000  0.66377000  0.10886000  1.0
  C  C73  1  0.91468000  0.33622000  0.60885000  1.0
  C  C74  1  0.41470000  0.16378000  0.39114000  1.0
  C  C75  1  0.08529000  0.83621000  0.89115000  1.0
  C  C76  1  0.41471000  0.33622000  0.89115000  1.0
  C  C77  1  0.08530000  0.66379000  0.39115000  1.0
  C  C78  1  0.58528000  0.83622000  0.60885000  1.0
  C  C79  1  0.91471000  0.16378000  0.10885000  1.0
  N  N80  1  0.60821000  0.56209000  0.14053000  1.0
  N  N81  1  0.89176000  0.43791000  0.64052000  1.0
  N  N82  1  0.39180000  0.06209000  0.35947000  1.0
  N  N83  1  0.10820000  0.93791000  0.85948000  1.0
  N  N84  1  0.39178000  0.43791000  0.85948000  1.0
  N  N85  1  0.10822000  0.56210000  0.35948000  1.0
  N  N86  1  0.60818000  0.93791000  0.64052000  1.0
  N  N87  1  0.89180000  0.06209000  0.14052000  1.0
  N  N88  1  0.31279000  0.49936000  0.07537000  1.0
  N  N89  1  0.18720000  0.50063000  0.57536000  1.0
  N  N90  1  0.68721000  0.99936000  0.42463000  1.0
  N  N91  1  0.81279000  0.00063000  0.92463000  1.0
  N  N92  1  0.68722000  0.50063000  0.92464000  1.0
  N  N93  1  0.81280000  0.49937000  0.42463000  1.0
  N  N94  1  0.31279000  0.00063000  0.57536000  1.0
  N  N95  1  0.18722000  0.99937000  0.07537000  1.0
  O  O96  1  0.41077000  0.36851000  0.14062000  1.0
  O  O97  1  0.08923000  0.63148000  0.64062000  1.0
  O  O98  1  0.58923000  0.86851000  0.35937000  1.0
  O  O99  1  0.91078000  0.13149000  0.85937000  1.0
  O  O100  1  0.58924000  0.63149000  0.85938000  1.0
  O  O101  1  0.91079000  0.36852000  0.35937000  1.0
  O  O102  1  0.41076000  0.13150000  0.64062000  1.0
  O  O103  1  0.08925000  0.86852000  0.14062000  1.0
  O  O104  1  0.31554000  0.67364000  0.03007000  1.0
  O  O105  1  0.18444000  0.32636000  0.53006000  1.0
  O  O106  1  0.68446000  0.17364000  0.46993000  1.0
  O  O107  1  0.81553000  0.82636000  0.96994000  1.0
  O  O108  1  0.68447000  0.32636000  0.96994000  1.0
  O  O109  1  0.81553000  0.67364000  0.46994000  1.0
  O  O110  1  0.31555000  0.82637000  0.53006000  1.0
  O  O111  1  0.18446000  0.17364000  0.03006000  1.0
