# generated using pymatgen
data_ZnH2C7SN3O11
_symmetry_space_group_name_H-M   'P 1'
_cell_length_a   10.38010000
_cell_length_b   10.46010000
_cell_length_c   11.44110000
_cell_angle_alpha   87.48850000
_cell_angle_beta   75.88220000
_cell_angle_gamma   84.67620000
_symmetry_Int_Tables_number   1
_chemical_formula_structural   ZnH2C7SN3O11
_chemical_formula_sum   'Zn2 H4 C14 S2 N6 O22'
_cell_volume   1199.23307703
_cell_formula_units_Z   2
loop_
 _symmetry_equiv_pos_site_id
 _symmetry_equiv_pos_as_xyz
  1  'x, y, z'
loop_
 _atom_site_type_symbol
 _atom_site_label
 _atom_site_symmetry_multiplicity
 _atom_site_fract_x
 _atom_site_fract_y
 _atom_site_fract_z
 _atom_site_occupancy
  Zn  Zn0  1  0.70527000  0.48674000  0.46920000  1.0
  Zn  Zn1  1  0.39928000  0.50479000  0.53411000  1.0
  H  H2  1  0.36129000  0.14556000  0.54488000  1.0
  H  H3  1  0.48458000  0.86587000  0.48523000  1.0
  H  H4  1  0.77981000  0.18461000  0.33384000  1.0
  H  H5  1  0.96101000  0.98169000  0.50540000  1.0
  C  C6  1  0.26823000  0.75695000  0.53995000  1.0
  C  C7  1  0.57733000  0.25336000  0.49304000  1.0
  C  C8  1  0.57572000  0.54300000  0.28746000  1.0
  C  C9  1  0.55142000  0.54244000  0.71445000  1.0
  C  C10  1  0.57676000  0.56662000  0.16294000  1.0
  C  C11  1  0.55960000  0.56048000  0.83617000  1.0
  C  C12  1  0.57156000  0.57041000  0.05717000  1.0
  C  C13  1  0.56525000  0.56830000  0.94108000  1.0
  C  C14  1  0.28034000  0.90078000  0.53900000  1.0
  C  C15  1  0.56514000  0.11328000  0.47972000  1.0
  C  C16  1  0.40479000  0.94224000  0.51063000  1.0
  C  C17  1  0.44106000  0.07112000  0.51239000  1.0
  C  C18  1  0.14279000  0.43092000  0.46095000  1.0
  C  C19  1  0.99891000  0.42736000  0.46714000  1.0
  S  S20  1  0.71541000  0.01478000  0.42237000  1.0
  S  S21  1  0.12883000  0.00176000  0.58592000  1.0
  N  N22  1  0.20130000  0.45807000  0.54055000  1.0
  N  N23  1  0.91029000  0.51111000  0.44754000  1.0
  N  N24  1  0.95729000  0.28984000  0.48141000  1.0
  N  N25  1  0.23080000  0.39259000  0.33556000  1.0
  N  N26  1  0.94697000  0.66390000  0.44193000  1.0
  N  N27  1  0.10526000  0.47518000  0.67523000  1.0
  O  O28  1  0.38076000  0.69166000  0.49965000  1.0
  O  O29  1  0.47750000  0.31818000  0.55421000  1.0
  O  O30  1  0.15798000  0.71210000  0.57881000  1.0
  O  O31  1  0.68929000  0.29997000  0.44055000  1.0
  O  O32  1  0.67547000  0.57518000  0.32446000  1.0
  O  O33  1  0.43696000  0.54247000  0.69501000  1.0
  O  O34  1  0.47797000  0.48713000  0.35060000  1.0
  O  O35  1  0.66451000  0.52669000  0.63726000  1.0
  O  O36  1  0.79383000  0.01602000  0.51144000  1.0
  O  O37  1  0.69106000  0.89383000  0.38137000  1.0
  O  O38  1  0.78105000  0.09486000  0.30580000  1.0
  O  O39  1  0.05687000  0.96111000  0.70330000  1.0
  O  O40  1  0.15859000  0.13508000  0.56849000  1.0
  O  O41  1  0.06091000  0.96539000  0.48378000  1.0
  O  O42  1  0.99306000  0.22968000  0.38730000  1.0
  O  O43  1  0.89409000  0.25699000  0.58078000  1.0
  O  O44  1  0.30635000  0.29578000  0.33371000  1.0
  O  O45  1  0.21211000  0.46431000  0.25271000  1.0
  O  O46  1  0.03122000  0.69253000  0.35534000  1.0
  O  O47  1  0.87574000  0.72005000  0.52575000  1.0
  O  O48  1  0.17021000  0.46530000  0.74932000  1.0
  O  O49  1  0.98675000  0.48969000  0.68251000  1.0
