# generated using pymatgen
data_Zn3H26C42(N2O7)2
_symmetry_space_group_name_H-M   'P 1'
_cell_length_a   7.80941000
_cell_length_b   10.66130000
_cell_length_c   12.01230000
_cell_angle_alpha   88.91080000
_cell_angle_beta   78.46340000
_cell_angle_gamma   68.71130000
_symmetry_Int_Tables_number   1
_chemical_formula_structural   Zn3H26C42(N2O7)2
_chemical_formula_sum   'Zn3 H26 C42 N4 O14'
_cell_volume   911.47812230
_cell_formula_units_Z   1
loop_
 _symmetry_equiv_pos_site_id
 _symmetry_equiv_pos_as_xyz
  1  'x, y, z'
loop_
 _atom_site_type_symbol
 _atom_site_label
 _atom_site_symmetry_multiplicity
 _atom_site_fract_x
 _atom_site_fract_y
 _atom_site_fract_z
 _atom_site_occupancy
  Zn  Zn0  1  0.50000000  0.50000000  0.50000000  1.0
  Zn  Zn1  1  0.81172000  0.73410000  0.71745000  1.0
  Zn  Zn2  1  0.18827000  0.26590000  0.28255000  1.0
  H  H3  1  0.48798000  0.64980000  0.65570000  1.0
  H  H4  1  0.51202000  0.35020000  0.34430000  1.0
  H  H5  1  0.27227000  0.66865000  0.68170000  1.0
  H  H6  1  0.72773000  0.33135000  0.31830000  1.0
  H  H7  1  0.70143000  0.39341000  0.14807000  1.0
  H  H8  1  0.29858000  0.60659000  0.85193000  1.0
  H  H9  1  0.43307000  0.98697000  0.84156000  1.0
  H  H10  1  0.56693000  0.01304000  0.15844000  1.0
  H  H11  1  0.24301000  0.84398000  0.16460000  1.0
  H  H12  1  0.75699000  0.15602000  0.83540000  1.0
  H  H13  1  0.19906000  0.02721000  0.02752000  1.0
  H  H14  1  0.80094000  0.97279000  0.97248000  1.0
  H  H15  1  0.43760000  0.60705000  0.21124000  1.0
  H  H16  1  0.56241000  0.39295000  0.78876000  1.0
  H  H17  1  0.19243000  0.24227000  0.80851000  1.0
  H  H18  1  0.80757000  0.75773000  0.19149000  1.0
  H  H19  1  0.98116000  0.25543000  0.00197000  1.0
  H  H20  1  0.01884000  0.74457000  0.99803000  1.0
  H  H21  1  0.12546000  0.44498000  0.69327000  1.0
  H  H22  1  0.87455000  0.55502000  0.30673000  1.0
  H  H23  1  0.34116000  0.90350000  0.69717000  1.0
  H  H24  1  0.65883000  0.09650000  0.30283000  1.0
  H  H25  1  0.80817000  0.14286000  0.61991000  1.0
  H  H26  1  0.19183000  0.85714000  0.38009000  1.0
  H  H27  1  0.47762000  0.06713000  0.60630000  1.0
  H  H28  1  0.52238000  0.93287000  0.39370000  1.0
  C  C29  1  0.61470000  0.69252000  0.94620000  1.0
  C  C30  1  0.38530000  0.30748000  0.05380000  1.0
  C  C31  1  0.67549000  0.47689000  0.09234000  1.0
  C  C32  1  0.32451000  0.52311000  0.90766000  1.0
  C  C33  1  0.44520000  0.90863000  0.90247000  1.0
  C  C34  1  0.55480000  0.09137000  0.09753000  1.0
  C  C35  1  0.33984000  0.82971000  0.08267000  1.0
  C  C36  1  0.66016000  0.17029000  0.91733000  1.0
  C  C37  1  0.31545000  0.93075000  0.00667000  1.0
  C  C38  1  0.68455000  0.06925000  0.99333000  1.0
  C  C39  1  0.52831000  0.59568000  0.12713000  1.0
  C  C40  1  0.47169000  0.40432000  0.87287000  1.0
  C  C41  1  0.07132000  0.33276000  0.84154000  1.0
  C  C42  1  0.92868000  0.66724000  0.15846000  1.0
  C  C43  1  0.49303000  0.70597000  0.05416000  1.0
  C  C44  1  0.50698000  0.29404000  0.94584000  1.0
  C  C45  1  0.95592000  0.33968000  0.94645000  1.0
  C  C46  1  0.04408000  0.66032000  0.05355000  1.0
  C  C47  1  0.03403000  0.44603000  0.77497000  1.0
  C  C48  1  0.96597000  0.55397000  0.22503000  1.0
  C  C49  1  0.80063000  0.46019000  0.98454000  1.0
  C  C50  1  0.19937000  0.53981000  0.01546000  1.0
  C  C51  1  0.77191000  0.56840000  0.91151000  1.0
  C  C52  1  0.22809000  0.43160000  0.08848000  1.0
  C  C53  1  0.90067000  0.33188000  0.50954000  1.0
  C  C54  1  0.09933000  0.66811000  0.49046000  1.0
  C  C55  1  0.22278000  0.19280000  0.55459000  1.0
  C  C56  1  0.77722000  0.80720000  0.44541000  1.0
  C  C57  1  0.98920000  0.90832000  0.71463000  1.0
  C  C58  1  0.01079000  0.09168000  0.28537000  1.0
  C  C59  1  0.25436000  0.99228000  0.66097000  1.0
  C  C60  1  0.74564000  0.00772000  0.33903000  1.0
  C  C61  1  0.95546000  0.12528000  0.61683000  1.0
  C  C62  1  0.04454000  0.87473000  0.38318000  1.0
  C  C63  1  0.33087000  0.08290000  0.60837000  1.0
  C  C64  1  0.66912000  0.91710000  0.39163000  1.0
  C  C65  1  0.32361000  0.28038000  0.49599000  1.0
  C  C66  1  0.67639000  0.71962000  0.50401000  1.0
  C  C67  1  0.03163000  0.21550000  0.56092000  1.0
  C  C68  1  0.96837000  0.78450000  0.43908000  1.0
  C  C69  1  0.06578000  0.01198000  0.66484000  1.0
  C  C70  1  0.93421000  0.98802000  0.33517000  1.0
  N  N71  1  0.58997000  0.79287000  0.87289000  1.0
  N  N72  1  0.41003000  0.20714000  0.12710000  1.0
  N  N73  1  0.88805000  0.56034000  0.80922000  1.0
  N  N74  1  0.11195000  0.43966000  0.19078000  1.0
  O  O75  1  0.82642000  0.91904000  0.69785000  1.0
  O  O76  1  0.17358000  0.08096000  0.30215000  1.0
  O  O77  1  0.08652000  0.81330000  0.76668000  1.0
  O  O78  1  0.91348000  0.18670000  0.23332000  1.0
  O  O79  1  0.73373000  0.38400000  0.56688000  1.0
  O  O80  1  0.26627000  0.61600000  0.43312000  1.0
  O  O81  1  0.95918000  0.36886000  0.41261000  1.0
  O  O82  1  0.04082000  0.63114000  0.58739000  1.0
  O  O83  1  0.35990000  0.27713000  0.38598000  1.0
  O  O84  1  0.64010000  0.72287000  0.61402000  1.0
  O  O85  1  0.38012000  0.34430000  0.55757000  1.0
  O  O86  1  0.61988000  0.65570000  0.44243000  1.0
  O  O87  1  0.40026000  0.59968000  0.66116000  1.0
  O  O88  1  0.59973000  0.40032000  0.33884000  1.0
