# generated using pymatgen
data_NiH4(CO3)2
_symmetry_space_group_name_H-M   'P 1'
_cell_length_a   6.38697000
_cell_length_b   6.94713000
_cell_length_c   7.96941000
_cell_angle_alpha   71.00200000
_cell_angle_beta   66.39860000
_cell_angle_gamma   62.63800000
_symmetry_Int_Tables_number   1
_chemical_formula_structural   NiH4(CO3)2
_chemical_formula_sum   'Ni2 H8 C4 O12'
_cell_volume   283.39583718
_cell_formula_units_Z   2
loop_
 _symmetry_equiv_pos_site_id
 _symmetry_equiv_pos_as_xyz
  1  'x, y, z'
loop_
 _atom_site_type_symbol
 _atom_site_label
 _atom_site_symmetry_multiplicity
 _atom_site_fract_x
 _atom_site_fract_y
 _atom_site_fract_z
 _atom_site_occupancy
  Ni  Ni0  1  0.76055000  0.74994000  0.75002000  1.0
  Ni  Ni1  1  0.23945000  0.25006000  0.24998000  1.0
  H  H2  1  0.20017000  0.44878000  0.80014000  1.0
  H  H3  1  0.94916000  0.05107000  0.69993000  1.0
  H  H4  1  0.79985000  0.55123000  0.19982000  1.0
  H  H5  1  0.05084000  0.94895000  0.30011000  1.0
  H  H6  1  0.11284000  0.39790000  0.66463000  1.0
  H  H7  1  0.67559000  0.10190000  0.83548000  1.0
  H  H8  1  0.88715000  0.60210000  0.33535000  1.0
  H  H9  1  0.32439000  0.89808000  0.16456000  1.0
  C  C10  1  0.38738000  0.03696000  0.58532000  1.0
  C  C11  1  0.50953000  0.46310000  0.91471000  1.0
  C  C12  1  0.61257000  0.96307000  0.41473000  1.0
  C  C13  1  0.49049000  0.53687000  0.08525000  1.0
  O  O14  1  0.42015000  0.97635000  0.74323000  1.0
  O  O15  1  0.63937000  0.52379000  0.75678000  1.0
  O  O16  1  0.57985000  0.02365000  0.25680000  1.0
  O  O17  1  0.36063000  0.47619000  0.24318000  1.0
  O  O18  1  0.17882000  0.15896000  0.55579000  1.0
  O  O19  1  0.39337000  0.34118000  0.94422000  1.0
  O  O20  1  0.82116000  0.84108000  0.44421000  1.0
  O  O21  1  0.60666000  0.65877000  0.05575000  1.0
  O  O22  1  0.10926000  0.51855000  0.70628000  1.0
  O  O23  1  0.83431000  0.98129000  0.79387000  1.0
  O  O24  1  0.89076000  0.48146000  0.29368000  1.0
  O  O25  1  0.16569000  0.01871000  0.20617000  1.0
