# generated using pymatgen
data_ZnH23C32N5O4
_symmetry_space_group_name_H-M   'P 1'
_cell_length_a   9.94310000
_cell_length_b   11.95550000
_cell_length_c   12.09350000
_cell_angle_alpha   98.36950000
_cell_angle_beta   100.12900000
_cell_angle_gamma   91.91810000
_symmetry_Int_Tables_number   1
_chemical_formula_structural   ZnH23C32N5O4
_chemical_formula_sum   'Zn2 H46 C64 N10 O8'
_cell_volume   1397.55583914
_cell_formula_units_Z   2
loop_
 _symmetry_equiv_pos_site_id
 _symmetry_equiv_pos_as_xyz
  1  'x, y, z'
loop_
 _atom_site_type_symbol
 _atom_site_label
 _atom_site_symmetry_multiplicity
 _atom_site_fract_x
 _atom_site_fract_y
 _atom_site_fract_z
 _atom_site_occupancy
  Zn  Zn0  1  0.82655000  0.41300000  0.17550000  1.0
  Zn  Zn1  1  0.17345000  0.58700000  0.82450000  1.0
  H  H2  1  0.82864000  0.05125000  0.12276000  1.0
  H  H3  1  0.17136000  0.94875000  0.87724000  1.0
  H  H4  1  0.86593000  0.84729000  0.05927000  1.0
  H  H5  1  0.13407000  0.15271000  0.94074000  1.0
  H  H6  1  0.52536000  0.32541000  0.36886000  1.0
  H  H7  1  0.47464000  0.67459000  0.63114000  1.0
  H  H8  1  0.37511000  0.32066000  0.51610000  1.0
  H  H9  1  0.62488000  0.67935000  0.48390000  1.0
  H  H10  1  0.02285000  0.44502000  0.41669000  1.0
  H  H11  1  0.97715000  0.55498000  0.58331000  1.0
  H  H12  1  0.20067000  0.63447000  0.49043000  1.0
  H  H13  1  0.79933000  0.36553000  0.50957000  1.0
  H  H14  1  0.02418000  0.62535000  0.14119000  1.0
  H  H15  1  0.97582000  0.37464000  0.85880000  1.0
  H  H16  1  0.08651000  0.80309000  0.16214000  1.0
  H  H17  1  0.91349000  0.19690000  0.83786000  1.0
  H  H18  1  0.24672000  0.95197000  0.13417000  1.0
  H  H19  1  0.75328000  0.04803000  0.86583000  1.0
  H  H20  1  0.52425000  0.89520000  0.43508000  1.0
  H  H21  1  0.47574000  0.10480000  0.56492000  1.0
  H  H22  1  0.36664000  0.74160000  0.45909000  1.0
  H  H23  1  0.63335000  0.25840000  0.54091000  1.0
  H  H24  1  0.29328000  0.13851000  0.30433000  1.0
  H  H25  1  0.70672000  0.86150000  0.69567000  1.0
  H  H26  1  0.22405000  0.31071000  0.22014000  1.0
  H  H27  1  0.77595000  0.68930000  0.77987000  1.0
  H  H28  1  0.53151000  0.26332000  0.01036000  1.0
  H  H29  1  0.46849000  0.73668000  0.98964000  1.0
  H  H30  1  0.59884000  0.08998000  0.09171000  1.0
  H  H31  1  0.40116000  0.91002000  0.90828000  1.0
  H  H32  1  0.28528000  0.34975000  0.88976000  1.0
  H  H33  1  0.71472000  0.65025000  0.11024000  1.0
  H  H34  1  0.28692000  0.67053000  0.08918000  1.0
  H  H35  1  0.71309000  0.32948000  0.91082000  1.0
  H  H36  1  0.37982000  0.51523000  0.23161000  1.0
  H  H37  1  0.62019000  0.48478000  0.76839000  1.0
  H  H38  1  0.62203000  0.81278000  0.25210000  1.0
  H  H39  1  0.37797000  0.18721000  0.74790000  1.0
  H  H40  1  0.86667000  0.79020000  0.31209000  1.0
  H  H41  1  0.13333000  0.20980000  0.68791000  1.0
  H  H42  1  0.02987000  0.96048000  0.38302000  1.0
  H  H43  1  0.97013000  0.03952000  0.61698000  1.0
  H  H44  1  0.93983000  0.15352000  0.39238000  1.0
  H  H45  1  0.06017000  0.84648000  0.60762000  1.0
  H  H46  1  0.69373000  0.17698000  0.33277000  1.0
  H  H47  1  0.30627000  0.82302000  0.66723000  1.0
  C  C48  1  0.95002000  0.23618000  0.06582000  1.0
  C  C49  1  0.04998000  0.76382000  0.93418000  1.0
  C  C50  1  0.97841000  0.11404000  0.03476000  1.0
  C  C51  1  0.02159000  0.88597000  0.96524000  1.0
  C  C52  1  0.90292000  0.02788000  0.06851000  1.0
  C  C53  1  0.09709000  0.97212000  0.93149000  1.0
  C  C54  1  0.92402000  0.91481000  0.03354000  1.0
  C  C55  1  0.07598000  0.08519000  0.96646000  1.0
  C  C56  1  0.67332000  0.50449000  0.33091000  1.0
  C  C57  1  0.32668000  0.49551000  0.66909000  1.0
  C  C58  1  0.58401000  0.50244000  0.41866000  1.0
  C  C59  1  0.41598000  0.49756000  0.58133000  1.0
  C  C60  1  0.51369000  0.40130000  0.42723000  1.0
  C  C61  1  0.48631000  0.59870000  0.57276000  1.0
  C  C62  1  0.43016000  0.39863000  0.50794000  1.0
  C  C63  1  0.56984000  0.60138000  0.49205000  1.0
  C  C64  1  0.04970000  0.51107000  0.37052000  1.0
  C  C65  1  0.95030000  0.48892000  0.62948000  1.0
  C  C66  1  0.13792000  0.60481000  0.40799000  1.0
  C  C67  1  0.86208000  0.39519000  0.59201000  1.0
  C  C68  1  0.04515000  0.60210000  0.22606000  1.0
  C  C69  1  0.95485000  0.39789000  0.77394000  1.0
  C  C70  1  0.21787000  0.75929000  0.31016000  1.0
  C  C71  1  0.78213000  0.24070000  0.68984000  1.0
  C  C72  1  0.18279000  0.82222000  0.22173000  1.0
  C  C73  1  0.81721000  0.17778000  0.77827000  1.0
  C  C74  1  0.27374000  0.90657000  0.20593000  1.0
  C  C75  1  0.72625000  0.09343000  0.79407000  1.0
  C  C76  1  0.40049000  0.93160000  0.27991000  1.0
  C  C77  1  0.59950000  0.06840000  0.72009000  1.0
  C  C78  1  0.42882000  0.87459000  0.37449000  1.0
  C  C79  1  0.57118000  0.12541000  0.62551000  1.0
  C  C80  1  0.33935000  0.78829000  0.38856000  1.0
  C  C81  1  0.66065000  0.21171000  0.61144000  1.0
  C  C82  1  0.45246000  0.10399000  0.20519000  1.0
  C  C83  1  0.54754000  0.89601000  0.79481000  1.0
  C  C84  1  0.34522000  0.16572000  0.23970000  1.0
  C  C85  1  0.65479000  0.83429000  0.76030000  1.0
  C  C86  1  0.30639000  0.26190000  0.19314000  1.0
  C  C87  1  0.69361000  0.73810000  0.80686000  1.0
  C  C88  1  0.37543000  0.29755000  0.11210000  1.0
  C  C89  1  0.62458000  0.70246000  0.88791000  1.0
  C  C90  1  0.47870000  0.23474000  0.07380000  1.0
  C  C91  1  0.52131000  0.76526000  0.92620000  1.0
  C  C92  1  0.51630000  0.13777000  0.11959000  1.0
  C  C93  1  0.48369000  0.86222000  0.88042000  1.0
  C  C94  1  0.29765000  0.41622000  0.96260000  1.0
  C  C95  1  0.70236000  0.58378000  0.03740000  1.0
  C  C96  1  0.30066000  0.58085000  0.06911000  1.0
  C  C97  1  0.69935000  0.41915000  0.93089000  1.0
  C  C98  1  0.34469000  0.50531000  0.14060000  1.0
  C  C99  1  0.65532000  0.49469000  0.85940000  1.0
  C  C100  1  0.63984000  0.99668000  0.28924000  1.0
  C  C101  1  0.36016000  0.00332000  0.71075000  1.0
  C  C102  1  0.69099000  0.88807000  0.28199000  1.0
  C  C103  1  0.30901000  0.11192000  0.71801000  1.0
  C  C104  1  0.83030000  0.87556000  0.31663000  1.0
  C  C105  1  0.16969000  0.12444000  0.68337000  1.0
  C  C106  1  0.92101000  0.97053000  0.35660000  1.0
  C  C107  1  0.07898000  0.02947000  0.64340000  1.0
  C  C108  1  0.87044000  0.07846000  0.36206000  1.0
  C  C109  1  0.12956000  0.92154000  0.63794000  1.0
  C  C110  1  0.73112000  0.09207000  0.32927000  1.0
  C  C111  1  0.26887000  0.90793000  0.67073000  1.0
  N  N112  1  0.99265000  0.51079000  0.25781000  1.0
  N  N113  1  0.00735000  0.48920000  0.74219000  1.0
  N  N114  1  0.13410000  0.66233000  0.31574000  1.0
  N  N115  1  0.86589000  0.33767000  0.68426000  1.0
  N  N116  1  0.49725000  0.01019000  0.25792000  1.0
  N  N117  1  0.50275000  0.98981000  0.74208000  1.0
  N  N118  1  0.34216000  0.40142000  0.07193000  1.0
  N  N119  1  0.65785000  0.59859000  0.92807000  1.0
  N  N120  1  0.27129000  0.52423000  0.95876000  1.0
  N  N121  1  0.72872000  0.47577000  0.04124000  1.0
  O  O122  1  0.00543000  0.31191000  0.02408000  1.0
  O  O123  1  0.99456000  0.68809000  0.97592000  1.0
  O  O124  1  0.86352000  0.25386000  0.13455000  1.0
  O  O125  1  0.13647000  0.74614000  0.86545000  1.0
  O  O126  1  0.71633000  0.40613000  0.29602000  1.0
  O  O127  1  0.28367000  0.59388000  0.70398000  1.0
  O  O128  1  0.70002000  0.59527000  0.29706000  1.0
  O  O129  1  0.29998000  0.40473000  0.70293000  1.0
