# generated using pymatgen
data_Cu3H21(C5N2)4
_symmetry_space_group_name_H-M   'P 1'
_cell_length_a   11.27360000
_cell_length_b   11.66230000
_cell_length_c   12.91800000
_cell_angle_alpha   63.90720000
_cell_angle_beta   89.78000000
_cell_angle_gamma   71.32440000
_symmetry_Int_Tables_number   1
_chemical_formula_structural   Cu3H21(C5N2)4
_chemical_formula_sum   'Cu6 H42 C40 N16'
_cell_volume   1426.14269818
_cell_formula_units_Z   2
loop_
 _symmetry_equiv_pos_site_id
 _symmetry_equiv_pos_as_xyz
  1  'x, y, z'
loop_
 _atom_site_type_symbol
 _atom_site_label
 _atom_site_symmetry_multiplicity
 _atom_site_fract_x
 _atom_site_fract_y
 _atom_site_fract_z
 _atom_site_occupancy
  Cu  Cu0  1  0.37459000  0.17298000  0.07685000  1.0
  Cu  Cu1  1  0.62541000  0.82702000  0.92315000  1.0
  Cu  Cu2  1  0.53793000  0.87456000  0.49331000  1.0
  Cu  Cu3  1  0.46205000  0.12546000  0.50669000  1.0
  Cu  Cu4  1  0.31171000  0.64225000  0.79293000  1.0
  Cu  Cu5  1  0.68827000  0.35775000  0.20706000  1.0
  H  H6  1  0.88013000  0.53710000  0.94660000  1.0
  H  H7  1  0.11987000  0.46290000  0.05340000  1.0
  H  H8  1  0.97955000  0.43546000  0.88812000  1.0
  H  H9  1  0.02045000  0.56454000  0.11187000  1.0
  H  H10  1  0.81977000  0.44375000  0.89829000  1.0
  H  H11  1  0.18023000  0.55625000  0.10171000  1.0
  H  H12  1  0.64810000  0.64173000  0.72040000  1.0
  H  H13  1  0.35189000  0.35826000  0.27959000  1.0
  H  H14  1  0.41216000  0.88688000  0.22320000  1.0
  H  H15  1  0.58786000  0.11313000  0.77679000  1.0
  H  H16  1  0.76785000  0.95236000  0.40723000  1.0
  H  H17  1  0.23214000  0.04765000  0.59277000  1.0
  H  H18  1  0.92945000  0.90188000  0.46846000  1.0
  H  H19  1  0.07054000  0.09812000  0.53155000  1.0
  H  H20  1  0.80448000  0.01425000  0.50063000  1.0
  H  H21  1  0.19551000  0.98576000  0.49937000  1.0
  H  H22  1  0.09720000  0.59209000  0.77609000  1.0
  H  H23  1  0.90280000  0.40791000  0.22391000  1.0
  H  H24  1  0.07735000  0.74065000  0.64574000  1.0
  H  H25  1  0.92264000  0.25935000  0.35426000  1.0
  H  H26  1  0.84138000  0.85066000  0.79905000  1.0
  H  H27  1  0.15861000  0.14935000  0.20096000  1.0
  H  H28  1  0.87121000  0.96492000  0.91613000  1.0
  H  H29  1  0.12879000  0.03508000  0.08387000  1.0
  H  H30  1  0.09267000  0.94871000  0.97207000  1.0
  H  H31  1  0.90734000  0.05128000  0.02795000  1.0
  H  H32  1  0.34849000  0.85519000  0.83401000  1.0
  H  H33  1  0.65151000  0.14479000  0.16599000  1.0
  H  H34  1  0.37077000  0.70124000  0.95848000  1.0
  H  H35  1  0.62923000  0.29875000  0.04153000  1.0
  H  H36  1  0.45804000  0.62975000  0.28139000  1.0
  H  H37  1  0.54197000  0.37026000  0.71861000  1.0
  H  H38  1  0.44762000  0.58937000  0.16583000  1.0
  H  H39  1  0.55241000  0.41063000  0.83417000  1.0
  H  H40  1  0.30885000  0.64171000  0.22463000  1.0
  H  H41  1  0.69117000  0.35829000  0.77538000  1.0
  H  H42  1  0.28993000  0.21768000  0.83979000  1.0
  H  H43  1  0.71009000  0.78231000  0.16020000  1.0
  H  H44  1  0.18524000  0.14968000  0.80294000  1.0
  H  H45  1  0.81477000  0.85031000  0.19706000  1.0
  H  H46  1  0.34367000  0.10457000  0.77667000  1.0
  H  H47  1  0.65635000  0.89542000  0.22333000  1.0
  C  C48  1  0.88229000  0.50341000  0.87915000  1.0
  C  C49  1  0.11770000  0.49659000  0.12084000  1.0
  C  C50  1  0.84085000  0.62230000  0.76019000  1.0
  C  C51  1  0.15914000  0.37771000  0.23981000  1.0
  C  C52  1  0.90401000  0.70755000  0.69127000  1.0
  C  C53  1  0.09598000  0.29246000  0.30873000  1.0
  C  C54  1  0.81704000  0.80513000  0.58767000  1.0
  C  C55  1  0.18294000  0.19488000  0.41233000  1.0
  C  C56  1  0.83123000  0.92410000  0.48555000  1.0
  C  C57  1  0.16876000  0.07590000  0.51445000  1.0
  C  C58  1  0.03389000  0.69951000  0.72433000  1.0
  C  C59  1  0.96610000  0.30049000  0.27568000  1.0
  C  C60  1  0.04146000  0.77340000  0.79396000  1.0
  C  C61  1  0.95853000  0.22660000  0.20604000  1.0
  C  C62  1  0.93552000  0.84565000  0.82503000  1.0
  C  C63  1  0.06447000  0.15435000  0.17497000  1.0
  C  C64  1  0.95282000  0.90954000  0.88999000  1.0
  C  C65  1  0.04718000  0.09046000  0.11002000  1.0
  C  C66  1  0.07484000  0.90045000  0.92142000  1.0
  C  C67  1  0.92517000  0.09954000  0.07859000  1.0
  C  C68  1  0.17718000  0.82676000  0.88796000  1.0
  C  C69  1  0.82283000  0.17323000  0.11204000  1.0
  C  C70  1  0.31294000  0.81115000  0.91711000  1.0
  C  C71  1  0.68707000  0.18884000  0.08290000  1.0
  C  C72  1  0.39787000  0.65875000  0.20092000  1.0
  C  C73  1  0.60215000  0.34125000  0.79908000  1.0
  C  C74  1  0.37299000  0.80309000  0.11387000  1.0
  C  C75  1  0.62702000  0.19691000  0.88612000  1.0
  C  C76  1  0.33500000  0.87153000  0.99263000  1.0
  C  C77  1  0.66501000  0.12847000  0.00737000  1.0
  C  C78  1  0.32372000  0.00870000  0.95699000  1.0
  C  C79  1  0.67629000  0.99129000  0.04301000  1.0
  C  C80  1  0.28363000  0.12677000  0.83763000  1.0
  C  C81  1  0.71639000  0.87321000  0.16236000  1.0
  C  C82  1  0.47913000  0.99672000  0.33968000  1.0
  C  C83  1  0.52087000  0.00329000  0.66032000  1.0
  C  C84  1  0.40021000  0.71092000  0.67564000  1.0
  C  C85  1  0.59978000  0.28909000  0.32435000  1.0
  C  C86  1  0.34259000  0.35084000  0.97203000  1.0
  C  C87  1  0.65740000  0.64916000  0.02797000  1.0
  N  N88  1  0.70808000  0.78002000  0.59259000  1.0
  N  N89  1  0.29192000  0.21998000  0.40741000  1.0
  N  N90  1  0.72496000  0.66949000  0.69702000  1.0
  N  N91  1  0.27503000  0.33051000  0.30298000  1.0
  N  N92  1  0.15980000  0.76402000  0.82579000  1.0
  N  N93  1  0.84020000  0.23598000  0.17421000  1.0
  N  N94  1  0.38343000  0.89753000  0.14367000  1.0
  N  N95  1  0.61659000  0.10246000  0.85632000  1.0
  N  N96  1  0.35435000  0.02281000  0.05043000  1.0
  N  N97  1  0.64566000  0.97718000  0.94956000  1.0
  N  N98  1  0.43817000  0.06868000  0.23939000  1.0
  N  N99  1  0.56184000  0.93133000  0.76061000  1.0
  N  N100  1  0.45527000  0.76095000  0.60097000  1.0
  N  N101  1  0.54471000  0.23907000  0.39901000  1.0
  N  N102  1  0.32988000  0.46397000  0.90445000  1.0
  N  N103  1  0.67010000  0.53603000  0.09554000  1.0
