# generated using pymatgen
data_ZnH12C12(BrN)2
_symmetry_space_group_name_H-M   'P 1'
_cell_length_a   5.52645000
_cell_length_b   9.00340000
_cell_length_c   13.85390000
_cell_angle_alpha   87.59880000
_cell_angle_beta   82.27760000
_cell_angle_gamma   83.04730000
_symmetry_Int_Tables_number   1
_chemical_formula_structural   ZnH12C12(BrN)2
_chemical_formula_sum   'Zn2 H24 C24 Br4 N4'
_cell_volume   677.82133983
_cell_formula_units_Z   2
loop_
 _symmetry_equiv_pos_site_id
 _symmetry_equiv_pos_as_xyz
  1  'x, y, z'
loop_
 _atom_site_type_symbol
 _atom_site_label
 _atom_site_symmetry_multiplicity
 _atom_site_fract_x
 _atom_site_fract_y
 _atom_site_fract_z
 _atom_site_occupancy
  Zn  Zn0  1  0.37289000  0.53879000  0.23966000  1.0
  Zn  Zn1  1  0.62711000  0.46121000  0.76035000  1.0
  H  H2  1  0.26749000  0.59841000  0.45306000  1.0
  H  H3  1  0.73249000  0.40160000  0.54694000  1.0
  H  H4  1  0.94426000  0.74354000  0.56595000  1.0
  H  H5  1  0.05571000  0.25647000  0.43405000  1.0
  H  H6  1  0.58007000  0.89088000  0.31507000  1.0
  H  H7  1  0.41993000  0.10912000  0.68493000  1.0
  H  H8  1  0.91581000  0.74300000  0.21361000  1.0
  H  H9  1  0.08419000  0.25701000  0.78639000  1.0
  H  H10  1  0.36715000  0.85961000  0.52321000  1.0
  H  H11  1  0.63283000  0.14040000  0.47678000  1.0
  H  H12  1  0.58567000  0.91446000  0.59084000  1.0
  H  H13  1  0.41431000  0.08555000  0.40915000  1.0
  H  H14  1  0.97199000  0.51959000  0.11356000  1.0
  H  H15  1  0.02803000  0.48041000  0.88643000  1.0
  H  H16  1  0.78811000  0.32108000  0.03975000  1.0
  H  H17  1  0.21191000  0.67891000  0.96024000  1.0
  H  H18  1  0.30491000  0.99527000  0.16526000  1.0
  H  H19  1  0.69509000  0.00472000  0.83475000  1.0
  H  H20  1  0.46895000  0.21016000  0.23608000  1.0
  H  H21  1  0.53104000  0.78984000  0.76393000  1.0
  H  H22  1  0.73414000  0.04614000  0.04576000  1.0
  H  H23  1  0.26587000  0.95384000  0.95425000  1.0
  H  H24  1  0.94961000  0.91376000  0.09685000  1.0
  H  H25  1  0.05040000  0.08623000  0.90316000  1.0
  C  C26  1  0.11264000  0.66660000  0.42576000  1.0
  C  C27  1  0.88736000  0.33341000  0.57424000  1.0
  C  C28  1  0.93103000  0.74809000  0.48800000  1.0
  C  C29  1  0.06897000  0.25192000  0.51200000  1.0
  C  C30  1  0.73342000  0.83312000  0.45071000  1.0
  C  C31  1  0.26657000  0.16689000  0.54929000  1.0
  C  C32  1  0.73012000  0.83095000  0.34979000  1.0
  C  C33  1  0.26988000  0.16906000  0.65021000  1.0
  C  C34  1  0.91834000  0.74770000  0.29193000  1.0
  C  C35  1  0.08166000  0.25230000  0.70806000  1.0
  C  C36  1  0.53204000  0.91870000  0.51717000  1.0
  C  C37  1  0.46794000  0.08131000  0.48283000  1.0
  C  C38  1  0.04206000  0.40227000  0.12375000  1.0
  C  C39  1  0.95795000  0.59773000  0.87625000  1.0
  C  C40  1  0.93917000  0.29059000  0.08280000  1.0
  C  C41  1  0.06084000  0.70940000  0.91720000  1.0
  C  C42  1  0.03035000  0.14049000  0.09707000  1.0
  C  C43  1  0.96966000  0.85950000  0.90293000  1.0
  C  C44  1  0.22471000  0.11041000  0.15318000  1.0
  C  C45  1  0.77530000  0.88959000  0.84683000  1.0
  C  C46  1  0.31778000  0.22794000  0.19196000  1.0
  C  C47  1  0.68223000  0.77206000  0.80805000  1.0
  C  C48  1  0.93065000  0.01640000  0.05147000  1.0
  C  C49  1  0.06936000  0.98359000  0.94854000  1.0
  Br  Br50  1  0.64673000  0.41409000  0.34386000  1.0
  Br  Br51  1  0.35326000  0.58591000  0.65614000  1.0
  Br  Br52  1  0.50483000  0.70546000  0.10885000  1.0
  Br  Br53  1  0.49520000  0.29451000  0.89115000  1.0
  N  N54  1  0.10771000  0.66685000  0.32879000  1.0
  N  N55  1  0.89228000  0.33316000  0.67121000  1.0
  N  N56  1  0.22822000  0.37216000  0.17777000  1.0
  N  N57  1  0.77179000  0.62783000  0.82223000  1.0
