# generated using pymatgen
data_H9PbC9NO5
_symmetry_space_group_name_H-M   'P 1'
_cell_length_a   7.31570000
_cell_length_b   8.88826000
_cell_length_c   9.22647529
_cell_angle_alpha   93.74735251
_cell_angle_beta   112.83146366
_cell_angle_gamma   101.75450000
_symmetry_Int_Tables_number   1
_chemical_formula_structural   H9PbC9NO5
_chemical_formula_sum   'H18 Pb2 C18 N2 O10'
_cell_volume   534.36303924
_cell_formula_units_Z   2
loop_
 _symmetry_equiv_pos_site_id
 _symmetry_equiv_pos_as_xyz
  1  'x, y, z'
loop_
 _atom_site_type_symbol
 _atom_site_label
 _atom_site_symmetry_multiplicity
 _atom_site_fract_x
 _atom_site_fract_y
 _atom_site_fract_z
 _atom_site_occupancy
  H  H0  1  0.37515000  0.65632000  0.28670000  1.0
  H  H1  1  0.62483000  0.34368000  0.71330000  1.0
  H  H2  1  0.44986000  0.66337000  0.14421000  1.0
  H  H3  1  0.55013000  0.33662000  0.85579000  1.0
  H  H4  1  0.81792000  0.58875000  0.90216000  1.0
  H  H5  1  0.18207000  0.41126000  0.09784000  1.0
  H  H6  1  0.17056000  0.10472000  0.75768000  1.0
  H  H7  1  0.82944000  0.89527000  0.24231000  1.0
  H  H8  1  0.14654000  0.92760000  0.64050000  1.0
  H  H9  1  0.85347000  0.07239000  0.35950000  1.0
  H  H10  1  0.38021000  0.02004000  0.80854000  1.0
  H  H11  1  0.61980000  0.97996000  0.19146000  1.0
  H  H12  1  0.45569000  0.92779000  0.36685000  1.0
  H  H13  1  0.54431000  0.07221000  0.63315000  1.0
  H  H14  1  0.23344000  0.96294000  0.37926000  1.0
  H  H15  1  0.76658000  0.03706000  0.62075000  1.0
  H  H16  1  0.38176000  0.10118000  0.30954000  1.0
  H  H17  1  0.61827000  0.89881000  0.69048000  1.0
  Pb  Pb18  1  0.69410000  0.45233000  0.36457000  1.0
  Pb  Pb19  1  0.30590000  0.54767000  0.63543000  1.0
  C  C20  1  0.87098000  0.68709000  0.65403000  1.0
  C  C21  1  0.12902000  0.31291000  0.34597000  1.0
  C  C22  1  0.98836000  0.76668000  0.82246000  1.0
  C  C23  1  0.01163000  0.23332000  0.17754000  1.0
  C  C24  1  0.14635000  0.90455000  0.87290000  1.0
  C  C25  1  0.85366000  0.09546000  0.12709000  1.0
  C  C26  1  0.20352000  0.89656000  0.13965000  1.0
  C  C27  1  0.79648000  0.10344000  0.86035000  1.0
  C  C28  1  0.05395000  0.75379000  0.09868000  1.0
  C  C29  1  0.94606000  0.24622000  0.90133000  1.0
  C  C30  1  0.94039000  0.69488000  0.93781000  1.0
  C  C31  1  0.05961000  0.30513000  0.06218000  1.0
  C  C32  1  0.21257000  0.99270000  0.76148000  1.0
  C  C33  1  0.78744000  0.00730000  0.23852000  1.0
  C  C34  1  0.32447000  0.97716000  0.30840000  1.0
  C  C35  1  0.67554000  0.02284000  0.69160000  1.0
  C  C36  1  0.02069000  0.65994000  0.22021000  1.0
  C  C37  1  0.97931000  0.34007000  0.77980000  1.0
  N  N38  1  0.24406000  0.96863000  0.02809000  1.0
  N  N39  1  0.75595000  0.03137000  0.97191000  1.0
  O  O40  1  0.67864000  0.63677000  0.60067000  1.0
  O  O41  1  0.32136000  0.36322000  0.39933000  1.0
  O  O42  1  0.96916000  0.66258000  0.56844000  1.0
  O  O43  1  0.03085000  0.33741000  0.43156000  1.0
  O  O44  1  0.18085000  0.65339000  0.33986000  1.0
  O  O45  1  0.81914000  0.34661000  0.66014000  1.0
  O  O46  1  0.83694000  0.58966000  0.19076000  1.0
  O  O47  1  0.16305000  0.41036000  0.80924000  1.0
  O  O48  1  0.49161000  0.65083000  0.25545000  1.0
  O  O49  1  0.50838000  0.34916000  0.74455000  1.0
