# generated using pymatgen
data_AlH11C16NO6
_symmetry_space_group_name_H-M   'P 1'
_cell_length_a   6.86094000
_cell_length_b   16.98960000
_cell_length_c   17.53000000
_cell_angle_alpha   81.95240000
_cell_angle_beta   82.82820000
_cell_angle_gamma   82.02410000
_symmetry_Int_Tables_number   1
_chemical_formula_structural   AlH11C16NO6
_chemical_formula_sum   'Al2 H22 C32 N2 O12'
_cell_volume   1992.07009424
_cell_formula_units_Z   2
loop_
 _symmetry_equiv_pos_site_id
 _symmetry_equiv_pos_as_xyz
  1  'x, y, z'
loop_
 _atom_site_type_symbol
 _atom_site_label
 _atom_site_symmetry_multiplicity
 _atom_site_fract_x
 _atom_site_fract_y
 _atom_site_fract_z
 _atom_site_occupancy
  Al  Al0  1  0.49997000  0.50007000  0.49999000  1.0
  Al  Al1  1  0.99998000  0.50009000  0.50001000  1.0
  H  H2  1  0.75825000  0.56438000  0.41200000  1.0
  H  H3  1  0.24176000  0.43564000  0.58794000  1.0
  H  H4  1  0.14699000  0.26108000  0.49661000  1.0
  H  H5  1  0.20776000  0.11310000  0.49652000  1.0
  H  H6  1  0.58121000  0.10681000  0.49838000  1.0
  H  H7  1  0.41882000  0.89334000  0.50160000  1.0
  H  H8  1  0.79234000  0.88704000  0.50336000  1.0
  H  H9  1  0.85307000  0.73905000  0.50333000  1.0
  H  H10  1  0.64898000  0.49591000  0.28035000  1.0
  H  H11  1  0.72805000  0.49592000  0.13811000  1.0
  H  H12  1  0.03365000  0.49664000  0.25628000  1.0
  H  H13  1  0.96554000  0.50556000  0.74343000  1.0
  H  H14  1  0.35187000  0.50105000  0.72007000  1.0
  H  H15  1  0.27328000  0.49981000  0.86246000  1.0
  H  H16  1  0.48626000  0.31843000  0.49671000  1.0
  H  H17  1  0.51381000  0.68170000  0.50329000  1.0
  H  H18  1  0.99324000  0.44276000  0.11483000  1.0
  H  H19  1  0.13160000  0.49657000  0.03759000  1.0
  H  H20  1  0.95949000  0.54974000  0.10205000  1.0
  H  H21  1  0.03608000  0.45091000  0.90081000  1.0
  H  H22  1  0.86664000  0.50926000  0.96161000  1.0
  H  H23  1  0.01068000  0.55769000  0.88228000  1.0
  C  C24  1  0.29306000  0.49979000  0.36192000  1.0
  C  C25  1  0.19902000  0.64453000  0.50071000  1.0
  C  C26  1  0.70688000  0.50023000  0.63809000  1.0
  C  C27  1  0.80100000  0.35560000  0.49930000  1.0
  C  C28  1  0.83074000  0.26843000  0.49754000  1.0
  C  C29  1  0.02395000  0.22693000  0.49700000  1.0
  C  C30  1  0.05891000  0.14501000  0.49703000  1.0
  C  C31  1  0.89677000  0.10183000  0.49797000  1.0
  C  C32  1  0.70414000  0.14126000  0.49788000  1.0
  C  C33  1  0.66865000  0.22458000  0.49743000  1.0
  C  C34  1  0.29589000  0.85890000  0.50209000  1.0
  C  C35  1  0.10328000  0.89833000  0.50197000  1.0
  C  C36  1  0.94117000  0.85515000  0.50289000  1.0
  C  C37  1  0.97608000  0.77323000  0.50295000  1.0
  C  C38  1  0.16930000  0.73172000  0.50243000  1.0
  C  C39  1  0.33139000  0.77558000  0.50255000  1.0
  C  C40  1  0.33553000  0.49743000  0.27683000  1.0
  C  C41  1  0.53257000  0.49656000  0.24331000  1.0
  C  C42  1  0.57680000  0.49636000  0.16433000  1.0
  C  C43  1  0.42713000  0.49704000  0.11604000  1.0
  C  C44  1  0.22821000  0.49667000  0.14936000  1.0
  C  C45  1  0.18593000  0.49685000  0.22945000  1.0
  C  C46  1  0.47776000  0.49839000  0.03505000  1.0
  C  C47  1  0.52281000  0.50022000  0.96516000  1.0
  C  C48  1  0.57321000  0.50180000  0.88413000  1.0
  C  C49  1  0.77149000  0.50404000  0.85056000  1.0
  C  C50  1  0.81370000  0.50407000  0.77044000  1.0
  C  C51  1  0.66450000  0.50221000  0.72323000  1.0
  C  C52  1  0.46802000  0.50136000  0.75697000  1.0
  C  C53  1  0.42401000  0.50096000  0.83603000  1.0
  C  C54  1  0.06934000  0.49642000  0.09821000  1.0
  C  C55  1  0.92993000  0.50569000  0.90152000  1.0
  N  N56  1  0.91263000  0.01775000  0.49899000  1.0
  N  N57  1  0.08745000  0.98239000  0.50094000  1.0
  O  O58  1  0.44315000  0.50357000  0.39713000  1.0
  O  O59  1  0.05017000  0.60877000  0.49684000  1.0
  O  O60  1  0.88468000  0.50142000  0.60655000  1.0
  O  O61  1  0.62061000  0.39084000  0.49780000  1.0
  O  O62  1  0.55682000  0.49652000  0.60284000  1.0
  O  O63  1  0.94979000  0.39138000  0.50321000  1.0
  O  O64  1  0.11522000  0.49877000  0.39345000  1.0
  O  O65  1  0.37944000  0.60930000  0.50218000  1.0
  O  O66  1  0.74842000  0.53754000  0.46467000  1.0
  O  O67  1  0.25154000  0.46259000  0.53531000  1.0
  O  O68  1  0.47981000  0.25976000  0.49728000  1.0
  O  O69  1  0.52024000  0.74037000  0.50272000  1.0
