# generated using pymatgen
data_AgPH20(C7O)3
_symmetry_space_group_name_H-M   'P 1'
_cell_length_a   7.82289000
_cell_length_b   10.99580000
_cell_length_c   10.99560000
_cell_angle_alpha   84.83480000
_cell_angle_beta   87.59980000
_cell_angle_gamma   87.59950000
_symmetry_Int_Tables_number   1
_chemical_formula_structural   AgPH20(C7O)3
_chemical_formula_sum   'Ag2 P2 H40 C42 O6'
_cell_volume   940.47194484
_cell_formula_units_Z   2
loop_
 _symmetry_equiv_pos_site_id
 _symmetry_equiv_pos_as_xyz
  1  'x, y, z'
loop_
 _atom_site_type_symbol
 _atom_site_label
 _atom_site_symmetry_multiplicity
 _atom_site_fract_x
 _atom_site_fract_y
 _atom_site_fract_z
 _atom_site_occupancy
  Ag  Ag0  1  0.42243000  0.84489000  0.62698000  1.0
  Ag  Ag1  1  0.92242000  0.62699000  0.84489000  1.0
  P  P2  1  0.53318000  0.03721000  0.61379000  1.0
  P  P3  1  0.03318000  0.61379000  0.03721000  1.0
  H  H4  1  0.51579000  0.42008000  0.72644000  1.0
  H  H5  1  0.01579000  0.72645000  0.42007000  1.0
  H  H6  1  0.71735000  0.45224000  0.65135000  1.0
  H  H7  1  0.21734000  0.65136000  0.45224000  1.0
  H  H8  1  0.56308000  0.53440000  0.95613000  1.0
  H  H9  1  0.06308000  0.95614000  0.53440000  1.0
  H  H10  1  0.69246000  0.41016000  0.02235000  1.0
  H  H11  1  0.19246000  0.02236000  0.41016000  1.0
  H  H12  1  0.50678000  0.38002000  0.94066000  1.0
  H  H13  1  0.00677000  0.94066000  0.38001000  1.0
  H  H14  1  0.53405000  0.95516000  0.37213000  1.0
  H  H15  1  0.03405000  0.37213000  0.95516000  1.0
  H  H16  1  0.69386000  0.01646000  0.17723000  1.0
  H  H17  1  0.19386000  0.17723000  0.01646000  1.0
  H  H18  1  0.91197000  0.17688000  0.17130000  1.0
  H  H19  1  0.41197000  0.17131000  0.17688000  1.0
  H  H20  1  0.97645000  0.26932000  0.36106000  1.0
  H  H21  1  0.47647000  0.36106000  0.26931000  1.0
  H  H22  1  0.82033000  0.20629000  0.55614000  1.0
  H  H23  1  0.32035000  0.55614000  0.20628000  1.0
  H  H24  1  0.50871000  0.29503000  0.49769000  1.0
  H  H25  1  0.00873000  0.49768000  0.29504000  1.0
  H  H26  1  0.29074000  0.46152000  0.52131000  1.0
  H  H27  1  0.79075000  0.52130000  0.46153000  1.0
  H  H28  1  0.03289000  0.42698000  0.65584000  1.0
  H  H29  1  0.53290000  0.65583000  0.42698000  1.0
  H  H30  1  0.99096000  0.22094000  0.76831000  1.0
  H  H31  1  0.49098000  0.76831000  0.22093000  1.0
  H  H32  1  0.20893000  0.05304000  0.74480000  1.0
  H  H33  1  0.70897000  0.74479000  0.05304000  1.0
  H  H34  1  0.54196000  0.20640000  0.81386000  1.0
  H  H35  1  0.04195000  0.81386000  0.20640000  1.0
  H  H36  1  0.72372000  0.19979000  0.99361000  1.0
  H  H37  1  0.22371000  0.99361000  0.19979000  1.0
  H  H38  1  0.95830000  0.03930000  0.02244000  1.0
  H  H39  1  0.45830000  0.02243000  0.03930000  1.0
  H  H40  1  0.01271000  0.88915000  0.86664000  1.0
  H  H41  1  0.51271000  0.86663000  0.88915000  1.0
  H  H42  1  0.82755000  0.89233000  0.69150000  1.0
  H  H43  1  0.32755000  0.69149000  0.89233000  1.0
  C  C44  1  0.57887000  0.60983000  0.71112000  1.0
  C  C45  1  0.07887000  0.71112000  0.60982000  1.0
  C  C46  1  0.63143000  0.47361000  0.72885000  1.0
  C  C47  1  0.13143000  0.72885000  0.47361000  1.0
  C  C48  1  0.61406000  0.44129000  0.94440000  1.0
  C  C49  1  0.11406000  0.94440000  0.44129000  1.0
  C  C50  1  0.66282000  0.07958000  0.47586000  1.0
  C  C51  1  0.16283000  0.47586000  0.07958000  1.0
  C  C52  1  0.62923000  0.02546000  0.36895000  1.0
  C  C53  1  0.12923000  0.36895000  0.02545000  1.0
  C  C54  1  0.71858000  0.06030000  0.25961000  1.0
  C  C55  1  0.21858000  0.25961000  0.06029000  1.0
  C  C56  1  0.84144000  0.14937000  0.25627000  1.0
  C  C57  1  0.34145000  0.25627000  0.14937000  1.0
  C  C58  1  0.87777000  0.20189000  0.36298000  1.0
  C  C59  1  0.37779000  0.36298000  0.20188000  1.0
  C  C60  1  0.78952000  0.16672000  0.47263000  1.0
  C  C61  1  0.28953000  0.47263000  0.16671000  1.0
  C  C62  1  0.37502000  0.16329000  0.62131000  1.0
  C  C63  1  0.87504000  0.62130000  0.16330000  1.0
  C  C64  1  0.39520000  0.27803000  0.55672000  1.0
  C  C65  1  0.89522000  0.55671000  0.27804000  1.0
  C  C66  1  0.27104000  0.37157000  0.56887000  1.0
  C  C67  1  0.77106000  0.56886000  0.37158000  1.0
  C  C68  1  0.12610000  0.35177000  0.64549000  1.0
  C  C69  1  0.62611000  0.64549000  0.35178000  1.0
  C  C70  1  0.10445000  0.23714000  0.70906000  1.0
  C  C71  1  0.60447000  0.70905000  0.23714000  1.0
  C  C72  1  0.22746000  0.14305000  0.69659000  1.0
  C  C73  1  0.72748000  0.69658000  0.14305000  1.0
  C  C74  1  0.67346000  0.05083000  0.73967000  1.0
  C  C75  1  0.17346000  0.73967000  0.05083000  1.0
  C  C76  1  0.64505000  0.13704000  0.82543000  1.0
  C  C77  1  0.14504000  0.82544000  0.13704000  1.0
  C  C78  1  0.74739000  0.13276000  0.92703000  1.0
  C  C79  1  0.24738000  0.92703000  0.13275000  1.0
  C  C80  1  0.87882000  0.04360000  0.94301000  1.0
  C  C81  1  0.37882000  0.94300000  0.04360000  1.0
  C  C82  1  0.90959000  0.95866000  0.85645000  1.0
  C  C83  1  0.40960000  0.85645000  0.95866000  1.0
  C  C84  1  0.80682000  0.96176000  0.75591000  1.0
  C  C85  1  0.30682000  0.75590000  0.96176000  1.0
  O  O86  1  0.47333000  0.63862000  0.62719000  1.0
  O  O87  1  0.97335000  0.62719000  0.63862000  1.0
  O  O88  1  0.63983000  0.68407000  0.77792000  1.0
  O  O89  1  0.13982000  0.77793000  0.68407000  1.0
  O  O90  1  0.72282000  0.43817000  0.83655000  1.0
  O  O91  1  0.22281000  0.83656000  0.43817000  1.0
