# generated using pymatgen
data_K2H8C9SO11
_symmetry_space_group_name_H-M   'P 1'
_cell_length_a   7.19304000
_cell_length_b   11.39500000
_cell_length_c   16.92270000
_cell_angle_alpha   95.87860000
_cell_angle_beta   89.99990000
_cell_angle_gamma   90.00000000
_symmetry_Int_Tables_number   1
_chemical_formula_structural   K2H8C9SO11
_chemical_formula_sum   'K8 H32 C36 S4 O44'
_cell_volume   1379.76949938
_cell_formula_units_Z   4
loop_
 _symmetry_equiv_pos_site_id
 _symmetry_equiv_pos_as_xyz
  1  'x, y, z'
loop_
 _atom_site_type_symbol
 _atom_site_label
 _atom_site_symmetry_multiplicity
 _atom_site_fract_x
 _atom_site_fract_y
 _atom_site_fract_z
 _atom_site_occupancy
  K  K0  1  0.65639000  0.37348000  0.83766000  1.0
  K  K1  1  0.15638000  0.12652000  0.66234000  1.0
  K  K2  1  0.34361000  0.62652000  0.16234000  1.0
  K  K3  1  0.84361000  0.87348000  0.33766000  1.0
  K  K4  1  0.15685000  0.57279000  0.90592000  1.0
  K  K5  1  0.65685000  0.92720000  0.59408000  1.0
  K  K6  1  0.84315000  0.42720000  0.09408000  1.0
  K  K7  1  0.34316000  0.07279000  0.40593000  1.0
  H  H8  1  0.86009000  0.19425000  0.97199000  1.0
  H  H9  1  0.36008000  0.30575000  0.52801000  1.0
  H  H10  1  0.13991000  0.80575000  0.02801000  1.0
  H  H11  1  0.63991000  0.69425000  0.47198000  1.0
  H  H12  1  0.77157000  0.64335000  0.67282000  1.0
  H  H13  1  0.27156000  0.85665000  0.82718000  1.0
  H  H14  1  0.22844000  0.35665000  0.32718000  1.0
  H  H15  1  0.72843000  0.14335000  0.17282000  1.0
  H  H16  1  0.51007000  0.14949000  0.75480000  1.0
  H  H17  1  0.01007000  0.35052000  0.74520000  1.0
  H  H18  1  0.48993000  0.85051000  0.24520000  1.0
  H  H19  1  0.98993000  0.64948000  0.25480000  1.0
  H  H20  1  0.39640000  0.09018000  0.82146000  1.0
  H  H21  1  0.89640000  0.40982000  0.67854000  1.0
  H  H22  1  0.60360000  0.90982000  0.17854000  1.0
  H  H23  1  0.10360000  0.59018000  0.32146000  1.0
  H  H24  1  0.25456000  0.29182000  0.81476000  1.0
  H  H25  1  0.75455000  0.20818000  0.68524000  1.0
  H  H26  1  0.74545000  0.70818000  0.18524000  1.0
  H  H27  1  0.24544000  0.79182000  0.31476000  1.0
  H  H28  1  0.06925000  0.29849000  0.86148000  1.0
  H  H29  1  0.56925000  0.20151000  0.63852000  1.0
  H  H30  1  0.93075000  0.70151000  0.13852000  1.0
  H  H31  1  0.43075000  0.79849000  0.36148000  1.0
  H  H32  1  0.87623000  0.91345000  0.77538000  1.0
  H  H33  1  0.37624000  0.58655000  0.72462000  1.0
  H  H34  1  0.12377000  0.08655000  0.22462000  1.0
  H  H35  1  0.62377000  0.41345000  0.27538000  1.0
  H  H36  1  0.65506000  0.85526000  0.04371000  1.0
  H  H37  1  0.15506000  0.64474000  0.45630000  1.0
  H  H38  1  0.34495000  0.14474000  0.95629000  1.0
  H  H39  1  0.84494000  0.35526000  0.54371000  1.0
  C  C40  1  0.76634000  0.98138000  0.97016000  1.0
  C  C41  1  0.26633000  0.51862000  0.52984000  1.0
  C  C42  1  0.23366000  0.01862000  0.02984000  1.0
  C  C43  1  0.73366000  0.48139000  0.47016000  1.0
  C  C44  1  0.82727000  0.99745000  0.89194000  1.0
  C  C45  1  0.32726000  0.50255000  0.60806000  1.0
  C  C46  1  0.17274000  0.00255000  0.10805000  1.0
  C  C47  1  0.67274000  0.49745000  0.39195000  1.0
  C  C48  1  0.82815000  0.89941000  0.83463000  1.0
  C  C49  1  0.32814000  0.60059000  0.66537000  1.0
  C  C50  1  0.17185000  0.10059000  0.16537000  1.0
  C  C51  1  0.67185000  0.39941000  0.33463000  1.0
  C  C52  1  0.77695000  0.78646000  0.85069000  1.0
  C  C53  1  0.27694000  0.71354000  0.64931000  1.0
  C  C54  1  0.22305000  0.21354000  0.14931000  1.0
  C  C55  1  0.72306000  0.28645000  0.35069000  1.0
  C  C56  1  0.71418000  0.77178000  0.92775000  1.0
  C  C57  1  0.21417000  0.72822000  0.57225000  1.0
  C  C58  1  0.28582000  0.22822000  0.07225000  1.0
  C  C59  1  0.78582000  0.27179000  0.42775000  1.0
  C  C60  1  0.70794000  0.86812000  0.98501000  1.0
  C  C61  1  0.20794000  0.63188000  0.51499000  1.0
  C  C62  1  0.29206000  0.13188000  0.01499000  1.0
  C  C63  1  0.79206000  0.36812000  0.48501000  1.0
  C  C64  1  0.75872000  0.07199000  0.04202000  1.0
  C  C65  1  0.25872000  0.42801000  0.45798000  1.0
  C  C66  1  0.24127000  0.92801000  0.95797000  1.0
  C  C67  1  0.74128000  0.57199000  0.54202000  1.0
  C  C68  1  0.89605000  0.10828000  0.85879000  1.0
  C  C69  1  0.39604000  0.39172000  0.64121000  1.0
  C  C70  1  0.10396000  0.89172000  0.14121000  1.0
  C  C71  1  0.60396000  0.60828000  0.35879000  1.0
  C  C72  1  0.80314000  0.68717000  0.78596000  1.0
  C  C73  1  0.30313000  0.81283000  0.71405000  1.0
  C  C74  1  0.19687000  0.31283000  0.21405000  1.0
  C  C75  1  0.69686000  0.18716000  0.28596000  1.0
  S  S76  1  0.62885000  0.63343000  0.95444000  1.0
  S  S77  1  0.12885000  0.86657000  0.54556000  1.0
  S  S78  1  0.37115000  0.36657000  0.04556000  1.0
  S  S79  1  0.87115000  0.13343000  0.45444000  1.0
  O  O80  1  0.69997000  0.04116000  0.10704000  1.0
  O  O81  1  0.19997000  0.45884000  0.39296000  1.0
  O  O82  1  0.30003000  0.95884000  0.89296000  1.0
  O  O83  1  0.80003000  0.54117000  0.60704000  1.0
  O  O84  1  0.81525000  0.17861000  0.03727000  1.0
  O  O85  1  0.31526000  0.32139000  0.46273000  1.0
  O  O86  1  0.18474000  0.82139000  0.96273000  1.0
  O  O87  1  0.68474000  0.67861000  0.53727000  1.0
  O  O88  1  0.90413000  0.20796000  0.90532000  1.0
  O  O89  1  0.40411000  0.29204000  0.59468000  1.0
  O  O90  1  0.09588000  0.79204000  0.09468000  1.0
  O  O91  1  0.59588000  0.70795000  0.40532000  1.0
  O  O92  1  0.94266000  0.10358000  0.78812000  1.0
  O  O93  1  0.44266000  0.39642000  0.71189000  1.0
  O  O94  1  0.05734000  0.89642000  0.21188000  1.0
  O  O95  1  0.55733000  0.60357000  0.28811000  1.0
  O  O96  1  0.74312000  0.71307000  0.71590000  1.0
  O  O97  1  0.24312000  0.78693000  0.78410000  1.0
  O  O98  1  0.25689000  0.28693000  0.28410000  1.0
  O  O99  1  0.75687000  0.21307000  0.21590000  1.0
  O  O100  1  0.88099000  0.59364000  0.79706000  1.0
  O  O101  1  0.38098000  0.90636000  0.70294000  1.0
  O  O102  1  0.11900000  0.40636000  0.20294000  1.0
  O  O103  1  0.61903000  0.09364000  0.29706000  1.0
  O  O104  1  0.52043000  0.58590000  0.88467000  1.0
  O  O105  1  0.02042000  0.91410000  0.61533000  1.0
  O  O106  1  0.47957000  0.41410000  0.11533000  1.0
  O  O107  1  0.97958000  0.08590000  0.38467000  1.0
  O  O108  1  0.51564000  0.66167000  0.02544000  1.0
  O  O109  1  0.01565000  0.83832000  0.47456000  1.0
  O  O110  1  0.48436000  0.33833000  0.97456000  1.0
  O  O111  1  0.98437000  0.16168000  0.52544000  1.0
  O  O112  1  0.79414000  0.56153000  0.96811000  1.0
  O  O113  1  0.29414000  0.93847000  0.53189000  1.0
  O  O114  1  0.20586000  0.43847000  0.03189000  1.0
  O  O115  1  0.70587000  0.06153000  0.46812000  1.0
  O  O116  1  0.42119000  0.16529000  0.80012000  1.0
  O  O117  1  0.92118000  0.33471000  0.69989000  1.0
  O  O118  1  0.57881000  0.83471000  0.19988000  1.0
  O  O119  1  0.07881000  0.66529000  0.30012000  1.0
  O  O120  1  0.14806000  0.34506000  0.82824000  1.0
  O  O121  1  0.64805000  0.15494000  0.67176000  1.0
  O  O122  1  0.85194000  0.65494000  0.17176000  1.0
  O  O123  1  0.35194000  0.84506000  0.32824000  1.0
