# generated using pymatgen
data_CdH6C6S3N2O5
_symmetry_space_group_name_H-M   'P 1'
_cell_length_a   5.12398000
_cell_length_b   10.27640000
_cell_length_c   20.93210000
_cell_angle_alpha   90.00000000
_cell_angle_beta   90.00000000
_cell_angle_gamma   90.00000000
_symmetry_Int_Tables_number   1
_chemical_formula_structural   CdH6C6S3N2O5
_chemical_formula_sum   'Cd4 H24 C24 S12 N8 O20'
_cell_volume   1102.20208249
_cell_formula_units_Z   4
loop_
 _symmetry_equiv_pos_site_id
 _symmetry_equiv_pos_as_xyz
  1  'x, y, z'
loop_
 _atom_site_type_symbol
 _atom_site_label
 _atom_site_symmetry_multiplicity
 _atom_site_fract_x
 _atom_site_fract_y
 _atom_site_fract_z
 _atom_site_occupancy
  Cd  Cd0  1  0.80370000  0.09780000  0.96335000  1.0
  Cd  Cd1  1  0.69630000  0.90220000  0.46335000  1.0
  Cd  Cd2  1  0.30370000  0.40220000  0.03665000  1.0
  Cd  Cd3  1  0.19630000  0.59780000  0.53665000  1.0
  H  H4  1  0.28721000  0.23081000  0.93046000  1.0
  H  H5  1  0.21279000  0.76919000  0.43046000  1.0
  H  H6  1  0.78721000  0.26919000  0.06954000  1.0
  H  H7  1  0.71279000  0.73081000  0.56954000  1.0
  H  H8  1  0.03789000  0.31936000  0.91936000  1.0
  H  H9  1  0.46211000  0.68064000  0.41936000  1.0
  H  H10  1  0.53789000  0.18064000  0.08064000  1.0
  H  H11  1  0.96211000  0.81936000  0.58064000  1.0
  H  H12  1  0.28780000  0.39344000  0.82762000  1.0
  H  H13  1  0.21220000  0.60656000  0.32762000  1.0
  H  H14  1  0.78780000  0.10656000  0.17238000  1.0
  H  H15  1  0.71220000  0.89344000  0.67238000  1.0
  H  H16  1  0.44431000  0.29130000  0.77288000  1.0
  H  H17  1  0.05569000  0.70870000  0.27288000  1.0
  H  H18  1  0.94431000  0.20870000  0.22712000  1.0
  H  H19  1  0.55569000  0.79130000  0.72712000  1.0
  H  H20  1  0.97985000  0.08965000  0.59650000  1.0
  H  H21  1  0.52015000  0.91036000  0.09650000  1.0
  H  H22  1  0.47985000  0.41035000  0.40350000  1.0
  H  H23  1  0.02015000  0.58964000  0.90350000  1.0
  H  H24  1  0.95059000  0.20072000  0.53098000  1.0
  H  H25  1  0.54941000  0.79928000  0.03098000  1.0
  H  H26  1  0.45059000  0.29928000  0.46902000  1.0
  H  H27  1  0.04941000  0.70072000  0.96902000  1.0
  C  C28  1  0.66964000  0.32815000  0.85782000  1.0
  C  C29  1  0.83036000  0.67185000  0.35781000  1.0
  C  C30  1  0.16964000  0.17185000  0.14219000  1.0
  C  C31  1  0.33036000  0.82815000  0.64219000  1.0
  C  C32  1  0.47894000  0.37250000  0.80607000  1.0
  C  C33  1  0.02106000  0.62750000  0.30607000  1.0
  C  C34  1  0.97894000  0.12750000  0.19393000  1.0
  C  C35  1  0.52106000  0.87250000  0.69393000  1.0
  C  C36  1  0.80005000  0.46171000  0.71007000  1.0
  C  C37  1  0.69995000  0.53829000  0.21007000  1.0
  C  C38  1  0.30005000  0.03829000  0.28993000  1.0
  C  C39  1  0.19995000  0.96171000  0.78993000  1.0
  C  C40  1  0.10249000  0.35412000  0.63971000  1.0
  C  C41  1  0.39751000  0.64588000  0.13971000  1.0
  C  C42  1  0.60249000  0.14588000  0.36029000  1.0
  C  C43  1  0.89751000  0.85412000  0.86029000  1.0
  C  C44  1  0.23935000  0.05032000  0.51887000  1.0
  C  C45  1  0.26065000  0.94968000  0.01887000  1.0
  C  C46  1  0.73935000  0.44968000  0.48113000  1.0
  C  C47  1  0.76065000  0.55032000  0.98113000  1.0
  C  C48  1  0.08804000  0.14530000  0.56046000  1.0
  C  C49  1  0.41196000  0.85470000  0.06046000  1.0
  C  C50  1  0.58805000  0.35470000  0.43954000  1.0
  C  C51  1  0.91196000  0.64530000  0.93954000  1.0
  S  S52  1  0.56266000  0.51712000  0.76209000  1.0
  S  S53  1  0.93734000  0.48288000  0.26209000  1.0
  S  S54  1  0.06266000  0.98288000  0.23791000  1.0
  S  S55  1  0.43734000  0.01712000  0.73791000  1.0
  S  S56  1  0.91191000  0.30242000  0.70362000  1.0
  S  S57  1  0.58809000  0.69758000  0.20362000  1.0
  S  S58  1  0.41191000  0.19758000  0.29638000  1.0
  S  S59  1  0.08809000  0.80242000  0.79638000  1.0
  S  S60  1  0.31998000  0.25484000  0.59887000  1.0
  S  S61  1  0.18002000  0.74516000  0.09887000  1.0
  S  S62  1  0.81998000  0.24516000  0.40113000  1.0
  S  S63  1  0.68002000  0.75484000  0.90113000  1.0
  N  N64  1  0.90896000  0.54235000  0.66870000  1.0
  N  N65  1  0.59105000  0.45765000  0.16870000  1.0
  N  N66  1  0.40895000  0.95765000  0.33130000  1.0
  N  N67  1  0.09105000  0.04235000  0.83130000  1.0
  N  N68  1  0.07502000  0.48008000  0.62877000  1.0
  N  N69  1  0.42498000  0.51992000  0.12877000  1.0
  N  N70  1  0.57502000  0.01992000  0.37123000  1.0
  N  N71  1  0.92497000  0.98008000  0.87123000  1.0
  O  O72  1  0.58556000  0.23405000  0.89188000  1.0
  O  O73  1  0.91444000  0.76595000  0.39188000  1.0
  O  O74  1  0.08556000  0.26595000  0.10812000  1.0
  O  O75  1  0.41444000  0.73405000  0.60812000  1.0
  O  O76  1  0.13216000  0.26564000  0.95365000  1.0
  O  O77  1  0.36783000  0.73436000  0.45365000  1.0
  O  O78  1  0.63216000  0.23436000  0.04635000  1.0
  O  O79  1  0.86784000  0.76564000  0.54635000  1.0
  O  O80  1  0.88867000  0.38302000  0.86304000  1.0
  O  O81  1  0.61133000  0.61697000  0.36304000  1.0
  O  O82  1  0.38867000  0.11697000  0.13696000  1.0
  O  O83  1  0.11133000  0.88302000  0.63696000  1.0
  O  O84  1  0.11768000  0.98404000  0.47786000  1.0
  O  O85  1  0.38232000  0.01596000  0.97786000  1.0
  O  O86  1  0.61768000  0.51596000  0.52214000  1.0
  O  O87  1  0.88232000  0.48404000  0.02214000  1.0
  O  O88  1  0.48600000  0.04452000  0.52818000  1.0
  O  O89  1  0.01400000  0.95548000  0.02818000  1.0
  O  O90  1  0.98600000  0.45548000  0.47182000  1.0
  O  O91  1  0.51400000  0.54452000  0.97182000  1.0
