# generated using pymatgen
data_MnH19C25(NO2)2
_symmetry_space_group_name_H-M   'P 1'
_cell_length_a   9.93670000
_cell_length_b   10.81590000
_cell_length_c   11.23170000
_cell_angle_alpha   112.24100000
_cell_angle_beta   102.99900000
_cell_angle_gamma   101.29400000
_symmetry_Int_Tables_number   1
_chemical_formula_structural   MnH19C25(NO2)2
_chemical_formula_sum   'Mn2 H38 C50 N4 O8'
_cell_volume   1034.49367661
_cell_formula_units_Z   2
loop_
 _symmetry_equiv_pos_site_id
 _symmetry_equiv_pos_as_xyz
  1  'x, y, z'
loop_
 _atom_site_type_symbol
 _atom_site_label
 _atom_site_symmetry_multiplicity
 _atom_site_fract_x
 _atom_site_fract_y
 _atom_site_fract_z
 _atom_site_occupancy
  Mn  Mn0  1  0.95596000  0.08808000  0.60349000  1.0
  Mn  Mn1  1  0.04404000  0.91191000  0.39651000  1.0
  H  H2  1  0.78875000  0.00391000  0.06639000  1.0
  H  H3  1  0.21125000  0.99609000  0.93361000  1.0
  H  H4  1  0.32292000  0.01079000  0.16204000  1.0
  H  H5  1  0.67708000  0.98920000  0.83796000  1.0
  H  H6  1  0.54269000  0.03697000  0.34061000  1.0
  H  H7  1  0.45731000  0.96302000  0.65939000  1.0
  H  H8  1  0.38220000  0.20943000  0.39636000  1.0
  H  H9  1  0.61780000  0.79057000  0.60364000  1.0
  H  H10  1  0.44742000  0.70481000  0.70977000  1.0
  H  H11  1  0.55256000  0.29519000  0.29022000  1.0
  H  H12  1  0.28470000  0.50572000  0.72001000  1.0
  H  H13  1  0.71529000  0.49428000  0.27999000  1.0
  H  H14  1  0.74246000  0.28548000  0.62223000  1.0
  H  H15  1  0.25754000  0.71451000  0.37777000  1.0
  H  H16  1  0.02787000  0.11232000  0.91308000  1.0
  H  H17  1  0.97213000  0.88769000  0.08692000  1.0
  H  H18  1  0.83151000  0.50364000  0.13236000  1.0
  H  H19  1  0.16849000  0.49636000  0.86764000  1.0
  H  H20  1  0.12691000  0.11362000  0.12343000  1.0
  H  H21  1  0.87310000  0.88638000  0.87657000  1.0
  H  H22  1  0.03734000  0.16350000  0.24540000  1.0
  H  H23  1  0.96266000  0.83650000  0.75459000  1.0
  H  H24  1  0.19501000  0.28429000  0.26135000  1.0
  H  H25  1  0.80499000  0.71571000  0.73866000  1.0
  H  H26  1  0.95626000  0.52851000  0.35061000  1.0
  H  H27  1  0.04374000  0.47149000  0.64938000  1.0
  H  H28  1  0.10375000  0.45937000  0.36825000  1.0
  H  H29  1  0.89625000  0.54064000  0.63175000  1.0
  H  H30  1  0.93070000  0.36012000  0.34914000  1.0
  H  H31  1  0.06930000  0.63989000  0.65085000  1.0
  H  H32  1  0.64047000  0.46102000  0.73931000  1.0
  H  H33  1  0.35953000  0.53898000  0.26068000  1.0
  H  H34  1  0.78378000  0.58621000  0.89001000  1.0
  H  H35  1  0.21623000  0.41379000  0.10999000  1.0
  H  H36  1  0.69393000  0.71485000  0.05127000  1.0
  H  H37  1  0.30608000  0.28515000  0.94873000  1.0
  H  H38  1  0.47843000  0.26834000  0.81950000  1.0
  H  H39  1  0.52158000  0.73166000  0.18050000  1.0
  C  C40  1  0.80845000  0.03643000  0.31968000  1.0
  C  C41  1  0.19155000  0.96356000  0.68031000  1.0
  C  C42  1  0.67859000  0.02237000  0.21272000  1.0
  C  C43  1  0.32141000  0.97763000  0.78728000  1.0
  C  C44  1  0.68712000  0.00717000  0.08694000  1.0
  C  C45  1  0.31287000  0.99283000  0.91307000  1.0
  C  C46  1  0.56689000  0.99894000  0.98592000  1.0
  C  C47  1  0.43310000  0.00106000  0.01408000  1.0
  C  C48  1  0.42582000  0.01224000  0.14258000  1.0
  C  C49  1  0.57417000  0.98775000  0.85743000  1.0
  C  C50  1  0.54649000  0.02540000  0.24077000  1.0
  C  C51  1  0.45351000  0.97459000  0.75923000  1.0
  C  C52  1  0.21304000  0.22550000  0.55115000  1.0
  C  C53  1  0.78696000  0.77451000  0.44886000  1.0
  C  C54  1  0.32194000  0.34568000  0.55562000  1.0
  C  C55  1  0.67805000  0.65432000  0.44439000  1.0
  C  C56  1  0.39836000  0.31834000  0.46442000  1.0
  C  C57  1  0.60163000  0.68166000  0.53558000  1.0
  C  C58  1  0.49198000  0.42875000  0.45552000  1.0
  C  C59  1  0.50801000  0.57125000  0.54448000  1.0
  C  C60  1  0.43237000  0.59649000  0.64050000  1.0
  C  C61  1  0.56762000  0.40351000  0.35950000  1.0
  C  C62  1  0.34190000  0.48649000  0.64619000  1.0
  C  C63  1  0.65810000  0.51351000  0.35381000  1.0
  C  C64  1  0.78732000  0.28823000  0.72112000  1.0
  C  C65  1  0.21268000  0.71177000  0.27888000  1.0
  C  C66  1  0.84347000  0.35312000  0.94341000  1.0
  C  C67  1  0.15654000  0.64689000  0.05659000  1.0
  C  C68  1  0.90193000  0.24570000  0.88272000  1.0
  C  C69  1  0.09807000  0.75431000  0.11728000  1.0
  C  C70  1  0.98193000  0.19399000  0.96092000  1.0
  C  C71  1  0.01808000  0.80601000  0.03909000  1.0
  C  C72  1  0.00545000  0.25237000  0.10065000  1.0
  C  C73  1  0.99456000  0.74763000  0.89935000  1.0
  C  C74  1  0.95166000  0.36525000  0.16294000  1.0
  C  C75  1  0.04835000  0.63476000  0.83706000  1.0
  C  C76  1  0.86987000  0.41575000  0.08406000  1.0
  C  C77  1  0.13014000  0.58425000  0.91593000  1.0
  C  C78  1  0.09498000  0.20067000  0.18659000  1.0
  C  C79  1  0.90503000  0.79933000  0.81341000  1.0
  C  C80  1  0.98690000  0.43220000  0.31523000  1.0
  C  C81  1  0.01310000  0.56781000  0.68476000  1.0
  C  C82  1  0.69893000  0.48420000  0.84476000  1.0
  C  C83  1  0.30107000  0.51580000  0.15524000  1.0
  C  C84  1  0.59653000  0.49077000  0.92570000  1.0
  C  C85  1  0.40347000  0.50923000  0.07430000  1.0
  C  C86  1  0.60808000  0.62058000  0.02782000  1.0
  C  C87  1  0.39193000  0.37942000  0.97218000  1.0
  C  C88  1  0.48818000  0.37015000  0.89859000  1.0
  C  C89  1  0.51184000  0.62985000  0.10141000  1.0
  N  N90  1  0.86665000  0.20884000  0.74410000  1.0
  N  N91  1  0.13335000  0.79116000  0.25590000  1.0
  N  N92  1  0.76926000  0.37600000  0.83645000  1.0
  N  N93  1  0.23074000  0.62400000  0.16354000  1.0
  O  O94  1  0.82323000  0.11217000  0.44328000  1.0
  O  O95  1  0.17678000  0.88783000  0.55672000  1.0
  O  O96  1  0.89678000  0.97160000  0.28046000  1.0
  O  O97  1  0.10321000  0.02838000  0.71953000  1.0
  O  O98  1  0.13378000  0.25197000  0.62676000  1.0
  O  O99  1  0.86622000  0.74802000  0.37326000  1.0
  O  O100  1  0.20428000  0.10256000  0.46787000  1.0
  O  O101  1  0.79570000  0.89744000  0.53212000  1.0
