# generated using pymatgen
data_MgH8C9(NO3)2
_symmetry_space_group_name_H-M   'P 1'
_cell_length_a   7.29729000
_cell_length_b   7.42990000
_cell_length_c   10.18505953
_cell_angle_alpha   68.60430098
_cell_angle_beta   86.99177097
_cell_angle_gamma   81.72630000
_symmetry_Int_Tables_number   1
_chemical_formula_structural   MgH8C9(NO3)2
_chemical_formula_sum   'Mg2 H16 C18 N4 O12'
_cell_volume   508.80666379
_cell_formula_units_Z   2
loop_
 _symmetry_equiv_pos_site_id
 _symmetry_equiv_pos_as_xyz
  1  'x, y, z'
loop_
 _atom_site_type_symbol
 _atom_site_label
 _atom_site_symmetry_multiplicity
 _atom_site_fract_x
 _atom_site_fract_y
 _atom_site_fract_z
 _atom_site_occupancy
  Mg  Mg0  1  0.36633000  0.96943000  0.62180000  1.0
  Mg  Mg1  1  0.86626000  0.59130000  0.37820000  1.0
  H  H2  1  0.41430000  0.21523000  0.87688000  1.0
  H  H3  1  0.91445000  0.09197000  0.12329000  1.0
  H  H4  1  0.37583000  0.17504000  0.18555000  1.0
  H  H5  1  0.87618000  0.36039000  0.81452000  1.0
  H  H6  1  0.24460000  0.90521000  0.94610000  1.0
  H  H7  1  0.74454000  0.85126000  0.05378000  1.0
  H  H8  1  0.40341000  0.49580000  0.65263000  1.0
  H  H9  1  0.90338000  0.14842000  0.34746000  1.0
  H  H10  1  0.02517000  0.10306000  0.71933000  1.0
  H  H11  1  0.52520000  0.82266000  0.28064000  1.0
  H  H12  1  0.13269000  0.25518000  0.60112000  1.0
  H  H13  1  0.63267000  0.85639000  0.39896000  1.0
  H  H14  1  0.10969000  0.79794000  0.53264000  1.0
  H  H15  1  0.60943000  0.33086000  0.46735000  1.0
  H  H16  1  0.22714000  0.90587000  0.39842000  1.0
  H  H17  1  0.72699000  0.30444000  0.60153000  1.0
  C  C18  1  0.27196000  0.35744000  0.36886000  1.0
  C  C19  1  0.77204000  0.72620000  0.63112000  1.0
  C  C20  1  0.29126000  0.45151000  0.21155000  1.0
  C  C21  1  0.79144000  0.66291000  0.78843000  1.0
  C  C22  1  0.34577000  0.33226000  0.13295000  1.0
  C  C23  1  0.84608000  0.46507000  0.86706000  1.0
  C  C24  1  0.35120000  0.42249000  0.98667000  1.0
  C  C25  1  0.85147000  0.40906000  0.01336000  1.0
  C  C26  1  0.31815000  0.62834000  0.91950000  1.0
  C  C27  1  0.81830000  0.54775000  0.08050000  1.0
  C  C28  1  0.27018000  0.74717000  0.99802000  1.0
  C  C29  1  0.77022000  0.74512000  0.00191000  1.0
  C  C30  1  0.25134000  0.65680000  0.14304000  1.0
  C  C31  1  0.75141000  0.79970000  0.85690000  1.0
  C  C32  1  0.18519000  0.78894000  0.22171000  1.0
  C  C33  1  0.68523000  0.01056000  0.77821000  1.0
  C  C34  1  0.37727000  0.51130000  0.75418000  1.0
  C  C35  1  0.87738000  0.26547000  0.24587000  1.0
  N  N36  1  0.33796000  0.67930000  0.77494000  1.0
  N  N37  1  0.83801000  0.45423000  0.22507000  1.0
  N  N38  1  0.38671000  0.35423000  0.87645000  1.0
  N  N39  1  0.88691000  0.23061000  0.12363000  1.0
  O  O40  1  0.01381000  0.81102000  0.25083000  1.0
  O  O41  1  0.51383000  0.06179000  0.74917000  1.0
  O  O42  1  0.30093000  0.88215000  0.24957000  1.0
  O  O43  1  0.80099000  0.13159000  0.75030000  1.0
  O  O44  1  0.13349000  0.42072000  0.43025000  1.0
  O  O45  1  0.63360000  0.85093000  0.56979000  1.0
  O  O46  1  0.39486000  0.21681000  0.43498000  1.0
  O  O47  1  0.89484000  0.65163000  0.56495000  1.0
  O  O48  1  0.15185000  0.13246000  0.68567000  1.0
  O  O49  1  0.65186000  0.81838000  0.31434000  1.0
  O  O50  1  0.19527000  0.89585000  0.49751000  1.0
  O  O51  1  0.69492000  0.39369000  0.50252000  1.0
