# generated using pymatgen
data_NiH14C24(NO2)4
_symmetry_space_group_name_H-M   'P 1'
_cell_length_a   8.75664000
_cell_length_b   11.66710000
_cell_length_c   11.66710000
_cell_angle_alpha   108.63300000
_cell_angle_beta   93.61420000
_cell_angle_gamma   93.61410000
_symmetry_Int_Tables_number   1
_chemical_formula_structural   NiH14C24(NO2)4
_chemical_formula_sum   'Ni2 H28 C48 N8 O16'
_cell_volume   1122.87231195
_cell_formula_units_Z   2
loop_
 _symmetry_equiv_pos_site_id
 _symmetry_equiv_pos_as_xyz
  1  'x, y, z'
loop_
 _atom_site_type_symbol
 _atom_site_label
 _atom_site_symmetry_multiplicity
 _atom_site_fract_x
 _atom_site_fract_y
 _atom_site_fract_z
 _atom_site_occupancy
  Ni  Ni0  1  0.75000000  0.55854000  0.44146000  1.0
  Ni  Ni1  1  0.25000000  0.44146000  0.55854000  1.0
  H  H2  1  0.53918000  0.37056000  0.09479000  1.0
  H  H3  1  0.96081000  0.90521000  0.62944000  1.0
  H  H4  1  0.46081000  0.62944000  0.90521000  1.0
  H  H5  1  0.03919000  0.09479000  0.37056000  1.0
  H  H6  1  0.06916000  0.52362000  0.35214000  1.0
  H  H7  1  0.43084000  0.64786000  0.47638000  1.0
  H  H8  1  0.93084000  0.47638000  0.64786000  1.0
  H  H9  1  0.56916000  0.35214000  0.52362000  1.0
  H  H10  1  0.64654000  0.57999000  0.20707000  1.0
  H  H11  1  0.85346000  0.79293000  0.42001000  1.0
  H  H12  1  0.35346000  0.42001000  0.79293000  1.0
  H  H13  1  0.14654000  0.20707000  0.57999000  1.0
  H  H14  1  0.20062000  0.23775000  0.28375000  1.0
  H  H15  1  0.29938000  0.71625000  0.76225000  1.0
  H  H16  1  0.79938000  0.76225000  0.71625000  1.0
  H  H17  1  0.70062000  0.28375000  0.23775000  1.0
  H  H18  1  0.11526000  0.06737000  0.09241000  1.0
  H  H19  1  0.38474000  0.90759000  0.93263000  1.0
  H  H20  1  0.88475000  0.93263000  0.90759000  1.0
  H  H21  1  0.61525000  0.09241000  0.06737000  1.0
  H  H22  1  0.73795000  0.54390000  0.00481000  1.0
  H  H23  1  0.76205000  0.99519000  0.45610000  1.0
  H  H24  1  0.26205000  0.45611000  0.99519000  1.0
  H  H25  1  0.23795000  0.00481000  0.54389000  1.0
  H  H26  1  0.18086000  0.48805000  0.15671000  1.0
  H  H27  1  0.31915000  0.84329000  0.51195000  1.0
  H  H28  1  0.81915000  0.51195000  0.84329000  1.0
  H  H29  1  0.68086000  0.15671000  0.48805000  1.0
  C  C30  1  0.37651000  0.31424000  0.20248000  1.0
  C  C31  1  0.12349000  0.79752000  0.68576000  1.0
  C  C32  1  0.62349000  0.68576000  0.79752000  1.0
  C  C33  1  0.87651000  0.20248000  0.31424000  1.0
  C  C34  1  0.43701000  0.41158000  0.31997000  1.0
  C  C35  1  0.06299000  0.68003000  0.58842000  1.0
  C  C36  1  0.56301000  0.58842000  0.68002000  1.0
  C  C37  1  0.93699000  0.31998000  0.41158000  1.0
  C  C38  1  0.44426000  0.30608000  0.09552000  1.0
  C  C39  1  0.05573000  0.90448000  0.69392000  1.0
  C  C40  1  0.55574000  0.69392000  0.90448000  1.0
  C  C41  1  0.94426000  0.09552000  0.30608000  1.0
  C  C42  1  0.39384000  0.21184000  0.98890000  1.0
  C  C43  1  0.10615000  0.01110000  0.78816000  1.0
  C  C44  1  0.60616000  0.78816000  0.01110000  1.0
  C  C45  1  0.89384000  0.98890000  0.21185000  1.0
  C  C46  1  0.27610000  0.12269000  0.98513000  1.0
  C  C47  1  0.22389000  0.01487000  0.87731000  1.0
  C  C48  1  0.72390000  0.87731000  0.01487000  1.0
  C  C49  1  0.77610000  0.98513000  0.12269000  1.0
  C  C50  1  0.99943000  0.52679000  0.27248000  1.0
  C  C51  1  0.50057000  0.72752000  0.47321000  1.0
  C  C52  1  0.00057000  0.47321000  0.72752000  1.0
  C  C53  1  0.49943000  0.27248000  0.52679000  1.0
  C  C54  1  0.76409000  0.55818000  0.19141000  1.0
  C  C55  1  0.73592000  0.80859000  0.44181000  1.0
  C  C56  1  0.23592000  0.44182000  0.80859000  1.0
  C  C57  1  0.26409000  0.19141000  0.55818000  1.0
  C  C58  1  0.25584000  0.22871000  0.20039000  1.0
  C  C59  1  0.24416000  0.79962000  0.77129000  1.0
  C  C60  1  0.74416000  0.77129000  0.79962000  1.0
  C  C61  1  0.75584000  0.20039000  0.22871000  1.0
  C  C62  1  0.20849000  0.13431000  0.09366000  1.0
  C  C63  1  0.29151000  0.90633000  0.86569000  1.0
  C  C64  1  0.79151000  0.86569000  0.90634000  1.0
  C  C65  1  0.70849000  0.09366000  0.13431000  1.0
  C  C66  1  0.96963000  0.51082000  0.05978000  1.0
  C  C67  1  0.53037000  0.94022000  0.48918000  1.0
  C  C68  1  0.03037000  0.48919000  0.94022000  1.0
  C  C69  1  0.46963000  0.05978000  0.51081000  1.0
  C  C70  1  0.81722000  0.53798000  0.07788000  1.0
  C  C71  1  0.68278000  0.92212000  0.46202000  1.0
  C  C72  1  0.18278000  0.46203000  0.92212000  1.0
  C  C73  1  0.31722000  0.07788000  0.53797000  1.0
  C  C74  1  0.06090000  0.50673000  0.16147000  1.0
  C  C75  1  0.43910000  0.83852000  0.49327000  1.0
  C  C76  1  0.93910000  0.49328000  0.83852000  1.0
  C  C77  1  0.56090000  0.16148000  0.50672000  1.0
  N  N78  1  0.47369000  0.20789000  0.88070000  1.0
  N  N79  1  0.02630000  0.11930000  0.79211000  1.0
  N  N80  1  0.52630000  0.79211000  0.11930000  1.0
  N  N81  1  0.97370000  0.88070000  0.20790000  1.0
  N  N82  1  0.85237000  0.55132000  0.28745000  1.0
  N  N83  1  0.64763000  0.71255000  0.44868000  1.0
  N  N84  1  0.14763000  0.44868000  0.71255000  1.0
  N  N85  1  0.35237000  0.28745000  0.55132000  1.0
  O  O86  1  0.57859000  0.44626000  0.32384000  1.0
  O  O87  1  0.92141000  0.67616000  0.55374000  1.0
  O  O88  1  0.42140000  0.55374000  0.67616000  1.0
  O  O89  1  0.07860000  0.32384000  0.44626000  1.0
  O  O90  1  0.34540000  0.44982000  0.40000000  1.0
  O  O91  1  0.15460000  0.60000000  0.55018000  1.0
  O  O92  1  0.65459000  0.55019000  0.60001000  1.0
  O  O93  1  0.84541000  0.39999000  0.44981000  1.0
  O  O94  1  0.53096000  0.30576000  0.87440000  1.0
  O  O95  1  0.96903000  0.12560000  0.69424000  1.0
  O  O96  1  0.46903000  0.69423000  0.12559000  1.0
  O  O97  1  0.03097000  0.87441000  0.30577000  1.0
  O  O98  1  0.48142000  0.10746000  0.80289000  1.0
  O  O99  1  0.01858000  0.19712000  0.89254000  1.0
  O  O100  1  0.51857000  0.89253000  0.19712000  1.0
  O  O101  1  0.98143000  0.80288000  0.10746000  1.0
