# generated using pymatgen
data_AlH9C16O7
_symmetry_space_group_name_H-M   'P 1'
_cell_length_a   6.77968000
_cell_length_b   23.76090000
_cell_length_c   25.69960000
_cell_angle_alpha   90.01870000
_cell_angle_beta   90.04630000
_cell_angle_gamma   89.97210000
_symmetry_Int_Tables_number   1
_chemical_formula_structural   AlH9C16O7
_chemical_formula_sum   'Al4 H36 C64 O28'
_cell_volume   4139.97987273
_cell_formula_units_Z   4
loop_
 _symmetry_equiv_pos_site_id
 _symmetry_equiv_pos_as_xyz
  1  'x, y, z'
loop_
 _atom_site_type_symbol
 _atom_site_label
 _atom_site_symmetry_multiplicity
 _atom_site_fract_x
 _atom_site_fract_y
 _atom_site_fract_z
 _atom_site_occupancy
  Al  Al0  1  0.99804000  0.00085000  0.50083000  1.0
  Al  Al1  1  0.49805000  0.99924000  0.49921000  1.0
  Al  Al2  1  0.00188000  0.50077000  0.00079000  1.0
  Al  Al3  1  0.50189000  0.49916000  0.99915000  1.0
  H  H4  1  0.74983000  0.07537000  0.49897000  1.0
  H  H5  1  0.24564000  0.92476000  0.50076000  1.0
  H  H6  1  0.75008000  0.42465000  0.00105000  1.0
  H  H7  1  0.25429000  0.57525000  0.99923000  1.0
  H  H8  1  0.56523000  0.38488000  0.88175000  1.0
  H  H9  1  0.56603000  0.31337000  0.81158000  1.0
  H  H10  1  0.92803000  0.31361000  0.81202000  1.0
  H  H11  1  0.57174000  0.18627000  0.68811000  1.0
  H  H12  1  0.93460000  0.11508000  0.61827000  1.0
  H  H13  1  0.93374000  0.18653000  0.68850000  1.0
  H  H14  1  0.06373000  0.61530000  0.11769000  1.0
  H  H15  1  0.06588000  0.68669000  0.18790000  1.0
  H  H16  1  0.42786000  0.68620000  0.18845000  1.0
  H  H17  1  0.07209000  0.81395000  0.31142000  1.0
  H  H18  1  0.43622000  0.88467000  0.38232000  1.0
  H  H19  1  0.43408000  0.81332000  0.31208000  1.0
  H  H20  1  0.43625000  0.61490000  0.88205000  1.0
  H  H21  1  0.43326000  0.68630000  0.81193000  1.0
  H  H22  1  0.07125000  0.68665000  0.81171000  1.0
  H  H23  1  0.42872000  0.81351000  0.68840000  1.0
  H  H24  1  0.06375000  0.88505000  0.61789000  1.0
  H  H25  1  0.06671000  0.81368000  0.68804000  1.0
  H  H26  1  0.56648000  0.38401000  0.11743000  1.0
  H  H27  1  0.56815000  0.31272000  0.18769000  1.0
  H  H28  1  0.93026000  0.31410000  0.18861000  1.0
  H  H29  1  0.56977000  0.18578000  0.31130000  1.0
  H  H30  1  0.93349000  0.11592000  0.38249000  1.0
  H  H31  1  0.93187000  0.18720000  0.31221000  1.0
  H  H32  1  0.92202000  0.41627000  0.91185000  1.0
  H  H33  1  0.57785000  0.08373000  0.58818000  1.0
  H  H34  1  0.42010000  0.58260000  0.08951000  1.0
  H  H35  1  0.07985000  0.91745000  0.41044000  1.0
  H  H36  1  0.08045000  0.58325000  0.91060000  1.0
  H  H37  1  0.41952000  0.91685000  0.58946000  1.0
  H  H38  1  0.92263000  0.41769000  0.08994000  1.0
  H  H39  1  0.57736000  0.08226000  0.41002000  1.0
  C  C40  1  0.24580000  0.06867000  0.42934000  1.0
  C  C41  1  0.24536000  0.06864000  0.57067000  1.0
  C  C42  1  0.75059000  0.93147000  0.57069000  1.0
  C  C43  1  0.74860000  0.93146000  0.42935000  1.0
  C  C44  1  0.25415000  0.43129000  0.07062000  1.0
  C  C45  1  0.25452000  0.43136000  0.92933000  1.0
  C  C46  1  0.74938000  0.56855000  0.92931000  1.0
  C  C47  1  0.75136000  0.56855000  0.07064000  1.0
  C  C48  1  0.24866000  0.38990000  0.88708000  1.0
  C  C49  1  0.42654000  0.36905000  0.86637000  1.0
  C  C50  1  0.42764000  0.32923000  0.82727000  1.0
  C  C51  1  0.24677000  0.30856000  0.80721000  1.0
  C  C52  1  0.06799000  0.32902000  0.82717000  1.0
  C  C53  1  0.06704000  0.36948000  0.86673000  1.0
  C  C54  1  0.24758000  0.26761000  0.76729000  1.0
  C  C55  1  0.25218000  0.23225000  0.73284000  1.0
  C  C56  1  0.25299000  0.19133000  0.69291000  1.0
  C  C57  1  0.43179000  0.17088000  0.67294000  1.0
  C  C58  1  0.43278000  0.13047000  0.63335000  1.0
  C  C59  1  0.25118000  0.11006000  0.61296000  1.0
  C  C60  1  0.07329000  0.13090000  0.63368000  1.0
  C  C61  1  0.07215000  0.17068000  0.67281000  1.0
  C  C62  1  0.74694000  0.60997000  0.11294000  1.0
  C  C63  1  0.92525000  0.63103000  0.13327000  1.0
  C  C64  1  0.92712000  0.67084000  0.17240000  1.0
  C  C65  1  0.74666000  0.69146000  0.19275000  1.0
  C  C66  1  0.56756000  0.67086000  0.17310000  1.0
  C  C67  1  0.56580000  0.63022000  0.13373000  1.0
  C  C68  1  0.74790000  0.73239000  0.23270000  1.0
  C  C69  1  0.75208000  0.76769000  0.26722000  1.0
  C  C70  1  0.75329000  0.80861000  0.30717000  1.0
  C  C71  1  0.93241000  0.82924000  0.32680000  1.0
  C  C72  1  0.93415000  0.86985000  0.36621000  1.0
  C  C73  1  0.75301000  0.89005000  0.38704000  1.0
  C  C74  1  0.57470000  0.86898000  0.36672000  1.0
  C  C75  1  0.57285000  0.82919000  0.32756000  1.0
  C  C76  1  0.75309000  0.61001000  0.88704000  1.0
  C  C77  1  0.57458000  0.63081000  0.86659000  1.0
  C  C78  1  0.57221000  0.67064000  0.82748000  1.0
  C  C79  1  0.75240000  0.69149000  0.80723000  1.0
  C  C80  1  0.93170000  0.67114000  0.82697000  1.0
  C  C81  1  0.93396000  0.63055000  0.86635000  1.0
  C  C82  1  0.75137000  0.73240000  0.76729000  1.0
  C  C83  1  0.74860000  0.76769000  0.73277000  1.0
  C  C84  1  0.74756000  0.80858000  0.69282000  1.0
  C  C85  1  0.56826000  0.82897000  0.67310000  1.0
  C  C86  1  0.56601000  0.86954000  0.63370000  1.0
  C  C87  1  0.74688000  0.89002000  0.61297000  1.0
  C  C88  1  0.92540000  0.86919000  0.63339000  1.0
  C  C89  1  0.92775000  0.82938000  0.67251000  1.0
  C  C90  1  0.24972000  0.38984000  0.11289000  1.0
  C  C91  1  0.42790000  0.36851000  0.13309000  1.0
  C  C92  1  0.42954000  0.32875000  0.17225000  1.0
  C  C93  1  0.24899000  0.30842000  0.19270000  1.0
  C  C94  1  0.07002000  0.32924000  0.17318000  1.0
  C  C95  1  0.06847000  0.36986000  0.13384000  1.0
  C  C96  1  0.24915000  0.26754000  0.23266000  1.0
  C  C97  1  0.25092000  0.23231000  0.26721000  1.0
  C  C98  1  0.25105000  0.19145000  0.30718000  1.0
  C  C99  1  0.43000000  0.17064000  0.32672000  1.0
  C  C100  1  0.43152000  0.13005000  0.36608000  1.0
  C  C101  1  0.25025000  0.11009000  0.38704000  1.0
  C  C102  1  0.07209000  0.13141000  0.36682000  1.0
  C  C103  1  0.07048000  0.17115000  0.32765000  1.0
  O  O104  1  0.08127000  0.05314000  0.44822000  1.0
  O  O105  1  0.41355000  0.05174000  0.55205000  1.0
  O  O106  1  0.58092000  0.94935000  0.55365000  1.0
  O  O107  1  0.91717000  0.94982000  0.44638000  1.0
  O  O108  1  0.91509000  0.94756000  0.55219000  1.0
  O  O109  1  0.58299000  0.94698000  0.44784000  1.0
  O  O110  1  0.41533000  0.05025000  0.44600000  1.0
  O  O111  1  0.07917000  0.05173000  0.55375000  1.0
  O  O112  1  0.74663000  0.03461000  0.50001000  1.0
  O  O113  1  0.24772000  0.96552000  0.49998000  1.0
  O  O114  1  0.08462000  0.44973000  0.05397000  1.0
  O  O115  1  0.42071000  0.44828000  0.94624000  1.0
  O  O116  1  0.58485000  0.55244000  0.94779000  1.0
  O  O117  1  0.91696000  0.55299000  0.05218000  1.0
  O  O118  1  0.91902000  0.55069000  0.94636000  1.0
  O  O119  1  0.58278000  0.55020000  0.05359000  1.0
  O  O120  1  0.41866000  0.44686000  0.05175000  1.0
  O  O121  1  0.08635000  0.44829000  0.94794000  1.0
  O  O122  1  0.75328000  0.46540000  0.99997000  1.0
  O  O123  1  0.25221000  0.53449000  0.00002000  1.0
  O  O124  1  0.89064000  0.38785000  0.88427000  1.0
  O  O125  1  0.60920000  0.11213000  0.61578000  1.0
  O  O126  1  0.38911000  0.61153000  0.11668000  1.0
  O  O127  1  0.11084000  0.88854000  0.38324000  1.0
  O  O128  1  0.11107000  0.61221000  0.88346000  1.0
  O  O129  1  0.38892000  0.88791000  0.61663000  1.0
  O  O130  1  0.89164000  0.38874000  0.11706000  1.0
  O  O131  1  0.60834000  0.11119000  0.38288000  1.0
