# generated using pymatgen
data_AlH6C13N2ClO7
_symmetry_space_group_name_H-M   'P 1'
_cell_length_a   6.69522000
_cell_length_b   11.08750000
_cell_length_c   16.91820000
_cell_angle_alpha   84.35330000
_cell_angle_beta   82.83160000
_cell_angle_gamma   74.24900000
_symmetry_Int_Tables_number   1
_chemical_formula_structural   AlH6C13N2ClO7
_chemical_formula_sum   'Al2 H12 C26 N4 Cl2 O14'
_cell_volume   1196.54643396
_cell_formula_units_Z   2
loop_
 _symmetry_equiv_pos_site_id
 _symmetry_equiv_pos_as_xyz
  1  'x, y, z'
loop_
 _atom_site_type_symbol
 _atom_site_label
 _atom_site_symmetry_multiplicity
 _atom_site_fract_x
 _atom_site_fract_y
 _atom_site_fract_z
 _atom_site_occupancy
  Al  Al0  1  0.48671000  0.49953000  0.49725000  1.0
  Al  Al1  1  0.98486000  0.50144000  0.50230000  1.0
  H  H2  1  0.22265000  0.58104000  0.40678000  1.0
  H  H3  1  0.73536000  0.42626000  0.59422000  1.0
  H  H4  1  0.92111000  0.41982000  0.74319000  1.0
  H  H5  1  0.86994000  0.41127000  0.89178000  1.0
  H  H6  1  0.41215000  0.54953000  0.89148000  1.0
  H  H7  1  0.57849000  0.56583000  0.09457000  1.0
  H  H8  1  0.23034000  0.41254000  0.12273000  1.0
  H  H9  1  0.14721000  0.42082000  0.27109000  1.0
  H  H10  1  0.86051000  0.77134000  0.61179000  1.0
  H  H11  1  0.63405000  0.23807000  0.59066000  1.0
  H  H12  1  0.16577000  0.11100000  0.44320000  1.0
  H  H13  1  0.29129000  0.87596000  0.44864000  1.0
  C  C14  1  0.62207000  0.72685000  0.50844000  1.0
  C  C15  1  0.78617000  0.50069000  0.35573000  1.0
  C  C16  1  0.34099000  0.27286000  0.49830000  1.0
  C  C17  1  0.19988000  0.49627000  0.64390000  1.0
  C  C18  1  0.18918000  0.49210000  0.73259000  1.0
  C  C19  1  0.02527000  0.45015000  0.77636000  1.0
  C  C20  1  0.99705000  0.44457000  0.85880000  1.0
  C  C21  1  0.13524000  0.48355000  0.90014000  1.0
  C  C22  1  0.30526000  0.52073000  0.85846000  1.0
  C  C23  1  0.33361000  0.52468000  0.77518000  1.0
  C  C24  1  0.70226000  0.53448000  0.13390000  1.0
  C  C25  1  0.90825000  0.48936000  0.10037000  1.0
  C  C26  1  0.07101000  0.44795000  0.14962000  1.0
  C  C27  1  0.02406000  0.45300000  0.23150000  1.0
  C  C28  1  0.81865000  0.50016000  0.26692000  1.0
  C  C29  1  0.65775000  0.54261000  0.21618000  1.0
  C  C30  1  0.54705000  0.86636000  0.51466000  1.0
  C  C31  1  0.64962000  0.93437000  0.55604000  1.0
  C  C32  1  0.37207000  0.93038000  0.47705000  1.0
  C  C33  1  0.80982000  0.87332000  0.60529000  1.0
  C  C34  1  0.89646000  0.94190000  0.64783000  1.0
  C  C35  1  0.40786000  0.13201000  0.50774000  1.0
  C  C36  1  0.30203000  0.06216000  0.47386000  1.0
  C  C37  1  0.57936000  0.06917000  0.55200000  1.0
  C  C38  1  0.67711000  0.13632000  0.59517000  1.0
  C  C39  1  0.83228000  0.07457000  0.64163000  1.0
  N  N40  1  0.11472000  0.48807000  0.98412000  1.0
  N  N41  1  0.93338000  0.48854000  0.01638000  1.0
  N  N42  1  0.03667000  0.87279000  0.70674000  1.0
  N  N43  1  0.94006000  0.15154000  0.67691000  1.0
  Cl  Cl44  1  0.54655000  0.57319000  0.73010000  1.0
  Cl  Cl45  1  0.40024000  0.61306000  0.24920000  1.0
  O  O46  1  0.48070000  0.67166000  0.50452000  1.0
  O  O47  1  0.94447000  0.49695000  0.39171000  1.0
  O  O48  1  0.14601000  0.32509000  0.50417000  1.0
  O  O49  1  0.37861000  0.48271000  0.60501000  1.0
  O  O50  1  0.48717000  0.32774000  0.48552000  1.0
  O  O51  1  0.03064000  0.51013000  0.61217000  1.0
  O  O52  1  0.81802000  0.67634000  0.50443000  1.0
  O  O53  1  0.60499000  0.50354000  0.38969000  1.0
  O  O54  1  0.21922000  0.55710000  0.46363000  1.0
  O  O55  1  0.74976000  0.44461000  0.53658000  1.0
  O  O56  1  0.17236000  0.77886000  0.68456000  1.0
  O  O57  1  0.00323000  0.91098000  0.77470000  1.0
  O  O58  1  0.83519000  0.25717000  0.69615000  1.0
  O  O59  1  0.12915000  0.10824000  0.68239000  1.0
