# generated using pymatgen
data_AgP3H34C30(SO)2
_symmetry_space_group_name_H-M   'P 1'
_cell_length_a   11.09330000
_cell_length_b   11.42060000
_cell_length_c   13.05460000
_cell_angle_alpha   101.15500000
_cell_angle_beta   91.38830000
_cell_angle_gamma   106.15700000
_symmetry_Int_Tables_number   1
_chemical_formula_structural   AgP3H34C30(SO)2
_chemical_formula_sum   'Ag2 P6 H68 C60 S4 O4'
_cell_volume   1553.22077551
_cell_formula_units_Z   2
loop_
 _symmetry_equiv_pos_site_id
 _symmetry_equiv_pos_as_xyz
  1  'x, y, z'
loop_
 _atom_site_type_symbol
 _atom_site_label
 _atom_site_symmetry_multiplicity
 _atom_site_fract_x
 _atom_site_fract_y
 _atom_site_fract_z
 _atom_site_occupancy
  Ag  Ag0  1  0.39651000  0.87677000  0.23477000  1.0
  Ag  Ag1  1  0.60349000  0.12322000  0.76522000  1.0
  P  P2  1  0.11504000  0.74813000  0.15435000  1.0
  P  P3  1  0.88495000  0.25188000  0.84565000  1.0
  P  P4  1  0.46524000  0.81575000  0.38933000  1.0
  P  P5  1  0.53475000  0.18425000  0.61067000  1.0
  P  P6  1  0.53655000  0.04825000  0.17334000  1.0
  P  P7  1  0.46346000  0.95175000  0.82666000  1.0
  H  H8  1  0.99782000  0.50210000  0.07613000  1.0
  H  H9  1  0.00218000  0.49790000  0.92386000  1.0
  H  H10  1  0.08431000  0.47601000  0.18158000  1.0
  H  H11  1  0.91569000  0.52399000  0.81842000  1.0
  H  H12  1  0.86228000  0.34310000  0.16770000  1.0
  H  H13  1  0.13772000  0.65689000  0.83229000  1.0
  H  H14  1  0.80533000  0.47421000  0.17153000  1.0
  H  H15  1  0.19467000  0.52579000  0.82846000  1.0
  H  H16  1  0.88799000  0.45931000  0.28464000  1.0
  H  H17  1  0.11200000  0.54069000  0.71535000  1.0
  H  H18  1  0.09826000  0.82112000  0.95407000  1.0
  H  H19  1  0.90174000  0.17888000  0.04592000  1.0
  H  H20  1  0.04549000  0.92470000  0.05070000  1.0
  H  H21  1  0.95450000  0.07530000  0.94929000  1.0
  H  H22  1  0.90587000  0.86556000  0.88197000  1.0
  H  H23  1  0.09413000  0.13443000  0.11802000  1.0
  H  H24  1  0.81940000  0.80754000  0.98374000  1.0
  H  H25  1  0.18059000  0.19246000  0.01625000  1.0
  H  H26  1  0.87307000  0.70566000  0.88701000  1.0
  H  H27  1  0.12693000  0.29434000  0.11298000  1.0
  H  H28  1  0.51925000  0.66173000  0.53577000  1.0
  H  H29  1  0.48074000  0.33827000  0.46423000  1.0
  H  H30  1  0.38138000  0.48245000  0.59760000  1.0
  H  H31  1  0.61860000  0.51755000  0.40240000  1.0
  H  H32  1  0.15884000  0.39062000  0.52439000  1.0
  H  H33  1  0.84114000  0.60938000  0.47560000  1.0
  H  H34  1  0.07365000  0.47958000  0.38787000  1.0
  H  H35  1  0.92635000  0.52043000  0.61213000  1.0
  H  H36  1  0.21020000  0.66218000  0.32882000  1.0
  H  H37  1  0.78981000  0.33784000  0.67118000  1.0
  H  H38  1  0.69483000  0.93220000  0.54369000  1.0
  H  H39  1  0.30517000  0.06780000  0.45632000  1.0
  H  H40  1  0.91329000  0.92767000  0.53211000  1.0
  H  H41  1  0.08670000  0.07233000  0.46790000  1.0
  H  H42  1  0.97503000  0.79816000  0.37600000  1.0
  H  H43  1  0.02497000  0.20184000  0.62401000  1.0
  H  H44  1  0.81500000  0.67951000  0.23019000  1.0
  H  H45  1  0.18500000  0.32049000  0.76982000  1.0
  H  H46  1  0.59364000  0.68951000  0.23772000  1.0
  H  H47  1  0.40636000  0.31049000  0.76228000  1.0
  H  H48  1  0.67991000  0.26159000  0.33796000  1.0
  H  H49  1  0.32009000  0.73842000  0.66204000  1.0
  H  H50  1  0.89328000  0.31649000  0.42588000  1.0
  H  H51  1  0.10673000  0.68352000  0.57412000  1.0
  H  H52  1  0.03647000  0.18618000  0.36921000  1.0
  H  H53  1  0.96353000  0.81383000  0.63079000  1.0
  H  H54  1  0.95845000  0.99239000  0.23230000  1.0
  H  H55  1  0.04156000  0.00760000  0.76771000  1.0
  H  H56  1  0.74242000  0.93347000  0.14670000  1.0
  H  H57  1  0.25759000  0.06652000  0.85332000  1.0
  H  H58  1  0.34619000  0.13020000  0.29114000  1.0
  H  H59  1  0.65382000  0.86979000  0.70886000  1.0
  H  H60  1  0.27830000  0.32320000  0.31566000  1.0
  H  H61  1  0.72170000  0.67678000  0.68434000  1.0
  H  H62  1  0.37810000  0.49106000  0.22215000  1.0
  H  H63  1  0.62190000  0.50893000  0.77786000  1.0
  H  H64  1  0.55141000  0.46770000  0.10806000  1.0
  H  H65  1  0.44859000  0.53231000  0.89194000  1.0
  H  H66  1  0.62345000  0.27944000  0.08816000  1.0
  H  H67  1  0.37655000  0.72056000  0.91183000  1.0
  H  H68  1  0.36598000  0.92485000  0.51956000  1.0
  H  H69  1  0.63402000  0.07515000  0.48044000  1.0
  H  H70  1  0.50623000  0.91263000  0.57603000  1.0
  H  H71  1  0.49376000  0.08738000  0.42397000  1.0
  H  H72  1  0.63439000  0.09230000  0.01267000  1.0
  H  H73  1  0.36563000  0.90770000  0.98733000  1.0
  H  H74  1  0.59818000  0.93287000  0.01994000  1.0
  H  H75  1  0.40185000  0.06713000  0.98006000  1.0
  C  C76  1  0.00588000  0.51108000  0.16145000  1.0
  C  C77  1  0.99411000  0.48892000  0.83854000  1.0
  C  C78  1  0.88345000  0.44363000  0.19884000  1.0
  C  C79  1  0.11655000  0.55637000  0.80115000  1.0
  C  C80  1  0.01953000  0.82980000  0.00194000  1.0
  C  C81  1  0.98046000  0.17020000  0.99806000  1.0
  C  C82  1  0.89746000  0.80043000  0.93501000  1.0
  C  C83  1  0.10254000  0.19957000  0.06498000  1.0
  C  C84  1  0.37363000  0.67418000  0.42847000  1.0
  C  C85  1  0.62637000  0.32582000  0.57153000  1.0
  C  C86  1  0.42162000  0.62221000  0.50339000  1.0
  C  C87  1  0.57838000  0.37780000  0.49661000  1.0
  C  C88  1  0.34407000  0.52102000  0.53802000  1.0
  C  C89  1  0.65592000  0.47898000  0.46198000  1.0
  C  C90  1  0.21861000  0.46980000  0.49694000  1.0
  C  C91  1  0.78139000  0.53020000  0.50305000  1.0
  C  C92  1  0.17118000  0.51971000  0.42072000  1.0
  C  C93  1  0.82881000  0.48029000  0.57927000  1.0
  C  C94  1  0.24815000  0.62187000  0.38674000  1.0
  C  C95  1  0.75184000  0.37813000  0.61326000  1.0
  C  C96  1  0.62721000  0.80854000  0.39207000  1.0
  C  C97  1  0.37279000  0.19147000  0.60794000  1.0
  C  C98  1  0.71858000  0.87526000  0.47454000  1.0
  C  C99  1  0.28141000  0.12474000  0.52547000  1.0
  C  C100  1  0.84314000  0.87218000  0.46851000  1.0
  C  C101  1  0.15685000  0.12782000  0.53150000  1.0
  C  C102  1  0.87765000  0.80010000  0.38161000  1.0
  C  C103  1  0.12234000  0.19990000  0.61840000  1.0
  C  C104  1  0.78712000  0.73324000  0.29902000  1.0
  C  C105  1  0.21287000  0.26676000  0.70099000  1.0
  C  C106  1  0.66337000  0.73858000  0.30366000  1.0
  C  C107  1  0.33663000  0.26142000  0.69634000  1.0
  C  C108  1  0.69668000  0.09535000  0.23472000  1.0
  C  C109  1  0.30333000  0.90465000  0.76528000  1.0
  C  C110  1  0.74012000  0.20188000  0.31471000  1.0
  C  C111  1  0.25990000  0.79813000  0.68529000  1.0
  C  C112  1  0.86143000  0.23335000  0.36366000  1.0
  C  C113  1  0.13857000  0.76665000  0.63635000  1.0
  C  C114  1  0.94089000  0.15991000  0.33242000  1.0
  C  C115  1  0.05912000  0.84010000  0.66759000  1.0
  C  C116  1  0.89738000  0.05183000  0.25426000  1.0
  C  C117  1  0.10263000  0.94817000  0.74575000  1.0
  C  C118  1  0.77572000  0.01920000  0.20625000  1.0
  C  C119  1  0.22428000  0.98080000  0.79376000  1.0
  C  C120  1  0.49047000  0.19211000  0.18973000  1.0
  C  C121  1  0.50954000  0.80789000  0.81027000  1.0
  C  C122  1  0.39303000  0.20576000  0.25317000  1.0
  C  C123  1  0.60698000  0.79423000  0.74684000  1.0
  C  C124  1  0.35372000  0.31338000  0.26569000  1.0
  C  C125  1  0.64628000  0.68661000  0.73431000  1.0
  C  C126  1  0.41019000  0.40787000  0.21351000  1.0
  C  C127  1  0.58981000  0.59212000  0.78650000  1.0
  C  C128  1  0.50696000  0.39461000  0.14954000  1.0
  C  C129  1  0.49304000  0.60539000  0.85047000  1.0
  C  C130  1  0.54752000  0.28792000  0.13807000  1.0
  C  C131  1  0.45248000  0.71208000  0.86194000  1.0
  C  C132  1  0.46548000  0.93442000  0.50682000  1.0
  C  C133  1  0.53452000  0.06558000  0.49317000  1.0
  C  C134  1  0.56191000  0.01442000  0.03316000  1.0
  C  C135  1  0.43811000  0.98559000  0.96684000  1.0
  S  S136  1  0.25566000  0.69896000  0.08197000  1.0
  S  S137  1  0.74433000  0.30104000  0.91802000  1.0
  S  S138  1  0.16461000  0.90843000  0.25840000  1.0
  S  S139  1  0.83539000  0.09157000  0.74160000  1.0
  O  O140  1  0.03802000  0.64242000  0.21340000  1.0
  O  O141  1  0.96197000  0.35758000  0.78659000  1.0
  O  O142  1  0.00183000  0.74185000  0.07081000  1.0
  O  O143  1  0.99816000  0.25816000  0.92919000  1.0
