# generated using pymatgen
data_CoP2H22(CO)10
_symmetry_space_group_name_H-M   'P 1'
_cell_length_a   4.83333000
_cell_length_b   6.89522000
_cell_length_c   12.00200000
_cell_angle_alpha   81.30610000
_cell_angle_beta   89.33190000
_cell_angle_gamma   74.28500000
_symmetry_Int_Tables_number   1
_chemical_formula_structural   CoP2H22(CO)10
_chemical_formula_sum   'Co1 P2 H22 C10 O10'
_cell_volume   380.43356398
_cell_formula_units_Z   1
loop_
 _symmetry_equiv_pos_site_id
 _symmetry_equiv_pos_as_xyz
  1  'x, y, z'
loop_
 _atom_site_type_symbol
 _atom_site_label
 _atom_site_symmetry_multiplicity
 _atom_site_fract_x
 _atom_site_fract_y
 _atom_site_fract_z
 _atom_site_occupancy
  Co  Co0  1  0.00000000  0.00000000  0.00000000  1.0
  P  P1  1  0.20881000  0.28729000  0.20051000  1.0
  P  P2  1  0.79119000  0.71272000  0.79949000  1.0
  H  H3  1  0.73319000  0.42489000  0.19488000  1.0
  H  H4  1  0.26680000  0.57512000  0.80512000  1.0
  H  H5  1  0.39363000  0.14748000  0.91872000  1.0
  H  H6  1  0.60637000  0.85253000  0.08127000  1.0
  H  H7  1  0.12100000  0.26912000  0.84664000  1.0
  H  H8  1  0.87900000  0.73089000  0.15336000  1.0
  H  H9  1  0.57738000  0.28311000  0.04578000  1.0
  H  H10  1  0.42263000  0.71689000  0.95422000  1.0
  H  H11  1  0.66241000  0.36264000  0.92256000  1.0
  H  H12  1  0.33759000  0.63737000  0.07744000  1.0
  H  H13  1  0.93840000  0.37073000  0.47571000  1.0
  H  H14  1  0.06159000  0.62926000  0.52429000  1.0
  H  H15  1  0.56314000  0.08630000  0.33445000  1.0
  H  H16  1  0.43686000  0.91370000  0.66556000  1.0
  H  H17  1  0.38518000  0.32104000  0.37671000  1.0
  H  H18  1  0.61479000  0.67894000  0.62329000  1.0
  H  H19  1  0.42077000  0.58472000  0.39092000  1.0
  H  H20  1  0.57928000  0.41527000  0.60908000  1.0
  H  H21  1  0.63382000  0.75899000  0.37911000  1.0
  H  H22  1  0.36618000  0.24102000  0.62091000  1.0
  H  H23  1  0.36214000  0.79000000  0.27602000  1.0
  H  H24  1  0.63789000  0.20998000  0.72398000  1.0
  C  C25  1  0.96653000  0.20630000  0.48727000  1.0
  C  C26  1  0.03346000  0.79371000  0.51272000  1.0
  C  C27  1  0.20192000  0.87770000  0.43435000  1.0
  C  C28  1  0.79808000  0.12227000  0.56565000  1.0
  C  C29  1  0.34930000  0.18983000  0.34338000  1.0
  C  C30  1  0.65069000  0.81017000  0.65661000  1.0
  C  C31  1  0.16779000  0.08923000  0.42199000  1.0
  C  C32  1  0.83221000  0.91075000  0.57800000  1.0
  C  C33  1  0.41502000  0.74541000  0.36665000  1.0
  C  C34  1  0.58499000  0.25458000  0.63336000  1.0
  O  O35  1  0.42190000  0.40461000  0.14623000  1.0
  O  O36  1  0.57810000  0.59540000  0.85378000  1.0
  O  O37  1  0.15667000  0.12548000  0.13983000  1.0
  O  O38  1  0.84334000  0.87453000  0.86016000  1.0
  O  O39  1  0.91464000  0.46289000  0.21164000  1.0
  O  O40  1  0.08536000  0.53712000  0.78836000  1.0
  O  O41  1  0.21552000  0.12972000  0.88497000  1.0
  O  O42  1  0.78448000  0.87029000  0.11503000  1.0
  O  O43  1  0.65517000  0.23331000  0.97348000  1.0
  O  O44  1  0.34483000  0.76670000  0.02652000  1.0
