# generated using pymatgen
data_NdH6C7SO8
_symmetry_space_group_name_H-M   'P 1'
_cell_length_a   5.90901000
_cell_length_b   10.47556106
_cell_length_c   18.82638537
_cell_angle_alpha   81.10157714
_cell_angle_beta   80.99962217
_cell_angle_gamma   73.62054562
_symmetry_Int_Tables_number   1
_chemical_formula_structural   NdH6C7SO8
_chemical_formula_sum   'Nd4 H24 C28 S4 O32'
_cell_volume   1096.75180179
_cell_formula_units_Z   4
loop_
 _symmetry_equiv_pos_site_id
 _symmetry_equiv_pos_as_xyz
  1  'x, y, z'
loop_
 _atom_site_type_symbol
 _atom_site_label
 _atom_site_symmetry_multiplicity
 _atom_site_fract_x
 _atom_site_fract_y
 _atom_site_fract_z
 _atom_site_occupancy
  Nd  Nd0  1  0.67053000  0.80192000  0.46893000  1.0
  Nd  Nd1  1  0.94165000  0.69805000  0.03108000  1.0
  Nd  Nd2  1  0.32949000  0.19807000  0.53107000  1.0
  Nd  Nd3  1  0.05835000  0.30196000  0.96892000  1.0
  H  H4  1  0.47954000  0.73581000  0.33856000  1.0
  H  H5  1  0.55427000  0.76430000  0.16138000  1.0
  H  H6  1  0.52047000  0.26420000  0.66144000  1.0
  H  H7  1  0.44572000  0.23575000  0.83862000  1.0
  H  H8  1  0.32543000  0.68232000  0.40908000  1.0
  H  H9  1  0.41726000  0.81791000  0.09084000  1.0
  H  H10  1  0.67459000  0.31767000  0.59092000  1.0
  H  H11  1  0.58272000  0.18210000  0.90916000  1.0
  H  H12  1  0.17428000  0.75690000  0.54817000  1.0
  H  H13  1  0.47933000  0.74326000  0.95183000  1.0
  H  H14  1  0.82574000  0.24309000  0.45182000  1.0
  H  H15  1  0.52067000  0.25675000  0.04817000  1.0
  H  H16  1  0.19823000  0.89944000  0.55334000  1.0
  H  H17  1  0.65070000  0.60067000  0.94664000  1.0
  H  H18  1  0.80181000  0.10054000  0.44666000  1.0
  H  H19  1  0.34929000  0.39934000  0.05336000  1.0
  H  H20  1  0.48473000  0.19211000  0.25108000  1.0
  H  H21  1  0.92872000  0.30773000  0.24895000  1.0
  H  H22  1  0.51527000  0.80789000  0.74891000  1.0
  H  H23  1  0.07126000  0.69227000  0.75105000  1.0
  H  H24  1  0.37198000  0.11091000  0.13765000  1.0
  H  H25  1  0.62157000  0.38899000  0.36233000  1.0
  H  H26  1  0.62797000  0.88911000  0.86235000  1.0
  H  H27  1  0.37840000  0.61100000  0.63768000  1.0
  C  C28  1  0.27109000  0.11231000  0.39209000  1.0
  C  C29  1  0.77604000  0.38777000  0.10788000  1.0
  C  C30  1  0.72893000  0.88768000  0.60791000  1.0
  C  C31  1  0.22393000  0.61224000  0.89213000  1.0
  C  C32  1  0.24687000  0.07886000  0.31961000  1.0
  C  C33  1  0.64622000  0.42117000  0.18038000  1.0
  C  C34  1  0.75317000  0.92112000  0.68038000  1.0
  C  C35  1  0.35377000  0.57883000  0.81962000  1.0
  C  C36  1  0.36466000  0.12888000  0.25408000  1.0
  C  C37  1  0.74853000  0.37106000  0.24593000  1.0
  C  C38  1  0.63534000  0.87112000  0.74591000  1.0
  C  C39  1  0.25144000  0.62894000  0.75407000  1.0
  C  C40  1  0.31124000  0.08679000  0.19428000  1.0
  C  C41  1  0.59332000  0.41317000  0.30571000  1.0
  C  C42  1  0.68873000  0.91321000  0.80572000  1.0
  C  C43  1  0.40666000  0.58682000  0.69429000  1.0
  C  C44  1  0.10599000  0.99958000  0.30768000  1.0
  C  C45  1  0.41424000  0.50055000  0.19228000  1.0
  C  C46  1  0.89403000  0.00041000  0.69233000  1.0
  C  C47  1  0.58575000  0.49945000  0.80772000  1.0
  C  C48  1  0.95631000  0.93197000  0.36070000  1.0
  C  C49  1  0.24986000  0.56808000  0.13923000  1.0
  C  C50  1  0.04373000  0.06801000  0.63930000  1.0
  C  C51  1  0.75011000  0.43193000  0.86077000  1.0
  C  C52  1  0.88833000  0.48016000  0.52085000  1.0
  C  C53  1  0.88928000  0.01982000  0.97916000  1.0
  C  C54  1  0.11166000  0.51984000  0.47915000  1.0
  C  C55  1  0.11069000  0.98019000  0.02085000  1.0
  S  S56  1  0.11855000  0.98855000  0.21655000  1.0
  S  S57  1  0.32480000  0.51150000  0.28340000  1.0
  S  S58  1  0.88145000  0.01145000  0.78345000  1.0
  S  S59  1  0.67516000  0.48850000  0.71661000  1.0
  O  O60  1  0.41135000  0.02832000  0.43318000  1.0
  O  O61  1  0.87335000  0.47176000  0.06680000  1.0
  O  O62  1  0.58870000  0.97166000  0.56681000  1.0
  O  O63  1  0.12665000  0.52824000  0.93320000  1.0
  O  O64  1  0.15822000  0.22678000  0.41087000  1.0
  O  O65  1  0.79616000  0.27332000  0.08909000  1.0
  O  O66  1  0.84183000  0.77320000  0.58913000  1.0
  O  O67  1  0.20384000  0.72669000  0.91091000  1.0
  O  O68  1  0.93944000  0.95007000  0.42819000  1.0
  O  O69  1  0.31838000  0.54990000  0.07175000  1.0
  O  O70  1  0.06062000  0.04991000  0.57180000  1.0
  O  O71  1  0.68160000  0.45011000  0.92825000  1.0
  O  O72  1  0.84720000  0.85675000  0.34134000  1.0
  O  O73  1  0.04627000  0.64333000  0.15861000  1.0
  O  O74  1  0.15284000  0.14323000  0.65865000  1.0
  O  O75  1  0.95371000  0.35669000  0.84140000  1.0
  O  O76  1  0.69452000  0.56874000  0.52449000  1.0
  O  O77  1  0.78787000  0.93115000  0.97546000  1.0
  O  O78  1  0.30548000  0.43126000  0.47551000  1.0
  O  O79  1  0.21209000  0.06888000  0.02455000  1.0
  O  O80  1  0.92131000  0.35784000  0.54855000  1.0
  O  O81  1  0.82738000  0.14214000  0.95149000  1.0
  O  O82  1  0.07872000  0.64214000  0.45145000  1.0
  O  O83  1  0.17260000  0.85787000  0.04851000  1.0
  O  O84  1  0.47248000  0.71332000  0.39070000  1.0
  O  O85  1  0.57694000  0.78701000  0.10926000  1.0
  O  O86  1  0.52756000  0.28666000  0.60930000  1.0
  O  O87  1  0.42305000  0.21299000  0.89074000  1.0
  O  O88  1  0.29424000  0.80647000  0.54421000  1.0
  O  O89  1  0.64487000  0.69360000  0.95576000  1.0
  O  O90  1  0.70580000  0.19351000  0.45578000  1.0
  O  O91  1  0.35512000  0.30641000  0.04424000  1.0
