# generated using pymatgen
data_U2H8C8O11
_symmetry_space_group_name_H-M   'P 1'
_cell_length_a   6.66314000
_cell_length_b   14.74380000
_cell_length_c   15.02860000
_cell_angle_alpha   101.35200000
_cell_angle_beta   89.99910000
_cell_angle_gamma   89.99980000
_symmetry_Int_Tables_number   1
_chemical_formula_structural   U2H8C8O11
_chemical_formula_sum   'U8 H32 C32 O44'
_cell_volume   1447.52585671
_cell_formula_units_Z   4
loop_
 _symmetry_equiv_pos_site_id
 _symmetry_equiv_pos_as_xyz
  1  'x, y, z'
loop_
 _atom_site_type_symbol
 _atom_site_label
 _atom_site_symmetry_multiplicity
 _atom_site_fract_x
 _atom_site_fract_y
 _atom_site_fract_z
 _atom_site_occupancy
  U  U0  1  0.26509000  0.94750000  0.61747000  1.0
  U  U1  1  0.26510000  0.05250000  0.88253000  1.0
  U  U2  1  0.73491000  0.05250000  0.38253000  1.0
  U  U3  1  0.73491000  0.94750000  0.11746000  1.0
  U  U4  1  0.30729000  0.77459000  0.83618000  1.0
  U  U5  1  0.30728000  0.22541000  0.66382000  1.0
  U  U6  1  0.69271000  0.22541000  0.16382000  1.0
  U  U7  1  0.69272000  0.77459000  0.33618000  1.0
  H  H8  1  0.51008000  0.91158000  0.76385000  1.0
  H  H9  1  0.51007000  0.08843000  0.73615000  1.0
  H  H10  1  0.48992000  0.08842000  0.23615000  1.0
  H  H11  1  0.48993000  0.91157000  0.26385000  1.0
  H  H12  1  0.29279000  0.92009000  0.99775000  1.0
  H  H13  1  0.29279000  0.07991000  0.50225000  1.0
  H  H14  1  0.70721000  0.07991000  0.00225000  1.0
  H  H15  1  0.70722000  0.92009000  0.49775000  1.0
  H  H16  1  0.01560000  0.90297000  0.45108000  1.0
  H  H17  1  0.01558000  0.09703000  0.04891000  1.0
  H  H18  1  0.98441000  0.09703000  0.54891000  1.0
  H  H19  1  0.98442000  0.90297000  0.95108000  1.0
  H  H20  1  0.24035000  0.85891000  0.42072000  1.0
  H  H21  1  0.24034000  0.14109000  0.07928000  1.0
  H  H22  1  0.75966000  0.14109000  0.57928000  1.0
  H  H23  1  0.75966000  0.85891000  0.92072000  1.0
  H  H24  1  0.21725000  0.67874000  0.42932000  1.0
  H  H25  1  0.21724000  0.32127000  0.07068000  1.0
  H  H26  1  0.78275000  0.32126000  0.57067000  1.0
  H  H27  1  0.78276000  0.67874000  0.92932000  1.0
  H  H28  1  0.17355000  0.52452000  0.32928000  1.0
  H  H29  1  0.17354000  0.47548000  0.17073000  1.0
  H  H30  1  0.82646000  0.47548000  0.67072000  1.0
  H  H31  1  0.82646000  0.52451000  0.82928000  1.0
  H  H32  1  0.20327000  0.38075000  0.39322000  1.0
  H  H33  1  0.20327000  0.61926000  0.10679000  1.0
  H  H34  1  0.79671000  0.61925000  0.60678000  1.0
  H  H35  1  0.79672000  0.38074000  0.89323000  1.0
  H  H36  1  0.32774000  0.54675000  0.65636000  1.0
  H  H37  1  0.32774000  0.45325000  0.84365000  1.0
  H  H38  1  0.67226000  0.45325000  0.34364000  1.0
  H  H39  1  0.67227000  0.54675000  0.15636000  1.0
  C  C40  1  0.27722000  0.37316000  0.57163000  1.0
  C  C41  1  0.27723000  0.62685000  0.92836000  1.0
  C  C42  1  0.72277000  0.62684000  0.42835000  1.0
  C  C43  1  0.72276000  0.37316000  0.07165000  1.0
  C  C44  1  0.27682000  0.62231000  0.54897000  1.0
  C  C45  1  0.27683000  0.37769000  0.95104000  1.0
  C  C46  1  0.72318000  0.37769000  0.45103000  1.0
  C  C47  1  0.72320000  0.62231000  0.04897000  1.0
  C  C48  1  0.23085000  0.61599000  0.45681000  1.0
  C  C49  1  0.23085000  0.38402000  0.04320000  1.0
  C  C50  1  0.76914000  0.38402000  0.54319000  1.0
  C  C51  1  0.76916000  0.61598000  0.95681000  1.0
  C  C52  1  0.20662000  0.52918000  0.40101000  1.0
  C  C53  1  0.20661000  0.47083000  0.09900000  1.0
  C  C54  1  0.79337000  0.47083000  0.59899000  1.0
  C  C55  1  0.79338000  0.52917000  0.90101000  1.0
  C  C56  1  0.22268000  0.44876000  0.43649000  1.0
  C  C57  1  0.22268000  0.55125000  0.06352000  1.0
  C  C58  1  0.77731000  0.55124000  0.56351000  1.0
  C  C59  1  0.77732000  0.44875000  0.93650000  1.0
  C  C60  1  0.26418000  0.45550000  0.52909000  1.0
  C  C61  1  0.26418000  0.54451000  0.97091000  1.0
  C  C62  1  0.73581000  0.54451000  0.47090000  1.0
  C  C63  1  0.73582000  0.45549000  0.02910000  1.0
  C  C64  1  0.29364000  0.54208000  0.58476000  1.0
  C  C65  1  0.29364000  0.45792000  0.91524000  1.0
  C  C66  1  0.70636000  0.45792000  0.41523000  1.0
  C  C67  1  0.70637000  0.54208000  0.08477000  1.0
  C  C68  1  0.30956000  0.71269000  0.61047000  1.0
  C  C69  1  0.30957000  0.28731000  0.88954000  1.0
  C  C70  1  0.69043000  0.28731000  0.38953000  1.0
  C  C71  1  0.69044000  0.71269000  0.11047000  1.0
  O  O72  1  0.00659000  0.95514000  0.65219000  1.0
  O  O73  1  0.00659000  0.04487000  0.84782000  1.0
  O  O74  1  0.99341000  0.04486000  0.34781000  1.0
  O  O75  1  0.99340000  0.95514000  0.15218000  1.0
  O  O76  1  0.52874000  0.94131000  0.58526000  1.0
  O  O77  1  0.52874000  0.05868000  0.91475000  1.0
  O  O78  1  0.47127000  0.05867000  0.41475000  1.0
  O  O79  1  0.47126000  0.94131000  0.08525000  1.0
  O  O80  1  0.04533000  0.76699000  0.80425000  1.0
  O  O81  1  0.04532000  0.23301000  0.69574000  1.0
  O  O82  1  0.95467000  0.23300000  0.19575000  1.0
  O  O83  1  0.95468000  0.76699000  0.30425000  1.0
  O  O84  1  0.57295000  0.79031000  0.86639000  1.0
  O  O85  1  0.57295000  0.20969000  0.63362000  1.0
  O  O86  1  0.42705000  0.20969000  0.13360000  1.0
  O  O87  1  0.42706000  0.79031000  0.36639000  1.0
  O  O88  1  0.36323000  0.91206000  0.76527000  1.0
  O  O89  1  0.36323000  0.08794000  0.73474000  1.0
  O  O90  1  0.63677000  0.08793000  0.23473000  1.0
  O  O91  1  0.63678000  0.91206000  0.26527000  1.0
  O  O92  1  0.22131000  0.91145000  0.93856000  1.0
  O  O93  1  0.22131000  0.08855000  0.56145000  1.0
  O  O94  1  0.77869000  0.08855000  0.06144000  1.0
  O  O95  1  0.77870000  0.91145000  0.43856000  1.0
  O  O96  1  0.16440000  0.90515000  0.46516000  1.0
  O  O97  1  0.16438000  0.09485000  0.03483000  1.0
  O  O98  1  0.83561000  0.09485000  0.53483000  1.0
  O  O99  1  0.83562000  0.90515000  0.96516000  1.0
  O  O100  1  0.38927000  0.71306000  0.68822000  1.0
  O  O101  1  0.38927000  0.28693000  0.81178000  1.0
  O  O102  1  0.61071000  0.28694000  0.31178000  1.0
  O  O103  1  0.61073000  0.71307000  0.18822000  1.0
  O  O104  1  0.25816000  0.78684000  0.58549000  1.0
  O  O105  1  0.25816000  0.21317000  0.91451000  1.0
  O  O106  1  0.74183000  0.21316000  0.41451000  1.0
  O  O107  1  0.74184000  0.78683000  0.08549000  1.0
  O  O108  1  0.25164000  0.29064000  0.52669000  1.0
  O  O109  1  0.25163000  0.70936000  0.97331000  1.0
  O  O110  1  0.74836000  0.70936000  0.47330000  1.0
  O  O111  1  0.74836000  0.29064000  0.02670000  1.0
  O  O112  1  0.31453000  0.38509000  0.65748000  1.0
  O  O113  1  0.31456000  0.61491000  0.84252000  1.0
  O  O114  1  0.68546000  0.61491000  0.34251000  1.0
  O  O115  1  0.68544000  0.38509000  0.15749000  1.0
