# generated using pymatgen
data_CoH3C6SNO2
_symmetry_space_group_name_H-M   'P 1'
_cell_length_a   8.73373000
_cell_length_b   8.73377000
_cell_length_c   11.97360000
_cell_angle_alpha   89.99900000
_cell_angle_beta   89.99950000
_cell_angle_gamma   103.12000000
_symmetry_Int_Tables_number   1
_chemical_formula_structural   CoH3C6SNO2
_chemical_formula_sum   'Co4 H12 C24 S4 N4 O8'
_cell_volume   889.48615625
_cell_formula_units_Z   4
loop_
 _symmetry_equiv_pos_site_id
 _symmetry_equiv_pos_as_xyz
  1  'x, y, z'
loop_
 _atom_site_type_symbol
 _atom_site_label
 _atom_site_symmetry_multiplicity
 _atom_site_fract_x
 _atom_site_fract_y
 _atom_site_fract_z
 _atom_site_occupancy
  Co  Co0  1  0.61539000  0.61538000  0.50000000  1.0
  Co  Co1  1  0.38461000  0.38461000  1.00000000  1.0
  Co  Co2  1  0.39443000  0.60559000  0.25000000  1.0
  Co  Co3  1  0.60559000  0.39443000  0.75000000  1.0
  H  H4  1  0.63487000  0.98527000  0.19504000  1.0
  H  H5  1  0.36509000  0.01473000  0.69504000  1.0
  H  H6  1  0.01474000  0.36511000  0.30497000  1.0
  H  H7  1  0.98527000  0.63490000  0.80495000  1.0
  H  H8  1  0.61162000  0.22844000  0.30163000  1.0
  H  H9  1  0.38836000  0.77155000  0.80163000  1.0
  H  H10  1  0.77156000  0.38837000  0.19837000  1.0
  H  H11  1  0.22845000  0.61163000  0.69836000  1.0
  H  H12  1  0.64440000  0.97824000  0.60739000  1.0
  H  H13  1  0.35558000  0.02175000  0.10740000  1.0
  H  H14  1  0.02176000  0.35558000  0.89261000  1.0
  H  H15  1  0.97825000  0.64443000  0.39260000  1.0
  C  C16  1  0.64612000  0.85370000  0.34675000  1.0
  C  C17  1  0.35388000  0.14630000  0.84675000  1.0
  C  C18  1  0.14631000  0.35388000  0.15326000  1.0
  C  C19  1  0.85370000  0.64613000  0.65325000  1.0
  C  C20  1  0.63721000  0.98870000  0.28591000  1.0
  C  C21  1  0.36278000  0.01131000  0.78592000  1.0
  C  C22  1  0.01132000  0.36278000  0.21409000  1.0
  C  C23  1  0.98869000  0.63722000  0.71408000  1.0
  C  C24  1  0.62600000  0.12274000  0.34457000  1.0
  C  C25  1  0.37398000  0.87725000  0.84458000  1.0
  C  C26  1  0.87727000  0.37399000  0.15543000  1.0
  C  C27  1  0.12275000  0.62601000  0.65541000  1.0
  C  C28  1  0.63168000  0.12334000  0.46176000  1.0
  C  C29  1  0.36831000  0.87665000  0.96176000  1.0
  C  C30  1  0.87666000  0.36833000  0.03824000  1.0
  C  C31  1  0.12335000  0.63168000  0.53823000  1.0
  C  C32  1  0.64165000  0.98440000  0.51645000  1.0
  C  C33  1  0.35834000  0.01560000  0.01645000  1.0
  C  C34  1  0.01561000  0.35834000  0.98356000  1.0
  C  C35  1  0.98440000  0.64167000  0.48355000  1.0
  C  C36  1  0.62459000  0.26722000  0.52625000  1.0
  C  C37  1  0.37539000  0.73277000  0.02626000  1.0
  C  C38  1  0.73278000  0.37540000  0.97375000  1.0
  C  C39  1  0.26723000  0.62460000  0.47374000  1.0
  S  S40  1  0.65027000  0.66896000  0.29152000  1.0
  S  S41  1  0.34973000  0.33105000  0.79153000  1.0
  S  S42  1  0.33106000  0.34973000  0.20848000  1.0
  S  S43  1  0.66896000  0.65028000  0.70848000  1.0
  N  N44  1  0.64524000  0.85300000  0.46013000  1.0
  N  N45  1  0.35476000  0.14699000  0.96013000  1.0
  N  N46  1  0.14700000  0.35475000  0.03987000  1.0
  N  N47  1  0.85301000  0.64525000  0.53986000  1.0
  O  O48  1  0.59491000  0.38243000  0.47260000  1.0
  O  O49  1  0.40509000  0.61755000  0.97259000  1.0
  O  O50  1  0.61756000  0.40509000  0.02741000  1.0
  O  O51  1  0.38244000  0.59491000  0.52740000  1.0
  O  O52  1  0.64937000  0.26199000  0.63164000  1.0
  O  O53  1  0.35062000  0.73799000  0.13163000  1.0
  O  O54  1  0.73801000  0.35062000  0.86837000  1.0
  O  O55  1  0.26200000  0.64938000  0.36836000  1.0
