# generated using pymatgen
data_CdH9C11N3O4
_symmetry_space_group_name_H-M   'P 1'
_cell_length_a   7.83419000
_cell_length_b   12.24940000
_cell_length_c   12.95760000
_cell_angle_alpha   93.36220000
_cell_angle_beta   90.00000000
_cell_angle_gamma   90.00000000
_symmetry_Int_Tables_number   1
_chemical_formula_structural   CdH9C11N3O4
_chemical_formula_sum   'Cd4 H36 C44 N12 O16'
_cell_volume   1241.32444210
_cell_formula_units_Z   4
loop_
 _symmetry_equiv_pos_site_id
 _symmetry_equiv_pos_as_xyz
  1  'x, y, z'
loop_
 _atom_site_type_symbol
 _atom_site_label
 _atom_site_symmetry_multiplicity
 _atom_site_fract_x
 _atom_site_fract_y
 _atom_site_fract_z
 _atom_site_occupancy
  Cd  Cd0  1  0.84338000  0.78331000  0.07180000  1.0
  Cd  Cd1  1  0.34338000  0.71669000  0.42820000  1.0
  Cd  Cd2  1  0.15662000  0.21669000  0.92820000  1.0
  Cd  Cd3  1  0.65662000  0.28331000  0.57180000  1.0
  H  H4  1  0.82871000  0.51821000  0.06927000  1.0
  H  H5  1  0.32871000  0.98179000  0.43073000  1.0
  H  H6  1  0.17129000  0.48179000  0.93073000  1.0
  H  H7  1  0.67129000  0.01821000  0.56927000  1.0
  H  H8  1  0.71594000  0.35808000  0.96002000  1.0
  H  H9  1  0.21593000  0.14192000  0.53998000  1.0
  H  H10  1  0.28407000  0.64191000  0.03998000  1.0
  H  H11  1  0.78407000  0.85809000  0.46002000  1.0
  H  H12  1  0.57084000  0.39783000  0.79045000  1.0
  H  H13  1  0.07084000  0.10217000  0.70955000  1.0
  H  H14  1  0.42916000  0.60217000  0.20955000  1.0
  H  H15  1  0.92916000  0.89783000  0.29044000  1.0
  H  H16  1  0.55210000  0.58722000  0.73840000  1.0
  H  H17  1  0.05209000  0.91278000  0.76160000  1.0
  H  H18  1  0.44790000  0.41278000  0.26160000  1.0
  H  H19  1  0.94790000  0.08722000  0.23840000  1.0
  H  H20  1  0.58885000  0.78145000  0.68700000  1.0
  H  H21  1  0.08885000  0.71855000  0.81300000  1.0
  H  H22  1  0.41115000  0.21855000  0.31300000  1.0
  H  H23  1  0.91115000  0.28145000  0.18700000  1.0
  H  H24  1  0.59796000  0.00364000  0.74617000  1.0
  H  H25  1  0.09797000  0.49636000  0.75383000  1.0
  H  H26  1  0.40203000  0.99636000  0.25383000  1.0
  H  H27  1  0.90203000  0.50364000  0.24617000  1.0
  H  H28  1  0.67366000  0.02336000  0.03537000  1.0
  H  H29  1  0.17366000  0.47664000  0.46463000  1.0
  H  H30  1  0.32634000  0.97664000  0.96462000  1.0
  H  H31  1  0.82634000  0.52336000  0.53538000  1.0
  H  H32  1  0.58503000  0.09884000  0.93442000  1.0
  H  H33  1  0.08503000  0.40116000  0.56558000  1.0
  H  H34  1  0.41497000  0.90116000  0.06558000  1.0
  H  H35  1  0.91497000  0.59884000  0.43442000  1.0
  H  H36  1  0.14473000  0.76895000  0.22362000  1.0
  H  H37  1  0.64474000  0.73105000  0.27638000  1.0
  H  H38  1  0.85527000  0.23105000  0.77638000  1.0
  H  H39  1  0.35526000  0.26895000  0.72363000  1.0
  C  C40  1  0.76617000  0.52922000  0.99537000  1.0
  C  C41  1  0.26617000  0.97078000  0.50464000  1.0
  C  C42  1  0.23384000  0.47078000  0.00463000  1.0
  C  C43  1  0.73383000  0.02922000  0.49536000  1.0
  C  C44  1  0.70217000  0.44102000  0.93461000  1.0
  C  C45  1  0.20217000  0.05898000  0.56539000  1.0
  C  C46  1  0.29784000  0.55898000  0.06539000  1.0
  C  C47  1  0.79783000  0.94102000  0.43461000  1.0
  C  C48  1  0.62386000  0.46304000  0.84126000  1.0
  C  C49  1  0.12386000  0.03696000  0.65874000  1.0
  C  C50  1  0.37614000  0.53696000  0.15874000  1.0
  C  C51  1  0.87614000  0.96304000  0.34126000  1.0
  C  C52  1  0.61314000  0.57011000  0.81122000  1.0
  C  C53  1  0.11314000  0.92989000  0.68878000  1.0
  C  C54  1  0.38686000  0.42989000  0.18878000  1.0
  C  C55  1  0.88686000  0.07011000  0.31122000  1.0
  C  C56  1  0.67992000  0.65444000  0.87662000  1.0
  C  C57  1  0.17992000  0.84555000  0.62338000  1.0
  C  C58  1  0.32008000  0.34556000  0.12338000  1.0
  C  C59  1  0.82008000  0.15444000  0.37662000  1.0
  C  C60  1  0.66775000  0.76972000  0.85316000  1.0
  C  C61  1  0.16775000  0.73028000  0.64684000  1.0
  C  C62  1  0.33225000  0.23028000  0.14684000  1.0
  C  C63  1  0.83225000  0.26972000  0.35316000  1.0
  C  C64  1  0.61998000  0.82032000  0.76212000  1.0
  C  C65  1  0.11998000  0.67967000  0.73788000  1.0
  C  C66  1  0.38001000  0.17968000  0.23788000  1.0
  C  C67  1  0.88002000  0.32033000  0.26212000  1.0
  C  C68  1  0.62557000  0.93178000  0.78868000  1.0
  C  C69  1  0.12557000  0.56822000  0.71131000  1.0
  C  C70  1  0.37443000  0.06821000  0.21131000  1.0
  C  C71  1  0.87443000  0.43179000  0.28869000  1.0
  C  C72  1  0.68931000  0.04395000  0.95464000  1.0
  C  C73  1  0.18931000  0.45605000  0.54536000  1.0
  C  C74  1  0.31069000  0.95604000  0.04535000  1.0
  C  C75  1  0.81069000  0.54396000  0.45465000  1.0
  C  C76  1  0.85725000  0.10543000  0.94587000  1.0
  C  C77  1  0.35725000  0.39457000  0.55413000  1.0
  C  C78  1  0.14275000  0.89457000  0.05412000  1.0
  C  C79  1  0.64275000  0.60543000  0.44588000  1.0
  C  C80  1  0.06488000  0.70190000  0.25161000  1.0
  C  C81  1  0.56489000  0.79810000  0.24840000  1.0
  C  C82  1  0.93511000  0.29810000  0.74839000  1.0
  C  C83  1  0.43511000  0.20190000  0.75161000  1.0
  N  N84  1  0.75532000  0.63273000  0.96745000  1.0
  N  N85  1  0.25532000  0.86727000  0.53255000  1.0
  N  N86  1  0.24469000  0.36727000  0.03255000  1.0
  N  N87  1  0.74469000  0.13273000  0.46745000  1.0
  N  N88  1  0.70064000  0.84659000  0.92935000  1.0
  N  N89  1  0.20064000  0.65341000  0.57065000  1.0
  N  N90  1  0.29936000  0.15341000  0.07065000  1.0
  N  N91  1  0.79936000  0.34659000  0.42935000  1.0
  N  N92  1  0.67418000  0.94384000  0.88960000  1.0
  N  N93  1  0.17418000  0.55616000  0.61040000  1.0
  N  N94  1  0.32582000  0.05616000  0.11040000  1.0
  N  N95  1  0.82582000  0.44384000  0.38960000  1.0
  O  O96  1  0.97502000  0.06588000  0.88726000  1.0
  O  O97  1  0.47502000  0.43412000  0.61274000  1.0
  O  O98  1  0.02498000  0.93411000  0.11274000  1.0
  O  O99  1  0.52498000  0.56589000  0.38726000  1.0
  O  O100  1  0.86765000  0.19610000  0.99833000  1.0
  O  O101  1  0.36765000  0.30390000  0.50167000  1.0
  O  O102  1  0.13235000  0.80390000  0.00167000  1.0
  O  O103  1  0.63235000  0.69610000  0.49833000  1.0
  O  O104  1  0.92927000  0.67553000  0.20231000  1.0
  O  O105  1  0.42927000  0.82447000  0.29769000  1.0
  O  O106  1  0.07073000  0.32447000  0.79769000  1.0
  O  O107  1  0.57072000  0.17553000  0.70231000  1.0
  O  O108  1  0.11438000  0.65604000  0.33144000  1.0
  O  O109  1  0.61438000  0.84396000  0.16856000  1.0
  O  O110  1  0.88562000  0.34396000  0.66856000  1.0
  O  O111  1  0.38562000  0.15604000  0.83145000  1.0
