# generated using pymatgen
data_HoAgH12C14N2O11
_symmetry_space_group_name_H-M   'P 1'
_cell_length_a   7.31998000
_cell_length_b   13.08560000
_cell_length_c   19.80750000
_cell_angle_alpha   105.89000000
_cell_angle_beta   90.00000000
_cell_angle_gamma   89.99940000
_symmetry_Int_Tables_number   1
_chemical_formula_structural   HoAgH12C14N2O11
_chemical_formula_sum   'Ho4 Ag4 H48 C56 N8 O44'
_cell_volume   1824.79068368
_cell_formula_units_Z   4
loop_
 _symmetry_equiv_pos_site_id
 _symmetry_equiv_pos_as_xyz
  1  'x, y, z'
loop_
 _atom_site_type_symbol
 _atom_site_label
 _atom_site_symmetry_multiplicity
 _atom_site_fract_x
 _atom_site_fract_y
 _atom_site_fract_z
 _atom_site_occupancy
  Ho  Ho0  1  0.09874000  0.80723000  0.14919000  1.0
  Ho  Ho1  1  0.59873000  0.69274000  0.35080000  1.0
  Ho  Ho2  1  0.90127000  0.19277000  0.85081000  1.0
  Ho  Ho3  1  0.40127000  0.30726000  0.64919000  1.0
  Ag  Ag4  1  0.58871000  0.89481000  0.99401000  1.0
  Ag  Ag5  1  0.08875000  0.60520000  0.50600000  1.0
  Ag  Ag6  1  0.41129000  0.10518000  0.00600000  1.0
  Ag  Ag7  1  0.91127000  0.39482000  0.49401000  1.0
  H  H8  1  0.20617000  0.60738000  0.86864000  1.0
  H  H9  1  0.70615000  0.89263000  0.63135000  1.0
  H  H10  1  0.79384000  0.39262000  0.13136000  1.0
  H  H11  1  0.29382000  0.10738000  0.36864000  1.0
  H  H12  1  0.91560000  0.49965000  0.84868000  1.0
  H  H13  1  0.41558000  0.00036000  0.65131000  1.0
  H  H14  1  0.08440000  0.50035000  0.15131000  1.0
  H  H15  1  0.58439000  0.99964000  0.34869000  1.0
  H  H16  1  0.69700000  0.51995000  0.95039000  1.0
  H  H17  1  0.19701000  0.98007000  0.54959000  1.0
  H  H18  1  0.30298000  0.48006000  0.04960000  1.0
  H  H19  1  0.80296000  0.01994000  0.45040000  1.0
  H  H20  1  0.47101000  0.19010000  0.20713000  1.0
  H  H21  1  0.97099000  0.30986000  0.29286000  1.0
  H  H22  1  0.52900000  0.80989000  0.79288000  1.0
  H  H23  1  0.02901000  0.69014000  0.70716000  1.0
  H  H24  1  0.24092000  0.29035000  0.15392000  1.0
  H  H25  1  0.74091000  0.20962000  0.34608000  1.0
  H  H26  1  0.75911000  0.70964000  0.84609000  1.0
  H  H27  1  0.25910000  0.79039000  0.65394000  1.0
  H  H28  1  0.96427000  0.19073000  0.09331000  1.0
  H  H29  1  0.46429000  0.30925000  0.40670000  1.0
  H  H30  1  0.03575000  0.80927000  0.90669000  1.0
  H  H31  1  0.53572000  0.69077000  0.59332000  1.0
  H  H32  1  0.77891000  0.95742000  0.23501000  1.0
  H  H33  1  0.27891000  0.54254000  0.26499000  1.0
  H  H34  1  0.22110000  0.04257000  0.76500000  1.0
  H  H35  1  0.72109000  0.45746000  0.73501000  1.0
  H  H36  1  0.96481000  0.97652000  0.27880000  1.0
  H  H37  1  0.46481000  0.52343000  0.22119000  1.0
  H  H38  1  0.03520000  0.02347000  0.72120000  1.0
  H  H39  1  0.53519000  0.47657000  0.77881000  1.0
  H  H40  1  0.01024000  0.69487000  0.26151000  1.0
  H  H41  1  0.51024000  0.80509000  0.23849000  1.0
  H  H42  1  0.98977000  0.30511000  0.73849000  1.0
  H  H43  1  0.48977000  0.19489000  0.76151000  1.0
  H  H44  1  0.18295000  0.76966000  0.29186000  1.0
  H  H45  1  0.68294000  0.73030000  0.20813000  1.0
  H  H46  1  0.81705000  0.23033000  0.70813000  1.0
  H  H47  1  0.31707000  0.26969000  0.79187000  1.0
  H  H48  1  0.41919000  0.64479000  0.11716000  1.0
  H  H49  1  0.91917000  0.85519000  0.38283000  1.0
  H  H50  1  0.58082000  0.35521000  0.88284000  1.0
  H  H51  1  0.08083000  0.14481000  0.61716000  1.0
  H  H52  1  0.31335000  0.65212000  0.18767000  1.0
  H  H53  1  0.81330000  0.84785000  0.31232000  1.0
  H  H54  1  0.68668000  0.34787000  0.81233000  1.0
  H  H55  1  0.18670000  0.15215000  0.68768000  1.0
  C  C56  1  0.14583000  0.67717000  0.97790000  1.0
  C  C57  1  0.64583000  0.82283000  0.52209000  1.0
  C  C58  1  0.85418000  0.32283000  0.02210000  1.0
  C  C59  1  0.35415000  0.17717000  0.47790000  1.0
  C  C60  1  0.10940000  0.61086000  0.91094000  1.0
  C  C61  1  0.60938000  0.88914000  0.58905000  1.0
  C  C62  1  0.89061000  0.38914000  0.08905000  1.0
  C  C63  1  0.39059000  0.11086000  0.41095000  1.0
  C  C64  1  0.94742000  0.55227000  0.90018000  1.0
  C  C65  1  0.44741000  0.94774000  0.59981000  1.0
  C  C66  1  0.05259000  0.44773000  0.09981000  1.0
  C  C67  1  0.55256000  0.05227000  0.40019000  1.0
  C  C68  1  0.82646000  0.56233000  0.95608000  1.0
  C  C69  1  0.32646000  0.93768000  0.54390000  1.0
  C  C70  1  0.17354000  0.43768000  0.04391000  1.0
  C  C71  1  0.67352000  0.06232000  0.45610000  1.0
  C  C72  1  0.87636000  0.62793000  0.02161000  1.0
  C  C73  1  0.37637000  0.87206000  0.47838000  1.0
  C  C74  1  0.12363000  0.37207000  0.97838000  1.0
  C  C75  1  0.62361000  0.12794000  0.52162000  1.0
  C  C76  1  0.30358000  0.75333000  0.99574000  1.0
  C  C77  1  0.80359000  0.74667000  0.50426000  1.0
  C  C78  1  0.69641000  0.24667000  0.00425000  1.0
  C  C79  1  0.19640000  0.25334000  0.49574000  1.0
  C  C80  1  0.75837000  0.64365000  0.08576000  1.0
  C  C81  1  0.25838000  0.85634000  0.41423000  1.0
  C  C82  1  0.24162000  0.35635000  0.91423000  1.0
  C  C83  1  0.74160000  0.14367000  0.58577000  1.0
  C  C84  1  0.30810000  0.04789000  0.18125000  1.0
  C  C85  1  0.80809000  0.45208000  0.31874000  1.0
  C  C86  1  0.69191000  0.95210000  0.81874000  1.0
  C  C87  1  0.19192000  0.54792000  0.68127000  1.0
  C  C88  1  0.34506000  0.15334000  0.18297000  1.0
  C  C89  1  0.84504000  0.34663000  0.31702000  1.0
  C  C90  1  0.65495000  0.84666000  0.81703000  1.0
  C  C91  1  0.15496000  0.65338000  0.68299000  1.0
  C  C92  1  0.21868000  0.20755000  0.15265000  1.0
  C  C93  1  0.71867000  0.29242000  0.34734000  1.0
  C  C94  1  0.78134000  0.79244000  0.84735000  1.0
  C  C95  1  0.28133000  0.70759000  0.65268000  1.0
  C  C96  1  0.06474000  0.15348000  0.11929000  1.0
  C  C97  1  0.56474000  0.34649000  0.38071000  1.0
  C  C98  1  0.93529000  0.84651000  0.88071000  1.0
  C  C99  1  0.43527000  0.65353000  0.61931000  1.0
  C  C100  1  0.04113000  0.04740000  0.11862000  1.0
  C  C101  1  0.54113000  0.45258000  0.38138000  1.0
  C  C102  1  0.95888000  0.95260000  0.88138000  1.0
  C  C103  1  0.45887000  0.54743000  0.61862000  1.0
  C  C104  1  0.43436000  0.98049000  0.21132000  1.0
  C  C105  1  0.93436000  0.51947000  0.28867000  1.0
  C  C106  1  0.56564000  0.01950000  0.78868000  1.0
  C  C107  1  0.06564000  0.48051000  0.71133000  1.0
  C  C108  1  0.88994000  0.97802000  0.08018000  1.0
  C  C109  1  0.38995000  0.52197000  0.41982000  1.0
  C  C110  1  0.11007000  0.02198000  0.91983000  1.0
  C  C111  1  0.61005000  0.47805000  0.58018000  1.0
  N  N112  1  0.03259000  0.68311000  0.03196000  1.0
  N  N113  1  0.53259000  0.81688000  0.46803000  1.0
  N  N114  1  0.96741000  0.31689000  0.96804000  1.0
  N  N115  1  0.46739000  0.18312000  0.53197000  1.0
  N  N116  1  0.15780000  0.99733000  0.15080000  1.0
  N  N117  1  0.65779000  0.50264000  0.34919000  1.0
  N  N118  1  0.84221000  0.00266000  0.84920000  1.0
  N  N119  1  0.34221000  0.49737000  0.65081000  1.0
  O  O120  1  0.31107000  0.81178000  0.05866000  1.0
  O  O121  1  0.81106000  0.68821000  0.44134000  1.0
  O  O122  1  0.68893000  0.18822000  0.94134000  1.0
  O  O123  1  0.18895000  0.31181000  0.55866000  1.0
  O  O124  1  0.41413000  0.75835000  0.94720000  1.0
  O  O125  1  0.91416000  0.74166000  0.55280000  1.0
  O  O126  1  0.58585000  0.24166000  0.05279000  1.0
  O  O127  1  0.08583000  0.25833000  0.44720000  1.0
  O  O128  1  0.82729000  0.70373000  0.14287000  1.0
  O  O129  1  0.32730000  0.79625000  0.35711000  1.0
  O  O130  1  0.17270000  0.29627000  0.85712000  1.0
  O  O131  1  0.67269000  0.20375000  0.64288000  1.0
  O  O132  1  0.60631000  0.59818000  0.07943000  1.0
  O  O133  1  0.10631000  0.90180000  0.42055000  1.0
  O  O134  1  0.39369000  0.40181000  0.92056000  1.0
  O  O135  1  0.89368000  0.09821000  0.57944000  1.0
  O  O136  1  0.36696000  0.89174000  0.21541000  1.0
  O  O137  1  0.86696000  0.60823000  0.28459000  1.0
  O  O138  1  0.63305000  0.10825000  0.78459000  1.0
  O  O139  1  0.13303000  0.39176000  0.71541000  1.0
  O  O140  1  0.59172000  0.01613000  0.22961000  1.0
  O  O141  1  0.09171000  0.48383000  0.27038000  1.0
  O  O142  1  0.40830000  0.98386000  0.77038000  1.0
  O  O143  1  0.90829000  0.51615000  0.72962000  1.0
  O  O144  1  0.88139000  0.88428000  0.08654000  1.0
  O  O145  1  0.38139000  0.61571000  0.41346000  1.0
  O  O146  1  0.11861000  0.11573000  0.91347000  1.0
  O  O147  1  0.61859000  0.38430000  0.58653000  1.0
  O  O148  1  0.78422000  0.01681000  0.04248000  1.0
  O  O149  1  0.28425000  0.48319000  0.45754000  1.0
  O  O150  1  0.21578000  0.98320000  0.95754000  1.0
  O  O151  1  0.71577000  0.51684000  0.54247000  1.0
  O  O152  1  0.90033000  0.92441000  0.24213000  1.0
  O  O153  1  0.40033000  0.57555000  0.25786000  1.0
  O  O154  1  0.09967000  0.07558000  0.75787000  1.0
  O  O155  1  0.59966000  0.42445000  0.74214000  1.0
  O  O156  1  0.09655000  0.74756000  0.25106000  1.0
  O  O157  1  0.59653000  0.75239000  0.24893000  1.0
  O  O158  1  0.90346000  0.25243000  0.74893000  1.0
  O  O159  1  0.40346000  0.24758000  0.75107000  1.0
  O  O160  1  0.29712000  0.66227000  0.14069000  1.0
  O  O161  1  0.79709000  0.83770000  0.35931000  1.0
  O  O162  1  0.70289000  0.33772000  0.85931000  1.0
  O  O163  1  0.20290000  0.16229000  0.64068000  1.0
