# generated using pymatgen
data_ZnH23C31S2NO6
_symmetry_space_group_name_H-M   'P 1'
_cell_length_a   10.15400000
_cell_length_b   12.42070000
_cell_length_c   12.67670000
_cell_angle_alpha   64.65890000
_cell_angle_beta   72.33620000
_cell_angle_gamma   86.50040000
_symmetry_Int_Tables_number   1
_chemical_formula_structural   ZnH23C31S2NO6
_chemical_formula_sum   'Zn2 H46 C62 S4 N2 O12'
_cell_volume   1372.41235419
_cell_formula_units_Z   2
loop_
 _symmetry_equiv_pos_site_id
 _symmetry_equiv_pos_as_xyz
  1  'x, y, z'
loop_
 _atom_site_type_symbol
 _atom_site_label
 _atom_site_symmetry_multiplicity
 _atom_site_fract_x
 _atom_site_fract_y
 _atom_site_fract_z
 _atom_site_occupancy
  Zn  Zn0  1  0.99830000  0.56474000  0.36916000  1.0
  Zn  Zn1  1  0.00170000  0.43526000  0.63084000  1.0
  H  H2  1  0.52766000  0.26787000  0.08129000  1.0
  H  H3  1  0.47233000  0.73214000  0.91872000  1.0
  H  H4  1  0.06514000  0.85739000  0.35480000  1.0
  H  H5  1  0.93487000  0.14260000  0.64520000  1.0
  H  H6  1  0.78440000  0.36825000  0.24660000  1.0
  H  H7  1  0.21560000  0.63175000  0.75340000  1.0
  H  H8  1  0.07733000  0.28062000  0.29791000  1.0
  H  H9  1  0.92267000  0.71938000  0.70209000  1.0
  H  H10  1  0.85339000  0.96884000  0.34968000  1.0
  H  H11  1  0.14662000  0.03115000  0.65032000  1.0
  H  H12  1  0.86185000  0.18054000  0.31555000  1.0
  H  H13  1  0.13815000  0.81946000  0.68445000  1.0
  H  H14  1  0.53980000  0.84318000  0.98428000  1.0
  H  H15  1  0.46021000  0.15682000  0.01573000  1.0
  H  H16  1  0.52948000  0.97117000  0.09226000  1.0
  H  H17  1  0.47053000  0.02884000  0.90773000  1.0
  H  H18  1  0.64688000  0.68027000  0.37942000  1.0
  H  H19  1  0.35312000  0.31972000  0.62057000  1.0
  H  H20  1  0.82387000  0.57365000  0.86353000  1.0
  H  H21  1  0.17613000  0.42636000  0.13648000  1.0
  H  H22  1  0.89694000  0.53621000  0.04722000  1.0
  H  H23  1  0.10307000  0.46379000  0.95278000  1.0
  H  H24  1  0.59638000  0.63055000  0.07753000  1.0
  H  H25  1  0.40363000  0.36946000  0.92247000  1.0
  H  H26  1  0.63887000  0.44122000  0.88187000  1.0
  H  H27  1  0.36112000  0.55879000  0.11813000  1.0
  H  H28  1  0.64742000  0.54993000  0.27672000  1.0
  H  H29  1  0.35257000  0.45006000  0.72328000  1.0
  H  H30  1  0.25494000  0.77480000  0.53604000  1.0
  H  H31  1  0.74506000  0.22520000  0.46395000  1.0
  H  H32  1  0.39077000  0.69991000  0.47554000  1.0
  H  H33  1  0.60922000  0.30009000  0.52446000  1.0
  H  H34  1  0.41389000  0.36893000  0.37319000  1.0
  H  H35  1  0.58610000  0.63107000  0.62679000  1.0
  H  H36  1  0.32007000  0.22771000  0.47312000  1.0
  H  H37  1  0.67993000  0.77229000  0.52687000  1.0
  H  H38  1  0.88687000  0.62785000  0.16266000  1.0
  H  H39  1  0.11313000  0.37214000  0.83735000  1.0
  H  H40  1  0.20382000  0.77567000  0.21357000  1.0
  H  H41  1  0.79618000  0.22433000  0.78644000  1.0
  H  H42  1  0.11578000  0.95275000  0.86824000  1.0
  H  H43  1  0.88421000  0.04724000  0.13176000  1.0
  H  H44  1  0.25496000  0.94631000  0.00340000  1.0
  H  H45  1  0.74504000  0.05369000  0.99660000  1.0
  H  H46  1  0.92678000  0.78959000  0.94972000  1.0
  H  H47  1  0.07322000  0.21040000  0.05029000  1.0
  C  C48  1  0.31437000  0.94298000  0.33294000  1.0
  C  C49  1  0.68563000  0.05702000  0.66705000  1.0
  C  C50  1  0.19343000  0.00632000  0.32659000  1.0
  C  C51  1  0.80657000  0.99368000  0.67342000  1.0
  C  C52  1  0.43804000  0.99775000  0.31947000  1.0
  C  C53  1  0.56196000  0.00225000  0.68053000  1.0
  C  C54  1  0.32151000  0.18008000  0.30487000  1.0
  C  C55  1  0.67849000  0.81992000  0.69513000  1.0
  C  C56  1  0.60897000  0.32679000  0.07310000  1.0
  C  C57  1  0.39102000  0.67322000  0.92690000  1.0
  C  C58  1  0.43974000  0.11720000  0.30970000  1.0
  C  C59  1  0.56026000  0.88281000  0.69030000  1.0
  C  C60  1  0.19710000  0.12756000  0.31067000  1.0
  C  C61  1  0.80290000  0.87243000  0.68933000  1.0
  C  C62  1  0.65108000  0.30434000  0.17552000  1.0
  C  C63  1  0.34892000  0.69566000  0.82449000  1.0
  C  C64  1  0.58609000  0.83355000  0.24302000  1.0
  C  C65  1  0.41391000  0.16645000  0.75698000  1.0
  C  C66  1  0.06743000  0.95017000  0.34077000  1.0
  C  C67  1  0.93257000  0.04983000  0.65923000  1.0
  C  C68  1  0.75340000  0.38160000  0.16680000  1.0
  C  C69  1  0.24660000  0.61840000  0.83320000  1.0
  C  C70  1  0.07488000  0.18909000  0.30798000  1.0
  C  C71  1  0.92513000  0.81091000  0.69202000  1.0
  C  C72  1  0.95038000  0.01234000  0.33787000  1.0
  C  C73  1  0.04962000  0.98766000  0.66213000  1.0
  C  C74  1  0.95473000  0.13251000  0.32023000  1.0
  C  C75  1  0.04528000  0.86749000  0.67976000  1.0
  C  C76  1  0.56082000  0.80645000  0.07209000  1.0
  C  C77  1  0.43918000  0.19356000  0.92791000  1.0
  C  C78  1  0.55733000  0.87930000  0.13101000  1.0
  C  C79  1  0.44267000  0.12070000  0.86899000  1.0
  C  C80  1  0.61942000  0.71502000  0.29471000  1.0
  C  C81  1  0.38058000  0.28498000  0.70529000  1.0
  C  C82  1  0.77547000  0.49928000  0.95158000  1.0
  C  C83  1  0.22453000  0.50073000  0.04843000  1.0
  C  C84  1  0.81564000  0.47786000  0.05435000  1.0
  C  C85  1  0.18436000  0.52214000  0.94565000  1.0
  C  C86  1  0.59221000  0.68733000  0.12419000  1.0
  C  C87  1  0.40779000  0.31267000  0.87581000  1.0
  C  C88  1  0.67087000  0.42414000  0.96189000  1.0
  C  C89  1  0.32912000  0.57587000  0.03810000  1.0
  C  C90  1  0.62111000  0.64214000  0.23552000  1.0
  C  C91  1  0.37889000  0.35786000  0.76448000  1.0
  C  C92  1  0.18543000  0.63616000  0.50202000  1.0
  C  C93  1  0.81456000  0.36385000  0.49798000  1.0
  C  C94  1  0.29027000  0.73676000  0.46924000  1.0
  C  C95  1  0.70973000  0.26324000  0.53077000  1.0
  C  C96  1  0.31982000  0.31330000  0.39552000  1.0
  C  C97  1  0.68018000  0.68670000  0.60447000  1.0
  C  C98  1  0.96794000  0.69989000  0.12279000  1.0
  C  C99  1  0.03205000  0.30011000  0.87721000  1.0
  C  C100  1  0.14551000  0.78321000  0.15154000  1.0
  C  C101  1  0.85449000  0.21678000  0.84846000  1.0
  C  C102  1  0.09491000  0.88067000  0.96025000  1.0
  C  C103  1  0.90509000  0.11933000  0.03975000  1.0
  C  C104  1  0.17321000  0.87683000  0.03495000  1.0
  C  C105  1  0.82679000  0.12317000  0.96506000  1.0
  C  C106  1  0.99032000  0.79033000  0.00496000  1.0
  C  C107  1  0.00967000  0.20968000  0.99504000  1.0
  C  C108  1  0.19440000  0.37784000  0.43311000  1.0
  C  C109  1  0.80561000  0.62217000  0.56687000  1.0
  S  S110  1  0.58773000  0.17708000  0.31756000  1.0
  S  S111  1  0.41228000  0.82292000  0.68244000  1.0
  S  S112  1  0.59291000  0.92477000  0.31787000  1.0
  S  S113  1  0.40709000  0.07523000  0.68212000  1.0
  N  N114  1  0.04368000  0.69633000  0.19479000  1.0
  N  N115  1  0.95633000  0.30367000  0.80522000  1.0
  O  O116  1  0.30513000  0.82703000  0.34796000  1.0
  O  O117  1  0.69488000  0.17297000  0.65204000  1.0
  O  O118  1  0.32279000  0.29621000  0.28974000  1.0
  O  O119  1  0.67720000  0.70380000  0.71026000  1.0
  O  O120  1  0.14066000  0.44442000  0.35175000  1.0
  O  O121  1  0.85934000  0.55559000  0.64824000  1.0
  O  O122  1  0.13779000  0.64041000  0.41927000  1.0
  O  O123  1  0.86221000  0.35958000  0.58074000  1.0
  O  O124  1  0.15913000  0.36028000  0.54475000  1.0
  O  O125  1  0.84087000  0.63972000  0.45525000  1.0
  O  O126  1  0.15431000  0.55514000  0.61191000  1.0
  O  O127  1  0.84569000  0.44486000  0.38809000  1.0
