# generated using pymatgen
data_CuH9C13BrN
_symmetry_space_group_name_H-M   'P 1'
_cell_length_a   3.86004000
_cell_length_b   8.48077000
_cell_length_c   8.73099000
_cell_angle_alpha   67.47780000
_cell_angle_beta   86.67170000
_cell_angle_gamma   79.62390000
_symmetry_Int_Tables_number   1
_chemical_formula_structural   CuH9C13BrN
_chemical_formula_sum   'Cu1 H9 C13 Br1 N1'
_cell_volume   259.68321884
_cell_formula_units_Z   1
loop_
 _symmetry_equiv_pos_site_id
 _symmetry_equiv_pos_as_xyz
  1  'x, y, z'
loop_
 _atom_site_type_symbol
 _atom_site_label
 _atom_site_symmetry_multiplicity
 _atom_site_fract_x
 _atom_site_fract_y
 _atom_site_fract_z
 _atom_site_occupancy
  Cu  Cu0  1  0.95308000  0.14828000  0.35562000  1.0
  H  H1  1  0.74466000  0.09052000  0.12125000  1.0
  H  H2  1  0.60198000  0.07154000  0.85484000  1.0
  H  H3  1  0.64254000  0.31565000  0.58791000  1.0
  H  H4  1  0.83488000  0.58358000  0.58402000  1.0
  H  H5  1  0.05304000  0.74121000  0.73508000  1.0
  H  H6  1  0.13248000  0.39130000  0.41946000  1.0
  H  H7  1  0.32392000  0.65372000  0.42654000  1.0
  H  H8  1  0.38109000  0.90420000  0.16716000  1.0
  H  H9  1  0.24860000  0.89464000  0.89364000  1.0
  C  C10  1  0.88111000  0.34550000  0.00485000  1.0
  C  C11  1  0.76613000  0.19670000  0.00256000  1.0
  C  C12  1  0.68649000  0.18710000  0.85525000  1.0
  C  C13  1  0.71128000  0.32682000  0.70226000  1.0
  C  C14  1  0.81798000  0.47362000  0.69985000  1.0
  C  C15  1  0.90871000  0.48704000  0.84954000  1.0
  C  C16  1  0.02734000  0.63254000  0.85109000  1.0
  C  C17  1  0.07393000  0.49413000  0.15295000  1.0
  C  C18  1  0.15657000  0.50266000  0.30549000  1.0
  C  C19  1  0.26332000  0.64770000  0.30876000  1.0
  C  C20  1  0.29650000  0.79139000  0.16008000  1.0
  C  C21  1  0.22383000  0.78656000  0.01011000  1.0
  C  C22  1  0.10940000  0.63962000  0.00174000  1.0
  Br  Br23  1  0.50401000  0.99507000  0.50242000  1.0
  N  N24  1  0.96391000  0.35022000  0.15264000  1.0
