# generated using pymatgen
data_FeH8PdC14(N3F)2
_symmetry_space_group_name_H-M   'P 1'
_cell_length_a   7.04905000
_cell_length_b   7.16075000
_cell_length_c   8.58052000
_cell_angle_alpha   114.52600000
_cell_angle_beta   98.21270000
_cell_angle_gamma   90.00020000
_symmetry_Int_Tables_number   1
_chemical_formula_structural   FeH8PdC14(N3F)2
_chemical_formula_sum   'Fe1 H8 Pd1 C14 N6 F2'
_cell_volume   389.14820803
_cell_formula_units_Z   1
loop_
 _symmetry_equiv_pos_site_id
 _symmetry_equiv_pos_as_xyz
  1  'x, y, z'
loop_
 _atom_site_type_symbol
 _atom_site_label
 _atom_site_symmetry_multiplicity
 _atom_site_fract_x
 _atom_site_fract_y
 _atom_site_fract_z
 _atom_site_occupancy
  Fe  Fe0  1  0.99963000  0.01064000  0.02121000  1.0
  H  H1  1  0.31171000  0.87806000  0.75466000  1.0
  H  H2  1  0.68823000  0.11876000  0.23958000  1.0
  H  H3  1  0.04153000  0.60869000  0.21777000  1.0
  H  H4  1  0.95977000  0.38793000  0.77532000  1.0
  H  H5  1  0.72098000  0.66104000  0.32363000  1.0
  H  H6  1  0.27999000  0.33451000  0.66745000  1.0
  H  H7  1  0.71558000  0.82189000  0.64488000  1.0
  H  H8  1  0.28585000  0.17469000  0.34821000  1.0
  Pd  Pd9  1  0.49695000  0.49958000  0.99891000  1.0
  C  C10  1  0.18361000  0.82841000  0.65616000  1.0
  C  C11  1  0.81698000  0.16775000  0.33664000  1.0
  C  C12  1  0.19494000  0.74022000  0.48009000  1.0
  C  C13  1  0.80663000  0.25583000  0.51254000  1.0
  C  C14  1  0.03115000  0.67745000  0.35539000  1.0
  C  C15  1  0.96988000  0.31889000  0.63761000  1.0
  C  C16  1  0.85479000  0.70708000  0.41518000  1.0
  C  C17  1  0.14556000  0.28866000  0.57651000  1.0
  C  C18  1  0.85034000  0.79624000  0.59301000  1.0
  C  C19  1  0.15090000  0.19977000  0.39917000  1.0
  C  C20  1  0.68997000  0.68636000  0.98144000  1.0
  C  C21  1  0.30706000  0.70885000  0.02590000  1.0
  C  C22  1  0.30653000  0.31763000  0.02573000  1.0
  C  C23  1  0.68958000  0.29486000  0.98121000  1.0
  N  N24  1  0.01202000  0.85466000  0.70901000  1.0
  N  N25  1  0.98886000  0.14013000  0.28069000  1.0
  N  N26  1  0.80776000  0.80604000  0.98815000  1.0
  N  N27  1  0.19264000  0.83065000  0.03737000  1.0
  N  N28  1  0.19209000  0.20713000  0.03702000  1.0
  N  N29  1  0.80731000  0.18177000  0.98782000  1.0
  F  F30  1  0.37232000  0.71639000  0.43178000  1.0
  F  F31  1  0.62884000  0.27945000  0.55998000  1.0
