# generated using pymatgen
data_HgH11C15I2N3O
_symmetry_space_group_name_H-M   'P 1'
_cell_length_a   9.77184000
_cell_length_b   9.86168000
_cell_length_c   10.08322667
_cell_angle_alpha   89.93408130
_cell_angle_beta   61.01622642
_cell_angle_gamma   89.86460000
_symmetry_Int_Tables_number   1
_chemical_formula_structural   HgH11C15I2N3O
_chemical_formula_sum   'Hg2 H22 C30 I4 N6 O2'
_cell_volume   849.98837043
_cell_formula_units_Z   2
loop_
 _symmetry_equiv_pos_site_id
 _symmetry_equiv_pos_as_xyz
  1  'x, y, z'
loop_
 _atom_site_type_symbol
 _atom_site_label
 _atom_site_symmetry_multiplicity
 _atom_site_fract_x
 _atom_site_fract_y
 _atom_site_fract_z
 _atom_site_occupancy
  Hg  Hg0  1  0.67183000  0.25000000  0.65635000  1.0
  Hg  Hg1  1  0.32817000  0.75000000  0.34365000  1.0
  H  H2  1  0.48510000  0.27491000  0.46139000  1.0
  H  H3  1  0.05351000  0.22509000  0.46139000  1.0
  H  H4  1  0.51489000  0.72509000  0.53861000  1.0
  H  H5  1  0.94649000  0.77491000  0.53861000  1.0
  H  H6  1  0.46744000  0.17160000  0.24297000  1.0
  H  H7  1  0.28959000  0.32840000  0.24297000  1.0
  H  H8  1  0.53256000  0.82840000  0.75703000  1.0
  H  H9  1  0.71042000  0.67160000  0.75703000  1.0
  H  H10  1  0.63201000  0.96995000  0.11301000  1.0
  H  H11  1  0.25498000  0.53005000  0.11300000  1.0
  H  H12  1  0.36799000  0.03005000  0.88699000  1.0
  H  H13  1  0.74502000  0.46995000  0.88700000  1.0
  H  H14  1  0.81314000  0.98936000  0.42803000  1.0
  H  H15  1  0.75882000  0.51064000  0.42803000  1.0
  H  H16  1  0.18686000  0.01064000  0.57197000  1.0
  H  H17  1  0.24117000  0.48936000  0.57197000  1.0
  H  H18  1  0.89942000  0.93224000  0.95873000  1.0
  H  H19  1  0.14185000  0.56777000  0.95872000  1.0
  H  H20  1  0.10058000  0.06776000  0.04127000  1.0
  H  H21  1  0.85815000  0.43223000  0.04128000  1.0
  H  H22  1  0.09379000  0.75000000  0.81242000  1.0
  H  H23  1  0.90621000  0.25000000  0.18758000  1.0
  C  C24  1  0.55644000  0.18756000  0.40039000  1.0
  C  C25  1  0.04317000  0.31244000  0.40039000  1.0
  C  C26  1  0.44356000  0.81244000  0.59961000  1.0
  C  C27  1  0.95683000  0.68756000  0.59961000  1.0
  C  C28  1  0.54754000  0.13011000  0.27886000  1.0
  C  C29  1  0.17360000  0.36989000  0.27886000  1.0
  C  C30  1  0.45247000  0.86989000  0.72113000  1.0
  C  C31  1  0.82640000  0.63011000  0.72114000  1.0
  C  C32  1  0.63878000  0.01695000  0.20748000  1.0
  C  C33  1  0.15374000  0.48305000  0.20747000  1.0
  C  C34  1  0.36122000  0.98305000  0.79252000  1.0
  C  C35  1  0.84626000  0.51695000  0.79253000  1.0
  C  C36  1  0.73825000  0.96339000  0.25849000  1.0
  C  C37  1  0.00326000  0.53661000  0.25849000  1.0
  C  C38  1  0.26175000  0.03661000  0.74151000  1.0
  C  C39  1  0.99674000  0.46339000  0.74151000  1.0
  C  C40  1  0.73899000  0.02675000  0.38276000  1.0
  C  C41  1  0.87825000  0.47325000  0.38275000  1.0
  C  C42  1  0.26100000  0.97325000  0.61725000  1.0
  C  C43  1  0.12175000  0.52675000  0.61725000  1.0
  C  C44  1  0.84581000  0.85192000  0.17469000  1.0
  C  C45  1  0.97950000  0.64808000  0.17469000  1.0
  C  C46  1  0.15419000  0.14808000  0.82531000  1.0
  C  C47  1  0.02050000  0.35192000  0.82531000  1.0
  C  C48  1  0.92344000  0.85009000  0.01685000  1.0
  C  C49  1  0.05971000  0.64991000  0.01685000  1.0
  C  C50  1  0.07656000  0.14991000  0.98315000  1.0
  C  C51  1  0.94029000  0.35009000  0.98315000  1.0
  C  C52  1  0.03218000  0.75000000  0.93565000  1.0
  C  C53  1  0.96783000  0.25000000  0.06435000  1.0
  I  I54  1  0.44939000  0.44584000  0.75688000  1.0
  I  I55  1  0.79374000  0.05415000  0.75687000  1.0
  I  I56  1  0.55061000  0.55415000  0.24313000  1.0
  I  I57  1  0.20626000  0.94585000  0.24313000  1.0
  N  N58  1  0.65059000  0.13586000  0.45054000  1.0
  N  N59  1  0.89887000  0.36414000  0.45054000  1.0
  N  N60  1  0.34941000  0.86414000  0.54946000  1.0
  N  N61  1  0.10113000  0.63586000  0.54946000  1.0
  N  N62  1  0.87305000  0.75000000  0.25390000  1.0
  N  N63  1  0.12695000  0.25000000  0.74610000  1.0
  O  O64  1  0.79984000  0.75000000  0.40030000  1.0
  O  O65  1  0.20016000  0.25000000  0.59970000  1.0
