# generated using pymatgen
data_CdH32C38(SN7)2
_symmetry_space_group_name_H-M   'P 1'
_cell_length_a   9.23607000
_cell_length_b   9.38654000
_cell_length_c   13.86690000
_cell_angle_alpha   90.06040000
_cell_angle_beta   90.13670000
_cell_angle_gamma   60.52980000
_symmetry_Int_Tables_number   1
_chemical_formula_structural   CdH32C38(SN7)2
_chemical_formula_sum   'Cd1 H32 C38 S2 N14'
_cell_volume   1046.63532760
_cell_formula_units_Z   1
loop_
 _symmetry_equiv_pos_site_id
 _symmetry_equiv_pos_as_xyz
  1  'x, y, z'
loop_
 _atom_site_type_symbol
 _atom_site_label
 _atom_site_symmetry_multiplicity
 _atom_site_fract_x
 _atom_site_fract_y
 _atom_site_fract_z
 _atom_site_occupancy
  Cd  Cd0  1  0.00000000  0.00000000  0.00001000  1.0
  H  H1  1  0.74880000  0.78926000  0.01650000  1.0
  H  H2  1  0.46180000  0.78934000  0.98351000  1.0
  H  H3  1  0.25120000  0.21074000  0.98351000  1.0
  H  H4  1  0.53820000  0.21066000  0.01649000  1.0
  H  H5  1  0.19752000  0.67829000  0.15500000  1.0
  H  H6  1  0.12422000  0.67813000  0.84499000  1.0
  H  H7  1  0.80250000  0.32169000  0.84500000  1.0
  H  H8  1  0.87577000  0.32188000  0.15501000  1.0
  H  H9  1  0.24867000  0.42472000  0.24140000  1.0
  H  H10  1  0.32657000  0.42481000  0.75860000  1.0
  H  H11  1  0.75134000  0.57527000  0.75859000  1.0
  H  H12  1  0.67341000  0.57518000  0.24140000  1.0
  H  H13  1  0.18284000  0.30784000  0.17384000  1.0
  H  H14  1  0.50930000  0.30778000  0.82617000  1.0
  H  H15  1  0.81716000  0.69215000  0.82616000  1.0
  H  H16  1  0.49070000  0.69223000  0.17383000  1.0
  H  H17  1  0.92720000  0.68023000  0.32942000  1.0
  H  H18  1  0.39251000  0.68019000  0.67059000  1.0
  H  H19  1  0.07281000  0.31977000  0.67057000  1.0
  H  H20  1  0.60747000  0.31981000  0.32940000  1.0
  H  H21  1  0.76472000  0.67908000  0.46911000  1.0
  H  H22  1  0.55625000  0.67917000  0.53098000  1.0
  H  H23  1  0.23529000  0.32094000  0.53089000  1.0
  H  H24  1  0.44375000  0.32083000  0.46902000  1.0
  H  H25  1  0.93911000  0.16531000  0.42431000  1.0
  H  H26  1  0.89548000  0.16525000  0.57564000  1.0
  H  H27  1  0.06088000  0.83470000  0.57570000  1.0
  H  H28  1  0.10453000  0.83475000  0.42436000  1.0
  H  H29  1  0.10857000  0.16555000  0.28745000  1.0
  H  H30  1  0.72578000  0.16547000  0.71252000  1.0
  H  H31  1  0.89142000  0.83445000  0.71255000  1.0
  H  H32  1  0.27421000  0.83453000  0.28748000  1.0
  C  C33  1  0.86065000  0.72858000  0.06024000  1.0
  C  C34  1  0.41072000  0.72853000  0.93980000  1.0
  C  C35  1  0.13935000  0.27142000  0.93976000  1.0
  C  C36  1  0.58927000  0.27146000  0.06020000  1.0
  C  C37  1  0.08659000  0.67760000  0.13025000  1.0
  C  C38  1  0.23579000  0.67754000  0.86977000  1.0
  C  C39  1  0.91341000  0.32239000  0.86975000  1.0
  C  C40  1  0.76420000  0.32247000  0.13023000  1.0
  C  C41  1  0.13780000  0.42051000  0.21627000  1.0
  C  C42  1  0.44171000  0.42047000  0.78375000  1.0
  C  C43  1  0.86221000  0.57948000  0.78373000  1.0
  C  C44  1  0.55828000  0.57954000  0.21625000  1.0
  C  C45  1  0.03215000  0.42220000  0.29965000  1.0
  C  C46  1  0.54565000  0.42219000  0.70039000  1.0
  C  C47  1  0.96787000  0.57780000  0.70035000  1.0
  C  C48  1  0.45434000  0.57782000  0.29961000  1.0
  C  C49  1  0.93091000  0.56650000  0.35053000  1.0
  C  C50  1  0.50260000  0.56651000  0.64951000  1.0
  C  C51  1  0.06910000  0.43350000  0.64946000  1.0
  C  C52  1  0.49739000  0.43349000  0.35049000  1.0
  C  C53  1  0.83689000  0.56621000  0.42862000  1.0
  C  C54  1  0.59692000  0.56621000  0.57141000  1.0
  C  C55  1  0.16312000  0.43380000  0.57138000  1.0
  C  C56  1  0.40308000  0.43379000  0.42859000  1.0
  C  C57  1  0.83864000  0.42204000  0.45831000  1.0
  C  C58  1  0.73933000  0.42205000  0.54173000  1.0
  C  C59  1  0.16137000  0.57797000  0.54170000  1.0
  C  C60  1  0.26067000  0.57796000  0.45828000  1.0
  C  C61  1  0.93863000  0.27848000  0.40579000  1.0
  C  C62  1  0.78283000  0.27845000  0.59423000  1.0
  C  C63  1  0.06137000  0.72153000  0.59422000  1.0
  C  C64  1  0.21716000  0.72156000  0.40577000  1.0
  C  C65  1  0.03458000  0.27804000  0.32815000  1.0
  C  C66  1  0.68730000  0.27801000  0.67185000  1.0
  C  C67  1  0.96542000  0.72197000  0.67185000  1.0
  C  C68  1  0.31269000  0.72200000  0.32815000  1.0
  C  C69  1  0.29118000  0.00014000  0.13828000  1.0
  C  C70  1  0.70885000  0.99985000  0.86172000  1.0
  S  S71  1  0.46458000  0.00010000  0.15432000  1.0
  S  S72  1  0.53545000  0.99989000  0.84568000  1.0
  N  N73  1  0.96967000  0.78629000  0.07160000  1.0
  N  N74  1  0.24401000  0.78622000  0.92843000  1.0
  N  N75  1  0.03033000  0.21370000  0.92840000  1.0
  N  N76  1  0.75598000  0.21379000  0.07157000  1.0
  N  N77  1  0.90359000  0.59150000  0.10886000  1.0
  N  N78  1  0.50490000  0.59148000  0.89117000  1.0
  N  N79  1  0.09641000  0.40850000  0.89114000  1.0
  N  N80  1  0.49509000  0.40852000  0.10883000  1.0
  N  N81  1  0.04835000  0.56099000  0.15284000  1.0
  N  N82  1  0.39066000  0.56093000  0.84720000  1.0
  N  N83  1  0.95165000  0.43900000  0.84716000  1.0
  N  N84  1  0.60933000  0.43908000  0.15280000  1.0
  N  N85  1  0.16255000  0.00016000  0.12876000  1.0
  N  N86  1  0.83749000  0.99983000  0.87124000  1.0
