# generated using pymatgen
data_CdH9C5N5O3
_symmetry_space_group_name_H-M   'P 1'
_cell_length_a   7.53217000
_cell_length_b   9.95035000
_cell_length_c   13.17140000
_cell_angle_alpha   74.57900000
_cell_angle_beta   73.39840000
_cell_angle_gamma   67.76480000
_symmetry_Int_Tables_number   1
_chemical_formula_structural   CdH9C5N5O3
_chemical_formula_sum   'Cd4 H36 C20 N20 O12'
_cell_volume   861.70311427
_cell_formula_units_Z   4
loop_
 _symmetry_equiv_pos_site_id
 _symmetry_equiv_pos_as_xyz
  1  'x, y, z'
loop_
 _atom_site_type_symbol
 _atom_site_label
 _atom_site_symmetry_multiplicity
 _atom_site_fract_x
 _atom_site_fract_y
 _atom_site_fract_z
 _atom_site_occupancy
  Cd  Cd0  1  0.46082000  0.58074000  0.85199000  1.0
  Cd  Cd1  1  0.89362000  0.91920000  0.64793000  1.0
  Cd  Cd2  1  0.53918000  0.41926000  0.14801000  1.0
  Cd  Cd3  1  0.10638000  0.08080000  0.35207000  1.0
  H  H4  1  0.12098000  0.38998000  0.68118000  1.0
  H  H5  1  0.19199000  0.10996000  0.81908000  1.0
  H  H6  1  0.87902000  0.61002000  0.31882000  1.0
  H  H7  1  0.80800000  0.89004000  0.18092000  1.0
  H  H8  1  0.98009000  0.57563000  0.68794000  1.0
  H  H9  1  0.24380000  0.92430000  0.81227000  1.0
  H  H10  1  0.01991000  0.42437000  0.31206000  1.0
  H  H11  1  0.75620000  0.07570000  0.18773000  1.0
  H  H12  1  0.89387000  0.45189000  0.57147000  1.0
  H  H13  1  0.91743000  0.04766000  0.92871000  1.0
  H  H14  1  0.10613000  0.54811000  0.42853000  1.0
  H  H15  1  0.08257000  0.95234000  0.07129000  1.0
  H  H16  1  0.80052000  0.34323000  0.68935000  1.0
  H  H17  1  0.83321000  0.15657000  0.81087000  1.0
  H  H18  1  0.19948000  0.65677000  0.31064000  1.0
  H  H19  1  0.16679000  0.84343000  0.18913000  1.0
  H  H20  1  0.49774000  0.45232000  0.62940000  1.0
  H  H21  1  0.57960000  0.04777000  0.87048000  1.0
  H  H22  1  0.50225000  0.54768000  0.37060000  1.0
  H  H23  1  0.42040000  0.95223000  0.12952000  1.0
  H  H24  1  0.55671000  0.59378000  0.52490000  1.0
  H  H25  1  0.67539000  0.90625000  0.97502000  1.0
  H  H26  1  0.44329000  0.40622000  0.47510000  1.0
  H  H27  1  0.32461000  0.09375000  0.02498000  1.0
  H  H28  1  0.48576000  0.28397000  0.94184000  1.0
  H  H29  1  0.71179000  0.21599000  0.55819000  1.0
  H  H30  1  0.51424000  0.71603000  0.05816000  1.0
  H  H31  1  0.28821000  0.78401000  0.44181000  1.0
  H  H32  1  0.32658000  0.33310000  0.87064000  1.0
  H  H33  1  0.53062000  0.16687000  0.62951000  1.0
  H  H34  1  0.67342000  0.66690000  0.12936000  1.0
  H  H35  1  0.46938000  0.83313000  0.37049000  1.0
  H  H36  1  0.66018000  0.66799000  0.64643000  1.0
  H  H37  1  0.97453000  0.83183000  0.85355000  1.0
  H  H38  1  0.33982000  0.33201000  0.35357000  1.0
  H  H39  1  0.02547000  0.16817000  0.14644000  1.0
  C  C40  1  0.93725000  0.42309000  0.83233000  1.0
  C  C41  1  0.19278000  0.07684000  0.66785000  1.0
  C  C42  1  0.06275000  0.57691000  0.16767000  1.0
  C  C43  1  0.80722000  0.92316000  0.33215000  1.0
  C  C44  1  0.97420000  0.46241000  0.71250000  1.0
  C  C45  1  0.14915000  0.03748000  0.78770000  1.0
  C  C46  1  0.02580000  0.53759000  0.28749000  1.0
  C  C47  1  0.85085000  0.96252000  0.21230000  1.0
  C  C48  1  0.82794000  0.44914000  0.65824000  1.0
  C  C49  1  0.93545000  0.05061000  0.84190000  1.0
  C  C50  1  0.17206000  0.55086000  0.34176000  1.0
  C  C51  1  0.06455000  0.94939000  0.15810000  1.0
  C  C52  1  0.50444000  0.56517000  0.61225000  1.0
  C  C53  1  0.68186000  0.93488000  0.88766000  1.0
  C  C54  1  0.49556000  0.43483000  0.38775000  1.0
  C  C55  1  0.31814000  0.06512000  0.11234000  1.0
  C  C56  1  0.29610000  0.66858000  0.64484000  1.0
  C  C57  1  0.60956000  0.83148000  0.85504000  1.0
  C  C58  1  0.70390000  0.33142000  0.35516000  1.0
  C  C59  1  0.39045000  0.16852000  0.14496000  1.0
  N  N60  1  0.76146000  0.45797000  0.89939000  1.0
  N  N61  1  0.11894000  0.04200000  0.60075000  1.0
  N  N62  1  0.23854000  0.54203000  0.10061000  1.0
  N  N63  1  0.88106000  0.95800000  0.39925000  1.0
  N  N64  1  0.79600000  0.40087000  0.99914000  1.0
  N  N65  1  0.19610000  0.09915000  0.50101000  1.0
  N  N66  1  0.20400000  0.59913000  0.00085000  1.0
  N  N67  1  0.80390000  0.90085000  0.49899000  1.0
  N  N68  1  0.98477000  0.33403000  0.99441000  1.0
  N  N69  1  0.31325000  0.16602000  0.50582000  1.0
  N  N70  1  0.01523000  0.66597000  0.00559000  1.0
  N  N71  1  0.68675000  0.83398000  0.49418000  1.0
  N  N72  1  0.07740000  0.34606000  0.89032000  1.0
  N  N73  1  0.31384000  0.15394000  0.60993000  1.0
  N  N74  1  0.92260000  0.65394000  0.10968000  1.0
  N  N75  1  0.68616000  0.84606000  0.39007000  1.0
  N  N76  1  0.63737000  0.56774000  0.67337000  1.0
  N  N77  1  0.87853000  0.93215000  0.82660000  1.0
  N  N78  1  0.36263000  0.43226000  0.32663000  1.0
  N  N79  1  0.12146000  0.06785000  0.17340000  1.0
  O  O80  1  0.23457000  0.69512000  0.74014000  1.0
  O  O81  1  0.66988000  0.80488000  0.75976000  1.0
  O  O82  1  0.76543000  0.30488000  0.25986000  1.0
  O  O83  1  0.33012000  0.19512000  0.24025000  1.0
  O  O84  1  0.18877000  0.72093000  0.57483000  1.0
  O  O85  1  0.48468000  0.77906000  0.92505000  1.0
  O  O86  1  0.81123000  0.27907000  0.42517000  1.0
  O  O87  1  0.51532000  0.22094000  0.07495000  1.0
  O  O88  1  0.46113000  0.33210000  0.86829000  1.0
  O  O89  1  0.66190000  0.16779000  0.63175000  1.0
  O  O90  1  0.53887000  0.66790000  0.13171000  1.0
  O  O91  1  0.33810000  0.83221000  0.36825000  1.0
