# generated using pymatgen
data_ZnH10C22N(ClO5)2
_symmetry_space_group_name_H-M   'P 1'
_cell_length_a   16.95510000
_cell_length_b   24.73130000
_cell_length_c   25.74910000
_cell_angle_alpha   89.99970000
_cell_angle_beta   90.00040000
_cell_angle_gamma   90.00000000
_symmetry_Int_Tables_number   1
_chemical_formula_structural   ZnH10C22N(ClO5)2
_chemical_formula_sum   'Zn4 H40 C88 N4 Cl8 O40'
_cell_volume   10797.15547431
_cell_formula_units_Z   4
loop_
 _symmetry_equiv_pos_site_id
 _symmetry_equiv_pos_as_xyz
  1  'x, y, z'
loop_
 _atom_site_type_symbol
 _atom_site_label
 _atom_site_symmetry_multiplicity
 _atom_site_fract_x
 _atom_site_fract_y
 _atom_site_fract_z
 _atom_site_occupancy
  Zn  Zn0  1  0.41565000  0.50000000  0.00000000  1.0
  Zn  Zn1  1  0.58435000  0.50000000  0.00000000  1.0
  Zn  Zn2  1  0.41556000  0.00000000  0.50000000  1.0
  Zn  Zn3  1  0.58444000  0.00000000  0.50000000  1.0
  H  H4  1  0.37340000  0.38710000  0.87630000  1.0
  H  H5  1  0.62660000  0.61290000  0.12370000  1.0
  H  H6  1  0.37340000  0.61291000  0.12369000  1.0
  H  H7  1  0.62660000  0.38709000  0.87631000  1.0
  H  H8  1  0.62660000  0.38712000  0.12372000  1.0
  H  H9  1  0.37340000  0.61288000  0.87628000  1.0
  H  H10  1  0.62660000  0.61289000  0.87628000  1.0
  H  H11  1  0.37340000  0.38712000  0.12372000  1.0
  H  H12  1  0.37340000  0.87616000  0.38659000  1.0
  H  H13  1  0.62660000  0.12384000  0.61341000  1.0
  H  H14  1  0.37340000  0.12384000  0.61341000  1.0
  H  H15  1  0.62660000  0.87616000  0.38659000  1.0
  H  H16  1  0.62660000  0.87615000  0.61340000  1.0
  H  H17  1  0.37340000  0.12385000  0.38660000  1.0
  H  H18  1  0.62660000  0.12385000  0.38660000  1.0
  H  H19  1  0.37340000  0.87615000  0.61340000  1.0
  H  H20  1  0.31593000  0.33499000  0.81343000  1.0
  H  H21  1  0.68407000  0.66501000  0.18657000  1.0
  H  H22  1  0.31593000  0.66502000  0.18655000  1.0
  H  H23  1  0.68407000  0.33498000  0.81345000  1.0
  H  H24  1  0.68407000  0.33502000  0.18659000  1.0
  H  H25  1  0.31593000  0.66498000  0.81341000  1.0
  H  H26  1  0.68407000  0.66499000  0.81342000  1.0
  H  H27  1  0.31593000  0.33501000  0.18658000  1.0
  H  H28  1  0.31593000  0.81312000  0.33384000  1.0
  H  H29  1  0.68407000  0.18688000  0.66617000  1.0
  H  H30  1  0.31593000  0.18689000  0.66616000  1.0
  H  H31  1  0.68407000  0.81311000  0.33384000  1.0
  H  H32  1  0.68407000  0.81309000  0.66614000  1.0
  H  H33  1  0.31593000  0.18691000  0.33386000  1.0
  H  H34  1  0.68407000  0.18691000  0.33386000  1.0
  H  H35  1  0.31593000  0.81309000  0.66614000  1.0
  H  H36  1  0.16192000  0.62515000  0.00000000  1.0
  H  H37  1  0.83808000  0.37485000  0.00000000  1.0
  H  H38  1  0.16192000  0.37485000  0.00000000  1.0
  H  H39  1  0.83808000  0.62515000  0.00000000  1.0
  H  H40  1  0.16178000  0.12513000  0.50000000  1.0
  H  H41  1  0.83822000  0.87487000  0.50000000  1.0
  H  H42  1  0.16178000  0.87487000  0.50000000  1.0
  H  H43  1  0.83822000  0.12513000  0.50000000  1.0
  C  C44  1  0.50001000  0.57147000  0.92550000  1.0
  C  C45  1  0.50001000  0.42853000  0.07450000  1.0
  C  C46  1  0.50001000  0.57148000  0.07448000  1.0
  C  C47  1  0.50001000  0.42852000  0.92552000  1.0
  C  C48  1  0.50000000  0.07462000  0.42861000  1.0
  C  C49  1  0.49999000  0.92538000  0.57139000  1.0
  C  C50  1  0.50000000  0.07462000  0.57140000  1.0
  C  C51  1  0.49999000  0.92538000  0.42860000  1.0
  C  C52  1  0.24495000  0.54644000  0.00000000  1.0
  C  C53  1  0.75505000  0.45356000  0.00000000  1.0
  C  C54  1  0.24495000  0.45356000  0.00000000  1.0
  C  C55  1  0.75505000  0.54644000  0.00000000  1.0
  C  C56  1  0.24482000  0.04644000  0.50000000  1.0
  C  C57  1  0.75518000  0.95356000  0.50000000  1.0
  C  C58  1  0.24482000  0.95356000  0.50000000  1.0
  C  C59  1  0.75518000  0.04644000  0.50000000  1.0
  C  C60  1  0.11880000  0.50000000  0.00000000  1.0
  C  C61  1  0.88120000  0.50000000  0.00000000  1.0
  C  C62  1  0.11874000  0.00000000  0.50000000  1.0
  C  C63  1  0.88126000  0.00000000  0.50000000  1.0
  C  C64  1  0.03595000  0.50000000  0.00000000  1.0
  C  C65  1  0.96405000  0.50000000  0.00000000  1.0
  C  C66  1  0.03593000  0.00000000  0.50000000  1.0
  C  C67  1  0.96407000  0.00000000  0.50000000  1.0
  C  C68  1  0.42846000  0.33741000  0.81714000  1.0
  C  C69  1  0.57154000  0.66259000  0.18286000  1.0
  C  C70  1  0.42846000  0.66259000  0.18285000  1.0
  C  C71  1  0.57154000  0.33741000  0.81714000  1.0
  C  C72  1  0.57154000  0.33743000  0.18288000  1.0
  C  C73  1  0.42846000  0.66257000  0.81712000  1.0
  C  C74  1  0.57154000  0.66257000  0.81712000  1.0
  C  C75  1  0.42846000  0.33743000  0.18288000  1.0
  C  C76  1  0.42847000  0.81615000  0.33705000  1.0
  C  C77  1  0.57153000  0.18385000  0.66295000  1.0
  C  C78  1  0.42846000  0.18385000  0.66294000  1.0
  C  C79  1  0.57154000  0.81615000  0.33706000  1.0
  C  C80  1  0.57153000  0.81614000  0.66293000  1.0
  C  C81  1  0.42847000  0.18386000  0.33706000  1.0
  C  C82  1  0.57153000  0.18386000  0.33707000  1.0
  C  C83  1  0.42847000  0.81614000  0.66293000  1.0
  C  C84  1  0.42846000  0.37269000  0.85927000  1.0
  C  C85  1  0.57154000  0.62731000  0.14072000  1.0
  C  C86  1  0.42846000  0.62731000  0.14072000  1.0
  C  C87  1  0.57154000  0.37269000  0.85928000  1.0
  C  C88  1  0.57154000  0.37271000  0.14075000  1.0
  C  C89  1  0.42846000  0.62729000  0.85925000  1.0
  C  C90  1  0.57154000  0.62729000  0.85925000  1.0
  C  C91  1  0.42846000  0.37271000  0.14074000  1.0
  C  C92  1  0.42846000  0.85877000  0.37237000  1.0
  C  C93  1  0.57154000  0.14123000  0.62763000  1.0
  C  C94  1  0.42846000  0.14124000  0.62762000  1.0
  C  C95  1  0.57154000  0.85876000  0.37238000  1.0
  C  C96  1  0.57154000  0.85876000  0.62761000  1.0
  C  C97  1  0.42846000  0.14125000  0.37239000  1.0
  C  C98  1  0.57154000  0.14124000  0.37239000  1.0
  C  C99  1  0.42846000  0.85876000  0.62761000  1.0
  C  C100  1  0.50000000  0.39033000  0.88042000  1.0
  C  C101  1  0.50000000  0.60967000  0.11957000  1.0
  C  C102  1  0.50000000  0.39035000  0.11959000  1.0
  C  C103  1  0.50000000  0.60965000  0.88041000  1.0
  C  C104  1  0.50000000  0.88017000  0.39001000  1.0
  C  C105  1  0.50000000  0.11983000  0.61000000  1.0
  C  C106  1  0.50000000  0.88016000  0.60998000  1.0
  C  C107  1  0.50000000  0.11984000  0.39002000  1.0
  C  C108  1  0.50000000  0.31855000  0.79502000  1.0
  C  C109  1  0.50000000  0.68145000  0.20499000  1.0
  C  C110  1  0.50000000  0.31857000  0.20501000  1.0
  C  C111  1  0.50000000  0.68143000  0.79499000  1.0
  C  C112  1  0.50000000  0.79382000  0.31816000  1.0
  C  C113  1  0.50000000  0.20617000  0.68184000  1.0
  C  C114  1  0.50000000  0.79381000  0.68182000  1.0
  C  C115  1  0.50000000  0.20619000  0.31818000  1.0
  C  C116  1  0.50000000  0.28147000  0.75369000  1.0
  C  C117  1  0.50000000  0.71854000  0.24631000  1.0
  C  C118  1  0.50000000  0.28149000  0.24634000  1.0
  C  C119  1  0.50000000  0.71851000  0.75366000  1.0
  C  C120  1  0.50000000  0.75254000  0.28068000  1.0
  C  C121  1  0.50000000  0.24746000  0.71932000  1.0
  C  C122  1  0.50000000  0.75252000  0.71929000  1.0
  C  C123  1  0.50000000  0.24748000  0.28071000  1.0
  C  C124  1  0.16206000  0.54880000  0.00000000  1.0
  C  C125  1  0.83794000  0.45120000  0.00000000  1.0
  C  C126  1  0.16206000  0.45120000  0.00000000  1.0
  C  C127  1  0.83794000  0.54880000  0.00000000  1.0
  C  C128  1  0.16195000  0.04880000  0.50000000  1.0
  C  C129  1  0.83805000  0.95120000  0.50000000  1.0
  C  C130  1  0.16195000  0.95120000  0.50000000  1.0
  C  C131  1  0.83805000  0.04880000  0.50000000  1.0
  N  N132  1  0.28572000  0.50000000  0.00000000  1.0
  N  N133  1  0.71428000  0.50000000  0.00000000  1.0
  N  N134  1  0.28561000  0.00000000  0.50000000  1.0
  N  N135  1  0.71439000  0.00000000  0.50000000  1.0
  Cl  Cl136  1  0.29335000  0.60768000  0.00000000  1.0
  Cl  Cl137  1  0.70665000  0.39232000  0.00000000  1.0
  Cl  Cl138  1  0.29334000  0.39232000  0.00000000  1.0
  Cl  Cl139  1  0.70665000  0.60768000  0.00000000  1.0
  Cl  Cl140  1  0.29297000  0.10780000  0.50000000  1.0
  Cl  Cl141  1  0.70703000  0.89219000  0.50000000  1.0
  Cl  Cl142  1  0.29297000  0.89220000  0.50000000  1.0
  Cl  Cl143  1  0.70703000  0.10780000  0.50000000  1.0
  O  O144  1  0.43299000  0.55666000  0.94295000  1.0
  O  O145  1  0.56700000  0.44334000  0.05705000  1.0
  O  O146  1  0.43299000  0.44334000  0.05705000  1.0
  O  O147  1  0.56700000  0.55666000  0.94295000  1.0
  O  O148  1  0.56701000  0.55667000  0.05704000  1.0
  O  O149  1  0.43299000  0.44333000  0.94296000  1.0
  O  O150  1  0.56700000  0.44333000  0.94296000  1.0
  O  O151  1  0.43299000  0.55667000  0.05704000  1.0
  O  O152  1  0.43299000  0.05735000  0.44377000  1.0
  O  O153  1  0.56702000  0.94266000  0.55623000  1.0
  O  O154  1  0.43299000  0.94266000  0.55623000  1.0
  O  O155  1  0.56702000  0.05734000  0.44377000  1.0
  O  O156  1  0.56702000  0.05734000  0.55623000  1.0
  O  O157  1  0.43299000  0.94265000  0.44377000  1.0
  O  O158  1  0.56702000  0.94266000  0.44377000  1.0
  O  O159  1  0.43299000  0.05734000  0.55623000  1.0
  O  O160  1  0.36026000  0.31883000  0.79507000  1.0
  O  O161  1  0.63974000  0.68117000  0.20493000  1.0
  O  O162  1  0.36025000  0.68118000  0.20492000  1.0
  O  O163  1  0.63974000  0.31882000  0.79508000  1.0
  O  O164  1  0.63974000  0.31886000  0.20496000  1.0
  O  O165  1  0.36026000  0.68114000  0.79505000  1.0
  O  O166  1  0.63974000  0.68115000  0.79505000  1.0
  O  O167  1  0.36026000  0.31886000  0.20495000  1.0
  O  O168  1  0.36024000  0.79384000  0.31848000  1.0
  O  O169  1  0.63975000  0.20615000  0.68152000  1.0
  O  O170  1  0.36024000  0.20616000  0.68152000  1.0
  O  O171  1  0.63976000  0.79384000  0.31849000  1.0
  O  O172  1  0.63976000  0.79383000  0.68151000  1.0
  O  O173  1  0.36025000  0.20617000  0.31849000  1.0
  O  O174  1  0.63976000  0.20617000  0.31849000  1.0
  O  O175  1  0.36025000  0.79383000  0.68151000  1.0
  O  O176  1  0.12242000  0.59599000  0.00000000  1.0
  O  O177  1  0.87758000  0.40401000  0.00000000  1.0
  O  O178  1  0.12242000  0.40401000  0.00000000  1.0
  O  O179  1  0.87758000  0.59599000  0.00000000  1.0
  O  O180  1  0.12227000  0.09597000  0.50000000  1.0
  O  O181  1  0.87773000  0.90403000  0.50000000  1.0
  O  O182  1  0.12228000  0.90403000  0.50000000  1.0
  O  O183  1  0.87773000  0.09597000  0.50000000  1.0
