# generated using pymatgen
data_ZnH12(C5N2)2
_symmetry_space_group_name_H-M   'P 1'
_cell_length_a   7.32548000
_cell_length_b   8.80337000
_cell_length_c   8.80337000
_cell_angle_alpha   90.00010000
_cell_angle_beta   90.00020000
_cell_angle_gamma   90.00000000
_symmetry_Int_Tables_number   1
_chemical_formula_structural   ZnH12(C5N2)2
_chemical_formula_sum   'Zn2 H24 C20 N8'
_cell_volume   567.71974326
_cell_formula_units_Z   2
loop_
 _symmetry_equiv_pos_site_id
 _symmetry_equiv_pos_as_xyz
  1  'x, y, z'
loop_
 _atom_site_type_symbol
 _atom_site_label
 _atom_site_symmetry_multiplicity
 _atom_site_fract_x
 _atom_site_fract_y
 _atom_site_fract_z
 _atom_site_occupancy
  Zn  Zn0  1  0.00000000  0.00000000  0.00000000  1.0
  Zn  Zn1  1  0.50000000  0.00000000  0.00000000  1.0
  H  H2  1  0.82856000  0.65554000  0.90418000  1.0
  H  H3  1  0.82856000  0.34446000  0.09582000  1.0
  H  H4  1  0.67144000  0.34446000  0.90419000  1.0
  H  H5  1  0.32856000  0.09581000  0.34446000  1.0
  H  H6  1  0.17144000  0.09581000  0.65554000  1.0
  H  H7  1  0.17144000  0.90418000  0.34446000  1.0
  H  H8  1  0.32856000  0.90418000  0.65554000  1.0
  H  H9  1  0.67144000  0.65554000  0.09581000  1.0
  H  H10  1  0.94658000  0.71415000  0.73982000  1.0
  H  H11  1  0.94659000  0.28585000  0.26018000  1.0
  H  H12  1  0.55341000  0.28585000  0.73982000  1.0
  H  H13  1  0.44659000  0.26018000  0.28584000  1.0
  H  H14  1  0.05341000  0.26018000  0.71416000  1.0
  H  H15  1  0.05341000  0.73982000  0.28584000  1.0
  H  H16  1  0.44659000  0.73982000  0.71415000  1.0
  H  H17  1  0.55341000  0.71416000  0.26018000  1.0
  H  H18  1  0.96445000  0.52220000  0.80354000  1.0
  H  H19  1  0.96445000  0.47780000  0.19646000  1.0
  H  H20  1  0.53555000  0.47780000  0.80354000  1.0
  H  H21  1  0.46445000  0.19646000  0.47780000  1.0
  H  H22  1  0.03555000  0.19646000  0.52220000  1.0
  H  H23  1  0.03555000  0.80354000  0.47780000  1.0
  H  H24  1  0.46445000  0.80354000  0.52220000  1.0
  H  H25  1  0.53555000  0.52220000  0.19646000  1.0
  C  C26  1  0.25000000  0.58282000  0.00000000  1.0
  C  C27  1  0.25000000  0.41718000  0.00000000  1.0
  C  C28  1  0.75000000  0.00000000  0.41718000  1.0
  C  C29  1  0.75000000  0.00000000  0.58282000  1.0
  C  C30  1  0.12056000  0.68051000  0.93283000  1.0
  C  C31  1  0.12056000  0.31949000  0.06717000  1.0
  C  C32  1  0.37944000  0.31949000  0.93283000  1.0
  C  C33  1  0.62056000  0.06717000  0.31949000  1.0
  C  C34  1  0.87944000  0.06717000  0.68051000  1.0
  C  C35  1  0.87944000  0.93283000  0.31949000  1.0
  C  C36  1  0.62056000  0.93283000  0.68051000  1.0
  C  C37  1  0.37944000  0.68051000  0.06717000  1.0
  C  C38  1  0.95652000  0.64106000  0.84069000  1.0
  C  C39  1  0.95652000  0.35894000  0.15931000  1.0
  C  C40  1  0.54348000  0.35894000  0.84069000  1.0
  C  C41  1  0.45652000  0.15931000  0.35894000  1.0
  C  C42  1  0.04348000  0.15931000  0.64106000  1.0
  C  C43  1  0.04348000  0.84069000  0.35894000  1.0
  C  C44  1  0.45652000  0.84069000  0.64106000  1.0
  C  C45  1  0.54347000  0.64106000  0.15931000  1.0
  N  N46  1  0.16989000  0.82606000  0.95903000  1.0
  N  N47  1  0.16989000  0.17394000  0.04097000  1.0
  N  N48  1  0.33011000  0.17394000  0.95903000  1.0
  N  N49  1  0.66989000  0.04097000  0.17394000  1.0
  N  N50  1  0.83011000  0.04097000  0.82606000  1.0
  N  N51  1  0.83011000  0.95903000  0.17394000  1.0
  N  N52  1  0.66989000  0.95903000  0.82606000  1.0
  N  N53  1  0.33011000  0.82606000  0.04097000  1.0
