# generated using pymatgen
data_CuPH15C17(NO3)2
_symmetry_space_group_name_H-M   'P 1'
_cell_length_a   6.89086000
_cell_length_b   9.85922000
_cell_length_c   12.14750000
_cell_angle_alpha   91.51250000
_cell_angle_beta   90.00000000
_cell_angle_gamma   89.99930000
_symmetry_Int_Tables_number   1
_chemical_formula_structural   CuPH15C17(NO3)2
_chemical_formula_sum   'Cu2 P2 H30 C34 N4 O12'
_cell_volume   824.99544951
_cell_formula_units_Z   2
loop_
 _symmetry_equiv_pos_site_id
 _symmetry_equiv_pos_as_xyz
  1  'x, y, z'
loop_
 _atom_site_type_symbol
 _atom_site_label
 _atom_site_symmetry_multiplicity
 _atom_site_fract_x
 _atom_site_fract_y
 _atom_site_fract_z
 _atom_site_occupancy
  Cu  Cu0  1  0.59641000  0.17114000  0.73745000  1.0
  Cu  Cu1  1  0.09640000  0.82886000  0.26256000  1.0
  P  P2  1  0.72581000  0.12963000  0.99484000  1.0
  P  P3  1  0.22580000  0.87037000  0.00516000  1.0
  H  H4  1  0.16161000  0.20906000  0.75616000  1.0
  H  H5  1  0.66161000  0.79093000  0.24384000  1.0
  H  H6  1  0.24877000  0.08459000  0.82112000  1.0
  H  H7  1  0.74877000  0.91541000  0.17888000  1.0
  H  H8  1  0.59736000  0.87882000  0.81680000  1.0
  H  H9  1  0.09736000  0.12118000  0.18320000  1.0
  H  H10  1  0.57081000  0.42364000  0.60157000  1.0
  H  H11  1  0.07079000  0.57636000  0.39843000  1.0
  H  H12  1  0.04057000  0.08750000  0.96813000  1.0
  H  H13  1  0.54057000  0.91249000  0.03187000  1.0
  H  H14  1  0.56529000  0.64793000  0.72341000  1.0
  H  H15  1  0.06529000  0.35208000  0.27660000  1.0
  H  H16  1  0.54506000  0.84756000  0.41237000  1.0
  H  H17  1  0.04506000  0.15244000  0.58763000  1.0
  H  H18  1  0.57206000  0.03612000  0.33735000  1.0
  H  H19  1  0.07207000  0.96388000  0.66265000  1.0
  H  H20  1  0.55128000  0.46892000  0.39699000  1.0
  H  H21  1  0.05127000  0.53108000  0.60301000  1.0
  H  H22  1  0.88853000  0.37574000  0.10040000  1.0
  H  H23  1  0.38854000  0.62425000  0.89960000  1.0
  H  H24  1  0.32580000  0.21977000  0.00993000  1.0
  H  H25  1  0.82581000  0.78023000  0.99007000  1.0
  H  H26  1  0.54046000  0.63621000  0.51576000  1.0
  H  H27  1  0.04047000  0.36379000  0.48424000  1.0
  H  H28  1  0.55195000  0.26949000  0.26466000  1.0
  H  H29  1  0.05195000  0.73051000  0.73534000  1.0
  H  H30  1  0.73408000  0.57441000  0.19511000  1.0
  H  H31  1  0.23408000  0.42558000  0.80489000  1.0
  H  H32  1  0.17220000  0.42243000  0.09974000  1.0
  H  H33  1  0.67221000  0.57756000  0.90026000  1.0
  C  C34  1  0.58709000  0.86589000  0.72762000  1.0
  C  C35  1  0.08710000  0.13411000  0.27239000  1.0
  C  C36  1  0.57628000  0.97525000  0.55972000  1.0
  C  C37  1  0.07628000  0.02476000  0.44028000  1.0
  C  C38  1  0.57307000  0.10799000  0.50747000  1.0
  C  C39  1  0.07308000  0.89201000  0.49253000  1.0
  C  C40  1  0.56768000  0.34214000  0.53919000  1.0
  C  C41  1  0.06766000  0.65787000  0.46082000  1.0
  C  C42  1  0.61807000  0.28280000  0.05204000  1.0
  C  C43  1  0.11808000  0.71719000  0.94795000  1.0
  C  C44  1  0.56860000  0.73917000  0.67484000  1.0
  C  C45  1  0.06861000  0.26083000  0.32516000  1.0
  C  C46  1  0.55883000  0.85188000  0.50152000  1.0
  C  C47  1  0.05885000  0.14812000  0.49848000  1.0
  C  C48  1  0.56627000  0.12416000  0.39345000  1.0
  C  C49  1  0.06628000  0.87585000  0.60655000  1.0
  C  C50  1  0.55760000  0.36567000  0.42682000  1.0
  C  C51  1  0.05758000  0.63433000  0.57318000  1.0
  C  C52  1  0.73137000  0.38473000  0.10274000  1.0
  C  C53  1  0.23137000  0.61528000  0.89726000  1.0
  C  C54  1  0.41531000  0.29682000  0.05115000  1.0
  C  C55  1  0.91531000  0.70319000  0.94886000  1.0
  C  C56  1  0.55553000  0.73274000  0.56038000  1.0
  C  C57  1  0.05553000  0.26727000  0.43963000  1.0
  C  C58  1  0.55748000  0.25464000  0.35303000  1.0
  C  C59  1  0.05748000  0.74537000  0.64697000  1.0
  C  C60  1  0.64458000  0.49610000  0.15557000  1.0
  C  C61  1  0.14459000  0.50389000  0.84442000  1.0
  C  C62  1  0.32884000  0.40932000  0.10249000  1.0
  C  C63  1  0.82884000  0.59067000  0.89751000  1.0
  C  C64  1  0.44181000  0.50825000  0.15741000  1.0
  C  C65  1  0.94181000  0.49176000  0.84260000  1.0
  C  C66  1  0.35073000  0.62601000  0.21825000  1.0
  C  C67  1  0.85073000  0.37399000  0.78176000  1.0
  N  N68  1  0.59195000  0.98036000  0.67077000  1.0
  N  N69  1  0.09195000  0.01964000  0.32923000  1.0
  N  N70  1  0.57504000  0.21642000  0.57839000  1.0
  N  N71  1  0.07503000  0.78357000  0.42160000  1.0
  O  O72  1  0.64594000  0.09501000  0.88037000  1.0
  O  O73  1  0.14595000  0.90499000  0.11962000  1.0
  O  O74  1  0.27007000  0.14295000  0.75682000  1.0
  O  O75  1  0.77007000  0.85705000  0.24318000  1.0
  O  O76  1  0.66474000  0.35936000  0.79052000  1.0
  O  O77  1  0.16474000  0.64064000  0.20947000  1.0
  O  O78  1  0.94794000  0.16662000  0.99470000  1.0
  O  O79  1  0.44794000  0.83338000  0.00530000  1.0
  O  O80  1  0.67994000  0.01344000  0.07195000  1.0
  O  O81  1  0.17993000  0.98655000  0.92805000  1.0
  O  O82  1  0.45602000  0.70460000  0.27618000  1.0
  O  O83  1  0.95603000  0.29539000  0.72381000  1.0
