# generated using pymatgen
data_AlH7C13SNClO8
_symmetry_space_group_name_H-M   'P 1'
_cell_length_a   6.66502000
_cell_length_b   11.13543350
_cell_length_c   17.01820000
_cell_angle_alpha   86.15579247
_cell_angle_beta   81.59010000
_cell_angle_gamma   73.48234658
_symmetry_Int_Tables_number   1
_chemical_formula_structural   AlH7C13SNClO8
_chemical_formula_sum   'Al2 H14 C26 S2 N2 Cl2 O16'
_cell_volume   1197.47849746
_cell_formula_units_Z   2
loop_
 _symmetry_equiv_pos_site_id
 _symmetry_equiv_pos_as_xyz
  1  'x, y, z'
loop_
 _atom_site_type_symbol
 _atom_site_label
 _atom_site_symmetry_multiplicity
 _atom_site_fract_x
 _atom_site_fract_y
 _atom_site_fract_z
 _atom_site_occupancy
  Al  Al0  1  0.99295000  0.48966000  0.50912000  1.0
  Al  Al1  1  0.49430000  0.49366000  0.50465000  1.0
  H  H2  1  0.17738000  0.57014000  0.59523000  1.0
  H  H3  1  0.82022000  0.39139000  0.42571000  1.0
  H  H4  1  0.63943000  0.41380000  0.26634000  1.0
  H  H5  1  0.69683000  0.39715000  0.11805000  1.0
  H  H6  1  0.02544000  0.54242000  0.11618000  1.0
  H  H7  1  0.81033000  0.58484000  0.90394000  1.0
  H  H8  1  0.34363000  0.38950000  0.89264000  1.0
  H  H9  1  0.41340000  0.40035000  0.74363000  1.0
  H  H10  1  0.41455000  0.77722000  0.36966000  1.0
  H  H11  1  0.14941000  0.23602000  0.40489000  1.0
  H  H12  1  0.67051000  0.09921000  0.57989000  1.0
  H  H13  1  0.79391000  0.86603000  0.56784000  1.0
  H  H14  1  0.93556000  0.77683000  0.27996000  1.0
  H  H15  1  0.14668000  0.28592000  0.20921000  1.0
  C  C16  1  0.64333000  0.71949000  0.49147000  1.0
  C  C17  1  0.68891000  0.49282000  0.65111000  1.0
  C  C18  1  0.35653000  0.26296000  0.51358000  1.0
  C  C19  1  0.28813000  0.49360000  0.36306000  1.0
  C  C20  1  0.30547000  0.48743000  0.27485000  1.0
  C  C21  1  0.50719000  0.44140000  0.23227000  1.0
  C  C22  1  0.53916000  0.43246000  0.15034000  1.0
  C  C23  1  0.36411000  0.46992000  0.10856000  1.0
  C  C24  1  0.15966000  0.51220000  0.14953000  1.0
  C  C25  1  0.13119000  0.52385000  0.23170000  1.0
  C  C26  1  0.72546000  0.54368000  0.86811000  1.0
  C  C27  1  0.57433000  0.48652000  0.90640000  1.0
  C  C28  1  0.45973000  0.43423000  0.86199000  1.0
  C  C29  1  0.49928000  0.44023000  0.77981000  1.0
  C  C30  1  0.65134000  0.49648000  0.73975000  1.0
  C  C31  1  0.76207000  0.55020000  0.78544000  1.0
  C  C32  1  0.58042000  0.85999000  0.48708000  1.0
  C  C33  1  0.42725000  0.93147000  0.43903000  1.0
  C  C34  1  0.66942000  0.92166000  0.53464000  1.0
  C  C35  1  0.35666000  0.87768000  0.37863000  1.0
  C  C36  1  0.22189000  0.94997000  0.32848000  1.0
  C  C37  1  0.43572000  0.12385000  0.50240000  1.0
  C  C38  1  0.59887000  0.05270000  0.54196000  1.0
  C  C39  1  0.35368000  0.06450000  0.44773000  1.0
  C  C40  1  0.20957000  0.13569000  0.39748000  1.0
  C  C41  1  0.14433000  0.08177000  0.33908000  1.0
  S  S42  1  0.17607000  0.87156000  0.24748000  1.0
  S  S43  1  0.95593000  0.18972000  0.28558000  1.0
  N  N44  1  0.37872000  0.47141000  0.02475000  1.0
  N  N45  1  0.55171000  0.48647000  0.99026000  1.0
  Cl  Cl46  1  0.87530000  0.59666000  0.27443000  1.0
  Cl  Cl47  1  0.93921000  0.63234000  0.74407000  1.0
  O  O48  1  0.83480000  0.66494000  0.49945000  1.0
  O  O49  1  0.53146000  0.49584000  0.61596000  1.0
  O  O50  1  0.49813000  0.31870000  0.51480000  1.0
  O  O51  1  0.11221000  0.48929000  0.40168000  1.0
  O  O52  1  0.15812000  0.31355000  0.51945000  1.0
  O  O53  1  0.44860000  0.49840000  0.39377000  1.0
  O  O54  1  0.49659000  0.66712000  0.49086000  1.0
  O  O55  1  0.87534000  0.48504000  0.61762000  1.0
  O  O56  1  0.20687000  0.54494000  0.54024000  1.0
  O  O57  1  0.78113000  0.43772000  0.47499000  1.0
  O  O58  1  0.93843000  0.86565000  0.27333000  1.0
  O  O59  1  0.18072000  0.95121000  0.17800000  1.0
  O  O60  1  0.31362000  0.74536000  0.24774000  1.0
  O  O61  1  0.08627000  0.21681000  0.20255000  1.0
  O  O62  1  0.80053000  0.13388000  0.26742000  1.0
  O  O63  1  0.89202000  0.30566000  0.32838000  1.0
