# generated using pymatgen
data_ZnH14C18BrN3O7
_symmetry_space_group_name_H-M   'P 1'
_cell_length_a   9.46644000
_cell_length_b   9.48699000
_cell_length_c   11.18260000
_cell_angle_alpha   70.61500000
_cell_angle_beta   79.86680000
_cell_angle_gamma   81.06750000
_symmetry_Int_Tables_number   1
_chemical_formula_structural   ZnH14C18BrN3O7
_chemical_formula_sum   'Zn2 H28 C36 Br2 N6 O14'
_cell_volume   927.48760823
_cell_formula_units_Z   2
loop_
 _symmetry_equiv_pos_site_id
 _symmetry_equiv_pos_as_xyz
  1  'x, y, z'
loop_
 _atom_site_type_symbol
 _atom_site_label
 _atom_site_symmetry_multiplicity
 _atom_site_fract_x
 _atom_site_fract_y
 _atom_site_fract_z
 _atom_site_occupancy
  Zn  Zn0  1  0.02430000  0.97909000  0.28555000  1.0
  Zn  Zn1  1  0.97570000  0.02092000  0.71445000  1.0
  H  H2  1  0.38897000  0.75291000  0.35442000  1.0
  H  H3  1  0.61103000  0.24709000  0.64558000  1.0
  H  H4  1  0.00570000  0.81003000  0.53263000  1.0
  H  H5  1  0.99430000  0.18997000  0.46737000  1.0
  H  H6  1  0.09947000  0.71883000  0.44319000  1.0
  H  H7  1  0.90052000  0.28117000  0.55681000  1.0
  H  H8  1  0.99260000  0.46695000  0.20118000  1.0
  H  H9  1  0.00740000  0.53305000  0.79881000  1.0
  H  H10  1  0.79263000  0.76031000  0.35555000  1.0
  H  H11  1  0.20737000  0.23969000  0.64445000  1.0
  H  H12  1  0.84017000  0.56167000  0.40906000  1.0
  H  H13  1  0.15983000  0.43833000  0.59094000  1.0
  H  H14  1  0.72921000  0.64386000  0.28337000  1.0
  H  H15  1  0.27079000  0.35613000  0.71663000  1.0
  H  H16  1  0.33873000  0.85921000  0.90014000  1.0
  H  H17  1  0.66127000  0.14079000  0.09986000  1.0
  H  H18  1  0.46538000  0.09073000  0.81896000  1.0
  H  H19  1  0.53462000  0.90927000  0.18104000  1.0
  H  H20  1  0.38787000  0.29310000  0.92352000  1.0
  H  H21  1  0.61213000  0.70690000  0.07648000  1.0
  H  H22  1  0.19189000  0.24831000  0.11102000  1.0
  H  H23  1  0.80811000  0.75169000  0.88898000  1.0
  H  H24  1  0.57061000  0.01023000  0.34037000  1.0
  H  H25  1  0.42939000  0.98977000  0.65963000  1.0
  H  H26  1  0.63226000  0.44770000  0.34083000  1.0
  H  H27  1  0.36774000  0.55230000  0.65916000  1.0
  H  H28  1  0.20142000  0.32853000  0.37588000  1.0
  H  H29  1  0.79858000  0.67148000  0.62412000  1.0
  C  C30  1  0.13719000  0.65301000  0.09463000  1.0
  C  C31  1  0.86281000  0.34699000  0.90537000  1.0
  C  C32  1  0.12116000  0.79893000  0.10591000  1.0
  C  C33  1  0.87884000  0.20106000  0.89409000  1.0
  C  C34  1  0.02381000  0.57985000  0.17696000  1.0
  C  C35  1  0.97619000  0.42015000  0.82304000  1.0
  C  C36  1  0.81882000  0.65933000  0.32620000  1.0
  C  C37  1  0.18118000  0.34066000  0.67380000  1.0
  C  C38  1  0.20209000  0.92977000  0.05023000  1.0
  C  C39  1  0.79791000  0.07023000  0.94977000  1.0
  C  C40  1  0.31018000  0.94675000  0.94533000  1.0
  C  C41  1  0.68982000  0.05325000  0.05467000  1.0
  C  C42  1  0.37906000  0.07734000  0.89930000  1.0
  C  C43  1  0.62093000  0.92267000  0.10070000  1.0
  C  C44  1  0.33649000  0.18931000  0.95731000  1.0
  C  C45  1  0.66351000  0.81069000  0.04269000  1.0
  C  C46  1  0.22756000  0.16537000  0.06106000  1.0
  C  C47  1  0.77244000  0.83463000  0.93895000  1.0
  C  C48  1  0.37553000  0.15707000  0.35777000  1.0
  C  C49  1  0.62447000  0.84293000  0.64223000  1.0
  C  C50  1  0.52540000  0.12109000  0.34529000  1.0
  C  C51  1  0.47460000  0.87891000  0.65471000  1.0
  C  C52  1  0.61781000  0.22609000  0.33777000  1.0
  C  C53  1  0.38219000  0.77391000  0.66223000  1.0
  C  C54  1  0.55922000  0.36766000  0.34550000  1.0
  C  C55  1  0.44078000  0.63234000  0.65450000  1.0
  C  C56  1  0.40957000  0.40454000  0.35979000  1.0
  C  C57  1  0.59043000  0.59546000  0.64021000  1.0
  C  C58  1  0.31769000  0.29913000  0.36557000  1.0
  C  C59  1  0.68231000  0.70087000  0.63444000  1.0
  C  C60  1  0.28060000  0.04547000  0.35411000  1.0
  C  C61  1  0.71940000  0.95454000  0.64590000  1.0
  C  C62  1  0.77940000  0.19062000  0.31800000  1.0
  C  C63  1  0.22060000  0.80938000  0.68200000  1.0
  C  C64  1  0.34510000  0.55421000  0.36906000  1.0
  C  C65  1  0.65490000  0.44580000  0.63094000  1.0
  Br  Br66  1  0.28698000  0.56462000  0.99981000  1.0
  Br  Br67  1  0.71303000  0.43538000  0.00019000  1.0
  N  N68  1  0.00395000  0.81161000  0.19144000  1.0
  N  N69  1  0.99606000  0.18839000  0.80856000  1.0
  N  N70  1  0.94754000  0.68008000  0.23273000  1.0
  N  N71  1  0.05246000  0.31992000  0.76727000  1.0
  N  N72  1  0.16316000  0.03818000  0.10769000  1.0
  N  N73  1  0.83684000  0.96182000  0.89231000  1.0
  O  O74  1  0.14471000  0.08759000  0.35722000  1.0
  O  O75  1  0.85529000  0.91241000  0.64279000  1.0
  O  O76  1  0.33990000  0.92194000  0.34084000  1.0
  O  O77  1  0.66010000  0.07806000  0.65916000  1.0
  O  O78  1  0.82162000  0.06119000  0.30107000  1.0
  O  O79  1  0.17838000  0.93882000  0.69892000  1.0
  O  O80  1  0.85959000  0.28405000  0.31754000  1.0
  O  O81  1  0.14040000  0.71595000  0.68246000  1.0
  O  O82  1  0.21329000  0.58338000  0.39482000  1.0
  O  O83  1  0.78671000  0.41662000  0.60518000  1.0
  O  O84  1  0.44010000  0.65244000  0.34828000  1.0
  O  O85  1  0.55990000  0.34757000  0.65172000  1.0
  O  O86  1  0.01412000  0.79264000  0.44958000  1.0
  O  O87  1  0.98588000  0.20736000  0.55042000  1.0
