# generated using pymatgen
data_Cu3H21(C5N2)4
_symmetry_space_group_name_H-M   'P 1'
_cell_length_a   11.35710000
_cell_length_b   11.36620000
_cell_length_c   12.93520000
_cell_angle_alpha   88.85400000
_cell_angle_beta   64.61390000
_cell_angle_gamma   69.05690000
_symmetry_Int_Tables_number   1
_chemical_formula_structural   Cu3H21(C5N2)4
_chemical_formula_sum   'Cu6 H42 C40 N16'
_cell_volume   1391.19603325
_cell_formula_units_Z   2
loop_
 _symmetry_equiv_pos_site_id
 _symmetry_equiv_pos_as_xyz
  1  'x, y, z'
loop_
 _atom_site_type_symbol
 _atom_site_label
 _atom_site_symmetry_multiplicity
 _atom_site_fract_x
 _atom_site_fract_y
 _atom_site_fract_z
 _atom_site_occupancy
  Cu  Cu0  1  0.13479000  0.95039000  0.99890000  1.0
  Cu  Cu1  1  0.86523000  0.04961000  0.00111000  1.0
  Cu  Cu2  1  0.82299000  0.12355000  0.40869000  1.0
  Cu  Cu3  1  0.17701000  0.87645000  0.59131000  1.0
  Cu  Cu4  1  0.35367000  0.18282000  0.70660000  1.0
  Cu  Cu5  1  0.64632000  0.81718000  0.29341000  1.0
  H  H6  1  0.12005000  0.09300000  0.28584000  1.0
  H  H7  1  0.87994000  0.90700000  0.71416000  1.0
  H  H8  1  0.37553000  0.83289000  0.77941000  1.0
  H  H9  1  0.62447000  0.16711000  0.22059000  1.0
  H  H10  1  0.08360000  0.17006000  0.70095000  1.0
  H  H11  1  0.91640000  0.82994000  0.29905000  1.0
  H  H12  1  0.25426000  0.13238000  0.59061000  1.0
  H  H13  1  0.74574000  0.86762000  0.40940000  1.0
  H  H14  1  0.77719000  0.31618000  0.69192000  1.0
  H  H15  1  0.22280000  0.68382000  0.30808000  1.0
  H  H16  1  0.85817000  0.17181000  0.73393000  1.0
  H  H17  1  0.14182000  0.82819000  0.26608000  1.0
  H  H18  1  0.75863000  0.17571000  0.65673000  1.0
  H  H19  1  0.24137000  0.82430000  0.34327000  1.0
  H  H20  1  0.27757000  0.40904000  0.84708000  1.0
  H  H21  1  0.72242000  0.59096000  0.15292000  1.0
  H  H22  1  0.41236000  0.39547000  0.70860000  1.0
  H  H23  1  0.58764000  0.60453000  0.29140000  1.0
  H  H24  1  0.11908000  0.66250000  0.72049000  1.0
  H  H25  1  0.88092000  0.33750000  0.27950000  1.0
  H  H26  1  0.97804000  0.42648000  0.58151000  1.0
  H  H27  1  0.02197000  0.57351000  0.41848000  1.0
  H  H28  1  0.11010000  0.58004000  0.04878000  1.0
  H  H29  1  0.88990000  0.41997000  0.95122000  1.0
  H  H30  1  0.00267000  0.64940000  0.97912000  1.0
  H  H31  1  0.99733000  0.35061000  0.02088000  1.0
  H  H32  1  0.01912000  0.74939000  0.07112000  1.0
  H  H33  1  0.98088000  0.25062000  0.92888000  1.0
  H  H34  1  0.39517000  0.02563000  0.28606000  1.0
  H  H35  1  0.60482000  0.97436000  0.71395000  1.0
  H  H36  1  0.37867000  0.13244000  0.39284000  1.0
  H  H37  1  0.62132000  0.86755000  0.60717000  1.0
  H  H38  1  0.33860000  0.19178000  0.27830000  1.0
  H  H39  1  0.66140000  0.80821000  0.72171000  1.0
  H  H40  1  0.55094000  0.67627000  0.58777000  1.0
  H  H41  1  0.44906000  0.32372000  0.41223000  1.0
  H  H42  1  0.49585000  0.55905000  0.55971000  1.0
  H  H43  1  0.50415000  0.44095000  0.44029000  1.0
  H  H44  1  0.60838000  0.52232000  0.62742000  1.0
  H  H45  1  0.39162000  0.47768000  0.37258000  1.0
  H  H46  1  0.96799000  0.64340000  0.63104000  1.0
  H  H47  1  0.03202000  0.35660000  0.36894000  1.0
  C  C48  1  0.96234000  0.17862000  0.55256000  1.0
  C  C49  1  0.03766000  0.82138000  0.44744000  1.0
  C  C50  1  0.01214000  0.01688000  0.15033000  1.0
  C  C51  1  0.98788000  0.98311000  0.84967000  1.0
  C  C52  1  0.20018000  0.67348000  0.90664000  1.0
  C  C53  1  0.79982000  0.32652000  0.09336000  1.0
  C  C54  1  0.29925000  0.08854000  0.82160000  1.0
  C  C55  1  0.70074000  0.91147000  0.17840000  1.0
  C  C56  1  0.09712000  0.17428000  0.53139000  1.0
  C  C57  1  0.90287000  0.82571000  0.46861000  1.0
  C  C58  1  0.39159000  0.64354000  0.73782000  1.0
  C  C59  1  0.60841000  0.35646000  0.26218000  1.0
  C  C60  1  0.18117000  0.13866000  0.41154000  1.0
  C  C61  1  0.81883000  0.86134000  0.58846000  1.0
  C  C62  1  0.14339000  0.19751000  0.61825000  1.0
  C  C63  1  0.85662000  0.80248000  0.38174000  1.0
  C  C64  1  0.29995000  0.58541000  0.80378000  1.0
  C  C65  1  0.70005000  0.41459000  0.19622000  1.0
  C  C66  1  0.13119000  0.33171000  0.64300000  1.0
  C  C67  1  0.86881000  0.66828000  0.35700000  1.0
  C  C68  1  0.83219000  0.21208000  0.66487000  1.0
  C  C69  1  0.16780000  0.78792000  0.33514000  1.0
  C  C70  1  0.20740000  0.45969000  0.71866000  1.0
  C  C71  1  0.79260000  0.54032000  0.28133000  1.0
  C  C72  1  0.30418000  0.45850000  0.77098000  1.0
  C  C73  1  0.69582000  0.54151000  0.22903000  1.0
  C  C74  1  0.12011000  0.56999000  0.69827000  1.0
  C  C75  1  0.87989000  0.43002000  0.30172000  1.0
  C  C76  1  0.04170000  0.43858000  0.62070000  1.0
  C  C77  1  0.95831000  0.56142000  0.37929000  1.0
  C  C78  1  0.07695000  0.66224000  0.00681000  1.0
  C  C79  1  0.92305000  0.33776000  0.99319000  1.0
  C  C80  1  0.33072000  0.12125000  0.33790000  1.0
  C  C81  1  0.66927000  0.87875000  0.66210000  1.0
  C  C82  1  0.51845000  0.59820000  0.62270000  1.0
  C  C83  1  0.48155000  0.40180000  0.37730000  1.0
  C  C84  1  0.03647000  0.55878000  0.64847000  1.0
  C  C85  1  0.96353000  0.44122000  0.35152000  1.0
  C  C86  1  0.64103000  0.15185000  0.51054000  1.0
  C  C87  1  0.35897000  0.84815000  0.48946000  1.0
  N  N88  1  0.22938000  0.77862000  0.90359000  1.0
  N  N89  1  0.77062000  0.22138000  0.09641000  1.0
  N  N90  1  0.21228000  0.34332000  0.69080000  1.0
  N  N91  1  0.78772000  0.65668000  0.30920000  1.0
  N  N92  1  0.09696000  0.12279000  0.36851000  1.0
  N  N93  1  0.90303000  0.87721000  0.63149000  1.0
  N  N94  1  0.96398000  0.14663000  0.45219000  1.0
  N  N95  1  0.03602000  0.85336000  0.54782000  1.0
  N  N96  1  0.25608000  0.02713000  0.89176000  1.0
  N  N97  1  0.74393000  0.97287000  0.10825000  1.0
  N  N98  1  0.34540000  0.75797000  0.80161000  1.0
  N  N99  1  0.65461000  0.24203000  0.19839000  1.0
  N  N100  1  0.94050000  0.06258000  0.24900000  1.0
  N  N101  1  0.05951000  0.93742000  0.75100000  1.0
  N  N102  1  0.52729000  0.16347000  0.58104000  1.0
  N  N103  1  0.47271000  0.83652000  0.41895000  1.0
