# generated using pymatgen
data_UH24C20(NO3)2
_symmetry_space_group_name_H-M   'P 1'
_cell_length_a   9.60918000
_cell_length_b   14.66820000
_cell_length_c   19.24580000
_cell_angle_alpha   89.99960000
_cell_angle_beta   89.99990000
_cell_angle_gamma   89.99980000
_symmetry_Int_Tables_number   1
_chemical_formula_structural   UH24C20(NO3)2
_chemical_formula_sum   'U4 H96 C80 N8 O24'
_cell_volume   2712.68346351
_cell_formula_units_Z   4
loop_
 _symmetry_equiv_pos_site_id
 _symmetry_equiv_pos_as_xyz
  1  'x, y, z'
loop_
 _atom_site_type_symbol
 _atom_site_label
 _atom_site_symmetry_multiplicity
 _atom_site_fract_x
 _atom_site_fract_y
 _atom_site_fract_z
 _atom_site_occupancy
  U  U0  1  0.76912000  0.00925000  0.24487000  1.0
  U  U1  1  0.73088000  0.99075000  0.74487000  1.0
  U  U2  1  0.23088000  0.50926000  0.25513000  1.0
  U  U3  1  0.26912000  0.49074000  0.75513000  1.0
  H  H4  1  0.12538000  0.83423000  0.05213000  1.0
  H  H5  1  0.37462000  0.16576000  0.55213000  1.0
  H  H6  1  0.87462000  0.33424000  0.44787000  1.0
  H  H7  1  0.62538000  0.66576000  0.94787000  1.0
  H  H8  1  0.08312000  0.95113000  0.04635000  1.0
  H  H9  1  0.41687000  0.04887000  0.54635000  1.0
  H  H10  1  0.91688000  0.45113000  0.45365000  1.0
  H  H11  1  0.58312000  0.54887000  0.95365000  1.0
  H  H12  1  0.07694000  0.93868000  0.92537000  1.0
  H  H13  1  0.42306000  0.06132000  0.42537000  1.0
  H  H14  1  0.92306000  0.43868000  0.57463000  1.0
  H  H15  1  0.57694000  0.56132000  0.07463000  1.0
  H  H16  1  0.10366000  0.82032000  0.92899000  1.0
  H  H17  1  0.39634000  0.17968000  0.42899000  1.0
  H  H18  1  0.89634000  0.32032000  0.57101000  1.0
  H  H19  1  0.60366000  0.67968000  0.07101000  1.0
  H  H20  1  0.86101000  0.78782000  0.93062000  1.0
  H  H21  1  0.63899000  0.21218000  0.43062000  1.0
  H  H22  1  0.13899000  0.28782000  0.56938000  1.0
  H  H23  1  0.36101000  0.71218000  0.06938000  1.0
  H  H24  1  0.60519000  0.89353000  0.04884000  1.0
  H  H25  1  0.89481000  0.10646000  0.54884000  1.0
  H  H26  1  0.39481000  0.39354000  0.45116000  1.0
  H  H27  1  0.10519000  0.60646000  0.95116000  1.0
  H  H28  1  0.64825000  0.79411000  0.00080000  1.0
  H  H29  1  0.85175000  0.20589000  0.50080000  1.0
  H  H30  1  0.35175000  0.29411000  0.49920000  1.0
  H  H31  1  0.14825000  0.70588000  0.99920000  1.0
  H  H32  1  0.59759000  0.89393000  0.95607000  1.0
  H  H33  1  0.90241000  0.10607000  0.45607000  1.0
  H  H34  1  0.40241000  0.39393000  0.54393000  1.0
  H  H35  1  0.09759000  0.60607000  0.04393000  1.0
  H  H36  1  0.74762000  0.03086000  0.95153000  1.0
  H  H37  1  0.75238000  0.96914000  0.45153000  1.0
  H  H38  1  0.25238000  0.53086000  0.54847000  1.0
  H  H39  1  0.24762000  0.46914000  0.04847000  1.0
  H  H40  1  0.91398000  0.03348000  0.99137000  1.0
  H  H41  1  0.58603000  0.96652000  0.49137000  1.0
  H  H42  1  0.08602000  0.53348000  0.50863000  1.0
  H  H43  1  0.41398000  0.46652000  0.00863000  1.0
  H  H44  1  0.76164000  0.03390000  0.04344000  1.0
  H  H45  1  0.73836000  0.96610000  0.54344000  1.0
  H  H46  1  0.23836000  0.53390000  0.45657000  1.0
  H  H47  1  0.26164000  0.46610000  0.95656000  1.0
  H  H48  1  0.77960000  0.74704000  0.09342000  1.0
  H  H49  1  0.72040000  0.25296000  0.59342000  1.0
  H  H50  1  0.22040000  0.24704000  0.40658000  1.0
  H  H51  1  0.27960000  0.75296000  0.90658000  1.0
  H  H52  1  0.96034000  0.73665000  0.10921000  1.0
  H  H53  1  0.53966000  0.26334000  0.60921000  1.0
  H  H54  1  0.03966000  0.23666000  0.39079000  1.0
  H  H55  1  0.46034000  0.76334000  0.89079000  1.0
  H  H56  1  0.89602000  0.72067000  0.02405000  1.0
  H  H57  1  0.60398000  0.27933000  0.52405000  1.0
  H  H58  1  0.10398000  0.22067000  0.47595000  1.0
  H  H59  1  0.39602000  0.77933000  0.97594000  1.0
  H  H60  1  0.08865000  0.96623000  0.30930000  1.0
  H  H61  1  0.41135000  0.03377000  0.80930000  1.0
  H  H62  1  0.91135000  0.46623000  0.19070000  1.0
  H  H63  1  0.58865000  0.53378000  0.69070000  1.0
  H  H64  1  0.33344000  0.02669000  0.31714000  1.0
  H  H65  1  0.16656000  0.97331000  0.81714000  1.0
  H  H66  1  0.66656000  0.52669000  0.18286000  1.0
  H  H67  1  0.83344000  0.47331000  0.68286000  1.0
  H  H68  1  0.38352000  0.18227000  0.27070000  1.0
  H  H69  1  0.11648000  0.81773000  0.77070000  1.0
  H  H70  1  0.61647000  0.68227000  0.22930000  1.0
  H  H71  1  0.88353000  0.31773000  0.72930000  1.0
  H  H72  1  0.18554000  0.27290000  0.21813000  1.0
  H  H73  1  0.31446000  0.72711000  0.71813000  1.0
  H  H74  1  0.81445000  0.77289000  0.28187000  1.0
  H  H75  1  0.68554000  0.22711000  0.78188000  1.0
  H  H76  1  0.95013000  0.20212000  0.21359000  1.0
  H  H77  1  0.54988000  0.79788000  0.71359000  1.0
  H  H78  1  0.04987000  0.70212000  0.28641000  1.0
  H  H79  1  0.45013000  0.29789000  0.78641000  1.0
  H  H80  1  0.55309000  0.84372000  0.30794000  1.0
  H  H81  1  0.94690000  0.15629000  0.80794000  1.0
  H  H82  1  0.44691000  0.34372000  0.19206000  1.0
  H  H83  1  0.05309000  0.65628000  0.69206000  1.0
  H  H84  1  0.33707000  0.75388000  0.28244000  1.0
  H  H85  1  0.16293000  0.24612000  0.78244000  1.0
  H  H86  1  0.66293000  0.25388000  0.21756000  1.0
  H  H87  1  0.83707000  0.74612000  0.71756000  1.0
  H  H88  1  0.18554000  0.80327000  0.18276000  1.0
  H  H89  1  0.31447000  0.19673000  0.68276000  1.0
  H  H90  1  0.81447000  0.30327000  0.31724000  1.0
  H  H91  1  0.68553000  0.69673000  0.81724000  1.0
  H  H92  1  0.25902000  0.93984000  0.11265000  1.0
  H  H93  1  0.24098000  0.06016000  0.61265000  1.0
  H  H94  1  0.74098000  0.43984000  0.38735000  1.0
  H  H95  1  0.75902000  0.56016000  0.88735000  1.0
  H  H96  1  0.48420000  0.01666000  0.14161000  1.0
  H  H97  1  0.01580000  0.98334000  0.64161000  1.0
  H  H98  1  0.51580000  0.51666000  0.35839000  1.0
  H  H99  1  0.98420000  0.48334000  0.85839000  1.0
  C  C100  1  0.80604000  0.90071000  0.99763000  1.0
  C  C101  1  0.69396000  0.09928000  0.49763000  1.0
  C  C102  1  0.19396000  0.40071000  0.50237000  1.0
  C  C103  1  0.30604000  0.59929000  0.00237000  1.0
  C  C104  1  0.90271000  0.86345000  0.05804000  1.0
  C  C105  1  0.59729000  0.13655000  0.55804000  1.0
  C  C106  1  0.09729000  0.36345000  0.44196000  1.0
  C  C107  1  0.40271000  0.63655000  0.94195000  1.0
  C  C108  1  0.05022000  0.88273000  0.03022000  1.0
  C  C109  1  0.44978000  0.11727000  0.53022000  1.0
  C  C110  1  0.94978000  0.38273000  0.46978000  1.0
  C  C111  1  0.55022000  0.61727000  0.96977000  1.0
  C  C112  1  0.04034000  0.87585000  0.95020000  1.0
  C  C113  1  0.45966000  0.12415000  0.45020000  1.0
  C  C114  1  0.95966000  0.37585000  0.54980000  1.0
  C  C115  1  0.54034000  0.62415000  0.04980000  1.0
  C  C116  1  0.88568000  0.86104000  0.93349000  1.0
  C  C117  1  0.61433000  0.13896000  0.43348000  1.0
  C  C118  1  0.11432000  0.36104000  0.56652000  1.0
  C  C119  1  0.38568000  0.63896000  0.06651000  1.0
  C  C120  1  0.86829000  0.91271000  0.12527000  1.0
  C  C121  1  0.63171000  0.08729000  0.62527000  1.0
  C  C122  1  0.13171000  0.41271000  0.37473000  1.0
  C  C123  1  0.36829000  0.58729000  0.87473000  1.0
  C  C124  1  0.83751000  0.90093000  0.86558000  1.0
  C  C125  1  0.66249000  0.09908000  0.36558000  1.0
  C  C126  1  0.16249000  0.40093000  0.63442000  1.0
  C  C127  1  0.33751000  0.59907000  0.13442000  1.0
  C  C128  1  0.65551000  0.86864000  0.00129000  1.0
  C  C129  1  0.84449000  0.13136000  0.50129000  1.0
  C  C130  1  0.34448000  0.36864000  0.49871000  1.0
  C  C131  1  0.15551000  0.63136000  0.99871000  1.0
  C  C132  1  0.80835000  0.00564000  0.99596000  1.0
  C  C133  1  0.69165000  0.99436000  0.49595000  1.0
  C  C134  1  0.19165000  0.50564000  0.50405000  1.0
  C  C135  1  0.30835000  0.49436000  0.00405000  1.0
  C  C136  1  0.88255000  0.76094000  0.07163000  1.0
  C  C137  1  0.61744000  0.23905000  0.57163000  1.0
  C  C138  1  0.11744000  0.26095000  0.42837000  1.0
  C  C139  1  0.38256000  0.73906000  0.92837000  1.0
  C  C140  1  0.11557000  0.03385000  0.29005000  1.0
  C  C141  1  0.38443000  0.96614000  0.79005000  1.0
  C  C142  1  0.88443000  0.53385000  0.20995000  1.0
  C  C143  1  0.61557000  0.46615000  0.70995000  1.0
  C  C144  1  0.25070000  0.06759000  0.29428000  1.0
  C  C145  1  0.24930000  0.93242000  0.79428000  1.0
  C  C146  1  0.74930000  0.56758000  0.20572000  1.0
  C  C147  1  0.75070000  0.43242000  0.70572000  1.0
  C  C148  1  0.27851000  0.15427000  0.26802000  1.0
  C  C149  1  0.22149000  0.84573000  0.76802000  1.0
  C  C150  1  0.72148000  0.65427000  0.23198000  1.0
  C  C151  1  0.77851000  0.34573000  0.73198000  1.0
  C  C152  1  0.17012000  0.20439000  0.23856000  1.0
  C  C153  1  0.32988000  0.79562000  0.73856000  1.0
  C  C154  1  0.82987000  0.70438000  0.26144000  1.0
  C  C155  1  0.67013000  0.29562000  0.76144000  1.0
  C  C156  1  0.03791000  0.16560000  0.23639000  1.0
  C  C157  1  0.46209000  0.83440000  0.73639000  1.0
  C  C158  1  0.96209000  0.66560000  0.26361000  1.0
  C  C159  1  0.53791000  0.33440000  0.76361000  1.0
  C  C160  1  0.48576000  0.86157000  0.26436000  1.0
  C  C161  1  0.01424000  0.13843000  0.76436000  1.0
  C  C162  1  0.51425000  0.36157000  0.23564000  1.0
  C  C163  1  0.98575000  0.63843000  0.73564000  1.0
  C  C164  1  0.36435000  0.81278000  0.25064000  1.0
  C  C165  1  0.13565000  0.18722000  0.75064000  1.0
  C  C166  1  0.63565000  0.31278000  0.24936000  1.0
  C  C167  1  0.86435000  0.68722000  0.74937000  1.0
  C  C168  1  0.28081000  0.84025000  0.19506000  1.0
  C  C169  1  0.21919000  0.15976000  0.69506000  1.0
  C  C170  1  0.71919000  0.34024000  0.30495000  1.0
  C  C171  1  0.78081000  0.65976000  0.80495000  1.0
  C  C172  1  0.32239000  0.91498000  0.15543000  1.0
  C  C173  1  0.17760000  0.08502000  0.65543000  1.0
  C  C174  1  0.67761000  0.41499000  0.34457000  1.0
  C  C175  1  0.82239000  0.58501000  0.84457000  1.0
  C  C176  1  0.44677000  0.95864000  0.17171000  1.0
  C  C177  1  0.05323000  0.04137000  0.67171000  1.0
  C  C178  1  0.55323000  0.45864000  0.32829000  1.0
  C  C179  1  0.94677000  0.54136000  0.82829000  1.0
  N  N180  1  0.01067000  0.08184000  0.26151000  1.0
  N  N181  1  0.48933000  0.91817000  0.76151000  1.0
  N  N182  1  0.98932000  0.58183000  0.23849000  1.0
  N  N183  1  0.51067000  0.41817000  0.73849000  1.0
  N  N184  1  0.52721000  0.93268000  0.22530000  1.0
  N  N185  1  0.97279000  0.06733000  0.72530000  1.0
  N  N186  1  0.47279000  0.43268000  0.27470000  1.0
  N  N187  1  0.02721000  0.56732000  0.77470000  1.0
  O  O188  1  0.83363000  0.92128000  0.30297000  1.0
  O  O189  1  0.66635000  0.07872000  0.80298000  1.0
  O  O190  1  0.16636000  0.42128000  0.19702000  1.0
  O  O191  1  0.33362000  0.57871000  0.69704000  1.0
  O  O192  1  0.70482000  0.09835000  0.18757000  1.0
  O  O193  1  0.79518000  0.90167000  0.68758000  1.0
  O  O194  1  0.29518000  0.59833000  0.31242000  1.0
  O  O195  1  0.20482000  0.40165000  0.81243000  1.0
  O  O196  1  0.75318000  0.89292000  0.15577000  1.0
  O  O197  1  0.74681000  0.10709000  0.65577000  1.0
  O  O198  1  0.24682000  0.39291000  0.34423000  1.0
  O  O199  1  0.25318000  0.60708000  0.84423000  1.0
  O  O200  1  0.94647000  0.97361000  0.15190000  1.0
  O  O201  1  0.55353000  0.02638000  0.65190000  1.0
  O  O202  1  0.05353000  0.47362000  0.34810000  1.0
  O  O203  1  0.44647000  0.52638000  0.84810000  1.0
  O  O204  1  0.72180000  0.87530000  0.83872000  1.0
  O  O205  1  0.77820000  0.12470000  0.33872000  1.0
  O  O206  1  0.27820000  0.37530000  0.66128000  1.0
  O  O207  1  0.22180000  0.62470000  0.16128000  1.0
  O  O208  1  0.90895000  0.96218000  0.83437000  1.0
  O  O209  1  0.59105000  0.03782000  0.33437000  1.0
  O  O210  1  0.09105000  0.46218000  0.66563000  1.0
  O  O211  1  0.40895000  0.53782000  0.16563000  1.0
