# generated using pymatgen
data_Cd3P2H28C14N2(ClO6)2
_symmetry_space_group_name_H-M   'P 1'
_cell_length_a   6.93387000
_cell_length_b   15.87290000
_cell_length_c   26.44300000
_cell_angle_alpha   90.00010000
_cell_angle_beta   89.99960000
_cell_angle_gamma   89.99990000
_symmetry_Int_Tables_number   1
_chemical_formula_structural   Cd3P2H28C14N2(ClO6)2
_chemical_formula_sum   'Cd12 P8 H112 C56 N8 Cl8 O48'
_cell_volume   2910.33311005
_cell_formula_units_Z   4
loop_
 _symmetry_equiv_pos_site_id
 _symmetry_equiv_pos_as_xyz
  1  'x, y, z'
loop_
 _atom_site_type_symbol
 _atom_site_label
 _atom_site_symmetry_multiplicity
 _atom_site_fract_x
 _atom_site_fract_y
 _atom_site_fract_z
 _atom_site_occupancy
  Cd  Cd0  1  0.60491000  0.48789000  0.98324000  1.0
  Cd  Cd1  1  0.89510000  0.51211000  0.48324000  1.0
  Cd  Cd2  1  0.39509000  0.98789000  0.51677000  1.0
  Cd  Cd3  1  0.10491000  0.01211000  0.01677000  1.0
  Cd  Cd4  1  0.36483000  0.24674000  0.99361000  1.0
  Cd  Cd5  1  0.13517000  0.75326000  0.49361000  1.0
  Cd  Cd6  1  0.63517000  0.74674000  0.50639000  1.0
  Cd  Cd7  1  0.86483000  0.25326000  0.00639000  1.0
  Cd  Cd8  1  0.26244000  0.49300000  0.88240000  1.0
  Cd  Cd9  1  0.23757000  0.50699000  0.38239000  1.0
  Cd  Cd10  1  0.73757000  0.99301000  0.61760000  1.0
  Cd  Cd11  1  0.76243000  0.00700000  0.11760000  1.0
  P  P12  1  0.10632000  0.44178000  0.99768000  1.0
  P  P13  1  0.39368000  0.55822000  0.49768000  1.0
  P  P14  1  0.89368000  0.94178000  0.50232000  1.0
  P  P15  1  0.60632000  0.05822000  0.00232000  1.0
  P  P16  1  0.62396000  0.33017000  0.89736000  1.0
  P  P17  1  0.87603000  0.66983000  0.39736000  1.0
  P  P18  1  0.37604000  0.83017000  0.60264000  1.0
  P  P19  1  0.12396000  0.16983000  0.10264000  1.0
  H  H20  1  0.01337000  0.33929000  0.89870000  1.0
  H  H21  1  0.48663000  0.66070000  0.39870000  1.0
  H  H22  1  0.98664000  0.83930000  0.60130000  1.0
  H  H23  1  0.51337000  0.16071000  0.10130000  1.0
  H  H24  1  0.23445000  0.32009000  0.88772000  1.0
  H  H25  1  0.26554000  0.67990000  0.38772000  1.0
  H  H26  1  0.76555000  0.82010000  0.61228000  1.0
  H  H27  1  0.73445000  0.17991000  0.11228000  1.0
  H  H28  1  0.87917000  0.57469000  0.89323000  1.0
  H  H29  1  0.62085000  0.42530000  0.39323000  1.0
  H  H30  1  0.12085000  0.07470000  0.60677000  1.0
  H  H31  1  0.37916000  0.92530000  0.10677000  1.0
  H  H32  1  0.84887000  0.48818000  0.87163000  1.0
  H  H33  1  0.65117000  0.51182000  0.37164000  1.0
  H  H34  1  0.15115000  0.98818000  0.62836000  1.0
  H  H35  1  0.34883000  0.01182000  0.12836000  1.0
  H  H36  1  0.88964000  0.57295000  0.05867000  1.0
  H  H37  1  0.61035000  0.42705000  0.55867000  1.0
  H  H38  1  0.11036000  0.07295000  0.44133000  1.0
  H  H39  1  0.38964000  0.92705000  0.94133000  1.0
  H  H40  1  0.51579000  0.20770000  0.83059000  1.0
  H  H41  1  0.98422000  0.79230000  0.33060000  1.0
  H  H42  1  0.48422000  0.70770000  0.66940000  1.0
  H  H43  1  0.01578000  0.29230000  0.16940000  1.0
  H  H44  1  0.02367000  0.44769000  0.08606000  1.0
  H  H45  1  0.47633000  0.55231000  0.58606000  1.0
  H  H46  1  0.97634000  0.94769000  0.41394000  1.0
  H  H47  1  0.52366000  0.05231000  0.91394000  1.0
  H  H48  1  0.26402000  0.48629000  0.07588000  1.0
  H  H49  1  0.23597000  0.51372000  0.57588000  1.0
  H  H50  1  0.73598000  0.98629000  0.42412000  1.0
  H  H51  1  0.76402000  0.01371000  0.92412000  1.0
  H  H52  1  0.08966000  0.60898000  0.98897000  1.0
  H  H53  1  0.41033000  0.39103000  0.48898000  1.0
  H  H54  1  0.91034000  0.10898000  0.51103000  1.0
  H  H55  1  0.58966000  0.89102000  0.01103000  1.0
  H  H56  1  0.28243000  0.63226000  0.03158000  1.0
  H  H57  1  0.21756000  0.36775000  0.53158000  1.0
  H  H58  1  0.71756000  0.13226000  0.46842000  1.0
  H  H59  1  0.78244000  0.86775000  0.96843000  1.0
  H  H60  1  0.88920000  0.72223000  0.02669000  1.0
  H  H61  1  0.61079000  0.27778000  0.52669000  1.0
  H  H62  1  0.11080000  0.22223000  0.47331000  1.0
  H  H63  1  0.38922000  0.77777000  0.97331000  1.0
  H  H64  1  0.11098000  0.76393000  0.00486000  1.0
  H  H65  1  0.38901000  0.23607000  0.50486000  1.0
  H  H66  1  0.88902000  0.26393000  0.49514000  1.0
  H  H67  1  0.61099000  0.73607000  0.99515000  1.0
  H  H68  1  0.24418000  0.75369000  0.09276000  1.0
  H  H69  1  0.25580000  0.24631000  0.59276000  1.0
  H  H70  1  0.75584000  0.25370000  0.40724000  1.0
  H  H71  1  0.74421000  0.74631000  0.90724000  1.0
  H  H72  1  0.83267000  0.69827000  0.12012000  1.0
  H  H73  1  0.66731000  0.30173000  0.62012000  1.0
  H  H74  1  0.16733000  0.19826000  0.37987000  1.0
  H  H75  1  0.33269000  0.80172000  0.87988000  1.0
  H  H76  1  0.02312000  0.71425000  0.16388000  1.0
  H  H77  1  0.47685000  0.28575000  0.66388000  1.0
  H  H78  1  0.97688000  0.21425000  0.33612000  1.0
  H  H79  1  0.52315000  0.78574000  0.83612000  1.0
  H  H80  1  0.22043000  0.60321000  0.12638000  1.0
  H  H81  1  0.27955000  0.39679000  0.62638000  1.0
  H  H82  1  0.77956000  0.10321000  0.37362000  1.0
  H  H83  1  0.72045000  0.89679000  0.87362000  1.0
  H  H84  1  0.99109000  0.56296000  0.14317000  1.0
  H  H85  1  0.50890000  0.43704000  0.64317000  1.0
  H  H86  1  0.00891000  0.06295000  0.35683000  1.0
  H  H87  1  0.49110000  0.93704000  0.85683000  1.0
  H  H88  1  0.55890000  0.35778000  0.80965000  1.0
  H  H89  1  0.94108000  0.64222000  0.30965000  1.0
  H  H90  1  0.44110000  0.85778000  0.69035000  1.0
  H  H91  1  0.05890000  0.14222000  0.19035000  1.0
  H  H92  1  0.81238000  0.33758000  0.81894000  1.0
  H  H93  1  0.68761000  0.66243000  0.31894000  1.0
  H  H94  1  0.18763000  0.83758000  0.68106000  1.0
  H  H95  1  0.31238000  0.16242000  0.18106000  1.0
  H  H96  1  0.73748000  0.24738000  0.73818000  1.0
  H  H97  1  0.76252000  0.75262000  0.23818000  1.0
  H  H98  1  0.26251000  0.74738000  0.76182000  1.0
  H  H99  1  0.23747000  0.25262000  0.26182000  1.0
  H  H100  1  0.48799000  0.26806000  0.74712000  1.0
  H  H101  1  0.01200000  0.73195000  0.24712000  1.0
  H  H102  1  0.51201000  0.76805000  0.75288000  1.0
  H  H103  1  0.98799000  0.23194000  0.25288000  1.0
  H  H104  1  0.42131000  0.11352000  0.75513000  1.0
  H  H105  1  0.07869000  0.88648000  0.25513000  1.0
  H  H106  1  0.57868000  0.61351000  0.74487000  1.0
  H  H107  1  0.92129000  0.38648000  0.24487000  1.0
  H  H108  1  0.54565000  0.13307000  0.69793000  1.0
  H  H109  1  0.95436000  0.86693000  0.19793000  1.0
  H  H110  1  0.45434000  0.63307000  0.80207000  1.0
  H  H111  1  0.04563000  0.36693000  0.30207000  1.0
  H  H112  1  0.85131000  0.08591000  0.73356000  1.0
  H  H113  1  0.64870000  0.91409000  0.23356000  1.0
  H  H114  1  0.14868000  0.58591000  0.76643000  1.0
  H  H115  1  0.35128000  0.41409000  0.26644000  1.0
  H  H116  1  0.88095000  0.04112000  0.82397000  1.0
  H  H117  1  0.61907000  0.95888000  0.32397000  1.0
  H  H118  1  0.11906000  0.54112000  0.67602000  1.0
  H  H119  1  0.38094000  0.45888000  0.17603000  1.0
  H  H120  1  0.63347000  0.05768000  0.83290000  1.0
  H  H121  1  0.86656000  0.94233000  0.33291000  1.0
  H  H122  1  0.36655000  0.55767000  0.66709000  1.0
  H  H123  1  0.13346000  0.44232000  0.16709000  1.0
  H  H124  1  0.81911000  0.17830000  0.86877000  1.0
  H  H125  1  0.68091000  0.82171000  0.36878000  1.0
  H  H126  1  0.18091000  0.67830000  0.63122000  1.0
  H  H127  1  0.31910000  0.32170000  0.13123000  1.0
  H  H128  1  0.93113000  0.19709000  0.80943000  1.0
  H  H129  1  0.56888000  0.80292000  0.30944000  1.0
  H  H130  1  0.06888000  0.69708000  0.69056000  1.0
  H  H131  1  0.43112000  0.30292000  0.19057000  1.0
  C  C132  1  0.11537000  0.48664000  0.06153000  1.0
  C  C133  1  0.38462000  0.51336000  0.56153000  1.0
  C  C134  1  0.88463000  0.98664000  0.43847000  1.0
  C  C135  1  0.61537000  0.01336000  0.93847000  1.0
  C  C136  1  0.12544000  0.63421000  0.02632000  1.0
  C  C137  1  0.37456000  0.36579000  0.52633000  1.0
  C  C138  1  0.87456000  0.13421000  0.47368000  1.0
  C  C139  1  0.62544000  0.86579000  0.97368000  1.0
  C  C140  1  0.04595000  0.72233000  0.03336000  1.0
  C  C141  1  0.45404000  0.27768000  0.53336000  1.0
  C  C142  1  0.95405000  0.22233000  0.46664000  1.0
  C  C143  1  0.54597000  0.77767000  0.96665000  1.0
  C  C144  1  0.08656000  0.75508000  0.08702000  1.0
  C  C145  1  0.41342000  0.24492000  0.58702000  1.0
  C  C146  1  0.91345000  0.25508000  0.41298000  1.0
  C  C147  1  0.58660000  0.74492000  0.91298000  1.0
  C  C148  1  0.99017000  0.69620000  0.12480000  1.0
  C  C149  1  0.50980000  0.30380000  0.62480000  1.0
  C  C150  1  0.00983000  0.19619000  0.37520000  1.0
  C  C151  1  0.49020000  0.80380000  0.87521000  1.0
  C  C152  1  0.06556000  0.60699000  0.11805000  1.0
  C  C153  1  0.43442000  0.39301000  0.61805000  1.0
  C  C154  1  0.93443000  0.10699000  0.38195000  1.0
  C  C155  1  0.56558000  0.89300000  0.88195000  1.0
  C  C156  1  0.02833000  0.84764000  0.08904000  1.0
  C  C157  1  0.47164000  0.15236000  0.58904000  1.0
  C  C158  1  0.97169000  0.34764000  0.41096000  1.0
  C  C159  1  0.52838000  0.65236000  0.91096000  1.0
  C  C160  1  0.66571000  0.31775000  0.82912000  1.0
  C  C161  1  0.83429000  0.68225000  0.32912000  1.0
  C  C162  1  0.33430000  0.81775000  0.67088000  1.0
  C  C163  1  0.16571000  0.18225000  0.17088000  1.0
  C  C164  1  0.60461000  0.22339000  0.75576000  1.0
  C  C165  1  0.89539000  0.77661000  0.25576000  1.0
  C  C166  1  0.39539000  0.72339000  0.74424000  1.0
  C  C167  1  0.10460000  0.27661000  0.24424000  1.0
  C  C168  1  0.56120000  0.13366000  0.73924000  1.0
  C  C169  1  0.93880000  0.86634000  0.23925000  1.0
  C  C170  1  0.43879000  0.63366000  0.76075000  1.0
  C  C171  1  0.06118000  0.36634000  0.26076000  1.0
  C  C172  1  0.71968000  0.07130000  0.75542000  1.0
  C  C173  1  0.78032000  0.92871000  0.25543000  1.0
  C  C174  1  0.28031000  0.57129000  0.74457000  1.0
  C  C175  1  0.21966000  0.42871000  0.24458000  1.0
  C  C176  1  0.75975000  0.08099000  0.81197000  1.0
  C  C177  1  0.74027000  0.91901000  0.31197000  1.0
  C  C178  1  0.24025000  0.58099000  0.68802000  1.0
  C  C179  1  0.25974000  0.41901000  0.18803000  1.0
  C  C180  1  0.80160000  0.17122000  0.82773000  1.0
  C  C181  1  0.69842000  0.82878000  0.32773000  1.0
  C  C182  1  0.19842000  0.67122000  0.67227000  1.0
  C  C183  1  0.30159000  0.32878000  0.17227000  1.0
  C  C184  1  0.65853000  0.98043000  0.74137000  1.0
  C  C185  1  0.84147000  0.01957000  0.24137000  1.0
  C  C186  1  0.34145000  0.48043000  0.75863000  1.0
  C  C187  1  0.15851000  0.51957000  0.25863000  1.0
  N  N188  1  0.04017000  0.57503000  0.06483000  1.0
  N  N189  1  0.45982000  0.42498000  0.56484000  1.0
  N  N190  1  0.95983000  0.07502000  0.43517000  1.0
  N  N191  1  0.54017000  0.92497000  0.93517000  1.0
  N  N192  1  0.63829000  0.22853000  0.81204000  1.0
  N  N193  1  0.86171000  0.77147000  0.31205000  1.0
  N  N194  1  0.36171000  0.72853000  0.68795000  1.0
  N  N195  1  0.13829000  0.27147000  0.18795000  1.0
  Cl  Cl196  1  0.59651000  0.57686000  0.06482000  1.0
  Cl  Cl197  1  0.90348000  0.42313000  0.56482000  1.0
  Cl  Cl198  1  0.40349000  0.07687000  0.43518000  1.0
  Cl  Cl199  1  0.09651000  0.92313000  0.93518000  1.0
  Cl  Cl200  1  0.59669000  0.35088000  0.04406000  1.0
  Cl  Cl201  1  0.90331000  0.64912000  0.54406000  1.0
  Cl  Cl202  1  0.40331000  0.85088000  0.45594000  1.0
  Cl  Cl203  1  0.09669000  0.14912000  0.95594000  1.0
  O  O204  1  0.92076000  0.47203000  0.97389000  1.0
  O  O205  1  0.57925000  0.52796000  0.47389000  1.0
  O  O206  1  0.07924000  0.97203000  0.52611000  1.0
  O  O207  1  0.42076000  0.02796000  0.02611000  1.0
  O  O208  1  0.12183000  0.34554000  0.00552000  1.0
  O  O209  1  0.37817000  0.65446000  0.50552000  1.0
  O  O210  1  0.87817000  0.84554000  0.49448000  1.0
  O  O211  1  0.62183000  0.15446000  0.99448000  1.0
  O  O212  1  0.28172000  0.47739000  0.96876000  1.0
  O  O213  1  0.21829000  0.52261000  0.46876000  1.0
  O  O214  1  0.71828000  0.97739000  0.53124000  1.0
  O  O215  1  0.78172000  0.02261000  0.03124000  1.0
  O  O216  1  0.86760000  0.86854000  0.10849000  1.0
  O  O217  1  0.63239000  0.13146000  0.60849000  1.0
  O  O218  1  0.13243000  0.36854000  0.39151000  1.0
  O  O219  1  0.36765000  0.63145000  0.89152000  1.0
  O  O220  1  0.15030000  0.89706000  0.06844000  1.0
  O  O221  1  0.34967000  0.10294000  0.56844000  1.0
  O  O222  1  0.84972000  0.39706000  0.43156000  1.0
  O  O223  1  0.65037000  0.60294000  0.93157000  1.0
  O  O224  1  0.58794000  0.42522000  0.90235000  1.0
  O  O225  1  0.91206000  0.57478000  0.40235000  1.0
  O  O226  1  0.41206000  0.92522000  0.59765000  1.0
  O  O227  1  0.08794000  0.07478000  0.09765000  1.0
  O  O228  1  0.80481000  0.29959000  0.92501000  1.0
  O  O229  1  0.69519000  0.70040000  0.42502000  1.0
  O  O230  1  0.19519000  0.79960000  0.57499000  1.0
  O  O231  1  0.30481000  0.20040000  0.07499000  1.0
  O  O232  1  0.44525000  0.27469000  0.90872000  1.0
  O  O233  1  0.05475000  0.72531000  0.40872000  1.0
  O  O234  1  0.55475000  0.77469000  0.59128000  1.0
  O  O235  1  0.94525000  0.22531000  0.09128000  1.0
  O  O236  1  0.62928000  0.96560000  0.69416000  1.0
  O  O237  1  0.87075000  0.03440000  0.19416000  1.0
  O  O238  1  0.37072000  0.46560000  0.80583000  1.0
  O  O239  1  0.12923000  0.53441000  0.30584000  1.0
  O  O240  1  0.63241000  0.92725000  0.77557000  1.0
  O  O241  1  0.86753000  0.07277000  0.27557000  1.0
  O  O242  1  0.36751000  0.42723000  0.72443000  1.0
  O  O243  1  0.13242000  0.57276000  0.22443000  1.0
  O  O244  1  0.12412000  0.35598000  0.87669000  1.0
  O  O245  1  0.37588000  0.64402000  0.37669000  1.0
  O  O246  1  0.87589000  0.85598000  0.62331000  1.0
  O  O247  1  0.62412000  0.14403000  0.12331000  1.0
  O  O248  1  0.93505000  0.53686000  0.86747000  1.0
  O  O249  1  0.56498000  0.46314000  0.36747000  1.0
  O  O250  1  0.06497000  0.03686000  0.63253000  1.0
  O  O251  1  0.43503000  0.96314000  0.13253000  1.0
