# generated using pymatgen
data_CdH28C28N4O5
_symmetry_space_group_name_H-M   'P 1'
_cell_length_a   9.93326000
_cell_length_b   14.02567086
_cell_length_c   21.06930000
_cell_angle_alpha   82.98068377
_cell_angle_beta   89.97780000
_cell_angle_gamma   69.30260087
_symmetry_Int_Tables_number   1
_chemical_formula_structural   CdH28C28N4O5
_chemical_formula_sum   'Cd4 H112 C112 N16 O20'
_cell_volume   2722.45996633
_cell_formula_units_Z   4
loop_
 _symmetry_equiv_pos_site_id
 _symmetry_equiv_pos_as_xyz
  1  'x, y, z'
loop_
 _atom_site_type_symbol
 _atom_site_label
 _atom_site_symmetry_multiplicity
 _atom_site_fract_x
 _atom_site_fract_y
 _atom_site_fract_z
 _atom_site_occupancy
  Cd  Cd0  1  0.57139000  0.37429000  0.81933000  1.0
  Cd  Cd1  1  0.94646000  0.62514000  0.68079000  1.0
  Cd  Cd2  1  0.42861000  0.62571000  0.18067000  1.0
  Cd  Cd3  1  0.05355000  0.37486000  0.31921000  1.0
  H  H4  1  0.61431000  0.80596000  0.82545000  1.0
  H  H5  1  0.42037000  0.19372000  0.67444000  1.0
  H  H6  1  0.38570000  0.19404000  0.17454000  1.0
  H  H7  1  0.57963000  0.80628000  0.32556000  1.0
  H  H8  1  0.70398000  0.64161000  0.88830000  1.0
  H  H9  1  0.34562000  0.35812000  0.61159000  1.0
  H  H10  1  0.29601000  0.35839000  0.11170000  1.0
  H  H11  1  0.65438000  0.64188000  0.38841000  1.0
  H  H12  1  0.47771000  0.63329000  0.93814000  1.0
  H  H13  1  0.11116000  0.36636000  0.56191000  1.0
  H  H14  1  0.52228000  0.36671000  0.06185000  1.0
  H  H15  1  0.88883000  0.63364000  0.43810000  1.0
  H  H16  1  0.48691000  0.75771000  0.92572000  1.0
  H  H17  1  0.24437000  0.24194000  0.57432000  1.0
  H  H18  1  0.51309000  0.24229000  0.07427000  1.0
  H  H19  1  0.75561000  0.75807000  0.42569000  1.0
  H  H20  1  0.31731000  0.67479000  0.83913000  1.0
  H  H21  1  0.99238000  0.32492000  0.66113000  1.0
  H  H22  1  0.68268000  0.32521000  0.16086000  1.0
  H  H23  1  0.00762000  0.67508000  0.33887000  1.0
  H  H24  1  0.24207000  0.76197000  0.89416000  1.0
  H  H25  1  0.00375000  0.23784000  0.60606000  1.0
  H  H26  1  0.75793000  0.23804000  0.10583000  1.0
  H  H27  1  0.99626000  0.76215000  0.39394000  1.0
  H  H28  1  0.33762000  0.88917000  0.83398000  1.0
  H  H29  1  0.22647000  0.11061000  0.66596000  1.0
  H  H30  1  0.66239000  0.11083000  0.16601000  1.0
  H  H31  1  0.77353000  0.88939000  0.33405000  1.0
  H  H32  1  0.22412000  0.85551000  0.78345000  1.0
  H  H33  1  0.07966000  0.14404000  0.71666000  1.0
  H  H34  1  0.77590000  0.14449000  0.21654000  1.0
  H  H35  1  0.92035000  0.85596000  0.28335000  1.0
  H  H36  1  0.45475000  0.85254000  0.73059000  1.0
  H  H37  1  0.30745000  0.14693000  0.76935000  1.0
  H  H38  1  0.54527000  0.14745000  0.26940000  1.0
  H  H39  1  0.69256000  0.85307000  0.23065000  1.0
  H  H40  1  0.43892000  0.72912000  0.74035000  1.0
  H  H41  1  0.16849000  0.27035000  0.75974000  1.0
  H  H42  1  0.56108000  0.27088000  0.25964000  1.0
  H  H43  1  0.83152000  0.72965000  0.24026000  1.0
  H  H44  1  0.50637000  0.19132000  0.91763000  1.0
  H  H45  1  0.69885000  0.80826000  0.58312000  1.0
  H  H46  1  0.49365000  0.80867000  0.08239000  1.0
  H  H47  1  0.30115000  0.19173000  0.41688000  1.0
  H  H48  1  0.61967000  0.06305000  0.01211000  1.0
  H  H49  1  0.68332000  0.93652000  0.48851000  1.0
  H  H50  1  0.38035000  0.93694000  0.98790000  1.0
  H  H51  1  0.31665000  0.06348000  0.51149000  1.0
  H  H52  1  0.97009000  0.17937000  0.00572000  1.0
  H  H53  1  0.14978000  0.82053000  0.49410000  1.0
  H  H54  1  0.02994000  0.82062000  0.99428000  1.0
  H  H55  1  0.85021000  0.17947000  0.50590000  1.0
  H  H56  1  0.83504000  0.30770000  0.91511000  1.0
  H  H57  1  0.14360000  0.69210000  0.58484000  1.0
  H  H58  1  0.16498000  0.69229000  0.08490000  1.0
  H  H59  1  0.85640000  0.30791000  0.41516000  1.0
  H  H60  1  0.75539000  0.93363000  0.06958000  1.0
  H  H61  1  0.68910000  0.06596000  0.43082000  1.0
  H  H62  1  0.24462000  0.06637000  0.93043000  1.0
  H  H63  1  0.31086000  0.93404000  0.56917000  1.0
  H  H64  1  0.89428000  0.80738000  0.15858000  1.0
  H  H65  1  0.70164000  0.19244000  0.34173000  1.0
  H  H66  1  0.10572000  0.19263000  0.84143000  1.0
  H  H67  1  0.29833000  0.80756000  0.65827000  1.0
  H  H68  1  0.17151000  0.96383000  0.17936000  1.0
  H  H69  1  0.13472000  0.03604000  0.32028000  1.0
  H  H70  1  0.82852000  0.03616000  0.82066000  1.0
  H  H71  1  0.86525000  0.96398000  0.67972000  1.0
  H  H72  1  0.03906000  0.10269000  0.09333000  1.0
  H  H73  1  0.14149000  0.89727000  0.40642000  1.0
  H  H74  1  0.96094000  0.89731000  0.90669000  1.0
  H  H75  1  0.85849000  0.10274000  0.59358000  1.0
  H  H76  1  0.22272000  0.47112000  0.79610000  1.0
  H  H77  1  0.69440000  0.52808000  0.70399000  1.0
  H  H78  1  0.77727000  0.52889000  0.20390000  1.0
  H  H79  1  0.30560000  0.47191000  0.29601000  1.0
  H  H80  1  0.00559000  0.58449000  0.84277000  1.0
  H  H81  1  0.58984000  0.41523000  0.65716000  1.0
  H  H82  1  0.99440000  0.41553000  0.15722000  1.0
  H  H83  1  0.41017000  0.58476000  0.34284000  1.0
  H  H84  1  0.26602000  0.53757000  0.01810000  1.0
  H  H85  1  0.80351000  0.46223000  0.48179000  1.0
  H  H86  1  0.73398000  0.46244000  0.98190000  1.0
  H  H87  1  0.19650000  0.53777000  0.51820000  1.0
  H  H88  1  0.47345000  0.43045000  0.96152000  1.0
  H  H89  1  0.90479000  0.56870000  0.53857000  1.0
  H  H90  1  0.52655000  0.56956000  0.03848000  1.0
  H  H91  1  0.09519000  0.43131000  0.46143000  1.0
  H  H92  1  0.89498000  0.73787000  0.87361000  1.0
  H  H93  1  0.63227000  0.26186000  0.62622000  1.0
  H  H94  1  0.10500000  0.26215000  0.12639000  1.0
  H  H95  1  0.36774000  0.73814000  0.37378000  1.0
  H  H96  1  0.68720000  0.85510000  0.92540000  1.0
  H  H97  1  0.54156000  0.14457000  0.57441000  1.0
  H  H98  1  0.31278000  0.14491000  0.07460000  1.0
  H  H99  1  0.45845000  0.85542000  0.42559000  1.0
  H  H100  1  0.82923000  0.69087000  0.10467000  1.0
  H  H101  1  0.51875000  0.30948000  0.39528000  1.0
  H  H102  1  0.17079000  0.30913000  0.89534000  1.0
  H  H103  1  0.48125000  0.69051000  0.60472000  1.0
  H  H104  1  0.04759000  0.57063000  0.06164000  1.0
  H  H105  1  0.61726000  0.42961000  0.43828000  1.0
  H  H106  1  0.95242000  0.42939000  0.93835000  1.0
  H  H107  1  0.38274000  0.57038000  0.56171000  1.0
  H  H108  1  0.85648000  0.23307000  0.78473000  1.0
  H  H109  1  0.09002000  0.76680000  0.71524000  1.0
  H  H110  1  0.14352000  0.76692000  0.21528000  1.0
  H  H111  1  0.90996000  0.23320000  0.28477000  1.0
  H  H112  1  0.84809000  0.34795000  0.76133000  1.0
  H  H113  1  0.19664000  0.65201000  0.73849000  1.0
  H  H114  1  0.15191000  0.65204000  0.23866000  1.0
  H  H115  1  0.80336000  0.34800000  0.26151000  1.0
  C  C116  1  0.72103000  0.70899000  0.75780000  1.0
  C  C117  1  0.43011000  0.29073000  0.74209000  1.0
  C  C118  1  0.27898000  0.29100000  0.24219000  1.0
  C  C119  1  0.56990000  0.70927000  0.25791000  1.0
  C  C120  1  0.59843000  0.74274000  0.80334000  1.0
  C  C121  1  0.34131000  0.25688000  0.69658000  1.0
  C  C122  1  0.40158000  0.25726000  0.19665000  1.0
  C  C123  1  0.65870000  0.74312000  0.30342000  1.0
  C  C124  1  0.60572000  0.65827000  0.85854000  1.0
  C  C125  1  0.26411000  0.34136000  0.64143000  1.0
  C  C126  1  0.39428000  0.34173000  0.14145000  1.0
  C  C127  1  0.73589000  0.65864000  0.35857000  1.0
  C  C128  1  0.47522000  0.69603000  0.90090000  1.0
  C  C129  1  0.17124000  0.30362000  0.59916000  1.0
  C  C130  1  0.52478000  0.30397000  0.09909000  1.0
  C  C131  1  0.82876000  0.69638000  0.40084000  1.0
  C  C132  1  0.33178000  0.73707000  0.86220000  1.0
  C  C133  1  0.06877000  0.26265000  0.63797000  1.0
  C  C134  1  0.66823000  0.26293000  0.13779000  1.0
  C  C135  1  0.93123000  0.73735000  0.36204000  1.0
  C  C136  1  0.32803000  0.82508000  0.81086000  1.0
  C  C137  1  0.15302000  0.17459000  0.68921000  1.0
  C  C138  1  0.67198000  0.17492000  0.18913000  1.0
  C  C139  1  0.84697000  0.82542000  0.31080000  1.0
  C  C140  1  0.45199000  0.78920000  0.76617000  1.0
  C  C141  1  0.24138000  0.21032000  0.73384000  1.0
  C  C142  1  0.54802000  0.21079000  0.23382000  1.0
  C  C143  1  0.75863000  0.78968000  0.26617000  1.0
  C  C144  1  0.61434000  0.55512000  0.83891000  1.0
  C  C145  1  0.16988000  0.44442000  0.66119000  1.0
  C  C146  1  0.38565000  0.44488000  0.16109000  1.0
  C  C147  1  0.83013000  0.55558000  0.33881000  1.0
  C  C148  1  0.60894000  0.18624000  0.93912000  1.0
  C  C149  1  0.79607000  0.81335000  0.56135000  1.0
  C  C150  1  0.39108000  0.81375000  0.06089000  1.0
  C  C151  1  0.20393000  0.18665000  0.43865000  1.0
  C  C152  1  0.67425000  0.11395000  0.99177000  1.0
  C  C153  1  0.78887000  0.88572000  0.50869000  1.0
  C  C154  1  0.32576000  0.88605000  0.00825000  1.0
  C  C155  1  0.21112000  0.11427000  0.49131000  1.0
  C  C156  1  0.80757000  0.10829000  0.01774000  1.0
  C  C157  1  0.91625000  0.89148000  0.48245000  1.0
  C  C158  1  0.19244000  0.89171000  0.98227000  1.0
  C  C159  1  0.08373000  0.10851000  0.51755000  1.0
  C  C160  1  0.86667000  0.17922000  0.98904000  1.0
  C  C161  1  0.04638000  0.82059000  0.51098000  1.0
  C  C162  1  0.13337000  0.82076000  0.01096000  1.0
  C  C163  1  0.95361000  0.17941000  0.48902000  1.0
  C  C164  1  0.79332000  0.25035000  0.93764000  1.0
  C  C165  1  0.04444000  0.74935000  0.56241000  1.0
  C  C166  1  0.20670000  0.74964000  0.06237000  1.0
  C  C167  1  0.95554000  0.25066000  0.43759000  1.0
  C  C168  1  0.88411000  0.03144000  0.07245000  1.0
  C  C169  1  0.91556000  0.96835000  0.42767000  1.0
  C  C170  1  0.11590000  0.96855000  0.92756000  1.0
  C  C171  1  0.08441000  0.03165000  0.57233000  1.0
  C  C172  1  0.84368000  0.94693000  0.09299000  1.0
  C  C173  1  0.79059000  0.05279000  0.40728000  1.0
  C  C174  1  0.15632000  0.05307000  0.90702000  1.0
  C  C175  1  0.20939000  0.94720000  0.59272000  1.0
  C  C176  1  0.92297000  0.87428000  0.14269000  1.0
  C  C177  1  0.79714000  0.12549000  0.35752000  1.0
  C  C178  1  0.07704000  0.12572000  0.85732000  1.0
  C  C179  1  0.20283000  0.87451000  0.64248000  1.0
  C  C180  1  0.07651000  0.96141000  0.15444000  1.0
  C  C181  1  0.03755000  0.03845000  0.34540000  1.0
  C  C182  1  0.92350000  0.03859000  0.84558000  1.0
  C  C183  1  0.96242000  0.96156000  0.65460000  1.0
  C  C184  1  0.00280000  0.03827000  0.10544000  1.0
  C  C185  1  0.04081000  0.96161000  0.39447000  1.0
  C  C186  1  0.99722000  0.96172000  0.89457000  1.0
  C  C187  1  0.95917000  0.03840000  0.60553000  1.0
  C  C188  1  0.22881000  0.48966000  0.84468000  1.0
  C  C189  1  0.71895000  0.50963000  0.65537000  1.0
  C  C190  1  0.77118000  0.51035000  0.15531000  1.0
  C  C191  1  0.28105000  0.49036000  0.34463000  1.0
  C  C192  1  0.10700000  0.55348000  0.87131000  1.0
  C  C193  1  0.66058000  0.44605000  0.62866000  1.0
  C  C194  1  0.89300000  0.44653000  0.12869000  1.0
  C  C195  1  0.33944000  0.55393000  0.37134000  1.0
  C  C196  1  0.11722000  0.57425000  0.93427000  1.0
  C  C197  1  0.69130000  0.42546000  0.56564000  1.0
  C  C198  1  0.88276000  0.42577000  0.06573000  1.0
  C  C199  1  0.30872000  0.57452000  0.43436000  1.0
  C  C200  1  0.25062000  0.52716000  0.96833000  1.0
  C  C201  1  0.77790000  0.47246000  0.53160000  1.0
  C  C202  1  0.74937000  0.47285000  0.03166000  1.0
  C  C203  1  0.22209000  0.52754000  0.46840000  1.0
  C  C204  1  0.36707000  0.46592000  0.93734000  1.0
  C  C205  1  0.83366000  0.53333000  0.56273000  1.0
  C  C206  1  0.63293000  0.53410000  0.06266000  1.0
  C  C207  1  0.16634000  0.46667000  0.43727000  1.0
  C  C208  1  0.99069000  0.64369000  0.96328000  1.0
  C  C209  1  0.63370000  0.35625000  0.53658000  1.0
  C  C210  1  0.00930000  0.35633000  0.03672000  1.0
  C  C211  1  0.36631000  0.64374000  0.46341000  1.0
  C  C212  1  0.88526000  0.72521000  0.92529000  1.0
  C  C213  1  0.60974000  0.27462000  0.57458000  1.0
  C  C214  1  0.11473000  0.27480000  0.07471000  1.0
  C  C215  1  0.39028000  0.72536000  0.42542000  1.0
  C  C216  1  0.76882000  0.79061000  0.95445000  1.0
  C  C217  1  0.55868000  0.20919000  0.54544000  1.0
  C  C218  1  0.23115000  0.20941000  0.04555000  1.0
  C  C219  1  0.44134000  0.79080000  0.45456000  1.0
  C  C220  1  0.84820000  0.70058000  0.05358000  1.0
  C  C221  1  0.54771000  0.29951000  0.44635000  1.0
  C  C222  1  0.15182000  0.29942000  0.94642000  1.0
  C  C223  1  0.45229000  0.70048000  0.55365000  1.0
  C  C224  1  0.97013000  0.63227000  0.02931000  1.0
  C  C225  1  0.60144000  0.36785000  0.47060000  1.0
  C  C226  1  0.02988000  0.36774000  0.97069000  1.0
  C  C227  1  0.39856000  0.63214000  0.52940000  1.0
  N  N228  1  0.66752000  0.25357000  0.91243000  1.0
  N  N229  1  0.92204000  0.74599000  0.58780000  1.0
  N  N230  1  0.33249000  0.74642000  0.08757000  1.0
  N  N231  1  0.07797000  0.25400000  0.41220000  1.0
  N  N232  1  0.03829000  0.87984000  0.17299000  1.0
  N  N233  1  0.91778000  0.12004000  0.32702000  1.0
  N  N234  1  0.96173000  0.12016000  0.82702000  1.0
  N  N235  1  0.08219000  0.87997000  0.67298000  1.0
  N  N236  1  0.35773000  0.44772000  0.87661000  1.0
  N  N237  1  0.80631000  0.55139000  0.62348000  1.0
  N  N238  1  0.64226000  0.55229000  0.12338000  1.0
  N  N239  1  0.19368000  0.44861000  0.37652000  1.0
  N  N240  1  0.74835000  0.77987000  0.01761000  1.0
  N  N241  1  0.52735000  0.22005000  0.48229000  1.0
  N  N242  1  0.25165000  0.22013000  0.98240000  1.0
  N  N243  1  0.47265000  0.77994000  0.51771000  1.0
  O  O244  1  0.79103000  0.30377000  0.76454000  1.0
  O  O245  1  0.09541000  0.69603000  0.73541000  1.0
  O  O246  1  0.20898000  0.69621000  0.23546000  1.0
  O  O247  1  0.90459000  0.30397000  0.26460000  1.0
  O  O248  1  0.71727000  0.76620000  0.70588000  1.0
  O  O249  1  0.48414000  0.23331000  0.79387000  1.0
  O  O250  1  0.28273000  0.23380000  0.29412000  1.0
  O  O251  1  0.51587000  0.76669000  0.20613000  1.0
  O  O252  1  0.82431000  0.62297000  0.77428000  1.0
  O  O253  1  0.44672000  0.37707000  0.72579000  1.0
  O  O254  1  0.17571000  0.37701000  0.22572000  1.0
  O  O255  1  0.55329000  0.62293000  0.27421000  1.0
  O  O256  1  0.67872000  0.47480000  0.87857000  1.0
  O  O257  1  0.15447000  0.52482000  0.62165000  1.0
  O  O258  1  0.32128000  0.52520000  0.12142000  1.0
  O  O259  1  0.84554000  0.47518000  0.37834000  1.0
  O  O260  1  0.54954000  0.55125000  0.78752000  1.0
  O  O261  1  0.10101000  0.44821000  0.71254000  1.0
  O  O262  1  0.45046000  0.44875000  0.21248000  1.0
  O  O263  1  0.89901000  0.55179000  0.28745000  1.0
