# generated using pymatgen
data_NaP2H27C14(NO3)4
_symmetry_space_group_name_H-M   'P 1'
_cell_length_a   6.87042000
_cell_length_b   12.54100000
_cell_length_c   27.91290000
_cell_angle_alpha   90.00000000
_cell_angle_beta   90.00010000
_cell_angle_gamma   89.99980000
_symmetry_Int_Tables_number   1
_chemical_formula_structural   NaP2H27C14(NO3)4
_chemical_formula_sum   'Na4 P8 H108 C56 N16 O48'
_cell_volume   2405.02953741
_cell_formula_units_Z   4
loop_
 _symmetry_equiv_pos_site_id
 _symmetry_equiv_pos_as_xyz
  1  'x, y, z'
loop_
 _atom_site_type_symbol
 _atom_site_label
 _atom_site_symmetry_multiplicity
 _atom_site_fract_x
 _atom_site_fract_y
 _atom_site_fract_z
 _atom_site_occupancy
  Na  Na0  1  0.69955000  0.46301000  0.18682000  1.0
  Na  Na1  1  0.80045000  0.53698000  0.68682000  1.0
  Na  Na2  1  0.30045000  0.96301000  0.31318000  1.0
  Na  Na3  1  0.19955000  0.03699000  0.81318000  1.0
  P  P4  1  0.95144000  0.17316000  0.32074000  1.0
  P  P5  1  0.54856000  0.82684000  0.82074000  1.0
  P  P6  1  0.04856000  0.67316000  0.17927000  1.0
  P  P7  1  0.45144000  0.32684000  0.67926000  1.0
  P  P8  1  0.91374000  0.14190000  0.42497000  1.0
  P  P9  1  0.58625000  0.85810000  0.92497000  1.0
  P  P10  1  0.08625000  0.64190000  0.07503000  1.0
  P  P11  1  0.41374000  0.35810000  0.57503000  1.0
  H  H12  1  0.85815000  0.92876000  0.33933000  1.0
  H  H13  1  0.64186000  0.07124000  0.83933000  1.0
  H  H14  1  0.14184000  0.42875000  0.16067000  1.0
  H  H15  1  0.35816000  0.57124000  0.66067000  1.0
  H  H16  1  0.66252000  0.83600000  0.33410000  1.0
  H  H17  1  0.83749000  0.16400000  0.83410000  1.0
  H  H18  1  0.33748000  0.33600000  0.16590000  1.0
  H  H19  1  0.16252000  0.66400000  0.66590000  1.0
  H  H20  1  0.35434000  0.60213000  0.22207000  1.0
  H  H21  1  0.14566000  0.39787000  0.72207000  1.0
  H  H22  1  0.64567000  0.10213000  0.27793000  1.0
  H  H23  1  0.85433000  0.89787000  0.77793000  1.0
  H  H24  1  0.97745000  0.51007000  0.30160000  1.0
  H  H25  1  0.52257000  0.48993000  0.80160000  1.0
  H  H26  1  0.02255000  0.01007000  0.19840000  1.0
  H  H27  1  0.47745000  0.98993000  0.69840000  1.0
  H  H28  1  0.73498000  0.32678000  0.27489000  1.0
  H  H29  1  0.76503000  0.67322000  0.77489000  1.0
  H  H30  1  0.26503000  0.82677000  0.22511000  1.0
  H  H31  1  0.23497000  0.17322000  0.72512000  1.0
  H  H32  1  0.72187000  0.65262000  0.30679000  1.0
  H  H33  1  0.77815000  0.34738000  0.80679000  1.0
  H  H34  1  0.27813000  0.15262000  0.19321000  1.0
  H  H35  1  0.22187000  0.84738000  0.69321000  1.0
  H  H36  1  0.49030000  0.57111000  0.32095000  1.0
  H  H37  1  0.00971000  0.42889000  0.82095000  1.0
  H  H38  1  0.50970000  0.07111000  0.17905000  1.0
  H  H39  1  0.99030000  0.92889000  0.67905000  1.0
  H  H40  1  0.68179000  0.54212000  0.09779000  1.0
  H  H41  1  0.81821000  0.45788000  0.59779000  1.0
  H  H42  1  0.31821000  0.04212000  0.40221000  1.0
  H  H43  1  0.18179000  0.95788000  0.90221000  1.0
  H  H44  1  0.45296000  0.52558000  0.09687000  1.0
  H  H45  1  0.04704000  0.47442000  0.59687000  1.0
  H  H46  1  0.54704000  0.02558000  0.40313000  1.0
  H  H47  1  0.95296000  0.97442000  0.90313000  1.0
  H  H48  1  0.20279000  0.45533000  0.25516000  1.0
  H  H49  1  0.29721000  0.54467000  0.75516000  1.0
  H  H50  1  0.79721000  0.95533000  0.24484000  1.0
  H  H51  1  0.70279000  0.04467000  0.74484000  1.0
  H  H52  1  0.42167000  0.30934000  0.25314000  1.0
  H  H53  1  0.07833000  0.69067000  0.75314000  1.0
  H  H54  1  0.57833000  0.80934000  0.24686000  1.0
  H  H55  1  0.92167000  0.19066000  0.74686000  1.0
  H  H56  1  0.55540000  0.34446000  0.34858000  1.0
  H  H57  1  0.94461000  0.65554000  0.84858000  1.0
  H  H58  1  0.44461000  0.84446000  0.15142000  1.0
  H  H59  1  0.05539000  0.15554000  0.65142000  1.0
  H  H60  1  0.38351000  0.18503000  0.32825000  1.0
  H  H61  1  0.11648000  0.81497000  0.82825000  1.0
  H  H62  1  0.61649000  0.68503000  0.17175000  1.0
  H  H63  1  0.88351000  0.31497000  0.67175000  1.0
  H  H64  1  0.26357000  0.24783000  0.37703000  1.0
  H  H65  1  0.23643000  0.75218000  0.87703000  1.0
  H  H66  1  0.73643000  0.74782000  0.12297000  1.0
  H  H67  1  0.76357000  0.25218000  0.62297000  1.0
  H  H68  1  0.05120000  0.34896000  0.42569000  1.0
  H  H69  1  0.44879000  0.65104000  0.92569000  1.0
  H  H70  1  0.94879000  0.84896000  0.07431000  1.0
  H  H71  1  0.55120000  0.15104000  0.57431000  1.0
  H  H72  1  0.13233000  0.30720000  0.48328000  1.0
  H  H73  1  0.36767000  0.69280000  0.98328000  1.0
  H  H74  1  0.86767000  0.80720000  0.01672000  1.0
  H  H75  1  0.63233000  0.19280000  0.51672000  1.0
  H  H76  1  0.02271000  0.48032000  0.49741000  1.0
  H  H77  1  0.47729000  0.51968000  0.99742000  1.0
  H  H78  1  0.97728000  0.98032000  0.00259000  1.0
  H  H79  1  0.52271000  0.01968000  0.50259000  1.0
  H  H80  1  0.83701000  0.39571000  0.52043000  1.0
  H  H81  1  0.66299000  0.60429000  0.02043000  1.0
  H  H82  1  0.16298000  0.89571000  0.97957000  1.0
  H  H83  1  0.33701000  0.10429000  0.47957000  1.0
  H  H84  1  0.72495000  0.57636000  0.39667000  1.0
  H  H85  1  0.77504000  0.42364000  0.89667000  1.0
  H  H86  1  0.27505000  0.07636000  0.10333000  1.0
  H  H87  1  0.22495000  0.92364000  0.60333000  1.0
  H  H88  1  0.86441000  0.45723000  0.38915000  1.0
  H  H89  1  0.63559000  0.54277000  0.88915000  1.0
  H  H90  1  0.13559000  0.95723000  0.11085000  1.0
  H  H91  1  0.36440000  0.04277000  0.61085000  1.0
  H  H92  1  0.96790000  0.56910000  0.41991000  1.0
  H  H93  1  0.53210000  0.43091000  0.91991000  1.0
  H  H94  1  0.03210000  0.06909000  0.08009000  1.0
  H  H95  1  0.46789000  0.93091000  0.58010000  1.0
  H  H96  1  0.57918000  0.61962000  0.47097000  1.0
  H  H97  1  0.92082000  0.38038000  0.97097000  1.0
  H  H98  1  0.42082000  0.11962000  0.02903000  1.0
  H  H99  1  0.07918000  0.88038000  0.52904000  1.0
  H  H100  1  0.81893000  0.62671000  0.49667000  1.0
  H  H101  1  0.68106000  0.37329000  0.99667000  1.0
  H  H102  1  0.18106000  0.12671000  0.00333000  1.0
  H  H103  1  0.31894000  0.87329000  0.50333000  1.0
  H  H104  1  0.63714000  0.54373000  0.52418000  1.0
  H  H105  1  0.86286000  0.45627000  0.02418000  1.0
  H  H106  1  0.36286000  0.04373000  0.97581000  1.0
  H  H107  1  0.13714000  0.95627000  0.47582000  1.0
  H  H108  1  0.47684000  0.46227000  0.42785000  1.0
  H  H109  1  0.02315000  0.53773000  0.92786000  1.0
  H  H110  1  0.52316000  0.96227000  0.07214000  1.0
  H  H111  1  0.97684000  0.03773000  0.57214000  1.0
  H  H112  1  0.51527000  0.39085000  0.48325000  1.0
  H  H113  1  0.98473000  0.60915000  0.98325000  1.0
  H  H114  1  0.48473000  0.89084000  0.01674000  1.0
  H  H115  1  0.01527000  0.10915000  0.51674000  1.0
  H  H116  1  0.62667000  0.34492000  0.42922000  1.0
  H  H117  1  0.87333000  0.65509000  0.92922000  1.0
  H  H118  1  0.37333000  0.84491000  0.07078000  1.0
  H  H119  1  0.12666000  0.15509000  0.57078000  1.0
  C  C120  1  0.93686000  0.77464000  0.32685000  1.0
  C  C121  1  0.56315000  0.22537000  0.82685000  1.0
  C  C122  1  0.06314000  0.27463000  0.17315000  1.0
  C  C123  1  0.43686000  0.72536000  0.67315000  1.0
  C  C124  1  0.26442000  0.72181000  0.32731000  1.0
  C  C125  1  0.23560000  0.27819000  0.82731000  1.0
  C  C126  1  0.73559000  0.22181000  0.17269000  1.0
  C  C127  1  0.76442000  0.77819000  0.67268000  1.0
  C  C128  1  0.01217000  0.59225000  0.31100000  1.0
  C  C129  1  0.48784000  0.40775000  0.81101000  1.0
  C  C130  1  0.98783000  0.09225000  0.18900000  1.0
  C  C131  1  0.51218000  0.90775000  0.68899000  1.0
  C  C132  1  0.87386000  0.66910000  0.31427000  1.0
  C  C133  1  0.62615000  0.33091000  0.81427000  1.0
  C  C134  1  0.12614000  0.16909000  0.18573000  1.0
  C  C135  1  0.37387000  0.83091000  0.68573000  1.0
  C  C136  1  0.34984000  0.53235000  0.31423000  1.0
  C  C137  1  0.15018000  0.46766000  0.81423000  1.0
  C  C138  1  0.65017000  0.03234000  0.18577000  1.0
  C  C139  1  0.84984000  0.96766000  0.68577000  1.0
  C  C140  1  0.35289000  0.47782000  0.26507000  1.0
  C  C141  1  0.14712000  0.52218000  0.76507000  1.0
  C  C142  1  0.64711000  0.97782000  0.23493000  1.0
  C  C143  1  0.85288000  0.02218000  0.73493000  1.0
  C  C144  1  0.46730000  0.37624000  0.27603000  1.0
  C  C145  1  0.03270000  0.62376000  0.77603000  1.0
  C  C146  1  0.53270000  0.87624000  0.22397000  1.0
  C  C147  1  0.96729000  0.12376000  0.72397000  1.0
  C  C148  1  0.41643000  0.35405000  0.32922000  1.0
  C  C149  1  0.08357000  0.64595000  0.82923000  1.0
  C  C150  1  0.58357000  0.85405000  0.17077000  1.0
  C  C151  1  0.91643000  0.14595000  0.67077000  1.0
  C  C152  1  0.29753000  0.25528000  0.33868000  1.0
  C  C153  1  0.20247000  0.74472000  0.83868000  1.0
  C  C154  1  0.70248000  0.75528000  0.16132000  1.0
  C  C155  1  0.79752000  0.24472000  0.66132000  1.0
  C  C156  1  0.00297000  0.32930000  0.46224000  1.0
  C  C157  1  0.49703000  0.67070000  0.96224000  1.0
  C  C158  1  0.99702000  0.82930000  0.03776000  1.0
  C  C159  1  0.50297000  0.17070000  0.53776000  1.0
  C  C160  1  0.90999000  0.42236000  0.48758000  1.0
  C  C161  1  0.59001000  0.57764000  0.98758000  1.0
  C  C162  1  0.09001000  0.92236000  0.01242000  1.0
  C  C163  1  0.40999000  0.07764000  0.51243000  1.0
  C  C164  1  0.83392000  0.52429000  0.41308000  1.0
  C  C165  1  0.66607000  0.47571000  0.91308000  1.0
  C  C166  1  0.16607000  0.02429000  0.08692000  1.0
  C  C167  1  0.33392000  0.97571000  0.58692000  1.0
  C  C168  1  0.69245000  0.57551000  0.49023000  1.0
  C  C169  1  0.80755000  0.42449000  0.99023000  1.0
  C  C170  1  0.30754000  0.07550000  0.00977000  1.0
  C  C171  1  0.19245000  0.92449000  0.50977000  1.0
  C  C172  1  0.57967000  0.41521000  0.44919000  1.0
  C  C173  1  0.92033000  0.58479000  0.94919000  1.0
  C  C174  1  0.42032000  0.91521000  0.05081000  1.0
  C  C175  1  0.07967000  0.08479000  0.55081000  1.0
  N  N176  1  0.12694000  0.79799000  0.33137000  1.0
  N  N177  1  0.37306000  0.20201000  0.83137000  1.0
  N  N178  1  0.87305000  0.29798000  0.16863000  1.0
  N  N179  1  0.62695000  0.70201000  0.66863000  1.0
  N  N180  1  0.80803000  0.85287000  0.33395000  1.0
  N  N181  1  0.69198000  0.14713000  0.83395000  1.0
  N  N182  1  0.19196000  0.35287000  0.16605000  1.0
  N  N183  1  0.30805000  0.64713000  0.66605000  1.0
  N  N184  1  0.20403000  0.61461000  0.31968000  1.0
  N  N185  1  0.29598000  0.38540000  0.81968000  1.0
  N  N186  1  0.79597000  0.11460000  0.18032000  1.0
  N  N187  1  0.70404000  0.88539000  0.68032000  1.0
  N  N188  1  0.75500000  0.48331000  0.45950000  1.0
  N  N189  1  0.74500000  0.51669000  0.95950000  1.0
  N  N190  1  0.24500000  0.98331000  0.04050000  1.0
  N  N191  1  0.25499000  0.01669000  0.54050000  1.0
  O  O192  1  0.44280000  0.74189000  0.33008000  1.0
  O  O193  1  0.05721000  0.25811000  0.83008000  1.0
  O  O194  1  0.55720000  0.24189000  0.16992000  1.0
  O  O195  1  0.94281000  0.75811000  0.66992000  1.0
  O  O196  1  0.44123000  0.53957000  0.22901000  1.0
  O  O197  1  0.05877000  0.46043000  0.72901000  1.0
  O  O198  1  0.55877000  0.03957000  0.27099000  1.0
  O  O199  1  0.94123000  0.96043000  0.77099000  1.0
  O  O200  1  0.66976000  0.39735000  0.26951000  1.0
  O  O201  1  0.83025000  0.60264000  0.76951000  1.0
  O  O202  1  0.33025000  0.89736000  0.23049000  1.0
  O  O203  1  0.16975000  0.10264000  0.73049000  1.0
  O  O204  1  0.57438000  0.50134000  0.11248000  1.0
  O  O205  1  0.92562000  0.49866000  0.61248000  1.0
  O  O206  1  0.42563000  0.00135000  0.38752000  1.0
  O  O207  1  0.07438000  0.99866000  0.88752000  1.0
  O  O208  1  0.31465000  0.44752000  0.34768000  1.0
  O  O209  1  0.18535000  0.55248000  0.84768000  1.0
  O  O210  1  0.68535000  0.94752000  0.15232000  1.0
  O  O211  1  0.81465000  0.05248000  0.65232000  1.0
  O  O212  1  0.11959000  0.25988000  0.31113000  1.0
  O  O213  1  0.38041000  0.74012000  0.81113000  1.0
  O  O214  1  0.88041000  0.75988000  0.18887000  1.0
  O  O215  1  0.61958000  0.24012000  0.68887000  1.0
  O  O216  1  0.02307000  0.06064000  0.32061000  1.0
  O  O217  1  0.47694000  0.93936000  0.82061000  1.0
  O  O218  1  0.97694000  0.56064000  0.17939000  1.0
  O  O219  1  0.52306000  0.43936000  0.67939000  1.0
  O  O220  1  0.78886000  0.20351000  0.28698000  1.0
  O  O221  1  0.71114000  0.79649000  0.78698000  1.0
  O  O222  1  0.21114000  0.70351000  0.21302000  1.0
  O  O223  1  0.28886000  0.29649000  0.71302000  1.0
  O  O224  1  0.87501000  0.20510000  0.37445000  1.0
  O  O225  1  0.62499000  0.79490000  0.87445000  1.0
  O  O226  1  0.12500000  0.70510000  0.12555000  1.0
  O  O227  1  0.37500000  0.29490000  0.62555000  1.0
  O  O228  1  0.12548000  0.11350000  0.42926000  1.0
  O  O229  1  0.37452000  0.88650000  0.92926000  1.0
  O  O230  1  0.87453000  0.61350000  0.07074000  1.0
  O  O231  1  0.62547000  0.38650000  0.57074000  1.0
  O  O232  1  0.75920000  0.06099000  0.43450000  1.0
  O  O233  1  0.74080000  0.93901000  0.93449000  1.0
  O  O234  1  0.24080000  0.56099000  0.06550000  1.0
  O  O235  1  0.25919000  0.43901000  0.56550000  1.0
  O  O236  1  0.86844000  0.24102000  0.46124000  1.0
  O  O237  1  0.63156000  0.75899000  0.96124000  1.0
  O  O238  1  0.13156000  0.74101000  0.03876000  1.0
  O  O239  1  0.36844000  0.25899000  0.53876000  1.0
