# generated using pymatgen
data_Zn6H60C67O26
_symmetry_space_group_name_H-M   'P 1'
_cell_length_a   18.60200000
_cell_length_b   18.62300000
_cell_length_c   18.71115125
_cell_angle_alpha   109.14719183
_cell_angle_beta   109.70350623
_cell_angle_gamma   109.22800000
_symmetry_Int_Tables_number   1
_chemical_formula_structural   Zn6H60C67O26
_chemical_formula_sum   'Zn6 H60 C67 O26'
_cell_volume   5010.27243534
_cell_formula_units_Z   1
loop_
 _symmetry_equiv_pos_site_id
 _symmetry_equiv_pos_as_xyz
  1  'x, y, z'
loop_
 _atom_site_type_symbol
 _atom_site_label
 _atom_site_symmetry_multiplicity
 _atom_site_fract_x
 _atom_site_fract_y
 _atom_site_fract_z
 _atom_site_occupancy
  Zn  Zn0  1  0.55834000  0.49132000  0.56623000  1.0
  Zn  Zn1  1  0.43652000  0.49598000  0.44201000  1.0
  Zn  Zn2  1  0.55815000  0.06077000  0.00387000  1.0
  Zn  Zn3  1  0.43704000  0.93379000  0.00559000  1.0
  Zn  Zn4  1  0.00272000  0.93230000  0.43335000  1.0
  Zn  Zn5  1  0.98964000  0.04860000  0.55251000  1.0
  H  H6  1  0.37226000  0.38031000  0.62799000  1.0
  H  H7  1  0.64145000  0.86929000  0.08803000  1.0
  H  H8  1  0.75136000  0.84697000  0.18672000  1.0
  H  H9  1  0.90112000  0.12414000  0.36634000  1.0
  H  H10  1  0.80052000  0.14793000  0.26001000  1.0
  H  H11  1  0.65895000  0.93768000  0.84876000  1.0
  H  H12  1  0.70533000  0.91803000  0.93636000  1.0
  H  H13  1  0.72029000  0.80153000  0.83532000  1.0
  H  H14  1  0.18412000  0.25655000  0.35564000  1.0
  H  H15  1  0.07867000  0.14739000  0.37247000  1.0
  H  H16  1  0.26156000  0.28114000  0.64833000  1.0
  H  H17  1  0.49395000  0.35583000  0.26053000  1.0
  H  H18  1  0.20738000  0.42845000  0.47016000  1.0
  H  H19  1  0.16229000  0.45024000  0.53919000  1.0
  H  H20  1  0.14893000  0.48643000  0.46116000  1.0
  H  H21  1  0.26585000  0.61403000  0.60707000  1.0
  H  H22  1  0.31370000  0.58832000  0.54240000  1.0
  H  H23  1  0.36104000  0.50766000  0.61483000  1.0
  H  H24  1  0.31191000  0.53159000  0.67843000  1.0
  H  H25  1  0.53779000  0.77959000  0.42379000  1.0
  H  H26  1  0.62472000  0.88453000  0.51604000  1.0
  H  H27  1  0.53087000  0.82371000  0.52066000  1.0
  H  H28  1  0.48209000  0.23599000  0.13746000  1.0
  H  H29  1  0.93495000  0.76684000  0.65540000  1.0
  H  H30  1  0.97502000  0.69616000  0.61854000  1.0
  H  H31  1  0.04905000  0.80930000  0.69164000  1.0
  H  H32  1  0.01991000  0.77248000  0.53984000  1.0
  H  H33  1  0.98686000  0.84695000  0.58043000  1.0
  H  H34  1  0.86311000  0.65034000  0.45818000  1.0
  H  H35  1  0.88321000  0.72787000  0.42269000  1.0
  H  H36  1  0.69430000  0.41107000  0.43125000  1.0
  H  H37  1  0.79136000  0.45956000  0.42709000  1.0
  H  H38  1  0.79811000  0.45076000  0.52058000  1.0
  H  H39  1  0.48824000  0.09291000  0.27716000  1.0
  H  H40  1  0.83983000  0.60454000  0.55068000  1.0
  H  H41  1  0.74465000  0.55816000  0.55676000  1.0
  H  H42  1  0.64962000  0.52567000  0.40967000  1.0
  H  H43  1  0.73826000  0.55770000  0.39123000  1.0
  H  H44  1  0.00171000  0.06856000  0.76346000  1.0
  H  H45  1  0.05009000  0.06893000  0.86325000  1.0
  H  H46  1  0.07852000  0.16944000  0.86243000  1.0
  H  H47  1  0.19912000  0.13232000  0.87345000  1.0
  H  H48  1  0.15011000  0.13041000  0.77345000  1.0
  H  H49  1  0.05297000  0.96742000  0.69969000  1.0
  H  H50  1  0.51475000  0.21940000  0.40600000  1.0
  H  H51  1  0.10650000  0.97067000  0.79954000  1.0
  H  H52  1  0.57386000  0.01281000  0.75506000  1.0
  H  H53  1  0.51687000  0.98382000  0.64381000  1.0
  H  H54  1  0.59597000  0.09471000  0.72405000  1.0
  H  H55  1  0.44299000  0.07195000  0.68099000  1.0
  H  H56  1  0.50014000  0.10048000  0.79171000  1.0
  H  H57  1  0.42847000  0.94158000  0.74890000  1.0
  H  H58  1  0.36856000  0.91405000  0.63900000  1.0
  H  H59  1  0.81164000  0.86704000  0.78570000  1.0
  H  H60  1  0.78575000  0.95377000  0.81088000  1.0
  H  H61  1  0.75213000  0.89406000  0.53876000  1.0
  H  H62  1  0.76316000  0.89094000  0.70218000  1.0
  H  H63  1  0.25742000  0.01153000  0.86998000  1.0
  H  H64  1  0.36116000  0.68574000  0.77808000  1.0
  H  H65  1  0.25214000  0.95041000  0.59041000  1.0
  C  C66  1  0.35304000  0.38300000  0.48167000  1.0
  C  C67  1  0.28457000  0.32370000  0.49077000  1.0
  C  C68  1  0.49497000  0.29897000  0.26420000  1.0
  C  C69  1  0.51501000  0.60514000  0.64326000  1.0
  C  C70  1  0.48700000  0.23203000  0.19559000  1.0
  C  C71  1  0.48396000  0.15744000  0.20012000  1.0
  C  C72  1  0.49157000  0.15162000  0.27488000  1.0
  C  C73  1  0.50563000  0.22164000  0.34624000  1.0
  C  C74  1  0.50610000  0.29493000  0.34056000  1.0
  C  C75  1  0.67550000  0.76292000  0.51266000  1.0
  C  C76  1  0.74584000  0.82959000  0.52115000  1.0
  C  C77  1  0.56832000  0.81311000  0.83053000  1.0
  C  C78  1  0.81017000  0.81457000  0.50717000  1.0
  C  C79  1  0.80682000  0.73263000  0.48610000  1.0
  C  C80  1  0.73398000  0.66451000  0.47534000  1.0
  C  C81  1  0.59565000  0.61087000  0.48455000  1.0
  C  C82  1  0.66955000  0.68057000  0.48934000  1.0
  C  C83  1  0.39922000  0.00833000  0.87881000  1.0
  C  C84  1  0.48124000  0.85677000  0.89521000  1.0
  C  C85  1  0.64475000  0.02064000  0.11276000  1.0
  C  C86  1  0.47748000  0.08800000  0.12578000  1.0
  C  C87  1  0.11836000  0.97298000  0.58991000  1.0
  C  C88  1  0.65923000  0.88684000  0.86619000  1.0
  C  C89  1  0.10372000  0.13786000  0.51793000  1.0
  C  C90  1  0.88902000  0.97239000  0.35035000  1.0
  C  C91  1  0.87825000  0.88807000  0.51015000  1.0
  C  C92  1  0.25715000  0.00141000  0.80900000  1.0
  C  C93  1  0.51468000  0.36918000  0.41217000  1.0
  C  C94  1  0.18689000  0.99404000  0.74256000  1.0
  C  C95  1  0.18766000  0.97733000  0.66339000  1.0
  C  C96  1  0.25562000  0.96672000  0.65354000  1.0
  C  C97  1  0.32744000  0.97723000  0.72143000  1.0
  C  C98  1  0.32764000  0.99646000  0.80091000  1.0
  C  C99  1  0.66936000  0.81520000  0.80124000  1.0
  C  C100  1  0.70050000  0.92496000  0.14746000  1.0
  C  C101  1  0.76087000  0.91239000  0.20281000  1.0
  C  C102  1  0.83171000  0.98428000  0.28273000  1.0
  C  C103  1  0.84609000  0.06911000  0.30349000  1.0
  C  C104  1  0.78951000  0.08225000  0.24502000  1.0
  C  C105  1  0.57607000  0.75118000  0.77218000  1.0
  C  C106  1  0.71456000  0.00977000  0.16863000  1.0
  C  C107  1  0.50691000  0.66658000  0.71105000  1.0
  C  C108  1  0.42708000  0.64336000  0.71275000  1.0
  C  C109  1  0.42239000  0.70469000  0.77627000  1.0
  C  C110  1  0.20087000  0.26040000  0.41898000  1.0
  C  C111  1  0.49141000  0.79105000  0.83532000  1.0
  C  C112  1  0.34484000  0.55644000  0.64574000  1.0
  C  C113  1  0.28036000  0.56387000  0.57489000  1.0
  C  C114  1  0.19508000  0.47748000  0.50770000  1.0
  C  C115  1  0.57540000  0.81852000  0.49563000  1.0
  C  C116  1  0.87939000  0.71824000  0.47643000  1.0
  C  C117  1  0.97131000  0.77870000  0.55867000  1.0
  C  C118  1  0.98291000  0.76167000  0.63511000  1.0
  C  C119  1  0.72020000  0.57234000  0.44249000  1.0
  C  C120  1  0.77041000  0.55345000  0.51150000  1.0
  C  C121  1  0.14191000  0.20076000  0.42872000  1.0
  C  C122  1  0.76311000  0.46387000  0.47042000  1.0
  C  C123  1  0.11589000  0.00235000  0.76042000  1.0
  C  C124  1  0.13758000  0.09742000  0.81062000  1.0
  C  C125  1  0.06302000  0.10159000  0.82590000  1.0
  C  C126  1  0.39870000  0.96532000  0.70704000  1.0
  C  C127  1  0.47194000  0.04908000  0.72443000  1.0
  C  C128  1  0.54363000  0.03448000  0.71109000  1.0
  C  C129  1  0.76430000  0.88801000  0.76007000  1.0
  C  C130  1  0.16412000  0.20816000  0.51126000  1.0
  C  C131  1  0.24545000  0.27527000  0.58427000  1.0
  C  C132  1  0.30663000  0.33085000  0.57321000  1.0
  O  O133  1  0.43199000  0.40731000  0.53317000  1.0
  O  O134  1  0.08464000  0.02030000  0.60988000  1.0
  O  O135  1  0.08330000  0.06085000  0.46705000  1.0
  O  O136  1  0.32919000  0.40674000  0.42425000  1.0
  O  O137  1  0.07704000  0.15865000  0.57275000  1.0
  O  O138  1  0.91574000  0.91784000  0.32698000  1.0
  O  O139  1  0.90754000  0.01881000  0.42791000  1.0
  O  O140  1  0.90741000  0.86945000  0.45832000  1.0
  O  O141  1  0.90168000  0.96723000  0.56357000  1.0
  O  O142  1  0.57023000  0.57953000  0.66921000  1.0
  O  O143  1  0.46606000  0.58264000  0.56465000  1.0
  O  O144  1  0.37572000  0.96444000  0.91424000  1.0
  O  O145  1  0.61818000  0.58288000  0.53710000  1.0
  O  O146  1  0.51599000  0.58385000  0.42918000  1.0
  O  O147  1  0.56507000  0.39315000  0.49229000  1.0
  O  O148  1  0.47111000  0.40502000  0.38803000  1.0
  O  O149  1  0.47923000  0.06330000  0.90618000  1.0
  O  O150  1  0.61363000  0.77455000  0.53134000  1.0
  O  O151  1  0.67748000  0.82650000  0.73288000  1.0
  O  O152  1  0.52964000  0.93620000  0.91891000  1.0
  O  O153  1  0.42489000  0.83034000  0.91936000  1.0
  O  O154  1  0.66715000  0.08023000  0.09137000  1.0
  O  O155  1  0.56669000  0.96939000  0.09026000  1.0
  O  O156  1  0.51987000  0.11423000  0.09025000  1.0
  O  O157  1  0.43028000  0.00729000  0.10239000  1.0
  O  O158  1  0.09669000  0.92321000  0.51059000  1.0
