# generated using pymatgen
data_CdH7C10S2N5O
_symmetry_space_group_name_H-M   'P 1'
_cell_length_a   10.01160000
_cell_length_b   10.01160000
_cell_length_c   14.29920000
_cell_angle_alpha   104.01500000
_cell_angle_beta   104.01500000
_cell_angle_gamma   103.46100000
_symmetry_Int_Tables_number   1
_chemical_formula_structural   CdH7C10S2N5O
_chemical_formula_sum   'Cd4 H28 C40 S8 N20 O4'
_cell_volume   1282.89605951
_cell_formula_units_Z   4
loop_
 _symmetry_equiv_pos_site_id
 _symmetry_equiv_pos_as_xyz
  1  'x, y, z'
loop_
 _atom_site_type_symbol
 _atom_site_label
 _atom_site_symmetry_multiplicity
 _atom_site_fract_x
 _atom_site_fract_y
 _atom_site_fract_z
 _atom_site_occupancy
  Cd  Cd0  1  0.29397000  0.70603000  0.25000000  1.0
  Cd  Cd1  1  0.70603000  0.29397000  0.75000000  1.0
  Cd  Cd2  1  0.00000000  0.50000000  0.50000000  1.0
  Cd  Cd3  1  0.50000000  0.00000000  1.00000000  1.0
  H  H4  1  0.79144000  0.16472000  0.39404000  1.0
  H  H5  1  0.83528000  0.20856000  0.10596000  1.0
  H  H6  1  0.20855000  0.83527000  0.60596000  1.0
  H  H7  1  0.16472000  0.79145000  0.89404000  1.0
  H  H8  1  0.23838000  0.33458000  0.50845000  1.0
  H  H9  1  0.66541000  0.76161000  0.99156000  1.0
  H  H10  1  0.76161000  0.66542000  0.49156000  1.0
  H  H11  1  0.33459000  0.23839000  0.00845000  1.0
  H  H12  1  0.26954000  0.09118000  0.43950000  1.0
  H  H13  1  0.90882000  0.73046000  0.06050000  1.0
  H  H14  1  0.73046000  0.90883000  0.56050000  1.0
  H  H15  1  0.09118000  0.26955000  0.93951000  1.0
  H  H16  1  0.04771000  0.87685000  0.34415000  1.0
  H  H17  1  0.12315000  0.95229000  0.15584000  1.0
  H  H18  1  0.95229000  0.12315000  0.65584000  1.0
  H  H19  1  0.87685000  0.04772000  0.84416000  1.0
  H  H20  1  0.45624000  0.49520000  0.11089000  1.0
  H  H21  1  0.50480000  0.54375000  0.38911000  1.0
  H  H22  1  0.54375000  0.50480000  0.88910000  1.0
  H  H23  1  0.49520000  0.45625000  0.61089000  1.0
  H  H24  1  0.61877000  0.46004000  0.17077000  1.0
  H  H25  1  0.53996000  0.38122000  0.32923000  1.0
  H  H26  1  0.38122000  0.53995000  0.82923000  1.0
  H  H27  1  0.46005000  0.61878000  0.67077000  1.0
  H  H28  1  0.61626000  0.54174000  0.07434000  1.0
  H  H29  1  0.45826000  0.38373000  0.42566000  1.0
  H  H30  1  0.38373000  0.45825000  0.92566000  1.0
  H  H31  1  0.54174000  0.61627000  0.57434000  1.0
  C  C32  1  0.89572000  0.14466000  0.40455000  1.0
  C  C33  1  0.85535000  0.10428000  0.09545000  1.0
  C  C34  1  0.10428000  0.85534000  0.59545000  1.0
  C  C35  1  0.14466000  0.89572000  0.90455000  1.0
  C  C36  1  0.14559000  0.23771000  0.46705000  1.0
  C  C37  1  0.76229000  0.85441000  0.03295000  1.0
  C  C38  1  0.85440000  0.76229000  0.53295000  1.0
  C  C39  1  0.23771000  0.14560000  0.96705000  1.0
  C  C40  1  0.16182000  0.10283000  0.42844000  1.0
  C  C41  1  0.89717000  0.83818000  0.07157000  1.0
  C  C42  1  0.83818000  0.89718000  0.57157000  1.0
  C  C43  1  0.10283000  0.16182000  0.92844000  1.0
  C  C44  1  0.03860000  0.98389000  0.37585000  1.0
  C  C45  1  0.01611000  0.96140000  0.12415000  1.0
  C  C46  1  0.96140000  0.01611000  0.62415000  1.0
  C  C47  1  0.98389000  0.03861000  0.87585000  1.0
  C  C48  1  0.90254000  0.00464000  0.36504000  1.0
  C  C49  1  0.99536000  0.09747000  0.13496000  1.0
  C  C50  1  0.09746000  0.99536000  0.63495000  1.0
  C  C51  1  0.00464000  0.90254000  0.86504000  1.0
  C  C52  1  0.76790000  0.88669000  0.31506000  1.0
  C  C53  1  0.11331000  0.23210000  0.18494000  1.0
  C  C54  1  0.23210000  0.11331000  0.68494000  1.0
  C  C55  1  0.88669000  0.76791000  0.81506000  1.0
  C  C56  1  0.62250000  0.67905000  0.21426000  1.0
  C  C57  1  0.32095000  0.37750000  0.28574000  1.0
  C  C58  1  0.37750000  0.32095000  0.78574000  1.0
  C  C59  1  0.67905000  0.62250000  0.71426000  1.0
  C  C60  1  0.57478000  0.53545000  0.13797000  1.0
  C  C61  1  0.46455000  0.42522000  0.36203000  1.0
  C  C62  1  0.42522000  0.46455000  0.86203000  1.0
  C  C63  1  0.53545000  0.57478000  0.63797000  1.0
  C  C64  1  0.98154000  0.57453000  0.27851000  1.0
  C  C65  1  0.42547000  0.01845000  0.22149000  1.0
  C  C66  1  0.01846000  0.42547000  0.72150000  1.0
  C  C67  1  0.57454000  0.98154000  0.77851000  1.0
  C  C68  1  0.30550000  0.67744000  0.47433000  1.0
  C  C69  1  0.32255000  0.69450000  0.02567000  1.0
  C  C70  1  0.69450000  0.32256000  0.52567000  1.0
  C  C71  1  0.67744000  0.30550000  0.97433000  1.0
  S  S72  1  0.86236000  0.45060000  0.29705000  1.0
  S  S73  1  0.54940000  0.13764000  0.20295000  1.0
  S  S74  1  0.13764000  0.54940000  0.70296000  1.0
  S  S75  1  0.45060000  0.86235000  0.79705000  1.0
  S  S76  1  0.41878000  0.80747000  0.45694000  1.0
  S  S77  1  0.19254000  0.58121000  0.04306000  1.0
  S  S78  1  0.58121000  0.19253000  0.54306000  1.0
  S  S79  1  0.80747000  0.41879000  0.95694000  1.0
  N  N80  1  0.01494000  0.25829000  0.45410000  1.0
  N  N81  1  0.74171000  0.98506000  0.04590000  1.0
  N  N82  1  0.98505000  0.74171000  0.54590000  1.0
  N  N83  1  0.25829000  0.01494000  0.95410000  1.0
  N  N84  1  0.64126000  0.88024000  0.32634000  1.0
  N  N85  1  0.11976000  0.35874000  0.17366000  1.0
  N  N86  1  0.35874000  0.11975000  0.67366000  1.0
  N  N87  1  0.88024000  0.64126000  0.82634000  1.0
  N  N88  1  0.54805000  0.74643000  0.26095000  1.0
  N  N89  1  0.25357000  0.45195000  0.23905000  1.0
  N  N90  1  0.45195000  0.25356000  0.73906000  1.0
  N  N91  1  0.74644000  0.54805000  0.76095000  1.0
  N  N92  1  0.06645000  0.66640000  0.26509000  1.0
  N  N93  1  0.33359000  0.93355000  0.23491000  1.0
  N  N94  1  0.93355000  0.33359000  0.73491000  1.0
  N  N95  1  0.66641000  0.06645000  0.76509000  1.0
  N  N96  1  0.22642000  0.58060000  0.48758000  1.0
  N  N97  1  0.41940000  0.77358000  0.01242000  1.0
  N  N98  1  0.77358000  0.41940000  0.51242000  1.0
  N  N99  1  0.58060000  0.22642000  0.98758000  1.0
  O  O100  1  0.76411000  0.76219000  0.24582000  1.0
  O  O101  1  0.23781000  0.23589000  0.25418000  1.0
  O  O102  1  0.23589000  0.23781000  0.75417000  1.0
  O  O103  1  0.76219000  0.76411000  0.74582000  1.0
