# generated using pymatgen
data_AlH11C17NO5
_symmetry_space_group_name_H-M   'P 1'
_cell_length_a   6.67397000
_cell_length_b   23.41940000
_cell_length_c   26.22930000
_cell_angle_alpha   78.44040000
_cell_angle_beta   89.86100000
_cell_angle_gamma   89.88030000
_symmetry_Int_Tables_number   1
_chemical_formula_structural   AlH11C17NO5
_chemical_formula_sum   'Al4 H44 C68 N4 O20'
_cell_volume   4016.47812363
_cell_formula_units_Z   4
loop_
 _symmetry_equiv_pos_site_id
 _symmetry_equiv_pos_as_xyz
  1  'x, y, z'
loop_
 _atom_site_type_symbol
 _atom_site_label
 _atom_site_symmetry_multiplicity
 _atom_site_fract_x
 _atom_site_fract_y
 _atom_site_fract_z
 _atom_site_occupancy
  Al  Al0  1  0.76853000  0.24990000  0.25006000  1.0
  Al  Al1  1  0.23314000  0.75000000  0.74987000  1.0
  Al  Al2  1  0.26842000  0.25015000  0.25001000  1.0
  Al  Al3  1  0.73326000  0.74983000  0.75059000  1.0
  H  H4  1  0.29391000  0.62598000  0.65937000  1.0
  H  H5  1  0.70498000  0.37405000  0.33970000  1.0
  H  H6  1  0.78543000  0.83074000  0.87799000  1.0
  H  H7  1  0.20736000  0.16903000  0.12515000  1.0
  H  H8  1  0.28784000  0.56073000  0.59469000  1.0
  H  H9  1  0.70801000  0.44030000  0.40361000  1.0
  H  H10  1  0.76797000  0.89402000  0.94440000  1.0
  H  H11  1  0.21450000  0.10695000  0.05795000  1.0
  H  H12  1  0.74381000  0.42344000  0.50085000  1.0
  H  H13  1  0.25037000  0.57870000  0.49749000  1.0
  H  H14  1  0.34949000  0.10118000  0.97545000  1.0
  H  H15  1  0.62975000  0.90130000  0.02324000  1.0
  H  H16  1  0.13997000  0.53582000  0.07445000  1.0
  H  H17  1  0.86728000  0.46405000  0.92572000  1.0
  H  H18  1  0.61771000  0.96312000  0.42403000  1.0
  H  H19  1  0.38766000  0.03681000  0.57631000  1.0
  H  H20  1  0.66324000  0.46286000  0.02129000  1.0
  H  H21  1  0.34397000  0.53703000  0.97887000  1.0
  H  H22  1  0.16472000  0.04117000  0.48325000  1.0
  H  H23  1  0.84046000  0.95878000  0.51708000  1.0
  H  H24  1  0.52039000  0.63274000  0.55767000  1.0
  H  H25  1  0.63693000  0.58811000  0.52304000  1.0
  H  H26  1  0.35706000  0.41421000  0.47646000  1.0
  H  H27  1  0.47509000  0.36910000  0.44262000  1.0
  H  H28  1  0.99256000  0.93152000  0.88569000  1.0
  H  H29  1  0.09388000  0.96120000  0.93379000  1.0
  H  H30  1  0.88272000  0.03340000  0.06585000  1.0
  H  H31  1  0.99428000  0.06309000  0.11346000  1.0
  H  H32  1  0.67101000  0.66480000  0.62965000  1.0
  H  H33  1  0.32778000  0.33626000  0.37061000  1.0
  H  H34  1  0.17281000  0.87325000  0.83742000  1.0
  H  H35  1  0.82925000  0.13085000  0.15697000  1.0
  H  H36  1  0.72073000  0.48874000  0.56402000  1.0
  H  H37  1  0.27341000  0.51339000  0.43430000  1.0
  H  H38  1  0.31782000  0.03400000  0.91470000  1.0
  H  H39  1  0.65861000  0.96814000  0.08416000  1.0
  H  H40  1  0.79188000  0.57949000  0.01783000  1.0
  H  H41  1  0.21540000  0.42042000  0.98232000  1.0
  H  H42  1  0.27445000  0.92325000  0.48461000  1.0
  H  H43  1  0.73074000  0.07666000  0.51570000  1.0
  H  H44  1  0.51785000  0.32520000  0.22648000  1.0
  H  H45  1  0.48369000  0.67466000  0.77378000  1.0
  H  H46  1  0.02003000  0.17548000  0.27569000  1.0
  H  H47  1  0.98106000  0.82440000  0.72419000  1.0
  C  C48  1  0.52181000  0.17350000  0.32752000  1.0
  C  C49  1  0.47984000  0.82640000  0.67278000  1.0
  C  C50  1  0.01534000  0.32641000  0.17266000  1.0
  C  C51  1  0.98762000  0.67370000  0.82767000  1.0
  C  C52  1  0.51552000  0.18771000  0.18687000  1.0
  C  C53  1  0.48584000  0.81268000  0.81302000  1.0
  C  C54  1  0.02079000  0.31354000  0.31240000  1.0
  C  C55  1  0.97955000  0.68661000  0.68770000  1.0
  C  C56  1  0.15794000  0.62042000  0.63798000  1.0
  C  C57  1  0.84028000  0.38013000  0.36117000  1.0
  C  C58  1  0.64934000  0.85456000  0.88364000  1.0
  C  C59  1  0.34334000  0.14633000  0.11742000  1.0
  C  C60  1  0.15321000  0.58449000  0.60175000  1.0
  C  C61  1  0.84334000  0.41661000  0.39696000  1.0
  C  C62  1  0.63807000  0.88999000  0.92017000  1.0
  C  C63  1  0.34917000  0.11166000  0.08022000  1.0
  C  C64  1  0.97836000  0.57679000  0.57417000  1.0
  C  C65  1  0.01740000  0.42484000  0.42461000  1.0
  C  C66  1  0.46588000  0.92266000  0.92664000  1.0
  C  C67  1  0.52149000  0.08049000  0.07118000  1.0
  C  C68  1  0.80145000  0.60679000  0.58374000  1.0
  C  C69  1  0.19506000  0.39482000  0.41567000  1.0
  C  C70  1  0.29368000  0.91646000  0.89632000  1.0
  C  C71  1  0.69981000  0.08816000  0.09866000  1.0
  C  C72  1  0.80589000  0.64195000  0.62120000  1.0
  C  C73  1  0.19234000  0.35916000  0.37860000  1.0
  C  C74  1  0.30401000  0.87920000  0.86054000  1.0
  C  C75  1  0.69405000  0.12412000  0.13563000  1.0
  C  C76  1  0.98162000  0.64903000  0.64798000  1.0
  C  C77  1  0.01740000  0.35159000  0.35171000  1.0
  C  C78  1  0.47974000  0.84950000  0.85332000  1.0
  C  C79  1  0.51785000  0.15195000  0.14577000  1.0
  C  C80  1  0.84080000  0.49484000  0.53515000  1.0
  C  C81  1  0.15317000  0.50737000  0.46311000  1.0
  C  C82  1  0.39139000  0.01903000  0.95207000  1.0
  C  C83  1  0.58860000  0.98357000  0.04633000  1.0
  C  C84  1  0.85398000  0.45805000  0.49964000  1.0
  C  C85  1  0.14000000  0.54415000  0.49863000  1.0
  C  C86  1  0.41056000  0.05717000  0.98626000  1.0
  C  C87  1  0.57021000  0.94548000  0.01214000  1.0
  C  C88  1  0.00993000  0.46342000  0.46284000  1.0
  C  C89  1  0.98436000  0.53868000  0.53554000  1.0
  C  C90  1  0.51032000  0.04062000  0.03416000  1.0
  C  C91  1  0.47217000  0.96228000  0.96395000  1.0
  C  C92  1  0.07972000  0.52048000  0.04087000  1.0
  C  C93  1  0.92748000  0.47941000  0.95929000  1.0
  C  C94  1  0.56690000  0.97885000  0.45842000  1.0
  C  C95  1  0.43827000  0.02107000  0.54191000  1.0
  C  C96  1  0.88539000  0.54362000  0.01039000  1.0
  C  C97  1  0.12180000  0.45626000  0.98979000  1.0
  C  C98  1  0.37522000  0.95787000  0.49111000  1.0
  C  C99  1  0.62997000  0.04206000  0.50921000  1.0
  C  C100  1  0.98785000  0.62847000  0.87379000  1.0
  C  C101  1  0.01624000  0.37164000  0.12655000  1.0
  C  C102  1  0.48494000  0.87160000  0.62660000  1.0
  C  C103  1  0.51829000  0.12830000  0.37371000  1.0
  C  C104  1  0.19323000  0.52003000  0.98876000  1.0
  C  C105  1  0.81393000  0.47987000  0.01139000  1.0
  C  C106  1  0.69077000  0.97753000  0.50916000  1.0
  C  C107  1  0.31441000  0.02238000  0.49117000  1.0
  C  C108  1  0.99920000  0.54441000  0.95707000  1.0
  C  C109  1  0.00790000  0.45549000  0.04310000  1.0
  C  C110  1  0.49902000  0.95526000  0.54303000  1.0
  C  C111  1  0.50605000  0.04464000  0.45730000  1.0
  C  C112  1  0.99211000  0.58971000  0.91247000  1.0
  C  C113  1  0.01396000  0.41029000  0.08777000  1.0
  C  C114  1  0.49185000  0.91015000  0.58777000  1.0
  C  C115  1  0.51263000  0.08976000  0.41256000  1.0
  N  N116  1  0.62399000  0.60098000  0.55762000  1.0
  N  N117  1  0.37162000  0.40103000  0.44206000  1.0
  N  N118  1  0.11767000  0.94688000  0.90025000  1.0
  N  N119  1  0.88022000  0.06412000  0.08794000  1.0
  O  O120  1  0.34479000  0.20485000  0.19977000  1.0
  O  O121  1  0.65719000  0.79461000  0.80155000  1.0
  O  O122  1  0.85273000  0.30249000  0.29348000  1.0
  O  O123  1  0.14789000  0.69705000  0.70688000  1.0
  O  O124  1  0.69276000  0.19378000  0.31161000  1.0
  O  O125  1  0.30873000  0.80554000  0.68789000  1.0
  O  O126  1  0.18449000  0.31137000  0.19358000  1.0
  O  O127  1  0.81830000  0.68840000  0.80669000  1.0
  O  O128  1  0.68344000  0.19760000  0.20656000  1.0
  O  O129  1  0.31948000  0.80307000  0.79247000  1.0
  O  O130  1  0.19159000  0.29573000  0.30019000  1.0
  O  O131  1  0.80931000  0.70472000  0.69996000  1.0
  O  O132  1  0.84488000  0.30582000  0.18874000  1.0
  O  O133  1  0.15763000  0.69467000  0.81163000  1.0
  O  O134  1  0.35302000  0.18878000  0.30651000  1.0
  O  O135  1  0.64760000  0.81168000  0.69465000  1.0
  O  O136  1  0.51843000  0.28548000  0.24615000  1.0
  O  O137  1  0.48336000  0.71442000  0.75420000  1.0
  O  O138  1  0.01876000  0.21437000  0.25430000  1.0
  O  O139  1  0.98292000  0.78570000  0.74594000  1.0
