# generated using pymatgen
data_DyH9(CO2)4
_symmetry_space_group_name_H-M   'P 1'
_cell_length_a   6.73818000
_cell_length_b   10.63920000
_cell_length_c   11.14250000
_cell_angle_alpha   95.71780000
_cell_angle_beta   91.65490000
_cell_angle_gamma   90.00800000
_symmetry_Int_Tables_number   1
_chemical_formula_structural   DyH9(CO2)4
_chemical_formula_sum   'Dy4 H36 C16 O32'
_cell_volume   794.48351816
_cell_formula_units_Z   4
loop_
 _symmetry_equiv_pos_site_id
 _symmetry_equiv_pos_as_xyz
  1  'x, y, z'
loop_
 _atom_site_type_symbol
 _atom_site_label
 _atom_site_symmetry_multiplicity
 _atom_site_fract_x
 _atom_site_fract_y
 _atom_site_fract_z
 _atom_site_occupancy
  Dy  Dy0  1  0.51746000  0.15513000  0.59422000  1.0
  Dy  Dy1  1  0.48254000  0.84487000  0.40578000  1.0
  Dy  Dy2  1  0.99746000  0.15042000  0.10154000  1.0
  Dy  Dy3  1  0.00254000  0.84958000  0.89846000  1.0
  H  H4  1  0.98639000  0.28054000  0.45099000  1.0
  H  H5  1  0.01361000  0.71946000  0.54901000  1.0
  H  H6  1  0.01258000  0.38721000  0.58513000  1.0
  H  H7  1  0.98742000  0.61279000  0.41487000  1.0
  H  H8  1  0.28871000  0.48082000  0.44276000  1.0
  H  H9  1  0.71129000  0.51918000  0.55724000  1.0
  H  H10  1  0.23972000  0.34489000  0.33978000  1.0
  H  H11  1  0.76029000  0.65511000  0.66022000  1.0
  H  H12  1  0.66489000  0.15935000  0.85312000  1.0
  H  H13  1  0.33510000  0.84065000  0.14688000  1.0
  H  H14  1  0.59648000  0.01882000  0.81909000  1.0
  H  H15  1  0.40352000  0.98118000  0.18092000  1.0
  H  H16  1  0.47329000  0.42814000  0.70076000  1.0
  H  H17  1  0.52671000  0.57186000  0.29925000  1.0
  H  H18  1  0.56130000  0.89997000  0.65963000  1.0
  H  H19  1  0.43870000  0.10003000  0.34037000  1.0
  H  H20  1  0.66425000  0.37175000  0.76375000  1.0
  H  H21  1  0.33576000  0.62825000  0.23625000  1.0
  H  H22  1  0.26535000  0.34399000  0.84999000  1.0
  H  H23  1  0.73465000  0.65601000  0.15001000  1.0
  H  H24  1  0.19707000  0.47672000  0.95069000  1.0
  H  H25  1  0.80293000  0.52327000  0.04931000  1.0
  H  H26  1  0.47717000  0.40018000  0.10971000  1.0
  H  H27  1  0.52282000  0.59982000  0.89029000  1.0
  H  H28  1  0.52304000  0.29904000  0.97530000  1.0
  H  H29  1  0.47696000  0.70096000  0.02470000  1.0
  H  H30  1  0.14177000  0.06390000  0.33817000  1.0
  H  H31  1  0.85822000  0.93610000  0.66183000  1.0
  H  H32  1  0.02188000  0.43613000  0.20059000  1.0
  H  H33  1  0.97812000  0.56387000  0.79941000  1.0
  H  H34  1  0.73122000  0.93936000  0.09045000  1.0
  H  H35  1  0.26878000  0.06064000  0.90955000  1.0
  H  H36  1  0.83640000  0.37643000  0.26010000  1.0
  H  H37  1  0.16360000  0.62358000  0.73990000  1.0
  H  H38  1  0.92711000  0.00851000  0.31206000  1.0
  H  H39  1  0.07289000  0.99149000  0.68794000  1.0
  C  C40  1  0.03354000  0.19081000  0.61180000  1.0
  C  C41  1  0.96645000  0.80919000  0.38820000  1.0
  C  C42  1  0.06962000  0.29950000  0.53730000  1.0
  C  C43  1  0.93037000  0.70050000  0.46270000  1.0
  C  C44  1  0.32562000  0.38030000  0.42184000  1.0
  C  C45  1  0.67438000  0.61970000  0.57815000  1.0
  C  C46  1  0.54584000  0.36485000  0.39905000  1.0
  C  C47  1  0.45417000  0.63515000  0.60095000  1.0
  C  C48  1  0.95734000  0.34863000  0.89330000  1.0
  C  C49  1  0.04266000  0.65137000  0.10670000  1.0
  C  C50  1  0.17375000  0.37445000  0.92820000  1.0
  C  C51  1  0.82625000  0.62555000  0.07180000  1.0
  C  C52  1  0.43581000  0.30998000  0.05738000  1.0
  C  C53  1  0.56419000  0.69001000  0.94262000  1.0
  C  C54  1  0.48403000  0.20369000  0.13448000  1.0
  C  C55  1  0.51597000  0.79630000  0.86552000  1.0
  O  O56  1  0.18403000  0.12897000  0.64713000  1.0
  O  O57  1  0.81596000  0.87103000  0.35287000  1.0
  O  O58  1  0.85741000  0.16525000  0.63520000  1.0
  O  O59  1  0.14259000  0.83475000  0.36480000  1.0
  O  O60  1  0.27760000  0.30941000  0.51923000  1.0
  O  O61  1  0.72240000  0.69059000  0.48077000  1.0
  O  O62  1  0.64125000  0.28513000  0.45475000  1.0
  O  O63  1  0.35875000  0.71487000  0.54525000  1.0
  O  O64  1  0.62084000  0.43204000  0.32352000  1.0
  O  O65  1  0.37916000  0.56796000  0.67648000  1.0
  O  O66  1  0.58130000  0.94490000  0.58873000  1.0
  O  O67  1  0.41870000  0.05510000  0.41127000  1.0
  O  O68  1  0.53196000  0.34725000  0.72412000  1.0
  O  O69  1  0.46804000  0.65275000  0.27588000  1.0
  O  O70  1  0.55599000  0.10750000  0.81263000  1.0
  O  O71  1  0.44400000  0.89250000  0.18737000  1.0
  O  O72  1  0.33702000  0.14766000  0.17758000  1.0
  O  O73  1  0.66298000  0.85234000  0.82242000  1.0
  O  O74  1  0.66176000  0.17685000  0.15485000  1.0
  O  O75  1  0.33823000  0.82315000  0.84516000  1.0
  O  O76  1  0.22796000  0.30673000  0.02790000  1.0
  O  O77  1  0.77204000  0.69327000  0.97210000  1.0
  O  O78  1  0.86799000  0.25920000  0.93764000  1.0
  O  O79  1  0.13200000  0.74080000  0.06236000  1.0
  O  O80  1  0.87954000  0.41889000  0.81945000  1.0
  O  O81  1  0.12046000  0.58111000  0.18055000  1.0
  O  O82  1  0.84766000  0.96454000  0.04892000  1.0
  O  O83  1  0.15234000  0.03547000  0.95108000  1.0
  O  O84  1  0.96076000  0.35429000  0.21588000  1.0
  O  O85  1  0.03923000  0.64571000  0.78411000  1.0
  O  O86  1  0.01295000  0.08182000  0.29876000  1.0
  O  O87  1  0.98705000  0.91818000  0.70124000  1.0
