# generated using pymatgen
data_ZnH10C12(NO2)2
_symmetry_space_group_name_H-M   'P 1'
_cell_length_a   7.97706000
_cell_length_b   7.97706000
_cell_length_c   17.62700000
_cell_angle_alpha   90.00000000
_cell_angle_beta   90.00000000
_cell_angle_gamma   90.00000000
_symmetry_Int_Tables_number   1
_chemical_formula_structural   ZnH10C12(NO2)2
_chemical_formula_sum   'Zn4 H40 C48 N8 O16'
_cell_volume   1121.66746202
_cell_formula_units_Z   4
loop_
 _symmetry_equiv_pos_site_id
 _symmetry_equiv_pos_as_xyz
  1  'x, y, z'
loop_
 _atom_site_type_symbol
 _atom_site_label
 _atom_site_symmetry_multiplicity
 _atom_site_fract_x
 _atom_site_fract_y
 _atom_site_fract_z
 _atom_site_occupancy
  Zn  Zn0  1  0.73533000  0.73533000  0.00000000  1.0
  Zn  Zn1  1  0.26467000  0.26467000  0.50000000  1.0
  Zn  Zn2  1  0.76467000  0.23533000  0.75000000  1.0
  Zn  Zn3  1  0.23533000  0.76467000  0.25000000  1.0
  H  H4  1  0.68352000  0.40010000  0.07389000  1.0
  H  H5  1  0.31648000  0.59990000  0.57389000  1.0
  H  H6  1  0.09990000  0.18352000  0.82389000  1.0
  H  H7  1  0.90010000  0.81648000  0.32389000  1.0
  H  H8  1  0.81648000  0.90010000  0.67611000  1.0
  H  H9  1  0.18352000  0.09991000  0.17611000  1.0
  H  H10  1  0.40010000  0.68352000  0.92611000  1.0
  H  H11  1  0.59990000  0.31648000  0.42611000  1.0
  H  H12  1  0.47276000  0.16577000  0.07392000  1.0
  H  H13  1  0.52724000  0.83423000  0.57392000  1.0
  H  H14  1  0.33423000  0.97276000  0.82392000  1.0
  H  H15  1  0.66577000  0.02724000  0.32392000  1.0
  H  H16  1  0.02724000  0.66577000  0.67608000  1.0
  H  H17  1  0.97276000  0.33423000  0.17608000  1.0
  H  H18  1  0.16577000  0.47276000  0.92608000  1.0
  H  H19  1  0.83423000  0.52724000  0.42608000  1.0
  H  H20  1  0.96505000  0.34290000  0.02103000  1.0
  H  H21  1  0.03495000  0.65710000  0.52103000  1.0
  H  H22  1  0.15710000  0.46505000  0.77103000  1.0
  H  H23  1  0.84290000  0.53495000  0.27103000  1.0
  H  H24  1  0.53495000  0.84290000  0.72897000  1.0
  H  H25  1  0.46505000  0.15710000  0.22897000  1.0
  H  H26  1  0.34290000  0.96505000  0.97897000  1.0
  H  H27  1  0.65710000  0.03495000  0.47897000  1.0
  H  H28  1  0.11074000  0.75049000  0.98072000  1.0
  H  H29  1  0.88926000  0.24951000  0.48072000  1.0
  H  H30  1  0.74951000  0.61074000  0.73072000  1.0
  H  H31  1  0.25049000  0.38926000  0.23072000  1.0
  H  H32  1  0.38926000  0.25049000  0.76928000  1.0
  H  H33  1  0.61074000  0.74951000  0.26928000  1.0
  H  H34  1  0.75049000  0.11074000  0.01928000  1.0
  H  H35  1  0.24951000  0.88926000  0.51928000  1.0
  H  H36  1  0.70442000  0.42113000  0.89443000  1.0
  H  H37  1  0.29558000  0.57887000  0.39443000  1.0
  H  H38  1  0.07887000  0.20442000  0.64443000  1.0
  H  H39  1  0.92113000  0.79558000  0.14443000  1.0
  H  H40  1  0.79558000  0.92113000  0.85557000  1.0
  H  H41  1  0.20442000  0.07887000  0.35557000  1.0
  H  H42  1  0.42113000  0.70442000  0.10557000  1.0
  H  H43  1  0.57887000  0.29558000  0.60557000  1.0
  C  C44  1  0.56829000  0.40726000  0.04082000  1.0
  C  C45  1  0.43171000  0.59274000  0.54082000  1.0
  C  C46  1  0.09274000  0.06829000  0.79082000  1.0
  C  C47  1  0.90726000  0.93171000  0.29082000  1.0
  C  C48  1  0.93171000  0.90726000  0.70918000  1.0
  C  C49  1  0.06829000  0.09274000  0.20918000  1.0
  C  C50  1  0.40726000  0.56829000  0.95918000  1.0
  C  C51  1  0.59274000  0.43171000  0.45918000  1.0
  C  C52  1  0.45006000  0.27949000  0.04106000  1.0
  C  C53  1  0.54994000  0.72051000  0.54106000  1.0
  C  C54  1  0.22051000  0.95006000  0.79106000  1.0
  C  C55  1  0.77949000  0.04994000  0.29106000  1.0
  C  C56  1  0.04994000  0.77949000  0.70894000  1.0
  C  C57  1  0.95006000  0.22051000  0.20894000  1.0
  C  C58  1  0.27949000  0.45006000  0.95894000  1.0
  C  C59  1  0.72051000  0.54994000  0.45894000  1.0
  C  C60  1  0.30120000  0.30120000  0.00000000  1.0
  C  C61  1  0.69880000  0.69880000  0.50000000  1.0
  C  C62  1  0.19880000  0.80120000  0.75000000  1.0
  C  C63  1  0.80120000  0.19880000  0.25000000  1.0
  C  C64  1  0.17073000  0.17073000  0.00000000  1.0
  C  C65  1  0.82927000  0.82927000  0.50000000  1.0
  C  C66  1  0.32927000  0.67073000  0.75000000  1.0
  C  C67  1  0.67073000  0.32927000  0.25000000  1.0
  C  C68  1  0.00180000  0.21307000  0.01038000  1.0
  C  C69  1  0.99820000  0.78693000  0.51038000  1.0
  C  C70  1  0.28693000  0.50180000  0.76038000  1.0
  C  C71  1  0.71307000  0.49820000  0.26038000  1.0
  C  C72  1  0.49820000  0.71307000  0.73962000  1.0
  C  C73  1  0.50180000  0.28693000  0.23962000  1.0
  C  C74  1  0.21307000  0.00180000  0.98962000  1.0
  C  C75  1  0.78693000  0.99820000  0.48962000  1.0
  C  C76  1  0.88311000  0.08572000  0.01051000  1.0
  C  C77  1  0.11688000  0.91428000  0.51051000  1.0
  C  C78  1  0.41428000  0.38312000  0.76051000  1.0
  C  C79  1  0.58572000  0.61689000  0.26051000  1.0
  C  C80  1  0.61689000  0.58572000  0.73949000  1.0
  C  C81  1  0.38311000  0.41428000  0.23949000  1.0
  C  C82  1  0.08572000  0.88311000  0.98949000  1.0
  C  C83  1  0.91428000  0.11689000  0.48949000  1.0
  C  C84  1  0.82910000  0.47210000  0.87876000  1.0
  C  C85  1  0.17090000  0.52790000  0.37876000  1.0
  C  C86  1  0.02790000  0.32910000  0.62876000  1.0
  C  C87  1  0.97210000  0.67090000  0.12876000  1.0
  C  C88  1  0.67090000  0.97210000  0.87124000  1.0
  C  C89  1  0.32910000  0.02790000  0.37124000  1.0
  C  C90  1  0.47210000  0.82910000  0.12124000  1.0
  C  C91  1  0.52790000  0.17090000  0.62124000  1.0
  N  N92  1  0.54854000  0.54854000  0.00000000  1.0
  N  N93  1  0.45146000  0.45146000  0.50000000  1.0
  N  N94  1  0.95146000  0.04854000  0.75000000  1.0
  N  N95  1  0.04854000  0.95146000  0.25000000  1.0
  N  N96  1  0.92360000  0.92360000  0.00000000  1.0
  N  N97  1  0.07640000  0.07640000  0.50000000  1.0
  N  N98  1  0.57640000  0.42360000  0.75000000  1.0
  N  N99  1  0.42360000  0.57640000  0.25000000  1.0
  O  O100  1  0.87905000  0.60455000  0.91128000  1.0
  O  O101  1  0.12095000  0.39545000  0.41128000  1.0
  O  O102  1  0.89545000  0.37905000  0.66128000  1.0
  O  O103  1  0.10455000  0.62095000  0.16128000  1.0
  O  O104  1  0.62095000  0.10455000  0.83872000  1.0
  O  O105  1  0.37905000  0.89545000  0.33872000  1.0
  O  O106  1  0.60455000  0.87905000  0.08872000  1.0
  O  O107  1  0.39545000  0.12095000  0.58872000  1.0
  O  O108  1  0.58894000  0.89126000  0.92120000  1.0
  O  O109  1  0.41106000  0.10874000  0.42120000  1.0
  O  O110  1  0.60874000  0.08894000  0.67120000  1.0
  O  O111  1  0.39126000  0.91106000  0.17120000  1.0
  O  O112  1  0.91106000  0.39126000  0.82880000  1.0
  O  O113  1  0.08894000  0.60874000  0.32880000  1.0
  O  O114  1  0.89126000  0.58894000  0.07880000  1.0
  O  O115  1  0.10874000  0.41106000  0.57880000  1.0
