# generated using pymatgen
data_LiPH10C9O4
_symmetry_space_group_name_H-M   'P 1'
_cell_length_a   5.74721000
_cell_length_b   11.84493299
_cell_length_c   15.12290000
_cell_angle_alpha   102.80140568
_cell_angle_beta   90.01760000
_cell_angle_gamma   104.01995200
_symmetry_Int_Tables_number   1
_chemical_formula_structural   LiPH10C9O4
_chemical_formula_sum   'Li4 P4 H40 C36 O16'
_cell_volume   972.41506235
_cell_formula_units_Z   4
loop_
 _symmetry_equiv_pos_site_id
 _symmetry_equiv_pos_as_xyz
  1  'x, y, z'
loop_
 _atom_site_type_symbol
 _atom_site_label
 _atom_site_symmetry_multiplicity
 _atom_site_fract_x
 _atom_site_fract_y
 _atom_site_fract_z
 _atom_site_occupancy
  Li  Li0  1  0.65612000  0.57047000  0.96304000  1.0
  Li  Li1  1  0.08601000  0.42956000  0.53698000  1.0
  Li  Li2  1  0.34387000  0.42952000  0.03696000  1.0
  Li  Li3  1  0.91401000  0.57046000  0.46302000  1.0
  P  P4  1  0.20557000  0.66541000  0.06411000  1.0
  P  P5  1  0.54055000  0.33450000  0.43591000  1.0
  P  P6  1  0.79441000  0.33458000  0.93589000  1.0
  P  P7  1  0.45946000  0.66551000  0.56409000  1.0
  H  H8  1  0.67375000  0.82528000  0.13799000  1.0
  H  H9  1  0.84828000  0.17422000  0.36189000  1.0
  H  H10  1  0.32624000  0.17472000  0.86202000  1.0
  H  H11  1  0.15172000  0.82578000  0.63812000  1.0
  H  H12  1  0.82549000  0.04625000  0.17077000  1.0
  H  H13  1  0.77864000  0.95326000  0.32910000  1.0
  H  H14  1  0.17449000  0.95375000  0.82924000  1.0
  H  H15  1  0.22135000  0.04674000  0.67090000  1.0
  H  H16  1  0.56226000  0.17216000  0.14016000  1.0
  H  H17  1  0.38947000  0.82759000  0.35988000  1.0
  H  H18  1  0.43773000  0.82784000  0.85984000  1.0
  H  H19  1  0.61053000  0.17242000  0.64013000  1.0
  H  H20  1  0.14268000  0.07644000  0.07526000  1.0
  H  H21  1  0.06622000  0.92371000  0.42491000  1.0
  H  H22  1  0.85731000  0.92356000  0.92473000  1.0
  H  H23  1  0.93378000  0.07630000  0.57510000  1.0
  H  H24  1  0.99131000  0.85563000  0.04249000  1.0
  H  H25  1  0.13602000  0.14450000  0.45759000  1.0
  H  H26  1  0.00869000  0.14437000  0.95750000  1.0
  H  H27  1  0.86397000  0.85550000  0.54242000  1.0
  H  H28  1  0.01914000  0.52832000  0.14988000  1.0
  H  H29  1  0.49081000  0.47173000  0.35018000  1.0
  H  H30  1  0.98083000  0.47168000  0.85012000  1.0
  H  H31  1  0.50921000  0.52827000  0.64981000  1.0
  H  H32  1  0.25133000  0.64270000  0.21499000  1.0
  H  H33  1  0.60883000  0.35741000  0.28505000  1.0
  H  H34  1  0.74864000  0.35730000  0.78501000  1.0
  H  H35  1  0.39118000  0.64258000  0.71495000  1.0
  H  H36  1  0.96979000  0.78499000  0.22432000  1.0
  H  H37  1  0.18536000  0.21500000  0.27568000  1.0
  H  H38  1  0.03020000  0.21502000  0.77568000  1.0
  H  H39  1  0.81466000  0.78499000  0.72432000  1.0
  H  H40  1  0.73772000  0.66035000  0.17140000  1.0
  H  H41  1  0.07753000  0.33958000  0.32845000  1.0
  H  H42  1  0.26226000  0.33965000  0.82860000  1.0
  H  H43  1  0.92249000  0.66041000  0.67155000  1.0
  H  H44  1  0.64395000  0.67744000  0.40509000  1.0
  H  H45  1  0.96703000  0.32218000  0.09465000  1.0
  H  H46  1  0.35606000  0.32257000  0.59491000  1.0
  H  H47  1  0.03299000  0.67782000  0.90535000  1.0
  C  C48  1  0.32219000  0.82606000  0.08870000  1.0
  C  C49  1  0.49633000  0.17384000  0.41127000  1.0
  C  C50  1  0.67780000  0.17394000  0.91130000  1.0
  C  C51  1  0.50369000  0.82617000  0.58874000  1.0
  C  C52  1  0.55736000  0.88060000  0.12487000  1.0
  C  C53  1  0.67665000  0.11909000  0.37508000  1.0
  C  C54  1  0.44263000  0.11940000  0.87514000  1.0
  C  C55  1  0.32336000  0.88091000  0.62492000  1.0
  C  C56  1  0.64211000  0.00452000  0.14320000  1.0
  C  C57  1  0.63721000  0.99517000  0.35676000  1.0
  C  C58  1  0.35788000  0.99549000  0.85680000  1.0
  C  C59  1  0.36278000  0.00483000  0.64325000  1.0
  C  C60  1  0.49331000  0.07549000  0.12616000  1.0
  C  C61  1  0.41750000  0.92430000  0.37385000  1.0
  C  C62  1  0.50668000  0.92451000  0.87385000  1.0
  C  C63  1  0.58250000  0.07570000  0.62615000  1.0
  C  C64  1  0.25889000  0.02184000  0.09015000  1.0
  C  C65  1  0.23697000  0.97817000  0.40993000  1.0
  C  C66  1  0.74109000  0.97815000  0.90985000  1.0
  C  C67  1  0.76303000  0.02184000  0.59007000  1.0
  C  C68  1  0.17339000  0.89782000  0.07162000  1.0
  C  C69  1  0.27582000  0.10222000  0.42842000  1.0
  C  C70  1  0.82661000  0.10218000  0.92839000  1.0
  C  C71  1  0.72419000  0.89779000  0.57158000  1.0
  C  C72  1  0.09397000  0.62556000  0.16805000  1.0
  C  C73  1  0.46851000  0.37446000  0.33197000  1.0
  C  C74  1  0.90604000  0.37444000  0.83195000  1.0
  C  C75  1  0.53150000  0.62553000  0.66803000  1.0
  C  C76  1  0.90703000  0.68692000  0.21335000  1.0
  C  C77  1  0.22035000  0.31303000  0.28658000  1.0
  C  C78  1  0.09297000  0.31308000  0.78665000  1.0
  C  C79  1  0.77967000  0.68696000  0.71342000  1.0
  C  C80  1  0.85223000  0.66051000  0.30538000  1.0
  C  C81  1  0.19207000  0.33928000  0.19453000  1.0
  C  C82  1  0.14779000  0.33948000  0.69463000  1.0
  C  C83  1  0.80796000  0.66072000  0.80546000  1.0
  O  O84  1  0.40714000  0.60292000  0.03862000  1.0
  O  O85  1  0.80462000  0.39696000  0.46130000  1.0
  O  O86  1  0.59284000  0.39707000  0.96138000  1.0
  O  O87  1  0.19539000  0.60304000  0.53869000  1.0
  O  O88  1  0.99565000  0.63754000  0.99327000  1.0
  O  O89  1  0.35881000  0.36255000  0.50681000  1.0
  O  O90  1  0.00435000  0.36246000  0.00673000  1.0
  O  O91  1  0.64119000  0.63745000  0.49318000  1.0
  O  O92  1  0.66593000  0.69798000  0.34131000  1.0
  O  O93  1  0.96854000  0.30160000  0.15844000  1.0
  O  O94  1  0.33405000  0.30203000  0.65869000  1.0
  O  O95  1  0.03147000  0.69839000  0.84155000  1.0
  O  O96  1  0.97246000  0.61002000  0.34431000  1.0
  O  O97  1  0.36264000  0.38987000  0.15564000  1.0
  O  O98  1  0.02753000  0.38998000  0.65567000  1.0
  O  O99  1  0.63736000  0.61012000  0.84436000  1.0
