# generated using pymatgen
data_CdH6C6(N2O)4
_symmetry_space_group_name_H-M   'P 1'
_cell_length_a   4.95495000
_cell_length_b   7.99541000
_cell_length_c   13.82530000
_cell_angle_alpha   89.99990000
_cell_angle_beta   90.00000000
_cell_angle_gamma   104.51100000
_symmetry_Int_Tables_number   1
_chemical_formula_structural   CdH6C6(N2O)4
_chemical_formula_sum   'Cd2 H12 C12 N16 O8'
_cell_volume   530.24257895
_cell_formula_units_Z   2
loop_
 _symmetry_equiv_pos_site_id
 _symmetry_equiv_pos_as_xyz
  1  'x, y, z'
loop_
 _atom_site_type_symbol
 _atom_site_label
 _atom_site_symmetry_multiplicity
 _atom_site_fract_x
 _atom_site_fract_y
 _atom_site_fract_z
 _atom_site_occupancy
  Cd  Cd0  1  0.00000000  0.50000000  0.50000000  1.0
  Cd  Cd1  1  0.50000000  0.00000000  0.00000000  1.0
  H  H2  1  0.27404000  0.31734000  0.30562000  1.0
  H  H3  1  0.22596000  0.18266000  0.80562000  1.0
  H  H4  1  0.72596000  0.68266000  0.69438000  1.0
  H  H5  1  0.77404000  0.81734000  0.19438000  1.0
  H  H6  1  0.46073000  0.37609000  0.12166000  1.0
  H  H7  1  0.03927000  0.12391000  0.62166000  1.0
  H  H8  1  0.53927000  0.62391000  0.87834000  1.0
  H  H9  1  0.96073000  0.87609000  0.37834000  1.0
  H  H10  1  0.32297000  0.52795000  0.05590000  1.0
  H  H11  1  0.17704000  0.97205000  0.55590000  1.0
  H  H12  1  0.67703000  0.47205000  0.94410000  1.0
  H  H13  1  0.82296000  0.02795000  0.44410000  1.0
  C  C14  1  0.14236000  0.39665000  0.27876000  1.0
  C  C15  1  0.35763000  0.10334000  0.77876000  1.0
  C  C16  1  0.85763000  0.60335000  0.72124000  1.0
  C  C17  1  0.64237000  0.89666000  0.22124000  1.0
  C  C18  1  0.26893000  0.41101000  0.10090000  1.0
  C  C19  1  0.23107000  0.08898000  0.60090000  1.0
  C  C20  1  0.73107000  0.58899000  0.89910000  1.0
  C  C21  1  0.76893000  0.91101000  0.39910000  1.0
  C  C22  1  0.08112000  0.26427000  0.04111000  1.0
  C  C23  1  0.41888000  0.23573000  0.54111000  1.0
  C  C24  1  0.91888000  0.73573000  0.95889000  1.0
  C  C25  1  0.58112000  0.76427000  0.45889000  1.0
  N  N26  1  0.13222000  0.45232000  0.18741000  1.0
  N  N27  1  0.36778000  0.04768000  0.68741000  1.0
  N  N28  1  0.86778000  0.54768000  0.81259000  1.0
  N  N29  1  0.63222000  0.95232000  0.31259000  1.0
  N  N30  1  0.94631000  0.55071000  0.18339000  1.0
  N  N31  1  0.55370000  0.94929000  0.68339000  1.0
  N  N32  1  0.05369000  0.44929000  0.81661000  1.0
  N  N33  1  0.44631000  0.05071000  0.31661000  1.0
  N  N34  1  0.84777000  0.55430000  0.27034000  1.0
  N  N35  1  0.65223000  0.94570000  0.77034000  1.0
  N  N36  1  0.15223000  0.44571000  0.72966000  1.0
  N  N37  1  0.34777000  0.05430000  0.22966000  1.0
  N  N38  1  0.96539000  0.45916000  0.33106000  1.0
  N  N39  1  0.53461000  0.04084000  0.83106000  1.0
  N  N40  1  0.03461000  0.54084000  0.66894000  1.0
  N  N41  1  0.46539000  0.95916000  0.16894000  1.0
  O  O42  1  0.20163000  0.18585000  0.98281000  1.0
  O  O43  1  0.29837000  0.31415000  0.48281000  1.0
  O  O44  1  0.79836000  0.81415000  0.01719000  1.0
  O  O45  1  0.70164000  0.68585000  0.51719000  1.0
  O  O46  1  0.82059000  0.24033000  0.05335000  1.0
  O  O47  1  0.67941000  0.25967000  0.55335000  1.0
  O  O48  1  0.17940000  0.75967000  0.94665000  1.0
  O  O49  1  0.32060000  0.74033000  0.44665000  1.0
