# generated using pymatgen
data_MnH7C8NO5
_symmetry_space_group_name_H-M   'P 1'
_cell_length_a   7.50812000
_cell_length_b   8.12420000
_cell_length_c   8.57091000
_cell_angle_alpha   81.09510000
_cell_angle_beta   67.03790000
_cell_angle_gamma   84.65780000
_symmetry_Int_Tables_number   1
_chemical_formula_structural   MnH7C8NO5
_chemical_formula_sum   'Mn2 H14 C16 N2 O10'
_cell_volume   475.26857983
_cell_formula_units_Z   2
loop_
 _symmetry_equiv_pos_site_id
 _symmetry_equiv_pos_as_xyz
  1  'x, y, z'
loop_
 _atom_site_type_symbol
 _atom_site_label
 _atom_site_symmetry_multiplicity
 _atom_site_fract_x
 _atom_site_fract_y
 _atom_site_fract_z
 _atom_site_occupancy
  Mn  Mn0  1  0.35692000  0.72287000  0.63958000  1.0
  Mn  Mn1  1  0.64308000  0.27713000  0.36042000  1.0
  H  H2  1  0.94443000  0.21523000  0.56417000  1.0
  H  H3  1  0.05557000  0.78476000  0.43582000  1.0
  H  H4  1  0.45507000  0.34589000  0.00270000  1.0
  H  H5  1  0.54493000  0.65411000  0.99729000  1.0
  H  H6  1  0.80762000  0.90408000  0.04826000  1.0
  H  H7  1  0.19238000  0.09592000  0.95174000  1.0
  H  H8  1  0.70578000  0.84657000  0.41405000  1.0
  H  H9  1  0.29422000  0.15343000  0.58595000  1.0
  H  H10  1  0.68079000  0.64923000  0.41584000  1.0
  H  H11  1  0.31921000  0.35077000  0.58415000  1.0
  H  H12  1  0.37619000  0.14353000  0.25980000  1.0
  H  H13  1  0.62382000  0.85648000  0.74019000  1.0
  H  H14  1  0.51925000  0.97977000  0.27933000  1.0
  H  H15  1  0.48075000  0.02024000  0.72066000  1.0
  C  C16  1  0.05985000  0.93330000  0.72208000  1.0
  C  C17  1  0.94015000  0.06669000  0.27792000  1.0
  C  C18  1  0.63512000  0.43363000  0.66561000  1.0
  C  C19  1  0.36488000  0.56637000  0.33439000  1.0
  C  C20  1  0.89324000  0.04875000  0.79920000  1.0
  C  C21  1  0.10675000  0.95124000  0.20080000  1.0
  C  C22  1  0.85407000  0.18934000  0.69908000  1.0
  C  C23  1  0.14593000  0.81066000  0.30092000  1.0
  C  C24  1  0.69258000  0.29302000  0.77266000  1.0
  C  C25  1  0.30743000  0.70698000  0.22734000  1.0
  C  C26  1  0.57856000  0.26230000  0.94732000  1.0
  C  C27  1  0.42145000  0.73770000  0.05269000  1.0
  C  C28  1  0.62259000  0.12558000  0.04880000  1.0
  C  C29  1  0.37741000  0.87443000  0.95121000  1.0
  C  C30  1  0.77643000  0.01557000  0.97300000  1.0
  C  C31  1  0.22356000  0.98443000  0.02701000  1.0
  N  N32  1  0.51677000  0.10186000  0.22746000  1.0
  N  N33  1  0.48323000  0.89814000  0.77254000  1.0
  O  O34  1  0.61824000  0.76269000  0.40845000  1.0
  O  O35  1  0.38176000  0.23732000  0.59154000  1.0
  O  O36  1  0.06454000  0.78477000  0.79556000  1.0
  O  O37  1  0.93547000  0.21523000  0.20446000  1.0
  O  O38  1  0.20075000  0.98512000  0.58302000  1.0
  O  O39  1  0.79925000  0.01488000  0.41698000  1.0
  O  O40  1  0.71717000  0.44295000  0.50156000  1.0
  O  O41  1  0.28284000  0.55704000  0.49844000  1.0
  O  O42  1  0.50371000  0.53676000  0.74309000  1.0
  O  O43  1  0.49629000  0.46324000  0.25690000  1.0
