# generated using pymatgen
data_AlHC4O5F2
_symmetry_space_group_name_H-M   'P 1'
_cell_length_a   6.68153000
_cell_length_b   8.84070000
_cell_length_c   8.84051000
_cell_angle_alpha   72.92420000
_cell_angle_beta   75.44100000
_cell_angle_gamma   75.43930000
_symmetry_Int_Tables_number   1
_chemical_formula_structural   AlHC4O5F2
_chemical_formula_sum   'Al2 H2 C8 O10 F4'
_cell_volume   474.17031300
_cell_formula_units_Z   2
loop_
 _symmetry_equiv_pos_site_id
 _symmetry_equiv_pos_as_xyz
  1  'x, y, z'
loop_
 _atom_site_type_symbol
 _atom_site_label
 _atom_site_symmetry_multiplicity
 _atom_site_fract_x
 _atom_site_fract_y
 _atom_site_fract_z
 _atom_site_occupancy
  Al  Al0  1  0.50002000  0.49999000  0.49999000  1.0
  Al  Al1  1  0.00000000  0.50000000  0.49999000  1.0
  H  H2  1  0.74998000  0.33110000  0.66904000  1.0
  H  H3  1  0.24994000  0.66909000  0.33112000  1.0
  C  C4  1  0.16437000  0.48903000  0.78227000  1.0
  C  C5  1  0.33564000  0.21768000  0.51096000  1.0
  C  C6  1  0.83567000  0.51096000  0.21770000  1.0
  C  C7  1  0.66433000  0.78233000  0.48902000  1.0
  C  C8  1  0.59810000  0.95378000  0.50025000  1.0
  C  C9  1  0.40190000  0.04622000  0.49973000  1.0
  C  C10  1  0.09810000  0.50026000  0.95377000  1.0
  C  C11  1  0.90188000  0.49975000  0.04622000  1.0
  O  O12  1  0.35223000  0.50531000  0.71687000  1.0
  O  O13  1  0.14783000  0.28313000  0.49466000  1.0
  O  O14  1  0.97071000  0.53651000  0.28125000  1.0
  O  O15  1  0.52928000  0.71876000  0.46348000  1.0
  O  O16  1  0.64781000  0.49469000  0.28312000  1.0
  O  O17  1  0.85215000  0.71688000  0.50527000  1.0
  O  O18  1  0.02934000  0.46346000  0.71872000  1.0
  O  O19  1  0.47067000  0.28125000  0.53652000  1.0
  O  O20  1  0.75000000  0.42320000  0.57683000  1.0
  O  O21  1  0.25000000  0.57682000  0.42316000  1.0
  F  F22  1  0.75503000  0.01601000  0.51373000  1.0
  F  F23  1  0.24496000  0.98397000  0.48628000  1.0
  F  F24  1  0.25504000  0.51369000  0.01607000  1.0
  F  F25  1  0.74495000  0.48628000  0.98395000  1.0
