# generated using pymatgen
data_KH13C18O13
_symmetry_space_group_name_H-M   'P 1'
_cell_length_a   9.29978000
_cell_length_b   10.09560000
_cell_length_c   10.89890000
_cell_angle_alpha   101.02100000
_cell_angle_beta   100.62000000
_cell_angle_gamma   93.82870000
_symmetry_Int_Tables_number   1
_chemical_formula_structural   KH13C18O13
_chemical_formula_sum   'K2 H26 C36 O26'
_cell_volume   981.65388278
_cell_formula_units_Z   2
loop_
 _symmetry_equiv_pos_site_id
 _symmetry_equiv_pos_as_xyz
  1  'x, y, z'
loop_
 _atom_site_type_symbol
 _atom_site_label
 _atom_site_symmetry_multiplicity
 _atom_site_fract_x
 _atom_site_fract_y
 _atom_site_fract_z
 _atom_site_occupancy
  K  K0  1  0.72915000  0.21347000  0.13166000  1.0
  K  K1  1  0.27085000  0.78653000  0.86834000  1.0
  H  H2  1  0.26425000  0.47453000  0.02104000  1.0
  H  H3  1  0.73575000  0.52547000  0.97896000  1.0
  H  H4  1  0.94861000  0.79078000  0.09750000  1.0
  H  H5  1  0.05138000  0.20921000  0.90250000  1.0
  H  H6  1  0.71168000  0.05413000  0.36582000  1.0
  H  H7  1  0.28832000  0.94587000  0.63418000  1.0
  H  H8  1  0.92536000  0.83202000  0.49437000  1.0
  H  H9  1  0.07464000  0.16798000  0.50562000  1.0
  H  H10  1  0.17888000  0.53449000  0.32213000  1.0
  H  H11  1  0.82112000  0.46551000  0.67786000  1.0
  H  H12  1  0.23146000  0.53209000  0.63788000  1.0
  H  H13  1  0.76854000  0.46791000  0.36212000  1.0
  H  H14  1  0.43532000  0.30195000  0.25201000  1.0
  H  H15  1  0.56468000  0.69806000  0.74799000  1.0
  H  H16  1  0.36866000  0.15392000  0.07371000  1.0
  H  H17  1  0.63133000  0.84608000  0.92629000  1.0
  H  H18  1  0.39305000  0.29656000  0.03346000  1.0
  H  H19  1  0.60695000  0.70344000  0.96654000  1.0
  H  H20  1  0.38730000  0.40392000  0.56533000  1.0
  H  H21  1  0.61271000  0.59608000  0.43467000  1.0
  H  H22  1  0.80138000  0.89899000  0.75547000  1.0
  H  H23  1  0.19862000  0.10101000  0.24454000  1.0
  H  H24  1  0.51426000  0.22104000  0.88944000  1.0
  H  H25  1  0.48574000  0.77896000  0.11057000  1.0
  H  H26  1  0.66072000  0.07540000  0.54179000  1.0
  H  H27  1  0.33929000  0.92459000  0.45821000  1.0
  C  C28  1  0.07054000  0.65685000  0.19846000  1.0
  C  C29  1  0.92945000  0.34315000  0.80153000  1.0
  C  C30  1  0.97769000  0.75893000  0.18811000  1.0
  C  C31  1  0.02230000  0.24107000  0.81189000  1.0
  C  C32  1  0.92307000  0.82103000  0.29353000  1.0
  C  C33  1  0.07693000  0.17897000  0.70646000  1.0
  C  C34  1  0.05624000  0.67953000  0.42096000  1.0
  C  C35  1  0.94375000  0.32047000  0.57904000  1.0
  C  C36  1  0.96388000  0.78241000  0.41054000  1.0
  C  C37  1  0.03611000  0.21759000  0.58945000  1.0
  C  C38  1  0.10755000  0.61485000  0.31432000  1.0
  C  C39  1  0.89244000  0.38515000  0.68568000  1.0
  C  C40  1  0.13509000  0.60311000  0.08588000  1.0
  C  C41  1  0.86490000  0.39689000  0.91412000  1.0
  C  C42  1  0.82353000  0.92811000  0.27700000  1.0
  C  C43  1  0.17647000  0.07188000  0.72300000  1.0
  C  C44  1  0.10368000  0.64650000  0.54886000  1.0
  C  C45  1  0.89632000  0.35350000  0.45113000  1.0
  C  C46  1  0.52192000  0.23937000  0.53839000  1.0
  C  C47  1  0.47809000  0.76063000  0.46161000  1.0
  C  C48  1  0.44516000  0.32968000  0.60990000  1.0
  C  C49  1  0.55485000  0.67032000  0.39010000  1.0
  C  C50  1  0.44274000  0.32414000  0.73707000  1.0
  C  C51  1  0.55727000  0.67586000  0.26293000  1.0
  C  C52  1  0.51810000  0.22774000  0.79170000  1.0
  C  C53  1  0.48190000  0.77227000  0.20830000  1.0
  C  C54  1  0.59749000  0.13918000  0.72195000  1.0
  C  C55  1  0.40251000  0.86082000  0.27805000  1.0
  C  C56  1  0.59921000  0.14497000  0.59512000  1.0
  C  C57  1  0.40079000  0.85503000  0.40489000  1.0
  C  C58  1  0.52265000  0.23878000  0.40181000  1.0
  C  C59  1  0.47735000  0.76122000  0.59819000  1.0
  C  C60  1  0.36063000  0.42035000  0.81639000  1.0
  C  C61  1  0.63938000  0.57965000  0.18362000  1.0
  C  C62  1  0.67704000  0.03962000  0.78441000  1.0
  C  C63  1  0.32296000  0.96038000  0.21559000  1.0
  O  O64  1  0.11427000  0.65252000  0.98948000  1.0
  O  O65  1  0.88573000  0.34748000  0.01052000  1.0
  O  O66  1  0.59758000  0.16444000  0.33981000  1.0
  O  O67  1  0.40242000  0.83556000  0.66019000  1.0
  O  O68  1  0.21869000  0.50374000  0.10042000  1.0
  O  O69  1  0.78130000  0.49626000  0.89958000  1.0
  O  O70  1  0.78420000  0.96184000  0.17383000  1.0
  O  O71  1  0.21580000  0.03816000  0.82617000  1.0
  O  O72  1  0.06816000  0.70851000  0.64597000  1.0
  O  O73  1  0.93184000  0.29149000  0.35403000  1.0
  O  O74  1  0.78034000  0.98358000  0.38402000  1.0
  O  O75  1  0.21965000  0.01642000  0.61598000  1.0
  O  O76  1  0.19147000  0.54715000  0.54744000  1.0
  O  O77  1  0.80853000  0.45285000  0.45256000  1.0
  O  O78  1  0.43598000  0.31966000  0.34846000  1.0
  O  O79  1  0.56402000  0.68035000  0.65154000  1.0
  O  O80  1  0.42411000  0.24440000  0.10104000  1.0
  O  O81  1  0.57589000  0.75561000  0.89897000  1.0
  O  O82  1  0.30521000  0.51611000  0.77105000  1.0
  O  O83  1  0.69479000  0.48389000  0.22895000  1.0
  O  O84  1  0.35379000  0.40006000  0.92739000  1.0
  O  O85  1  0.64622000  0.59995000  0.07261000  1.0
  O  O86  1  0.67590000  0.02656000  0.89442000  1.0
  O  O87  1  0.32410000  0.97344000  0.10558000  1.0
  O  O88  1  0.75202000  0.96219000  0.70815000  1.0
  O  O89  1  0.24798000  0.03780000  0.29185000  1.0
