# generated using pymatgen
data_InH24C40(NO4)2
_symmetry_space_group_name_H-M   'P 1'
_cell_length_a   20.68440000
_cell_length_b   20.68400000
_cell_length_c   22.75730000
_cell_angle_alpha   105.17500000
_cell_angle_beta   103.15500000
_cell_angle_gamma   117.49500000
_symmetry_Int_Tables_number   1
_chemical_formula_structural   InH24C40(NO4)2
_chemical_formula_sum   'In4 H96 C160 N8 O32'
_cell_volume   7613.92188638
_cell_formula_units_Z   4
loop_
 _symmetry_equiv_pos_site_id
 _symmetry_equiv_pos_as_xyz
  1  'x, y, z'
loop_
 _atom_site_type_symbol
 _atom_site_label
 _atom_site_symmetry_multiplicity
 _atom_site_fract_x
 _atom_site_fract_y
 _atom_site_fract_z
 _atom_site_occupancy
  In  In0  1  0.93823000  0.99731000  0.18659000  1.0
  In  In1  1  0.81067000  0.25157000  0.31342000  1.0
  In  In2  1  0.06172000  0.00267000  0.81337000  1.0
  In  In3  1  0.18936000  0.74842000  0.68665000  1.0
  H  H4  1  0.20325000  0.52677000  0.58882000  1.0
  H  H5  1  0.93809000  0.11451000  0.91121000  1.0
  H  H6  1  0.79676000  0.47326000  0.41123000  1.0
  H  H7  1  0.06186000  0.88544000  0.08875000  1.0
  H  H8  1  0.03104000  0.27297000  0.31659000  1.0
  H  H9  1  0.95644000  0.21457000  0.18345000  1.0
  H  H10  1  0.96893000  0.72702000  0.68341000  1.0
  H  H11  1  0.04352000  0.78537000  0.81653000  1.0
  H  H12  1  0.29929000  0.71142000  0.52136000  1.0
  H  H13  1  0.19018000  0.27816000  0.97862000  1.0
  H  H14  1  0.70073000  0.28858000  0.47868000  1.0
  H  H15  1  0.80979000  0.72180000  0.02134000  1.0
  H  H16  1  0.97075000  0.86554000  0.31205000  1.0
  H  H17  1  0.55346000  0.15876000  0.18788000  1.0
  H  H18  1  0.02931000  0.13455000  0.68798000  1.0
  H  H19  1  0.44661000  0.84129000  0.81209000  1.0
  H  H20  1  0.57043000  0.62787000  0.32760000  1.0
  H  H21  1  0.30005000  0.74285000  0.17244000  1.0
  H  H22  1  0.42959000  0.37217000  0.67242000  1.0
  H  H23  1  0.69995000  0.25714000  0.82756000  1.0
  H  H24  1  0.23227000  0.44302000  0.51045000  1.0
  H  H25  1  0.93271000  0.22183000  0.98967000  1.0
  H  H26  1  0.76770000  0.55697000  0.48961000  1.0
  H  H27  1  0.06724000  0.77810000  0.01028000  1.0
  H  H28  1  0.13769000  0.41821000  0.38479000  1.0
  H  H29  1  0.03356000  0.25310000  0.11532000  1.0
  H  H30  1  0.86227000  0.58175000  0.61523000  1.0
  H  H31  1  0.96638000  0.74684000  0.88465000  1.0
  H  H32  1  0.98692000  0.89167000  0.52835000  1.0
  H  H33  1  0.36335000  0.95857000  0.97158000  1.0
  H  H34  1  0.01318000  0.10838000  0.47167000  1.0
  H  H35  1  0.63667000  0.04146000  0.02838000  1.0
  H  H36  1  0.70592000  0.70369000  0.33333333  1.0
  H  H37  1  0.37027000  0.87259000  0.16669000  1.0
  H  H38  1  0.29410000  0.29634000  0.66672000  1.0
  H  H39  1  0.62976000  0.12740000  0.83328000  1.0
  H  H40  1  0.93288000  0.62265000  0.50392000  1.0
  H  H41  1  0.11877000  0.92889000  0.99607000  1.0
  H  H42  1  0.06719000  0.37739000  0.49609000  1.0
  H  H43  1  0.88123000  0.07113000  0.00391000  1.0
  H  H44  1  0.31584000  0.36633000  0.37346000  1.0
  H  H45  1  0.99259000  0.44225000  0.12632000  1.0
  H  H46  1  0.68412000  0.63362000  0.62655000  1.0
  H  H47  1  0.00733000  0.55769000  0.87365000  1.0
  H  H48  1  0.32799000  0.62850000  0.44224000  1.0
  H  H49  1  0.18637000  0.38592000  0.05784000  1.0
  H  H50  1  0.67198000  0.37147000  0.55779000  1.0
  H  H51  1  0.81361000  0.61404000  0.94214000  1.0
  H  H52  1  0.20685000  0.22127000  0.30255000  1.0
  H  H53  1  0.91844000  0.40416000  0.19727000  1.0
  H  H54  1  0.79310000  0.77870000  0.69745000  1.0
  H  H55  1  0.08148000  0.59576000  0.80269000  1.0
  H  H56  1  0.94082000  0.78503000  0.37911000  1.0
  H  H57  1  0.40590000  0.06165000  0.12077000  1.0
  H  H58  1  0.05923000  0.21501000  0.62090000  1.0
  H  H59  1  0.59417000  0.93839000  0.87921000  1.0
  H  H60  1  0.66708000  0.65282000  0.52790000  1.0
  H  H61  1  0.12477000  0.63921000  0.97210000  1.0
  H  H62  1  0.33295000  0.34722000  0.47213000  1.0
  H  H63  1  0.87517000  0.36077000  0.02788000  1.0
  H  H64  1  0.09073000  0.88019000  0.59867000  1.0
  H  H65  1  0.28154000  0.99210000  0.90133000  1.0
  H  H66  1  0.90935000  0.11986000  0.40136000  1.0
  H  H67  1  0.71848000  0.00794000  0.09864000  1.0
  H  H68  1  0.82844000  0.63275000  0.43241000  1.0
  H  H69  1  0.20039000  0.89596000  0.06753000  1.0
  H  H70  1  0.17163000  0.36730000  0.56762000  1.0
  H  H71  1  0.79961000  0.10406000  0.93244000  1.0
  H  H72  1  0.43180000  0.58595000  0.53223000  1.0
  H  H73  1  0.05363000  0.39955000  0.96778000  1.0
  H  H74  1  0.56821000  0.41409000  0.46781000  1.0
  H  H75  1  0.94630000  0.60043000  0.03217000  1.0
  H  H76  1  0.56626000  0.65047000  0.53374000  1.0
  H  H77  1  0.11655000  0.53252000  0.96627000  1.0
  H  H78  1  0.43374000  0.34956000  0.46628000  1.0
  H  H79  1  0.88341000  0.46747000  0.03371000  1.0
  H  H80  1  0.81432000  0.93599000  0.35125000  1.0
  H  H81  1  0.58489000  0.96322000  0.14901000  1.0
  H  H82  1  0.18575000  0.06411000  0.64882000  1.0
  H  H83  1  0.41519000  0.03679000  0.85092000  1.0
  H  H84  1  0.78703000  0.85996000  0.42197000  1.0
  H  H85  1  0.43817000  0.86515000  0.07821000  1.0
  H  H86  1  0.21302000  0.14008000  0.57806000  1.0
  H  H87  1  0.56191000  0.13486000  0.92174000  1.0
  H  H88  1  0.80192000  0.72898000  0.53395000  1.0
  H  H89  1  0.19501000  0.76797000  0.96603000  1.0
  H  H90  1  0.19810000  0.27103000  0.46607000  1.0
  H  H91  1  0.80496000  0.23201000  0.03394000  1.0
  H  H92  1  0.32998000  0.46175000  0.31777000  1.0
  H  H93  1  0.14404000  0.51217000  0.18226000  1.0
  H  H94  1  0.67001000  0.53826000  0.68227000  1.0
  H  H95  1  0.85591000  0.48778000  0.81773000  1.0
  H  H96  1  0.46428000  0.52676000  0.31881000  1.0
  H  H97  1  0.20794000  0.64546000  0.18122000  1.0
  H  H98  1  0.53571000  0.47325000  0.68122000  1.0
  H  H99  1  0.79204000  0.35452000  0.81877000  1.0
  C  C100  1  0.11314000  0.23891000  0.30582000  1.0
  C  C101  1  0.93293000  0.30727000  0.19407000  1.0
  C  C102  1  0.88683000  0.76107000  0.69419000  1.0
  C  C103  1  0.06699000  0.69266000  0.80589000  1.0
  C  C104  1  0.05004000  0.15183000  0.26426000  1.0
  C  C105  1  0.88748000  0.28570000  0.23569000  1.0
  C  C106  1  0.94992000  0.84818000  0.73571000  1.0
  C  C107  1  0.11249000  0.71425000  0.76433000  1.0
  C  C108  1  0.24963000  0.62333000  0.55910000  1.0
  C  C109  1  0.06437000  0.19070000  0.94090000  1.0
  C  C110  1  0.75039000  0.37669000  0.44096000  1.0
  C  C111  1  0.93559000  0.80928000  0.05906000  1.0
  C  C112  1  0.37143000  0.51910000  0.42498000  1.0
  C  C113  1  0.09410000  0.44647000  0.07504000  1.0
  C  C114  1  0.62855000  0.48089000  0.57506000  1.0
  C  C115  1  0.90583000  0.55349000  0.92494000  1.0
  C  C116  1  0.22998000  0.67118000  0.60440000  1.0
  C  C117  1  0.06691000  0.12576000  0.89555000  1.0
  C  C118  1  0.77008000  0.32886000  0.39567000  1.0
  C  C119  1  0.93306000  0.87423000  0.10440000  1.0
  C  C120  1  0.23069000  0.54784000  0.55636000  1.0
  C  C121  1  0.99161000  0.17442000  0.94367000  1.0
  C  C122  1  0.76932000  0.45218000  0.44369000  1.0
  C  C123  1  0.00835000  0.82553000  0.05628000  1.0
  C  C124  1  0.09365000  0.29434000  0.32920000  1.0
  C  C125  1  0.96511000  0.26449000  0.17077000  1.0
  C  C126  1  0.90632000  0.70564000  0.67081000  1.0
  C  C127  1  0.03482000  0.73543000  0.82919000  1.0
  C  C128  1  0.23421000  0.40208000  0.38406000  1.0
  C  C129  1  0.01790000  0.35015000  0.11588000  1.0
  C  C130  1  0.76577000  0.59789000  0.61598000  1.0
  C  C131  1  0.98200000  0.64977000  0.88407000  1.0
  C  C132  1  0.28137000  0.53110000  0.47195000  1.0
  C  C133  1  0.05925000  0.30950000  0.02813000  1.0
  C  C134  1  0.71860000  0.46888000  0.52809000  1.0
  C  C135  1  0.94070000  0.69045000  0.97183000  1.0
  C  C136  1  0.28562000  0.65284000  0.51860000  1.0
  C  C137  1  0.13435000  0.26721000  0.98140000  1.0
  C  C138  1  0.71438000  0.34717000  0.48144000  1.0
  C  C139  1  0.86562000  0.73276000  0.01856000  1.0
  C  C140  1  0.07801000  0.74496000  0.59850000  1.0
  C  C141  1  0.14641000  0.97949000  0.90154000  1.0
  C  C142  1  0.92206000  0.25508000  0.40157000  1.0
  C  C143  1  0.85354000  0.02046000  0.09838000  1.0
  C  C144  1  0.93079000  0.86354000  0.33659000  1.0
  C  C145  1  0.52697000  0.09426000  0.16340000  1.0
  C  C146  1  0.06927000  0.13654000  0.66344000  1.0
  C  C147  1  0.47310000  0.90578000  0.83658000  1.0
  C  C148  1  0.90157000  0.76269000  0.47731000  1.0
  C  C149  1  0.28546000  0.92425000  0.02265000  1.0
  C  C150  1  0.09849000  0.23736000  0.52272000  1.0
  C  C151  1  0.71455000  0.07577000  0.97731000  1.0
  C  C152  1  0.62068000  0.64953000  0.37302000  1.0
  C  C153  1  0.27632000  0.74767000  0.12701000  1.0
  C  C154  1  0.37934000  0.35050000  0.62701000  1.0
  C  C155  1  0.72367000  0.25232000  0.87298000  1.0
  C  C156  1  0.52680000  0.59404000  0.42641000  1.0
  C  C157  1  0.16748000  0.60038000  0.07361000  1.0
  C  C158  1  0.47320000  0.40599000  0.57362000  1.0
  C  C159  1  0.83246000  0.39959000  0.92638000  1.0
  C  C160  1  0.24665000  0.50179000  0.51320000  1.0
  C  C161  1  0.98872000  0.23351000  0.98687000  1.0
  C  C162  1  0.75333000  0.49820000  0.48685000  1.0
  C  C163  1  0.01123000  0.76644000  0.01308000  1.0
  C  C164  1  0.01714000  0.75092000  0.55490000  1.0
  C  C165  1  0.19604000  0.96225000  0.94511000  1.0
  C  C166  1  0.98294000  0.24913000  0.44515000  1.0
  C  C167  1  0.80394000  0.03774000  0.05483000  1.0
  C  C168  1  0.60701000  0.63504000  0.42777000  1.0
  C  C169  1  0.20708000  0.67925000  0.07225000  1.0
  C  C170  1  0.39300000  0.36499000  0.57226000  1.0
  C  C171  1  0.79288000  0.32073000  0.92774000  1.0
  C  C172  1  0.15343000  0.37545000  0.36745000  1.0
  C  C173  1  0.00800000  0.28607000  0.13257000  1.0
  C  C174  1  0.84654000  0.62452000  0.63259000  1.0
  C  C175  1  0.99191000  0.71385000  0.86738000  1.0
  C  C176  1  0.89369000  0.90445000  0.32745000  1.0
  C  C177  1  0.57707000  0.06638000  0.17264000  1.0
  C  C178  1  0.10637000  0.09564000  0.67258000  1.0
  C  C179  1  0.42300000  0.93364000  0.82732000  1.0
  C  C180  1  0.97579000  0.83302000  0.52278000  1.0
  C  C181  1  0.31028000  0.95300000  0.97717000  1.0
  C  C182  1  0.02429000  0.16702000  0.47724000  1.0
  C  C183  1  0.68974000  0.04703000  0.02280000  1.0
  C  C184  1  0.69703000  0.69289000  0.37604000  1.0
  C  C185  1  0.31675000  0.82098000  0.12396000  1.0
  C  C186  1  0.30300000  0.30714000  0.62399000  1.0
  C  C187  1  0.68326000  0.17901000  0.87601000  1.0
  C  C188  1  0.94336000  0.68085000  0.50864000  1.0
  C  C189  1  0.17228000  0.93471000  0.99137000  1.0
  C  C190  1  0.05672000  0.31920000  0.49140000  1.0
  C  C191  1  0.82771000  0.06529000  0.00858000  1.0
  C  C192  1  0.25354000  0.34613000  0.36042000  1.0
  C  C193  1  0.98545000  0.39302000  0.13940000  1.0
  C  C194  1  0.74643000  0.65384000  0.63962000  1.0
  C  C195  1  0.01446000  0.60690000  0.86055000  1.0
  C  C196  1  0.76395000  0.72316000  0.43433000  1.0
  C  C197  1  0.28882000  0.82959000  0.06564000  1.0
  C  C198  1  0.23609000  0.27687000  0.56569000  1.0
  C  C199  1  0.71119000  0.17040000  0.93433000  1.0
  C  C200  1  0.86068000  0.81618000  0.40329000  1.0
  C  C201  1  0.41298000  0.95741000  0.09672000  1.0
  C  C202  1  0.13936000  0.18387000  0.59673000  1.0
  C  C203  1  0.58707000  0.04261000  0.90323000  1.0
  C  C204  1  0.30152000  0.60703000  0.47505000  1.0
  C  C205  1  0.13210000  0.32663000  0.02501000  1.0
  C  C206  1  0.69846000  0.39294000  0.52499000  1.0
  C  C207  1  0.86786000  0.67333000  0.97496000  1.0
  C  C208  1  0.19338000  0.26564000  0.32136000  1.0
  C  C209  1  0.94402000  0.37190000  0.17846000  1.0
  C  C210  1  0.80658000  0.73433000  0.67865000  1.0
  C  C211  1  0.05589000  0.62802000  0.82150000  1.0
  C  C212  1  0.91430000  0.81920000  0.37383000  1.0
  C  C213  1  0.44540000  0.04047000  0.12613000  1.0
  C  C214  1  0.08575000  0.18086000  0.62619000  1.0
  C  C215  1  0.55467000  0.95956000  0.87384000  1.0
  C  C216  1  0.67458000  0.66411000  0.48503000  1.0
  C  C217  1  0.17893000  0.68957000  0.01498000  1.0
  C  C218  1  0.32543000  0.33593000  0.51499000  1.0
  C  C219  1  0.82103000  0.31041000  0.98500000  1.0
  C  C220  1  0.03329000  0.82683000  0.56151000  1.0
  C  C221  1  0.26533000  0.97179000  0.93847000  1.0
  C  C222  1  0.96679000  0.17322000  0.43852000  1.0
  C  C223  1  0.73467000  0.02823000  0.06148000  1.0
  C  C224  1  0.88566000  0.68649000  0.46964000  1.0
  C  C225  1  0.21694000  0.91600000  0.03034000  1.0
  C  C226  1  0.11441000  0.31356000  0.53040000  1.0
  C  C227  1  0.78306000  0.08401000  0.96963000  1.0
  C  C228  1  0.43941000  0.57300000  0.48564000  1.0
  C  C229  1  0.08728000  0.45376000  0.01437000  1.0
  C  C230  1  0.56058000  0.42701000  0.51439000  1.0
  C  C231  1  0.91264000  0.54620000  0.98560000  1.0
  C  C232  1  0.51499000  0.60866000  0.48608000  1.0
  C  C233  1  0.12245000  0.52891000  0.01393000  1.0
  C  C234  1  0.48500000  0.39136000  0.51394000  1.0
  C  C235  1  0.87748000  0.47107000  0.98605000  1.0
  C  C236  1  0.84204000  0.90323000  0.35852000  1.0
  C  C237  1  0.54486000  0.98367000  0.14167000  1.0
  C  C238  1  0.15803000  0.09686000  0.64153000  1.0
  C  C239  1  0.45521000  0.01635000  0.85828000  1.0
  C  C240  1  0.82616000  0.86023000  0.39690000  1.0
  C  C241  1  0.46349000  0.92935000  0.10324000  1.0
  C  C242  1  0.17389000  0.13983000  0.60313000  1.0
  C  C243  1  0.53657000  0.07066000  0.89671000  1.0
  C  C244  1  0.75122000  0.70668000  0.48865000  1.0
  C  C245  1  0.21797000  0.76256000  0.01134000  1.0
  C  C246  1  0.24881000  0.29335000  0.51137000  1.0
  C  C247  1  0.78201000  0.23742000  0.98864000  1.0
  C  C248  1  0.38204000  0.50297000  0.36498000  1.0
  C  C249  1  0.13798000  0.51705000  0.13505000  1.0
  C  C250  1  0.61795000  0.49703000  0.63506000  1.0
  C  C251  1  0.86196000  0.48290000  0.86493000  1.0
  C  C252  1  0.45799000  0.54025000  0.36600000  1.0
  C  C253  1  0.17418000  0.59198000  0.13403000  1.0
  C  C254  1  0.54200000  0.45977000  0.63403000  1.0
  C  C255  1  0.82577000  0.40798000  0.86597000  1.0
  C  C256  1  0.90497000  0.94413000  0.28094000  1.0
  C  C257  1  0.66325000  0.12432000  0.21916000  1.0
  C  C258  1  0.09505000  0.05593000  0.71907000  1.0
  C  C259  1  0.33682000  0.87569000  0.78085000  1.0
  N  N260  1  0.29535000  0.48343000  0.42563000  1.0
  N  N261  1  0.05780000  0.36974000  0.07439000  1.0
  N  N262  1  0.70463000  0.51655000  0.57441000  1.0
  N  N263  1  0.94213000  0.63020000  0.92556000  1.0
  N  N264  1  0.84137000  0.76802000  0.43859000  1.0
  N  N265  1  0.32951000  0.90274000  0.06136000  1.0
  N  N266  1  0.15868000  0.23202000  0.56144000  1.0
  N  N267  1  0.67051000  0.09726000  0.93861000  1.0
  O  O268  1  0.07021000  0.10564000  0.23804000  1.0
  O  O269  1  0.86741000  0.33201000  0.26186000  1.0
  O  O270  1  0.92974000  0.89435000  0.76192000  1.0
  O  O271  1  0.13259000  0.66796000  0.73818000  1.0
  O  O272  1  0.19060000  0.63842000  0.63559000  1.0
  O  O273  1  0.00296000  0.05517000  0.86437000  1.0
  O  O274  1  0.80945000  0.36161000  0.36448000  1.0
  O  O275  1  0.99700000  0.94482000  0.13559000  1.0
  O  O276  1  0.05775000  0.67892000  0.60329000  1.0
  O  O277  1  0.07564000  0.95455000  0.89685000  1.0
  O  O278  1  0.94230000  0.32111000  0.39678000  1.0
  O  O279  1  0.92431000  0.04538000  0.10306000  1.0
  O  O280  1  0.25193000  0.74199000  0.61058000  1.0
  O  O281  1  0.13154000  0.14154000  0.88938000  1.0
  O  O282  1  0.74814000  0.25806000  0.38952000  1.0
  O  O283  1  0.86843000  0.85844000  0.11057000  1.0
  O  O284  1  0.97776000  0.12559000  0.25565000  1.0
  O  O285  1  0.87002000  0.22211000  0.24438000  1.0
  O  O286  1  0.02219000  0.87444000  0.74429000  1.0
  O  O287  1  0.12998000  0.77785000  0.75565000  1.0
  O  O288  1  0.14908000  0.80757000  0.63117000  1.0
  O  O289  1  0.17629000  0.01779000  0.86878000  1.0
  O  O290  1  0.85100000  0.19245000  0.36893000  1.0
  O  O291  1  0.82365000  0.98216000  0.13113000  1.0
  O  O292  1  0.96491000  0.95780000  0.26518000  1.0
  O  O293  1  0.69257000  0.19998000  0.23491000  1.0
  O  O294  1  0.03508000  0.04220000  0.73477000  1.0
  O  O295  1  0.30751000  0.80004000  0.76517000  1.0
  O  O296  1  0.85578000  0.95963000  0.25712000  1.0
  O  O297  1  0.70271000  0.09908000  0.24301000  1.0
  O  O298  1  0.14426000  0.04046000  0.74290000  1.0
  O  O299  1  0.29734000  0.90089000  0.75696000  1.0
