# generated using pymatgen
data_UH22PbC36(N2O5)2
_symmetry_space_group_name_H-M   'P 1'
_cell_length_a   11.89460000
_cell_length_b   12.69490000
_cell_length_c   13.06051293
_cell_angle_alpha   61.00023000
_cell_angle_beta   79.60582933
_cell_angle_gamma   68.19230000
_symmetry_Int_Tables_number   1
_chemical_formula_structural   UH22PbC36(N2O5)2
_chemical_formula_sum   'U2 H44 Pb2 C72 N8 O20'
_cell_volume   1601.44298496
_cell_formula_units_Z   2
loop_
 _symmetry_equiv_pos_site_id
 _symmetry_equiv_pos_as_xyz
  1  'x, y, z'
loop_
 _atom_site_type_symbol
 _atom_site_label
 _atom_site_symmetry_multiplicity
 _atom_site_fract_x
 _atom_site_fract_y
 _atom_site_fract_z
 _atom_site_occupancy
  U  U0  1  0.49999000  0.00001000  0.99999000  1.0
  U  U1  1  0.00001000  0.00000000  0.99999000  1.0
  H  H2  1  0.17641000  0.54782000  0.14295000  1.0
  H  H3  1  0.32360000  0.30941000  0.14291000  1.0
  H  H4  1  0.82359000  0.45218000  0.85705000  1.0
  H  H5  1  0.67640000  0.69059000  0.85709000  1.0
  H  H6  1  0.44841000  0.74290000  0.83182000  1.0
  H  H7  1  0.05151000  0.42501000  0.83189000  1.0
  H  H8  1  0.55160000  0.25710000  0.16818000  1.0
  H  H9  1  0.94849000  0.57500000  0.16811000  1.0
  H  H10  1  0.37148000  0.58870000  0.82213000  1.0
  H  H11  1  0.12856000  0.58870000  0.82236000  1.0
  H  H12  1  0.62852000  0.41130000  0.17787000  1.0
  H  H13  1  0.87144000  0.41130000  0.17764000  1.0
  H  H14  1  0.48782000  0.95350000  0.29089000  1.0
  H  H15  1  0.01210000  0.75556000  0.29069000  1.0
  H  H16  1  0.51218000  0.04650000  0.70911000  1.0
  H  H17  1  0.98790000  0.24444000  0.70931000  1.0
  H  H18  1  0.61856000  0.96585000  0.41141000  1.0
  H  H19  1  0.88146000  0.62274000  0.41122000  1.0
  H  H20  1  0.38144000  0.03415000  0.58859000  1.0
  H  H21  1  0.11854000  0.37726000  0.58878000  1.0
  H  H22  1  0.65601000  0.80011000  0.62258000  1.0
  H  H23  1  0.84412000  0.57751000  0.62246000  1.0
  H  H24  1  0.34398000  0.19989000  0.37742000  1.0
  H  H25  1  0.15588000  0.42249000  0.37754000  1.0
  H  H26  1  0.56744000  0.62556000  0.70041000  1.0
  H  H27  1  0.93267000  0.67414000  0.70058000  1.0
  H  H28  1  0.43256000  0.37444000  0.29959000  1.0
  H  H29  1  0.06733000  0.32587000  0.29941000  1.0
  H  H30  1  0.53586000  0.46580000  0.73222000  1.0
  H  H31  1  0.96428000  0.80199000  0.73226000  1.0
  H  H32  1  0.46414000  0.53420000  0.26778000  1.0
  H  H33  1  0.03572000  0.19800000  0.26774000  1.0
  H  H34  1  0.43375000  0.30451000  0.79888000  1.0
  H  H35  1  0.06629000  0.89673000  0.79905000  1.0
  H  H36  1  0.56625000  0.69549000  0.20112000  1.0
  H  H37  1  0.93371000  0.10327000  0.20095000  1.0
  H  H38  1  0.27419000  0.34153000  0.67517000  1.0
  H  H39  1  0.22578000  0.98338000  0.67526000  1.0
  H  H40  1  0.72581000  0.65847000  0.32483000  1.0
  H  H41  1  0.77422000  0.01662000  0.32474000  1.0
  H  H42  1  0.21938000  0.54688000  0.48408000  1.0
  H  H43  1  0.28059000  0.96899000  0.48400000  1.0
  H  H44  1  0.78062000  0.45312000  0.51592000  1.0
  H  H45  1  0.71941000  0.03101000  0.51600000  1.0
  Pb  Pb46  1  0.25007000  0.83797000  0.32400000  1.0
  Pb  Pb47  1  0.74993000  0.16203000  0.67600000  1.0
  C  C48  1  0.27125000  0.55597000  0.98353000  1.0
  C  C49  1  0.22881000  0.46030000  0.98359000  1.0
  C  C50  1  0.72875000  0.44403000  0.01647000  1.0
  C  C51  1  0.77119000  0.53969000  0.01642000  1.0
  C  C52  1  0.23728000  0.58939000  0.07496000  1.0
  C  C53  1  0.26271000  0.33568000  0.07497000  1.0
  C  C54  1  0.76273000  0.41060000  0.92505000  1.0
  C  C55  1  0.73729000  0.66431000  0.92504000  1.0
  C  C56  1  0.27460000  0.68021000  0.07733000  1.0
  C  C57  1  0.22535000  0.24250000  0.07736000  1.0
  C  C58  1  0.72540000  0.31979000  0.92267000  1.0
  C  C59  1  0.77465000  0.75750000  0.92264000  1.0
  C  C60  1  0.35373000  0.73360000  0.99013000  1.0
  C  C61  1  0.14621000  0.27623000  0.99015000  1.0
  C  C62  1  0.64628000  0.26639000  0.00988000  1.0
  C  C63  1  0.85379000  0.72377000  0.00985000  1.0
  C  C64  1  0.38790000  0.69962000  0.89893000  1.0
  C  C65  1  0.11207000  0.40118000  0.89900000  1.0
  C  C66  1  0.61210000  0.30038000  0.10107000  1.0
  C  C67  1  0.88793000  0.59881000  0.10101000  1.0
  C  C68  1  0.34549000  0.61395000  0.89384000  1.0
  C  C69  1  0.15454000  0.49187000  0.89396000  1.0
  C  C70  1  0.65451000  0.38605000  0.10616000  1.0
  C  C71  1  0.84545000  0.50813000  0.10604000  1.0
  C  C72  1  0.22511000  0.71789000  0.17344000  1.0
  C  C73  1  0.27483000  0.10887000  0.17339000  1.0
  C  C74  1  0.77489000  0.28210000  0.82656000  1.0
  C  C75  1  0.72517000  0.89113000  0.82661000  1.0
  C  C76  1  0.40500000  0.82227000  0.99373000  1.0
  C  C77  1  0.09492000  0.18402000  0.99371000  1.0
  C  C78  1  0.59499000  0.17773000  0.00627000  1.0
  C  C79  1  0.90508000  0.81599000  0.00628000  1.0
  C  C80  1  0.50696000  0.88304000  0.38226000  1.0
  C  C81  1  0.99300000  0.73467000  0.38211000  1.0
  C  C82  1  0.49304000  0.11696000  0.61774000  1.0
  C  C83  1  0.00700000  0.26533000  0.61789000  1.0
  C  C84  1  0.58042000  0.88893000  0.44994000  1.0
  C  C85  1  0.91956000  0.66120000  0.44980000  1.0
  C  C86  1  0.41958000  0.11107000  0.55006000  1.0
  C  C87  1  0.08044000  0.33880000  0.55020000  1.0
  C  C88  1  0.60109000  0.79657000  0.56654000  1.0
  C  C89  1  0.89898000  0.63706000  0.56646000  1.0
  C  C90  1  0.39891000  0.20344000  0.43346000  1.0
  C  C91  1  0.10102000  0.36294000  0.43354000  1.0
  C  C92  1  0.55071000  0.69972000  0.61020000  1.0
  C  C93  1  0.94937000  0.69017000  0.61028000  1.0
  C  C94  1  0.44928000  0.30028000  0.38980000  1.0
  C  C95  1  0.05063000  0.30984000  0.38971000  1.0
  C  C96  1  0.47787000  0.69953000  0.53674000  1.0
  C  C97  1  0.02218000  0.76371000  0.53675000  1.0
  C  C98  1  0.52213000  0.30047000  0.46326000  1.0
  C  C99  1  0.97782000  0.23629000  0.46324000  1.0
  C  C100  1  0.42246000  0.59825000  0.57814000  1.0
  C  C101  1  0.07766000  0.82358000  0.57811000  1.0
  C  C102  1  0.57754000  0.40175000  0.42186000  1.0
  C  C103  1  0.92234000  0.17642000  0.42189000  1.0
  C  C104  1  0.46039000  0.48514000  0.68238000  1.0
  C  C105  1  0.03974000  0.83247000  0.68244000  1.0
  C  C106  1  0.53961000  0.51486000  0.31762000  1.0
  C  C107  1  0.96026000  0.16752000  0.31756000  1.0
  C  C108  1  0.40574000  0.39309000  0.71855000  1.0
  C  C109  1  0.09430000  0.88848000  0.71861000  1.0
  C  C110  1  0.59426000  0.60692000  0.28145000  1.0
  C  C111  1  0.90569000  0.11153000  0.28138000  1.0
  C  C112  1  0.31630000  0.41391000  0.64882000  1.0
  C  C113  1  0.18368000  0.93736000  0.64882000  1.0
  C  C114  1  0.68370000  0.58609000  0.35118000  1.0
  C  C115  1  0.81632000  0.06264000  0.35118000  1.0
  C  C116  1  0.28534000  0.52682000  0.54476000  1.0
  C  C117  1  0.21465000  0.92843000  0.54467000  1.0
  C  C118  1  0.71466000  0.47318000  0.45524000  1.0
  C  C119  1  0.78535000  0.07157000  0.45532000  1.0
  N  N120  1  0.45547000  0.79197000  0.42518000  1.0
  N  N121  1  0.04449000  0.78280000  0.42511000  1.0
  N  N122  1  0.54453000  0.20803000  0.57482000  1.0
  N  N123  1  0.95550000  0.21721000  0.57488000  1.0
  N  N124  1  0.33591000  0.61738000  0.51081000  1.0
  N  N125  1  0.16409000  0.87180000  0.51066000  1.0
  N  N126  1  0.66409000  0.38262000  0.48919000  1.0
  N  N127  1  0.83591000  0.12821000  0.48933000  1.0
  O  O128  1  0.38351000  0.12917000  0.89589000  1.0
  O  O129  1  0.11657000  0.97491000  0.89582000  1.0
  O  O130  1  0.61648000  0.87083000  0.10411000  1.0
  O  O131  1  0.88344000  0.02509000  0.10418000  1.0
  O  O132  1  0.14527000  0.82842000  0.14804000  1.0
  O  O133  1  0.35474000  0.02379000  0.14789000  1.0
  O  O134  1  0.85473000  0.17158000  0.85196000  1.0
  O  O135  1  0.64526000  0.97621000  0.85211000  1.0
  O  O136  1  0.26159000  0.63821000  0.27649000  1.0
  O  O137  1  0.23832000  0.08550000  0.27649000  1.0
  O  O138  1  0.73841000  0.36178000  0.72352000  1.0
  O  O139  1  0.76169000  0.91450000  0.72351000  1.0
  O  O140  1  0.39002000  0.84094000  0.08416000  1.0
  O  O141  1  0.10999000  0.07511000  0.08409000  1.0
  O  O142  1  0.60997000  0.15907000  0.91584000  1.0
  O  O143  1  0.89002000  0.92489000  0.91590000  1.0
  O  O144  1  0.46756000  0.87763000  0.90793000  1.0
  O  O145  1  0.03229000  0.21422000  0.90800000  1.0
  O  O146  1  0.53243000  0.12237000  0.09207000  1.0
  O  O147  1  0.96772000  0.78578000  0.09199000  1.0
