# generated using pymatgen
data_Mn2V2H8C2N2O7
_symmetry_space_group_name_H-M   'P 1'
_cell_length_a   4.98721000
_cell_length_b   6.11559000
_cell_length_c   14.28420000
_cell_angle_alpha   90.00010000
_cell_angle_beta   90.00000000
_cell_angle_gamma   89.99990000
_symmetry_Int_Tables_number   1
_chemical_formula_structural   Mn2V2H8C2N2O7
_chemical_formula_sum   'Mn4 V4 H16 C4 N4 O14'
_cell_volume   435.66426618
_cell_formula_units_Z   2
loop_
 _symmetry_equiv_pos_site_id
 _symmetry_equiv_pos_as_xyz
  1  'x, y, z'
loop_
 _atom_site_type_symbol
 _atom_site_label
 _atom_site_symmetry_multiplicity
 _atom_site_fract_x
 _atom_site_fract_y
 _atom_site_fract_z
 _atom_site_occupancy
  Mn  Mn0  1  0.10705000  0.00000000  0.26737000  1.0
  Mn  Mn1  1  0.89295000  0.00000000  0.73263000  1.0
  Mn  Mn2  1  0.60705000  0.50000000  0.23263000  1.0
  Mn  Mn3  1  0.39295000  0.50000000  0.76737000  1.0
  V  V4  1  0.55848000  0.00000000  0.12412000  1.0
  V  V5  1  0.44151000  0.00000000  0.87588000  1.0
  V  V6  1  0.05848000  0.50000000  0.37588000  1.0
  V  V7  1  0.94151000  0.50000000  0.62412000  1.0
  H  H8  1  0.54518000  0.13364000  0.35527000  1.0
  H  H9  1  0.45482000  0.13363000  0.64473000  1.0
  H  H10  1  0.04518000  0.36636000  0.14473000  1.0
  H  H11  1  0.95482000  0.36637000  0.85527000  1.0
  H  H12  1  0.45481000  0.86636000  0.64473000  1.0
  H  H13  1  0.54518000  0.86637000  0.35527000  1.0
  H  H14  1  0.95482000  0.63364000  0.85527000  1.0
  H  H15  1  0.04518000  0.63363000  0.14473000  1.0
  H  H16  1  0.25103000  0.14486000  0.48892000  1.0
  H  H17  1  0.74897000  0.14486000  0.51108000  1.0
  H  H18  1  0.75103000  0.35514000  0.01108000  1.0
  H  H19  1  0.24897000  0.35514000  0.98892000  1.0
  H  H20  1  0.74896000  0.85514000  0.51108000  1.0
  H  H21  1  0.25103000  0.85514000  0.48892000  1.0
  H  H22  1  0.24897000  0.64486000  0.98892000  1.0
  H  H23  1  0.75103000  0.64486000  0.01108000  1.0
  C  C24  1  0.37118000  0.00000000  0.47119000  1.0
  C  C25  1  0.62882000  0.99999000  0.52881000  1.0
  C  C26  1  0.87118000  0.49999000  0.02881000  1.0
  C  C27  1  0.12882000  0.50001000  0.97119000  1.0
  N  N28  1  0.42729000  0.00000000  0.37002000  1.0
  N  N29  1  0.57271000  0.00001000  0.62998000  1.0
  N  N30  1  0.92729000  0.50001000  0.12998000  1.0
  N  N31  1  0.07271000  0.49999000  0.87002000  1.0
  O  O32  1  0.41762000  0.22447000  0.17865000  1.0
  O  O33  1  0.58238000  0.22447000  0.82135000  1.0
  O  O34  1  0.91762000  0.27553000  0.32135000  1.0
  O  O35  1  0.08238000  0.27553000  0.67865000  1.0
  O  O36  1  0.58238000  0.77553000  0.82135000  1.0
  O  O37  1  0.41762000  0.77553000  0.17865000  1.0
  O  O38  1  0.08238000  0.72447000  0.67865000  1.0
  O  O39  1  0.91762000  0.72447000  0.32135000  1.0
  O  O40  1  0.89178000  0.00000000  0.14711000  1.0
  O  O41  1  0.10822000  0.00000000  0.85289000  1.0
  O  O42  1  0.39178000  0.50000000  0.35289000  1.0
  O  O43  1  0.60822000  0.50000000  0.64711000  1.0
  O  O44  1  0.50000000  0.00000000  0.00000000  1.0
  O  O45  1  0.00000000  0.50000000  0.50000000  1.0
