# generated using pymatgen
data_AlH9(C2O)6
_symmetry_space_group_name_H-M   'P 1'
_cell_length_a   6.70931000
_cell_length_b   11.08090000
_cell_length_c   15.30830000
_cell_angle_alpha   81.85870000
_cell_angle_beta   78.09910000
_cell_angle_gamma   73.04420000
_symmetry_Int_Tables_number   1
_chemical_formula_structural   AlH9(C2O)6
_chemical_formula_sum   'Al2 H18 C24 O12'
_cell_volume   1061.18274564
_cell_formula_units_Z   2
loop_
 _symmetry_equiv_pos_site_id
 _symmetry_equiv_pos_as_xyz
  1  'x, y, z'
loop_
 _atom_site_type_symbol
 _atom_site_label
 _atom_site_symmetry_multiplicity
 _atom_site_fract_x
 _atom_site_fract_y
 _atom_site_fract_z
 _atom_site_occupancy
  Al  Al0  1  0.50000000  0.50000000  0.50000000  1.0
  Al  Al1  1  0.00001000  0.49999000  0.50000000  1.0
  H  H2  1  0.22652000  0.63020000  0.41751000  1.0
  H  H3  1  0.77351000  0.36977000  0.58248000  1.0
  H  H4  1  0.69465000  0.11537000  0.56162000  1.0
  H  H5  1  0.30538000  0.88462000  0.43838000  1.0
  H  H6  1  0.69716000  0.53557000  0.93272000  1.0
  H  H7  1  0.30281000  0.46440000  0.06728000  1.0
  H  H8  1  0.56615000  0.50728000  0.22546000  1.0
  H  H9  1  0.63845000  0.51889000  0.06219000  1.0
  H  H10  1  0.43381000  0.49276000  0.77454000  1.0
  H  H11  1  0.36150000  0.48114000  0.93781000  1.0
  H  H12  1  0.93686000  0.93558000  0.60251000  1.0
  H  H13  1  0.85653000  0.79311000  0.62767000  1.0
  H  H14  1  0.01619000  0.81858000  0.52451000  1.0
  H  H15  1  0.98385000  0.18141000  0.47549000  1.0
  H  H16  1  0.14351000  0.20689000  0.37233000  1.0
  H  H17  1  0.06319000  0.06441000  0.39748000  1.0
  H  H18  1  0.79729000  0.54715000  0.69913000  1.0
  H  H19  1  0.20270000  0.45282000  0.30087000  1.0
  C  C20  1  0.83630000  0.48382000  0.33812000  1.0
  C  C21  1  0.63893000  0.72840000  0.49409000  1.0
  C  C22  1  0.16369000  0.51619000  0.66188000  1.0
  C  C23  1  0.36109000  0.27159000  0.50592000  1.0
  C  C24  1  0.57387000  0.86840000  0.49855000  1.0
  C  C25  1  0.42616000  0.13160000  0.50145000  1.0
  C  C26  1  0.68987000  0.93165000  0.53437000  1.0
  C  C27  1  0.31019000  0.06833000  0.46562000  1.0
  C  C28  1  0.61061000  0.06298000  0.53431000  1.0
  C  C29  1  0.38943000  0.93702000  0.46569000  1.0
  C  C30  1  0.11194000  0.51763000  0.75977000  1.0
  C  C31  1  0.88803000  0.48239000  0.24023000  1.0
  C  C32  1  0.90172000  0.53155000  0.80678000  1.0
  C  C33  1  0.86112000  0.52482000  0.90053000  1.0
  C  C34  1  0.09825000  0.46845000  0.19322000  1.0
  C  C35  1  0.13884000  0.47518000  0.09947000  1.0
  C  C36  1  0.72701000  0.49926000  0.19003000  1.0
  C  C37  1  0.76930000  0.50539000  0.09750000  1.0
  C  C38  1  0.27295000  0.50076000  0.80997000  1.0
  C  C39  1  0.23065000  0.49464000  0.90250000  1.0
  C  C40  1  0.02289000  0.50492000  0.95029000  1.0
  C  C41  1  0.97706000  0.49509000  0.04972000  1.0
  C  C42  1  0.88509000  0.86660000  0.57423000  1.0
  C  C43  1  0.11496000  0.13340000  0.42576000  1.0
  O  O44  1  0.64595000  0.49732000  0.37752000  1.0
  O  O45  1  0.83609000  0.67160000  0.48488000  1.0
  O  O46  1  0.00791000  0.52647000  0.62052000  1.0
  O  O47  1  0.50757000  0.32542000  0.50154000  1.0
  O  O48  1  0.35404000  0.50269000  0.62249000  1.0
  O  O49  1  0.16395000  0.32838000  0.51512000  1.0
  O  O50  1  0.99210000  0.47353000  0.37948000  1.0
  O  O51  1  0.49246000  0.67458000  0.49847000  1.0
  O  O52  1  0.24543000  0.55181000  0.45590000  1.0
  O  O53  1  0.75458000  0.44818000  0.54411000  1.0
  O  O54  1  0.73558000  0.55068000  0.76449000  1.0
  O  O55  1  0.26441000  0.44930000  0.23550000  1.0
