# generated using pymatgen
data_Cu3H16C14(IN3)2
_symmetry_space_group_name_H-M   'P 1'
_cell_length_a   8.29123000
_cell_length_b   11.47390000
_cell_length_c   12.27990000
_cell_angle_alpha   86.05090000
_cell_angle_beta   71.20150000
_cell_angle_gamma   89.71710000
_symmetry_Int_Tables_number   1
_chemical_formula_structural   Cu3H16C14(IN3)2
_chemical_formula_sum   'Cu6 H32 C28 I4 N12'
_cell_volume   1103.09500505
_cell_formula_units_Z   2
loop_
 _symmetry_equiv_pos_site_id
 _symmetry_equiv_pos_as_xyz
  1  'x, y, z'
loop_
 _atom_site_type_symbol
 _atom_site_label
 _atom_site_symmetry_multiplicity
 _atom_site_fract_x
 _atom_site_fract_y
 _atom_site_fract_z
 _atom_site_occupancy
  Cu  Cu0  1  0.52733000  0.10306000  0.48155000  1.0
  Cu  Cu1  1  0.47268000  0.89693000  0.51843000  1.0
  Cu  Cu2  1  0.79649000  0.59243000  0.47236000  1.0
  Cu  Cu3  1  0.20353000  0.40756000  0.52763000  1.0
  Cu  Cu4  1  0.97236000  0.54116000  0.91534000  1.0
  Cu  Cu5  1  0.02762000  0.45882000  0.08467000  1.0
  H  H6  1  0.66816000  0.30421000  0.59042000  1.0
  H  H7  1  0.33188000  0.69577000  0.40955000  1.0
  H  H8  1  0.53296000  0.30341000  0.28772000  1.0
  H  H9  1  0.46703000  0.69659000  0.71226000  1.0
  H  H10  1  0.67268000  0.55637000  0.19905000  1.0
  H  H11  1  0.32731000  0.44365000  0.80096000  1.0
  H  H12  1  0.98027000  0.71803000  0.21042000  1.0
  H  H13  1  0.01972000  0.28197000  0.78958000  1.0
  H  H14  1  0.76963000  0.74106000  0.10620000  1.0
  H  H15  1  0.23034000  0.25895000  0.89382000  1.0
  H  H16  1  0.63527000  0.82089000  0.21958000  1.0
  H  H17  1  0.36472000  0.17912000  0.78044000  1.0
  H  H18  1  0.99917000  0.88553000  0.06288000  1.0
  H  H19  1  0.00080000  0.11448000  0.93713000  1.0
  H  H20  1  0.81158000  0.95829000  0.06103000  1.0
  H  H21  1  0.18840000  0.04172000  0.93899000  1.0
  H  H22  1  0.76869000  0.02982000  0.25201000  1.0
  H  H23  1  0.23131000  0.97019000  0.74801000  1.0
  H  H24  1  0.97828000  0.06654000  0.16157000  1.0
  H  H25  1  0.02172000  0.93345000  0.83845000  1.0
  H  H26  1  0.09609000  0.90365000  0.25547000  1.0
  H  H27  1  0.90391000  0.09635000  0.74453000  1.0
  H  H28  1  0.96404000  0.98942000  0.36239000  1.0
  H  H29  1  0.03598000  0.01058000  0.63761000  1.0
  H  H30  1  0.71938000  0.85267000  0.39103000  1.0
  H  H31  1  0.28062000  0.14734000  0.60899000  1.0
  H  H32  1  0.00710000  0.87676000  0.51487000  1.0
  H  H33  1  0.99290000  0.12324000  0.48513000  1.0
  H  H34  1  0.05105000  0.76942000  0.74451000  1.0
  H  H35  1  0.94897000  0.23058000  0.25550000  1.0
  H  H36  1  0.80427000  0.45122000  0.73891000  1.0
  H  H37  1  0.19574000  0.54878000  0.26108000  1.0
  C  C38  1  0.64991000  0.33555000  0.50977000  1.0
  C  C39  1  0.35012000  0.66444000  0.49021000  1.0
  C  C40  1  0.57939000  0.33630000  0.35309000  1.0
  C  C41  1  0.42061000  0.66371000  0.64690000  1.0
  C  C42  1  0.64934000  0.44485000  0.35788000  1.0
  C  C43  1  0.35066000  0.55517000  0.64211000  1.0
  C  C44  1  0.69473000  0.54933000  0.28255000  1.0
  C  C45  1  0.30525000  0.45068000  0.71744000  1.0
  C  C46  1  0.84686000  0.73942000  0.25880000  1.0
  C  C47  1  0.15311000  0.26057000  0.74119000  1.0
  C  C48  1  0.76869000  0.79973000  0.17365000  1.0
  C  C49  1  0.23128000  0.20030000  0.82634000  1.0
  C  C50  1  0.87251000  0.91125000  0.11801000  1.0
  C  C51  1  0.12748000  0.08877000  0.88200000  1.0
  C  C52  1  0.89321000  0.99274000  0.20653000  1.0
  C  C53  1  0.10678000  0.00727000  0.79347000  1.0
  C  C54  1  0.96329000  0.93016000  0.29584000  1.0
  C  C55  1  0.03672000  0.06985000  0.70415000  1.0
  C  C56  1  0.85265000  0.82267000  0.35078000  1.0
  C  C57  1  0.14736000  0.17734000  0.64923000  1.0
  C  C58  1  0.95198000  0.78933000  0.51963000  1.0
  C  C59  1  0.04804000  0.21067000  0.48038000  1.0
  C  C60  1  0.94072000  0.70546000  0.61408000  1.0
  C  C61  1  0.05929000  0.29453000  0.38591000  1.0
  C  C62  1  0.98511000  0.70408000  0.71397000  1.0
  C  C63  1  0.01490000  0.29591000  0.28602000  1.0
  C  C64  1  0.85915000  0.53842000  0.71145000  1.0
  C  C65  1  0.14086000  0.46157000  0.28854000  1.0
  I  I66  1  0.63088000  0.99577000  0.63775000  1.0
  I  I67  1  0.36910000  0.00422000  0.36224000  1.0
  I  I68  1  0.80478000  0.35413000  0.01852000  1.0
  I  I69  1  0.19520000  0.64587000  0.98149000  1.0
  N  N70  1  0.58099000  0.26776000  0.44886000  1.0
  N  N71  1  0.41902000  0.73223000  0.55113000  1.0
  N  N72  1  0.69237000  0.44248000  0.45882000  1.0
  N  N73  1  0.30765000  0.55751000  0.54119000  1.0
  N  N74  1  0.76693000  0.63079000  0.31936000  1.0
  N  N75  1  0.23305000  0.36920000  0.68065000  1.0
  N  N76  1  0.89131000  0.75410000  0.44246000  1.0
  N  N77  1  0.10871000  0.24589000  0.55756000  1.0
  N  N78  1  0.86058000  0.59878000  0.61411000  1.0
  N  N79  1  0.13943000  0.40119000  0.38588000  1.0
  N  N80  1  0.93301000  0.59894000  0.77491000  1.0
  N  N81  1  0.06700000  0.40105000  0.22509000  1.0
