# generated using pymatgen
data_ZnH15C12NO4
_symmetry_space_group_name_H-M   'P 1'
_cell_length_a   6.74985000
_cell_length_b   12.56220000
_cell_length_c   12.56288126
_cell_angle_alpha   60.02137938
_cell_angle_beta   89.96959748
_cell_angle_gamma   89.98150000
_symmetry_Int_Tables_number   1
_chemical_formula_structural   ZnH15C12NO4
_chemical_formula_sum   'Zn3 H45 C36 N3 O12'
_cell_volume   922.72687677
_cell_formula_units_Z   3
loop_
 _symmetry_equiv_pos_site_id
 _symmetry_equiv_pos_as_xyz
  1  'x, y, z'
loop_
 _atom_site_type_symbol
 _atom_site_label
 _atom_site_symmetry_multiplicity
 _atom_site_fract_x
 _atom_site_fract_y
 _atom_site_fract_z
 _atom_site_occupancy
  Zn  Zn0  1  0.11235000  0.18247000  0.35531000  1.0
  Zn  Zn1  1  0.44543000  0.46228000  0.18256000  1.0
  Zn  Zn2  1  0.77879000  0.35518000  0.46224000  1.0
  H  H3  1  0.61555000  0.08469000  0.17177000  1.0
  H  H4  1  0.94835000  0.74384000  0.08402000  1.0
  H  H5  1  0.28141000  0.17179000  0.74381000  1.0
  H  H6  1  0.30482000  0.80296000  0.13778000  1.0
  H  H7  1  0.63661000  0.05911000  0.80260000  1.0
  H  H8  1  0.96926000  0.13749000  0.05926000  1.0
  H  H9  1  0.60660000  0.93154000  0.10281000  1.0
  H  H10  1  0.93890000  0.96571000  0.93052000  1.0
  H  H11  1  0.27147000  0.10269000  0.96586000  1.0
  H  H12  1  0.01446000  0.82998000  0.24324000  1.0
  H  H13  1  0.34630000  0.92646000  0.83018000  1.0
  H  H14  1  0.67924000  0.24316000  0.92663000  1.0
  H  H15  1  0.85955000  0.90484000  0.34456000  1.0
  H  H16  1  0.19198000  0.75030000  0.90525000  1.0
  H  H17  1  0.52516000  0.34466000  0.75037000  1.0
  H  H18  1  0.62934000  0.02291000  0.39723000  1.0
  H  H19  1  0.96206000  0.57956000  0.02338000  1.0
  H  H20  1  0.29553000  0.39764000  0.57966000  1.0
  H  H21  1  0.85403000  0.94831000  0.70236000  1.0
  H  H22  1  0.18678000  0.34920000  0.94842000  1.0
  H  H23  1  0.52148000  0.70225000  0.34934000  1.0
  H  H24  1  0.05240000  0.91614000  0.62966000  1.0
  H  H25  1  0.38519000  0.45389000  0.91649000  1.0
  H  H26  1  0.71962000  0.62932000  0.45420000  1.0
  H  H27  1  0.91078000  0.79399000  0.74717000  1.0
  H  H28  1  0.24395000  0.45866000  0.79418000  1.0
  H  H29  1  0.57879000  0.74722000  0.45868000  1.0
  H  H30  1  0.81305000  0.82887000  0.54209000  1.0
  H  H31  1  0.14605000  0.62884000  0.82922000  1.0
  H  H32  1  0.48008000  0.54224000  0.62897000  1.0
  H  H33  1  0.48501000  0.90729000  0.65704000  1.0
  H  H34  1  0.81802000  0.43568000  0.90736000  1.0
  H  H35  1  0.15238000  0.65761000  0.43571000  1.0
  H  H36  1  0.55375000  0.75413000  0.70012000  1.0
  H  H37  1  0.88688000  0.54572000  0.75425000  1.0
  H  H38  1  0.22141000  0.70080000  0.54563000  1.0
  H  H39  1  0.44987000  0.85268000  0.55256000  1.0
  H  H40  1  0.78267000  0.59475000  0.85281000  1.0
  H  H41  1  0.11680000  0.55334000  0.59476000  1.0
  H  H42  1  0.14923000  0.20700000  0.54797000  1.0
  H  H43  1  0.48277000  0.24520000  0.20694000  1.0
  H  H44  1  0.81590000  0.54792000  0.24506000  1.0
  H  H45  1  0.35939000  0.14865000  0.53176000  1.0
  H  H46  1  0.69305000  0.31963000  0.14871000  1.0
  H  H47  1  0.02623000  0.53169000  0.31941000  1.0
  C  C48  1  0.48428000  0.02778000  0.18829000  1.0
  C  C49  1  0.81690000  0.78403000  0.02725000  1.0
  C  C50  1  0.14987000  0.18826000  0.78409000  1.0
  C  C51  1  0.32195000  0.04524000  0.24988000  1.0
  C  C52  1  0.65468000  0.70491000  0.04506000  1.0
  C  C53  1  0.98791000  0.24997000  0.70491000  1.0
  C  C54  1  0.30818000  0.87052000  0.16773000  1.0
  C  C55  1  0.64015000  0.96164000  0.87014000  1.0
  C  C56  1  0.97288000  0.16760000  0.96174000  1.0
  C  C57  1  0.14918000  0.97021000  0.27046000  1.0
  C  C58  1  0.48176000  0.75917000  0.97021000  1.0
  C  C59  1  0.81482000  0.27050000  0.75925000  1.0
  C  C60  1  0.47826000  0.94231000  0.14924000  1.0
  C  C61  1  0.81055000  0.90843000  0.94164000  1.0
  C  C62  1  0.14331000  0.14916000  0.90857000  1.0
  C  C63  1  0.14760000  0.88547000  0.22718000  1.0
  C  C64  1  0.47966000  0.88716000  0.88546000  1.0
  C  C65  1  0.81258000  0.22714000  0.88725000  1.0
  C  C66  1  0.97425000  0.97144000  0.33520000  1.0
  C  C67  1  0.30685000  0.69315000  0.97170000  1.0
  C  C68  1  0.64008000  0.33527000  0.69320000  1.0
  C  C69  1  0.75722000  0.02025000  0.45342000  1.0
  C  C70  1  0.09001000  0.52609000  0.02059000  1.0
  C  C71  1  0.42360000  0.45369000  0.52617000  1.0
  C  C72  1  0.90287000  0.88763000  0.66809000  1.0
  C  C73  1  0.23575000  0.44407000  0.88785000  1.0
  C  C74  1  0.57030000  0.66805000  0.44425000  1.0
  C  C75  1  0.75798000  0.89217000  0.57241000  1.0
  C  C76  1  0.09081000  0.53526000  0.89241000  1.0
  C  C77  1  0.42497000  0.57268000  0.53537000  1.0
  C  C78  1  0.54918000  0.84945000  0.62354000  1.0
  C  C79  1  0.88210000  0.52701000  0.84957000  1.0
  C  C80  1  0.21643000  0.62412000  0.52702000  1.0
  C  C81  1  0.72266000  0.12798000  0.47632000  1.0
  C  C82  1  0.05580000  0.39550000  0.12828000  1.0
  C  C83  1  0.38920000  0.47655000  0.39560000  1.0
  N  N84  1  0.94057000  0.04021000  0.38318000  1.0
  N  N85  1  0.27334000  0.57641000  0.04048000  1.0
  N  N86  1  0.60671000  0.38322000  0.57647000  1.0
  O  O87  1  0.33797000  0.12702000  0.28609000  1.0
  O  O88  1  0.67080000  0.58703000  0.12704000  1.0
  O  O89  1  0.00431000  0.28625000  0.58695000  1.0
  O  O90  1  0.59636000  0.12045000  0.55249000  1.0
  O  O91  1  0.92990000  0.32667000  0.12076000  1.0
  O  O92  1  0.26314000  0.55284000  0.32695000  1.0
  O  O93  1  0.82836000  0.22617000  0.41172000  1.0
  O  O94  1  0.16142000  0.36211000  0.22643000  1.0
  O  O95  1  0.49466000  0.41172000  0.36213000  1.0
  O  O96  1  0.21346000  0.15408000  0.51818000  1.0
  O  O97  1  0.54711000  0.32786000  0.15415000  1.0
  O  O98  1  0.88036000  0.51784000  0.32769000  1.0
