# generated using pymatgen
data_AgH7C8(N2O)3
_symmetry_space_group_name_H-M   'P 1'
_cell_length_a   6.78237000
_cell_length_b   9.63895246
_cell_length_c   9.63934000
_cell_angle_alpha   118.16084603
_cell_angle_beta   98.39820000
_cell_angle_gamma   98.37132227
_symmetry_Int_Tables_number   1
_chemical_formula_structural   AgH7C8(N2O)3
_chemical_formula_sum   'Ag2 H14 C16 N12 O6'
_cell_volume   532.73417737
_cell_formula_units_Z   2
loop_
 _symmetry_equiv_pos_site_id
 _symmetry_equiv_pos_as_xyz
  1  'x, y, z'
loop_
 _atom_site_type_symbol
 _atom_site_label
 _atom_site_symmetry_multiplicity
 _atom_site_fract_x
 _atom_site_fract_y
 _atom_site_fract_z
 _atom_site_occupancy
  Ag  Ag0  1  0.25786000  0.12260000  0.88842000  1.0
  Ag  Ag1  1  0.75775000  0.88865000  0.12293000  1.0
  H  H2  1  0.48165000  0.16854000  0.45724000  1.0
  H  H3  1  0.98229000  0.45711000  0.16829000  1.0
  H  H4  1  0.32435000  0.87446000  0.36255000  1.0
  H  H5  1  0.82495000  0.36236000  0.87418000  1.0
  H  H6  1  0.14136000  0.68999000  0.06533000  1.0
  H  H7  1  0.64152000  0.06517000  0.68992000  1.0
  H  H8  1  0.12565000  0.80466000  0.88153000  1.0
  H  H9  1  0.62531000  0.88168000  0.80488000  1.0
  H  H10  1  0.54280000  0.38497000  0.41188000  1.0
  H  H11  1  0.04358000  0.41192000  0.38488000  1.0
  H  H12  1  0.48425000  0.51230000  0.00520000  1.0
  H  H13  1  0.98402000  0.00525000  0.51228000  1.0
  H  H14  1  0.69625000  0.63841000  0.49815000  1.0
  H  H15  1  0.19695000  0.49807000  0.63839000  1.0
  C  C16  1  0.37870000  0.13875000  0.22121000  1.0
  C  C17  1  0.87893000  0.22130000  0.13871000  1.0
  C  C18  1  0.39841000  0.08267000  0.33146000  1.0
  C  C19  1  0.89891000  0.33138000  0.08246000  1.0
  C  C20  1  0.31271000  0.92013000  0.27817000  1.0
  C  C21  1  0.81322000  0.27805000  0.91992000  1.0
  C  C22  1  0.21109000  0.81820000  0.11501000  1.0
  C  C23  1  0.71134000  0.11493000  0.81815000  1.0
  C  C24  1  0.20004000  0.88139000  0.01065000  1.0
  C  C25  1  0.69992000  0.01074000  0.88153000  1.0
  C  C26  1  0.46891000  0.31036000  0.28142000  1.0
  C  C27  1  0.96931000  0.28151000  0.31031000  1.0
  C  C28  1  0.56553000  0.58079000  0.13335000  1.0
  C  C29  1  0.06555000  0.13333000  0.58072000  1.0
  C  C30  1  0.67470000  0.64609000  0.38811000  1.0
  C  C31  1  0.17527000  0.38801000  0.64601000  1.0
  N  N32  1  0.28110000  0.03817000  0.06189000  1.0
  N  N33  1  0.78103000  0.06203000  0.03831000  1.0
  N  N34  1  0.46309000  0.36335000  0.18092000  1.0
  N  N35  1  0.96310000  0.18109000  0.36335000  1.0
  N  N36  1  0.55933000  0.52175000  0.23721000  1.0
  N  N37  1  0.05952000  0.23723000  0.52171000  1.0
  N  N38  1  0.67854000  0.73115000  0.21566000  1.0
  N  N39  1  0.17876000  0.21549000  0.73102000  1.0
  N  N40  1  0.74818000  0.77313000  0.37665000  1.0
  N  N41  1  0.24873000  0.37645000  0.77302000  1.0
  N  N42  1  0.20316000  0.73400000  0.53802000  1.0
  N  N43  1  0.70340000  0.53815000  0.73428000  1.0
  O  O44  1  0.28855000  0.88379000  0.60293000  1.0
  O  O45  1  0.78891000  0.60299000  0.88406000  1.0
  O  O46  1  0.10196000  0.68294000  0.61278000  1.0
  O  O47  1  0.60208000  0.61295000  0.68331000  1.0
  O  O48  1  0.21866000  0.63523000  0.39734000  1.0
  O  O49  1  0.71889000  0.39748000  0.63541000  1.0
