# generated using pymatgen
data_KH7C15N4O
_symmetry_space_group_name_H-M   'P 1'
_cell_length_a   8.03456000
_cell_length_b   9.69465000
_cell_length_c   17.70860000
_cell_angle_alpha   89.99970000
_cell_angle_beta   88.98160000
_cell_angle_gamma   89.99890000
_symmetry_Int_Tables_number   1
_chemical_formula_structural   KH7C15N4O
_chemical_formula_sum   'K4 H28 C60 N16 O4'
_cell_volume   1379.14476119
_cell_formula_units_Z   4
loop_
 _symmetry_equiv_pos_site_id
 _symmetry_equiv_pos_as_xyz
  1  'x, y, z'
loop_
 _atom_site_type_symbol
 _atom_site_label
 _atom_site_symmetry_multiplicity
 _atom_site_fract_x
 _atom_site_fract_y
 _atom_site_fract_z
 _atom_site_occupancy
  K  K0  1  0.03471000  0.36707000  0.90006000  1.0
  K  K1  1  0.46531000  0.86707000  0.09995000  1.0
  K  K2  1  0.96531000  0.63293000  0.09994000  1.0
  K  K3  1  0.53469000  0.13292000  0.90007000  1.0
  H  H4  1  0.78170000  0.37602000  0.53100000  1.0
  H  H5  1  0.71829000  0.87601000  0.46900000  1.0
  H  H6  1  0.21830000  0.62398000  0.46900000  1.0
  H  H7  1  0.28170000  0.12398000  0.53100000  1.0
  H  H8  1  0.76385000  0.21114000  0.48672000  1.0
  H  H9  1  0.73615000  0.71113000  0.51328000  1.0
  H  H10  1  0.23615000  0.78886000  0.51328000  1.0
  H  H11  1  0.26385000  0.28887000  0.48672000  1.0
  H  H12  1  0.94362000  0.31407000  0.47105000  1.0
  H  H13  1  0.55638000  0.81406000  0.52895000  1.0
  H  H14  1  0.05638000  0.68593000  0.52895000  1.0
  H  H15  1  0.44362000  0.18593000  0.47105000  1.0
  H  H16  1  0.17025000  0.31379000  0.72993000  1.0
  H  H17  1  0.32976000  0.81379000  0.27006000  1.0
  H  H18  1  0.82976000  0.68621000  0.27006000  1.0
  H  H19  1  0.67024000  0.18620000  0.72994000  1.0
  H  H20  1  0.97751000  0.91180000  0.67153000  1.0
  H  H21  1  0.52249000  0.41180000  0.32847000  1.0
  H  H22  1  0.02249000  0.08820000  0.32846000  1.0
  H  H23  1  0.47751000  0.58820000  0.67153000  1.0
  H  H24  1  0.84858000  0.01149000  0.55925000  1.0
  H  H25  1  0.65142000  0.51148000  0.44075000  1.0
  H  H26  1  0.15142000  0.98851000  0.44075000  1.0
  H  H27  1  0.34858000  0.48851000  0.55925000  1.0
  H  H28  1  0.03158000  0.41407000  0.61961000  1.0
  H  H29  1  0.46842000  0.91407000  0.38039000  1.0
  H  H30  1  0.96842000  0.58593000  0.38039000  1.0
  H  H31  1  0.53157000  0.08593000  0.61961000  1.0
  C  C32  1  0.15809000  0.05470000  0.77842000  1.0
  C  C33  1  0.34192000  0.55471000  0.22158000  1.0
  C  C34  1  0.84192000  0.94530000  0.22157000  1.0
  C  C35  1  0.65808000  0.44530000  0.77842000  1.0
  C  C36  1  0.08265000  0.10615000  0.70948000  1.0
  C  C37  1  0.41735000  0.60615000  0.29052000  1.0
  C  C38  1  0.91735000  0.89384000  0.29052000  1.0
  C  C39  1  0.58265000  0.39384000  0.70948000  1.0
  C  C40  1  0.09829000  0.24796000  0.69288000  1.0
  C  C41  1  0.40171000  0.74796000  0.30712000  1.0
  C  C42  1  0.90171000  0.75204000  0.30711000  1.0
  C  C43  1  0.59829000  0.25204000  0.69289000  1.0
  C  C44  1  0.02216000  0.30351000  0.63041000  1.0
  C  C45  1  0.47785000  0.80351000  0.36959000  1.0
  C  C46  1  0.97784000  0.69649000  0.36959000  1.0
  C  C47  1  0.52215000  0.19649000  0.63041000  1.0
  C  C48  1  0.93123000  0.21976000  0.58094000  1.0
  C  C49  1  0.56877000  0.71976000  0.41906000  1.0
  C  C50  1  0.06877000  0.78024000  0.41906000  1.0
  C  C51  1  0.43122000  0.28024000  0.58094000  1.0
  C  C52  1  0.91897000  0.07795000  0.59676000  1.0
  C  C53  1  0.58103000  0.57795000  0.40324000  1.0
  C  C54  1  0.08102000  0.92205000  0.40324000  1.0
  C  C55  1  0.41897000  0.42205000  0.59676000  1.0
  C  C56  1  0.99141000  0.02162000  0.66035000  1.0
  C  C57  1  0.50859000  0.52162000  0.33965000  1.0
  C  C58  1  0.00859000  0.97838000  0.33965000  1.0
  C  C59  1  0.49140000  0.47837000  0.66035000  1.0
  C  C60  1  0.13143000  0.90529000  0.80230000  1.0
  C  C61  1  0.36857000  0.40530000  0.19770000  1.0
  C  C62  1  0.86858000  0.09471000  0.19770000  1.0
  C  C63  1  0.63142000  0.59471000  0.80229000  1.0
  C  C64  1  0.20559000  0.80142000  0.75801000  1.0
  C  C65  1  0.29440000  0.30143000  0.24199000  1.0
  C  C66  1  0.79442000  0.19858000  0.24200000  1.0
  C  C67  1  0.70558000  0.69858000  0.75801000  1.0
  C  C68  1  0.30430000  0.83284000  0.69326000  1.0
  C  C69  1  0.19568000  0.33285000  0.30673000  1.0
  C  C70  1  0.69570000  0.16716000  0.30674000  1.0
  C  C71  1  0.80430000  0.66716000  0.69326000  1.0
  C  C72  1  0.18275000  0.65940000  0.77262000  1.0
  C  C73  1  0.31725000  0.15941000  0.22738000  1.0
  C  C74  1  0.81725000  0.34060000  0.22738000  1.0
  C  C75  1  0.68275000  0.84061000  0.77263000  1.0
  C  C76  1  0.03629000  0.88752000  0.86936000  1.0
  C  C77  1  0.46372000  0.38752000  0.13065000  1.0
  C  C78  1  0.96372000  0.11249000  0.13065000  1.0
  C  C79  1  0.53628000  0.61248000  0.86935000  1.0
  C  C80  1  0.00886000  0.76025000  0.90608000  1.0
  C  C81  1  0.49114000  0.26025000  0.09392000  1.0
  C  C82  1  0.99116000  0.23976000  0.09391000  1.0
  C  C83  1  0.50886000  0.73974000  0.90609000  1.0
  C  C84  1  0.95592000  0.00183000  0.90328000  1.0
  C  C85  1  0.54408000  0.50183000  0.09672000  1.0
  C  C86  1  0.04409000  0.99817000  0.09672000  1.0
  C  C87  1  0.45591000  0.49816000  0.90328000  1.0
  C  C88  1  0.85003000  0.28247000  0.51386000  1.0
  C  C89  1  0.64997000  0.78247000  0.48614000  1.0
  C  C90  1  0.14997000  0.71752000  0.48614000  1.0
  C  C91  1  0.35003000  0.21753000  0.51386000  1.0
  N  N92  1  0.38642000  0.85462000  0.63926000  1.0
  N  N93  1  0.11355000  0.35462000  0.36074000  1.0
  N  N94  1  0.61358000  0.14538000  0.36075000  1.0
  N  N95  1  0.88641000  0.64537000  0.63926000  1.0
  N  N96  1  0.16226000  0.54162000  0.78382000  1.0
  N  N97  1  0.33774000  0.04163000  0.21618000  1.0
  N  N98  1  0.83773000  0.45839000  0.21618000  1.0
  N  N99  1  0.66228000  0.95838000  0.78383000  1.0
  N  N100  1  0.98354000  0.65675000  0.93851000  1.0
  N  N101  1  0.51645000  0.15675000  0.06150000  1.0
  N  N102  1  0.01648000  0.34325000  0.06150000  1.0
  N  N103  1  0.48355000  0.84324000  0.93851000  1.0
  N  N104  1  0.88672000  0.09672000  0.93037000  1.0
  N  N105  1  0.61328000  0.59672000  0.06963000  1.0
  N  N106  1  0.11329000  0.90329000  0.06963000  1.0
  N  N107  1  0.38672000  0.40328000  0.93037000  1.0
  O  O108  1  0.23908000  0.12885000  0.82184000  1.0
  O  O109  1  0.26094000  0.62886000  0.17816000  1.0
  O  O110  1  0.76096000  0.87115000  0.17815000  1.0
  O  O111  1  0.73907000  0.37115000  0.82184000  1.0
