# generated using pymatgen
data_Zn4H16C48N4O37
_symmetry_space_group_name_H-M   'P 1'
_cell_length_a   23.69567993
_cell_length_b   23.69610000
_cell_length_c   23.69400000
_cell_angle_alpha   65.89860000
_cell_angle_beta   72.79063993
_cell_angle_gamma   107.20654687
_symmetry_Int_Tables_number   1
_chemical_formula_structural   Zn4H16C48N4O37
_chemical_formula_sum   'Zn8 H32 C96 N8 O74'
_cell_volume   10190.64793959
_cell_formula_units_Z   2
loop_
 _symmetry_equiv_pos_site_id
 _symmetry_equiv_pos_as_xyz
  1  'x, y, z'
loop_
 _atom_site_type_symbol
 _atom_site_label
 _atom_site_symmetry_multiplicity
 _atom_site_fract_x
 _atom_site_fract_y
 _atom_site_fract_z
 _atom_site_occupancy
  Zn  Zn0  1  0.05581000  0.10034000  0.45948000  1.0
  Zn  Zn1  1  0.05581000  0.95546000  0.48471000  1.0
  Zn  Zn2  1  0.94418000  0.95948000  0.60036000  1.0
  Zn  Zn3  1  0.94419000  0.98472000  0.45545000  1.0
  Zn  Zn4  1  0.94016000  0.39965000  0.04455000  1.0
  Zn  Zn5  1  0.05984000  0.54455000  0.89964000  1.0
  Zn  Zn6  1  0.94016000  0.54052000  0.01529000  1.0
  Zn  Zn7  1  0.05982000  0.51528000  0.04054000  1.0
  H  H8  1  0.92170000  0.27212000  0.96628000  1.0
  H  H9  1  0.07830000  0.46630000  0.77206000  1.0
  H  H10  1  0.92499000  0.03547000  0.73141000  1.0
  H  H11  1  0.07498000  0.23139000  0.53546000  1.0
  H  H12  1  0.07832000  0.61206000  0.14956000  1.0
  H  H13  1  0.92170000  0.64964000  0.11199000  1.0
  H  H14  1  0.07498000  0.84359000  0.38955000  1.0
  H  H15  1  0.92499000  0.88951000  0.34363000  1.0
  H  H16  1  0.73313000  0.26861000  0.15640000  1.0
  H  H17  1  0.73313000  0.46452000  0.11048000  1.0
  H  H18  1  0.26162000  0.03370000  0.38802000  1.0
  H  H19  1  0.26162000  0.22789000  0.35045000  1.0
  H  H20  1  0.26687000  0.65641000  0.76860000  1.0
  H  H21  1  0.26685000  0.61046000  0.96454000  1.0
  H  H22  1  0.73838000  0.88803000  0.53369000  1.0
  H  H23  1  0.73836000  0.85042000  0.72791000  1.0
  H  H24  1  0.12056000  0.34253000  0.70545000  1.0
  H  H25  1  0.87941000  0.20547000  0.84255000  1.0
  H  H26  1  0.01174000  0.32769000  0.62932000  1.0
  H  H27  1  0.98823000  0.12932000  0.82771000  1.0
  H  H28  1  0.87942000  0.67397000  0.27803000  1.0
  H  H29  1  0.12057000  0.77808000  0.17393000  1.0
  H  H30  1  0.98823000  0.85892000  0.18407000  1.0
  H  H31  1  0.01175000  0.68405000  0.35892000  1.0
  H  H32  1  0.54297000  0.37067000  0.14110000  1.0
  H  H33  1  0.54298000  0.17230000  0.31595000  1.0
  H  H34  1  0.45200000  0.29450000  0.32609000  1.0
  H  H35  1  0.45200000  0.15747000  0.22198000  1.0
  H  H36  1  0.45701000  0.64108000  0.87069000  1.0
  H  H37  1  0.45702000  0.81595000  0.67230000  1.0
  H  H38  1  0.54799000  0.82606000  0.79453000  1.0
  H  H39  1  0.54801000  0.72200000  0.65744000  1.0
  C  C40  1  0.17864000  0.08930000  0.41071000  1.0
  C  C41  1  0.99998000  0.86377000  0.63624000  1.0
  C  C42  1  0.99999000  0.09201000  0.59204000  1.0
  C  C43  1  0.82136000  0.91071000  0.58930000  1.0
  C  C44  1  0.00002000  0.13623000  0.36376000  1.0
  C  C45  1  0.00000000  0.90797000  0.40798000  1.0
  C  C46  1  0.00001000  0.41070000  0.91066000  1.0
  C  C47  1  0.00000000  0.63622000  0.86377000  1.0
  C  C48  1  0.81595000  0.40798000  0.09202000  1.0
  C  C49  1  1.00000000  0.58934000  0.08930000  1.0
  C  C50  1  0.99999000  0.36377000  0.13623000  1.0
  C  C51  1  0.18405000  0.59203000  0.90798000  1.0
  C  C52  1  0.00001000  0.19473000  0.30527000  1.0
  C  C53  1  0.99999000  0.30527000  0.19473000  1.0
  C  C54  1  0.95659000  0.18044000  0.27785000  1.0
  C  C55  1  0.04170000  0.31955000  0.22386000  1.0
  C  C56  1  0.95829000  0.23444000  0.22216000  1.0
  C  C57  1  0.04342000  0.26557000  0.27614000  1.0
  C  C58  1  0.00000000  0.80528000  0.69473000  1.0
  C  C59  1  0.00001000  0.69473000  0.80527000  1.0
  C  C60  1  0.95659000  0.77614000  0.76558000  1.0
  C  C61  1  0.04171000  0.72216000  0.73443000  1.0
  C  C62  1  0.95830000  0.72385000  0.81957000  1.0
  C  C63  1  0.04342000  0.77787000  0.68043000  1.0
  C  C64  1  0.00000000  0.37316000  0.87311000  1.0
  C  C65  1  0.95556000  0.30121000  0.90995000  1.0
  C  C66  1  0.95310000  0.26615000  0.87498000  1.0
  C  C67  1  0.00000000  0.30241000  0.80238000  1.0
  C  C68  1  0.04689000  0.37498000  0.76612000  1.0
  C  C69  1  0.04444000  0.40998000  0.80116000  1.0
  C  C70  1  0.99999000  0.26674000  0.76672000  1.0
  C  C71  1  0.99999000  0.23592000  0.73591000  1.0
  C  C72  1  0.99998000  0.20025000  0.70026000  1.0
  C  C73  1  0.95961000  0.12588000  0.73830000  1.0
  C  C74  1  0.95823000  0.09195000  0.70220000  1.0
  C  C75  1  0.99999000  0.12953000  0.62954000  1.0
  C  C76  1  0.04173000  0.20217000  0.59195000  1.0
  C  C77  1  0.04035000  0.23828000  0.62587000  1.0
  C  C78  1  0.00001000  0.62691000  0.12683000  1.0
  C  C79  1  0.04445000  0.63452000  0.15434000  1.0
  C  C80  1  0.04691000  0.67196000  0.18692000  1.0
  C  C81  1  0.00001000  0.69763000  0.19758000  1.0
  C  C82  1  0.95311000  0.68699000  0.17190000  1.0
  C  C83  1  0.95557000  0.65440000  0.13445000  1.0
  C  C84  1  1.00000000  0.73329000  0.23326000  1.0
  C  C85  1  0.99999000  0.76408000  0.26409000  1.0
  C  C86  1  0.99999000  0.79974000  0.29976000  1.0
  C  C87  1  0.04035000  0.80207000  0.33377000  1.0
  C  C88  1  0.04174000  0.83956000  0.36631000  1.0
  C  C89  1  0.99999000  0.87045000  0.37048000  1.0
  C  C90  1  0.95824000  0.86628000  0.33958000  1.0
  C  C91  1  0.95961000  0.83373000  0.30211000  1.0
  C  C92  1  0.74092000  0.37046000  0.12954000  1.0
  C  C93  1  0.70586000  0.29782000  0.16043000  1.0
  C  C94  1  0.63583000  0.26171000  0.19792000  1.0
  C  C95  1  0.59949000  0.29974000  0.20026000  1.0
  C  C96  1  0.63583000  0.37411000  0.16626000  1.0
  C  C97  1  0.70586000  0.40804000  0.13371000  1.0
  C  C98  1  0.52817000  0.26409000  0.23592000  1.0
  C  C99  1  0.46654000  0.23325000  0.26676000  1.0
  C  C100  1  0.39521000  0.19759000  0.30243000  1.0
  C  C101  1  0.35888000  0.12500000  0.32812000  1.0
  C  C102  1  0.28885000  0.09003000  0.36556000  1.0
  C  C103  1  0.25373000  0.12684000  0.37318000  1.0
  C  C104  1  0.28885000  0.19879000  0.34567000  1.0
  C  C105  1  0.35888000  0.23384000  0.31308000  1.0
  C  C106  1  0.25907000  0.62954000  0.87047000  1.0
  C  C107  1  0.29414000  0.66044000  0.79781000  1.0
  C  C108  1  0.36417000  0.69793000  0.76171000  1.0
  C  C109  1  0.40050000  0.70026000  0.79975000  1.0
  C  C110  1  0.36416000  0.66626000  0.87412000  1.0
  C  C111  1  0.29413000  0.63370000  0.90805000  1.0
  C  C112  1  0.47182000  0.73591000  0.76409000  1.0
  C  C113  1  0.53345000  0.76674000  0.73326000  1.0
  C  C114  1  0.60478000  0.80241000  0.69759000  1.0
  C  C115  1  0.64112000  0.82811000  0.62499000  1.0
  C  C116  1  0.71115000  0.86556000  0.59002000  1.0
  C  C117  1  0.74627000  0.87318000  0.62684000  1.0
  C  C118  1  0.71114000  0.84566000  0.69880000  1.0
  C  C119  1  0.64111000  0.81306000  0.73385000  1.0
  C  C120  1  0.10002000  0.41898000  0.68988000  1.0
  C  C121  1  0.89997000  0.18992000  0.91899000  1.0
  C  C122  1  0.08453000  0.31702000  0.57938000  1.0
  C  C123  1  0.91544000  0.07939000  0.81704000  1.0
  C  C124  1  0.89998000  0.71009000  0.18103000  1.0
  C  C125  1  0.10004000  0.68109000  0.21003000  1.0
  C  C126  1  0.91544000  0.83605000  0.26754000  1.0
  C  C127  1  0.08453000  0.76751000  0.33608000  1.0
  C  C128  1  0.60359000  0.42060000  0.16394000  1.0
  C  C129  1  0.60359000  0.18298000  0.23248000  1.0
  C  C130  1  0.39111000  0.31006000  0.28999000  1.0
  C  C131  1  0.39111000  0.08101000  0.31898000  1.0
  C  C132  1  0.39640000  0.66394000  0.92062000  1.0
  C  C133  1  0.39642000  0.73250000  0.68297000  1.0
  C  C134  1  0.60886000  0.78994000  0.81009000  1.0
  C  C135  1  0.60890000  0.81899000  0.58098000  1.0
  N  N136  1  0.90644000  0.10662000  0.30844000  1.0
  N  N137  1  0.08494000  0.39338000  0.20019000  1.0
  N  N138  1  0.91505000  0.21487000  0.19157000  1.0
  N  N139  1  0.09358000  0.28513000  0.29980000  1.0
  N  N140  1  0.90642000  0.79979000  0.78517000  1.0
  N  N141  1  0.08495000  0.69158000  0.71484000  1.0
  N  N142  1  0.91506000  0.70017000  0.89341000  1.0
  N  N143  1  0.09357000  0.80846000  0.60660000  1.0
  O  O144  1  0.99999000  0.99999000  0.50000000  1.0
  O  O145  1  0.14991000  0.12766000  0.40610000  1.0
  O  O146  1  0.01964000  0.86841000  0.57786000  1.0
  O  O147  1  0.95334000  0.02859000  0.62655000  1.0
  O  O148  1  0.14990000  0.02221000  0.44404000  1.0
  O  O149  1  0.04666000  0.12653000  0.52860000  1.0
  O  O150  1  0.98032000  0.90248000  0.65126000  1.0
  O  O151  1  0.85008000  0.90609000  0.62767000  1.0
  O  O152  1  0.98037000  0.07787000  0.36839000  1.0
  O  O153  1  0.85009000  0.94404000  0.52221000  1.0
  O  O154  1  0.01968000  0.15125000  0.40247000  1.0
  O  O155  1  0.04667000  0.92013000  0.42474000  1.0
  O  O156  1  0.95334000  0.92474000  0.42012000  1.0
  O  O157  1  0.99999000  0.50000000  0.00001000  1.0
  O  O158  1  0.96625000  0.37233000  0.97776000  1.0
  O  O159  1  0.05374000  0.63159000  0.84874000  1.0
  O  O160  1  0.84486000  0.47140000  0.07526000  1.0
  O  O161  1  0.03377000  0.47779000  0.87230000  1.0
  O  O162  1  0.84486000  0.37346000  0.07988000  1.0
  O  O163  1  0.94628000  0.59751000  0.92213000  1.0
  O  O164  1  0.96624000  0.59394000  0.05597000  1.0
  O  O165  1  0.05372000  0.42215000  0.09752000  1.0
  O  O166  1  0.03374000  0.55600000  0.09392000  1.0
  O  O167  1  0.94626000  0.34875000  0.13159000  1.0
  O  O168  1  0.15514000  0.57988000  0.87345000  1.0
  O  O169  1  0.15513000  0.57525000  0.97141000  1.0
  O  O170  1  0.86012000  0.07631000  0.36832000  1.0
  O  O171  1  0.91551000  0.08386000  0.27008000  1.0
  O  O172  1  0.05537000  0.42368000  0.21622000  1.0
  O  O173  1  0.14605000  0.41615000  0.16834000  1.0
  O  O174  1  0.94461000  0.22842000  0.13169000  1.0
  O  O175  1  0.85393000  0.18559000  0.22993000  1.0
  O  O176  1  0.13991000  0.27159000  0.28377000  1.0
  O  O177  1  0.08451000  0.31441000  0.33165000  1.0
  O  O178  1  0.86009000  0.78377000  0.77163000  1.0
  O  O179  1  0.91549000  0.83163000  0.81445000  1.0
  O  O180  1  0.05538000  0.63171000  0.72839000  1.0
  O  O181  1  0.14606000  0.72992000  0.68556000  1.0
  O  O182  1  0.94463000  0.71618000  0.92372000  1.0
  O  O183  1  0.85395000  0.66834000  0.91617000  1.0
  O  O184  1  0.13989000  0.86834000  0.57629000  1.0
  O  O185  1  0.08450000  0.77012000  0.58383000  1.0
  O  O186  1  0.13687000  0.39073000  0.66763000  1.0
  O  O187  1  0.11174000  0.47838000  0.65051000  1.0
  O  O188  1  0.86312000  0.16765000  0.89074000  1.0
  O  O189  1  0.88827000  0.15057000  0.97838000  1.0
  O  O190  1  0.05721000  0.35733000  0.58943000  1.0
  O  O191  1  0.14116000  0.34366000  0.53278000  1.0
  O  O192  1  0.94276000  0.08945000  0.85735000  1.0
  O  O193  1  0.85880000  0.03279000  0.84370000  1.0
  O  O194  1  0.86312000  0.69549000  0.24614000  1.0
  O  O195  1  0.88826000  0.73773000  0.13335000  1.0
  O  O196  1  0.13687000  0.74619000  0.19545000  1.0
  O  O197  1  0.11176000  0.63342000  0.23766000  1.0
  O  O198  1  0.94276000  0.85332000  0.19990000  1.0
  O  O199  1  0.85880000  0.82600000  0.29754000  1.0
  O  O200  1  0.05722000  0.69989000  0.35333000  1.0
  O  O201  1  0.14117000  0.79750000  0.32604000  1.0
  O  O202  1  0.55321000  0.41054000  0.14669000  1.0
  O  O203  1  0.62354000  0.46720000  0.17398000  1.0
  O  O204  1  0.55322000  0.14266000  0.30012000  1.0
  O  O205  1  0.62354000  0.15634000  0.20249000  1.0
  O  O206  1  0.44163000  0.33232000  0.30456000  1.0
  O  O207  1  0.37107000  0.34941000  0.26235000  1.0
  O  O208  1  0.44162000  0.10926000  0.25387000  1.0
  O  O209  1  0.37107000  0.02161000  0.36665000  1.0
  O  O210  1  0.44677000  0.64668000  0.91057000  1.0
  O  O211  1  0.37645000  0.67398000  0.96722000  1.0
  O  O212  1  0.44678000  0.80013000  0.64266000  1.0
  O  O213  1  0.37648000  0.70252000  0.65630000  1.0
  O  O214  1  0.55835000  0.80452000  0.83236000  1.0
  O  O215  1  0.62890000  0.76229000  0.84945000  1.0
  O  O216  1  0.55839000  0.75389000  0.60923000  1.0
  O  O217  1  0.62894000  0.86667000  0.52159000  1.0
