# generated using pymatgen
data_ZnH2C4(S3N2)2
_symmetry_space_group_name_H-M   'P 1'
_cell_length_a   7.53887000
_cell_length_b   11.51630000
_cell_length_c   12.67100000
_cell_angle_alpha   89.99930000
_cell_angle_beta   90.00020000
_cell_angle_gamma   89.99920000
_symmetry_Int_Tables_number   1
_chemical_formula_structural   ZnH2C4(S3N2)2
_chemical_formula_sum   'Zn4 H8 C16 S24 N16'
_cell_volume   1100.09480801
_cell_formula_units_Z   4
loop_
 _symmetry_equiv_pos_site_id
 _symmetry_equiv_pos_as_xyz
  1  'x, y, z'
loop_
 _atom_site_type_symbol
 _atom_site_label
 _atom_site_symmetry_multiplicity
 _atom_site_fract_x
 _atom_site_fract_y
 _atom_site_fract_z
 _atom_site_occupancy
  Zn  Zn0  1  0.25001000  0.84858000  0.50000000  1.0
  Zn  Zn1  1  0.75000000  0.65142000  1.00000000  1.0
  Zn  Zn2  1  0.75000000  0.15141000  0.50000000  1.0
  Zn  Zn3  1  0.24999000  0.34858000  0.00000000  1.0
  H  H4  1  0.87864000  0.85990000  0.65512000  1.0
  H  H5  1  0.37864000  0.64011000  0.84488000  1.0
  H  H6  1  0.62135000  0.85988000  0.34489000  1.0
  H  H7  1  0.12135000  0.64012000  0.15512000  1.0
  H  H8  1  0.12136000  0.14010000  0.34487000  1.0
  H  H9  1  0.62135000  0.35989000  0.15512000  1.0
  H  H10  1  0.37865000  0.14011000  0.65512000  1.0
  H  H11  1  0.87864000  0.35988000  0.84488000  1.0
  C  C12  1  0.79687000  0.61742000  0.75619000  1.0
  C  C13  1  0.29685000  0.88258000  0.74381000  1.0
  C  C14  1  0.70314000  0.61742000  0.24381000  1.0
  C  C15  1  0.20314000  0.88258000  0.25619000  1.0
  C  C16  1  0.20313000  0.38260000  0.24381000  1.0
  C  C17  1  0.70313000  0.11743000  0.25620000  1.0
  C  C18  1  0.29687000  0.38261000  0.75619000  1.0
  C  C19  1  0.79687000  0.11743000  0.74381000  1.0
  C  C20  1  0.92725000  0.69464000  0.59214000  1.0
  C  C21  1  0.42724000  0.80537000  0.90786000  1.0
  C  C22  1  0.57275000  0.69463000  0.40786000  1.0
  C  C23  1  0.07275000  0.80538000  0.09214000  1.0
  C  C24  1  0.07274000  0.30536000  0.40786000  1.0
  C  C25  1  0.57276000  0.19463000  0.09214000  1.0
  C  C26  1  0.42727000  0.30536000  0.59214000  1.0
  C  C27  1  0.92724000  0.19462000  0.90786000  1.0
  S  S28  1  0.00914000  0.72244000  0.47017000  1.0
  S  S29  1  0.50917000  0.77758000  0.02984000  1.0
  S  S30  1  0.49085000  0.72242000  0.52983000  1.0
  S  S31  1  0.99083000  0.77759000  0.97017000  1.0
  S  S32  1  0.99085000  0.27756000  0.52982000  1.0
  S  S33  1  0.49085000  0.22242000  0.97017000  1.0
  S  S34  1  0.50915000  0.27757000  0.47018000  1.0
  S  S35  1  0.00916000  0.22242000  0.02983000  1.0
  S  S36  1  0.88254000  0.55680000  0.63972000  1.0
  S  S37  1  0.38254000  0.94321000  0.86029000  1.0
  S  S38  1  0.61749000  0.55681000  0.36026000  1.0
  S  S39  1  0.11748000  0.94321000  0.13973000  1.0
  S  S40  1  0.11746000  0.44320000  0.36028000  1.0
  S  S41  1  0.61747000  0.05678000  0.13971000  1.0
  S  S42  1  0.38254000  0.44319000  0.63973000  1.0
  S  S43  1  0.88252000  0.05679000  0.86027000  1.0
  S  S44  1  0.71057000  0.53066000  0.85397000  1.0
  S  S45  1  0.21056000  0.96935000  0.64602000  1.0
  S  S46  1  0.78944000  0.53066000  0.14602000  1.0
  S  S47  1  0.28944000  0.96935000  0.35398000  1.0
  S  S48  1  0.28943000  0.46935000  0.14603000  1.0
  S  S49  1  0.78943000  0.03064000  0.35398000  1.0
  S  S50  1  0.21058000  0.46934000  0.85397000  1.0
  S  S51  1  0.71057000  0.03065000  0.64602000  1.0
  N  N52  1  0.87862000  0.77097000  0.66660000  1.0
  N  N53  1  0.37862000  0.72903000  0.83340000  1.0
  N  N54  1  0.62138000  0.77096000  0.33341000  1.0
  N  N55  1  0.12138000  0.72904000  0.16660000  1.0
  N  N56  1  0.12138000  0.22903000  0.33333333  1.0
  N  N57  1  0.62138000  0.27096000  0.16660000  1.0
  N  N58  1  0.37862000  0.22903000  0.66661000  1.0
  N  N59  1  0.87862000  0.27096000  0.83340000  1.0
  N  N60  1  0.80533000  0.73167000  0.75755000  1.0
  N  N61  1  0.30532000  0.76834000  0.74244000  1.0
  N  N62  1  0.69467000  0.73166000  0.24245000  1.0
  N  N63  1  0.19468000  0.76836000  0.25756000  1.0
  N  N64  1  0.19468000  0.26832000  0.24244000  1.0
  N  N65  1  0.69467000  0.23166000  0.25757000  1.0
  N  N66  1  0.30534000  0.26832000  0.75755000  1.0
  N  N67  1  0.80533000  0.23165000  0.74244000  1.0
