# generated using pymatgen
data_AgH10C9(NO)3
_symmetry_space_group_name_H-M   'P 1'
_cell_length_a   7.94722000
_cell_length_b   7.99501000
_cell_length_c   10.24390000
_cell_angle_alpha   97.61260000
_cell_angle_beta   94.62620000
_cell_angle_gamma   108.49400000
_symmetry_Int_Tables_number   1
_chemical_formula_structural   AgH10C9(NO)3
_chemical_formula_sum   'Ag2 H20 C18 N6 O6'
_cell_volume   606.59161379
_cell_formula_units_Z   2
loop_
 _symmetry_equiv_pos_site_id
 _symmetry_equiv_pos_as_xyz
  1  'x, y, z'
loop_
 _atom_site_type_symbol
 _atom_site_label
 _atom_site_symmetry_multiplicity
 _atom_site_fract_x
 _atom_site_fract_y
 _atom_site_fract_z
 _atom_site_occupancy
  Ag  Ag0  1  0.15580000  0.39777000  0.81837000  1.0
  Ag  Ag1  1  0.84420000  0.60222000  0.18164000  1.0
  H  H2  1  0.78273000  0.24417000  0.89860000  1.0
  H  H3  1  0.21726000  0.75582000  0.10140000  1.0
  H  H4  1  0.40202000  0.41014000  0.67081000  1.0
  H  H5  1  0.59798000  0.58986000  0.32918000  1.0
  H  H6  1  0.65449000  0.58375000  0.56102000  1.0
  H  H7  1  0.34552000  0.41626000  0.43898000  1.0
  H  H8  1  0.96433000  0.57710000  0.62569000  1.0
  H  H9  1  0.03568000  0.42291000  0.37432000  1.0
  H  H10  1  0.48202000  0.10276000  0.91050000  1.0
  H  H11  1  0.51798000  0.89724000  0.08950000  1.0
  H  H12  1  0.24753000  0.99634000  0.98146000  1.0
  H  H13  1  0.75247000  0.00365000  0.01854000  1.0
  H  H14  1  0.04390000  0.88586000  0.77107000  1.0
  H  H15  1  0.95610000  0.11413000  0.22893000  1.0
  H  H16  1  0.93186000  0.04027000  0.81365000  1.0
  H  H17  1  0.06814000  0.95973000  0.18635000  1.0
  H  H18  1  0.75773000  0.74430000  0.86323000  1.0
  H  H19  1  0.24227000  0.25570000  0.13677000  1.0
  H  H20  1  0.94707000  0.73243000  0.96092000  1.0
  H  H21  1  0.05293000  0.26756000  0.03908000  1.0
  C  C22  1  0.75048000  0.31883000  0.82425000  1.0
  C  C23  1  0.24952000  0.68117000  0.17574000  1.0
  C  C24  1  0.57383000  0.31448000  0.79532000  1.0
  C  C25  1  0.42616000  0.68551000  0.20467000  1.0
  C  C26  1  0.53792000  0.41103000  0.69836000  1.0
  C  C27  1  0.46208000  0.58897000  0.30163000  1.0
  C  C28  1  0.67798000  0.50737000  0.63661000  1.0
  C  C29  1  0.32203000  0.49264000  0.36339000  1.0
  C  C30  1  0.85007000  0.50465000  0.67170000  1.0
  C  C31  1  0.14994000  0.49536000  0.32830000  1.0
  C  C32  1  0.44039000  0.20251000  0.86536000  1.0
  C  C33  1  0.55959000  0.79749000  0.13464000  1.0
  C  C34  1  0.17022000  0.07943000  0.94837000  1.0
  C  C35  1  0.82978000  0.92057000  0.05163000  1.0
  C  C36  1  0.00355000  0.95768000  0.85538000  1.0
  C  C37  1  0.99645000  0.04232000  0.14462000  1.0
  C  C38  1  0.88018000  0.82517000  0.92933000  1.0
  C  C39  1  0.11981000  0.17483000  0.07067000  1.0
  N  N40  1  0.88599000  0.41207000  0.76484000  1.0
  N  N41  1  0.11401000  0.58793000  0.23517000  1.0
  N  N42  1  0.28338000  0.21132000  0.87709000  1.0
  N  N43  1  0.71663000  0.78868000  0.12291000  1.0
  N  N44  1  0.38104000  0.74702000  0.75133000  1.0
  N  N45  1  0.61896000  0.25297000  0.24867000  1.0
  O  O46  1  0.34436000  0.72129000  0.86897000  1.0
  O  O47  1  0.65561000  0.27871000  0.13103000  1.0
  O  O48  1  0.28069000  0.63811000  0.65204000  1.0
  O  O49  1  0.71932000  0.36190000  0.34796000  1.0
  O  O50  1  0.51388000  0.87510000  0.73666000  1.0
  O  O51  1  0.48613000  0.12489000  0.26335000  1.0
