# generated using pymatgen
data_CuH18C25(NO2)2
_symmetry_space_group_name_H-M   'P 1'
_cell_length_a   10.13400000
_cell_length_b   13.41320000
_cell_length_c   17.70750000
_cell_angle_alpha   90.00060000
_cell_angle_beta   89.99990000
_cell_angle_gamma   89.63990000
_symmetry_Int_Tables_number   1
_chemical_formula_structural   CuH18C25(NO2)2
_chemical_formula_sum   'Cu4 H72 C100 N8 O16'
_cell_volume   2406.92175998
_cell_formula_units_Z   4
loop_
 _symmetry_equiv_pos_site_id
 _symmetry_equiv_pos_as_xyz
  1  'x, y, z'
loop_
 _atom_site_type_symbol
 _atom_site_label
 _atom_site_symmetry_multiplicity
 _atom_site_fract_x
 _atom_site_fract_y
 _atom_site_fract_z
 _atom_site_occupancy
  Cu  Cu0  1  0.48290000  0.75092000  0.25068000  1.0
  Cu  Cu1  1  0.51715000  0.24902000  0.74939000  1.0
  Cu  Cu2  1  0.01714000  0.24906000  0.75064000  1.0
  Cu  Cu3  1  0.98283000  0.75096000  0.24936000  1.0
  H  H4  1  0.85182000  0.26903000  0.88228000  1.0
  H  H5  1  0.66450000  0.23294000  0.89183000  1.0
  H  H6  1  0.89037000  0.04778000  0.06783000  1.0
  H  H7  1  0.74444000  0.01075000  0.81714000  1.0
  H  H8  1  0.39038000  0.04779000  0.43215000  1.0
  H  H9  1  0.31633000  0.72288000  0.46239000  1.0
  H  H10  1  0.77924000  0.49721000  0.81777000  1.0
  H  H11  1  0.49765000  0.18450000  0.50517000  1.0
  H  H12  1  0.16659000  0.78785000  0.46911000  1.0
  H  H13  1  0.81631000  0.72288000  0.03758000  1.0
  H  H14  1  0.22078000  0.50277000  0.18223000  1.0
  H  H15  1  0.16123000  0.90992000  0.30378000  1.0
  H  H16  1  0.86039000  0.12954000  0.38600000  1.0
  H  H17  1  0.68622000  0.52554000  0.58029000  1.0
  H  H18  1  0.49535000  0.68006000  0.00076000  1.0
  H  H19  1  0.67013000  0.12198000  0.00386000  1.0
  H  H20  1  0.64817000  0.73095000  0.38233000  1.0
  H  H21  1  0.16450000  0.23297000  0.60820000  1.0
  H  H22  1  0.09512000  0.46318000  0.42702000  1.0
  H  H23  1  0.67249000  0.02546000  0.09028000  1.0
  H  H24  1  0.31390000  0.47429000  0.41970000  1.0
  H  H25  1  0.17013000  0.12199000  0.49617000  1.0
  H  H26  1  0.83877000  0.09009000  0.69622000  1.0
  H  H27  1  0.50460000  0.32004000  0.99915000  1.0
  H  H28  1  0.86777000  0.64337000  0.88761000  1.0
  H  H29  1  0.82765000  0.38030000  0.99337000  1.0
  H  H30  1  0.69318000  0.40947000  0.68694000  1.0
  H  H31  1  0.63962000  0.87050000  0.88601000  1.0
  H  H32  1  0.66658000  0.78787000  0.03085000  1.0
  H  H33  1  0.00464000  0.31999000  0.50078000  1.0
  H  H34  1  0.24440000  0.01072000  0.68286000  1.0
  H  H35  1  0.90489000  0.53681000  0.57291000  1.0
  H  H36  1  0.30691000  0.59040000  0.31307000  1.0
  H  H37  1  0.81383000  0.47439000  0.08030000  1.0
  H  H38  1  0.32760000  0.38030000  0.50670000  1.0
  H  H39  1  0.32749000  0.97455000  0.90982000  1.0
  H  H40  1  0.83342000  0.21216000  0.53086000  1.0
  H  H41  1  0.33553000  0.76700000  0.10823000  1.0
  H  H42  1  0.17235000  0.61970000  0.00664000  1.0
  H  H43  1  0.36776000  0.64339000  0.61237000  1.0
  H  H44  1  0.13960000  0.87048000  0.61396000  1.0
  H  H45  1  0.33878000  0.09005000  0.80381000  1.0
  H  H46  1  0.25556000  0.98931000  0.18287000  1.0
  H  H47  1  0.18366000  0.27713000  0.96238000  1.0
  H  H48  1  0.59510000  0.46322000  0.07290000  1.0
  H  H49  1  0.63224000  0.35662000  0.38760000  1.0
  H  H50  1  0.68368000  0.27714000  0.53758000  1.0
  H  H51  1  0.35179000  0.26903000  0.61778000  1.0
  H  H52  1  0.82749000  0.97456000  0.59022000  1.0
  H  H53  1  0.33340000  0.21216000  0.96912000  1.0
  H  H54  1  0.72074000  0.50278000  0.31776000  1.0
  H  H55  1  0.67231000  0.61969000  0.49342000  1.0
  H  H56  1  0.75559000  0.98927000  0.31713000  1.0
  H  H57  1  0.60963000  0.95221000  0.56785000  1.0
  H  H58  1  0.27923000  0.49724000  0.68222000  1.0
  H  H59  1  0.00237000  0.81550000  0.00516000  1.0
  H  H60  1  0.83550000  0.76705000  0.39179000  1.0
  H  H61  1  0.99538000  0.68000000  0.49917000  1.0
  H  H62  1  0.40485000  0.53687000  0.92701000  1.0
  H  H63  1  0.82987000  0.87803000  0.50382000  1.0
  H  H64  1  0.32990000  0.87799000  0.99620000  1.0
  H  H65  1  0.17252000  0.02545000  0.40977000  1.0
  H  H66  1  0.18614000  0.52564000  0.91970000  1.0
  H  H67  1  0.14817000  0.73098000  0.11772000  1.0
  H  H68  1  0.36037000  0.12956000  0.11399000  1.0
  H  H69  1  0.99764000  0.18448000  0.99479000  1.0
  H  H70  1  0.50236000  0.81552000  0.49481000  1.0
  H  H71  1  0.10966000  0.95219000  0.93213000  1.0
  H  H72  1  0.19313000  0.40955000  0.81306000  1.0
  H  H73  1  0.80684000  0.59048000  0.18693000  1.0
  H  H74  1  0.66122000  0.90991000  0.19627000  1.0
  H  H75  1  0.13224000  0.35663000  0.11238000  1.0
  C  C76  1  0.24570000  0.75417000  0.50328000  1.0
  C  C77  1  0.76630000  0.61949000  0.89702000  1.0
  C  C78  1  0.41197000  0.09359000  0.84850000  1.0
  C  C79  1  0.59315000  0.97129000  0.09059000  1.0
  C  C80  1  0.55709000  0.64112000  0.95963000  1.0
  C  C81  1  0.00622000  0.56121000  0.58096000  1.0
  C  C82  1  0.49377000  0.43881000  0.08095000  1.0
  C  C83  1  0.40635000  0.82687000  0.10133000  1.0
  C  C84  1  0.00044000  0.92418000  0.16885000  1.0
  C  C85  1  0.56575000  0.00961000  0.37063000  1.0
  C  C86  1  0.50619000  0.56125000  0.91897000  1.0
  C  C87  1  0.57799000  0.67183000  0.39347000  1.0
  C  C88  1  0.40686000  0.02869000  0.90949000  1.0
  C  C89  1  0.58613000  0.50760000  0.86869000  1.0
  C  C90  1  0.40566000  0.88910000  0.03885000  1.0
  C  C91  1  0.18677000  0.16581000  0.04879000  1.0
  C  C92  1  0.50664000  0.93328000  0.57761000  1.0
  C  C93  1  0.53027000  0.41851000  0.82920000  1.0
  C  C94  1  0.39256000  0.52864000  0.41467000  1.0
  C  C95  1  0.49973000  0.96518000  0.03241000  1.0
  C  C96  1  0.60750000  0.47124000  0.58536000  1.0
  C  C97  1  0.75431000  0.24584000  0.49669000  1.0
  C  C98  1  0.05361000  0.14303000  0.03716000  1.0
  C  C99  1  0.74569000  0.75418000  0.99669000  1.0
  C  C100  1  0.99523000  0.53455000  0.03243000  1.0
  C  C101  1  0.99378000  0.43879000  0.41898000  1.0
  C  C102  1  0.78303000  0.46201000  0.35754000  1.0
  C  C103  1  0.09316000  0.97130000  0.40945000  1.0
  C  C104  1  0.18827000  0.67082000  0.55007000  1.0
  C  C105  1  0.80127000  0.96714000  0.85784000  1.0
  C  C106  1  0.08615000  0.50759000  0.63126000  1.0
  C  C107  1  0.10747000  0.47131000  0.91466000  1.0
  C  C108  1  0.26631000  0.61949000  0.60295000  1.0
  C  C109  1  0.05711000  0.64108000  0.54030000  1.0
  C  C110  1  0.07797000  0.67186000  0.10657000  1.0
  C  C111  1  0.74263000  0.88895000  0.89691000  1.0
  C  C112  1  0.94290000  0.35891000  0.45964000  1.0
  C  C113  1  0.91107000  0.39045000  0.95556000  1.0
  C  C114  1  0.49955000  0.07584000  0.66887000  1.0
  C  C115  1  0.44288000  0.35894000  0.04029000  1.0
  C  C116  1  0.91196000  0.09362000  0.65153000  1.0
  C  C117  1  0.41105000  0.39044000  0.54449000  1.0
  C  C118  1  0.30124000  0.96712000  0.64215000  1.0
  C  C119  1  0.19874000  0.03291000  0.14215000  1.0
  C  C120  1  0.41386000  0.49243000  0.13126000  1.0
  C  C121  1  0.49337000  0.06673000  0.42239000  1.0
  C  C122  1  0.31172000  0.32920000  0.05006000  1.0
  C  C123  1  0.91384000  0.49243000  0.36870000  1.0
  C  C124  1  0.06574000  0.00964000  0.12937000  1.0
  C  C125  1  0.44639000  0.85698000  0.53717000  1.0
  C  C126  1  0.93428000  0.99038000  0.87062000  1.0
  C  C127  1  0.08892000  0.60955000  0.04445000  1.0
  C  C128  1  0.68678000  0.16580000  0.45119000  1.0
  C  C129  1  0.23370000  0.38053000  0.10295000  1.0
  C  C130  1  0.59436000  0.11087000  0.96122000  1.0
  C  C131  1  0.96967000  0.58151000  0.32920000  1.0
  C  C132  1  0.88742000  0.59360000  0.14645000  1.0
  C  C133  1  0.08804000  0.90640000  0.34846000  1.0
  C  C134  1  0.75738000  0.11107000  0.39690000  1.0
  C  C135  1  0.03030000  0.41852000  0.67078000  1.0
  C  C136  1  0.00667000  0.93326000  0.92237000  1.0
  C  C137  1  0.46971000  0.58149000  0.17079000  1.0
  C  C138  1  0.58891000  0.60952000  0.45560000  1.0
  C  C139  1  0.50046000  0.92413000  0.33117000  1.0
  C  C140  1  0.28305000  0.46201000  0.14243000  1.0
  C  C141  1  0.59367000  0.17309000  0.89873000  1.0
  C  C142  1  0.55362000  0.14303000  0.46281000  1.0
  C  C143  1  0.11255000  0.40642000  0.85354000  1.0
  C  C144  1  0.69875000  0.03288000  0.35784000  1.0
  C  C145  1  0.31322000  0.83421000  0.54879000  1.0
  C  C146  1  0.09436000  0.11089000  0.53881000  1.0
  C  C147  1  0.99335000  0.06673000  0.07759000  1.0
  C  C148  1  0.49525000  0.53451000  0.46760000  1.0
  C  C149  1  0.90685000  0.02871000  0.59055000  1.0
  C  C150  1  0.50028000  0.03480000  0.96768000  1.0
  C  C151  1  0.81174000  0.32919000  0.44990000  1.0
  C  C152  1  0.71695000  0.53800000  0.85754000  1.0
  C  C153  1  0.00027000  0.03482000  0.53236000  1.0
  C  C154  1  0.73370000  0.38052000  0.39702000  1.0
  C  C155  1  0.21696000  0.53801000  0.64243000  1.0
  C  C156  1  0.99957000  0.07585000  0.83115000  1.0
  C  C157  1  0.92201000  0.32814000  0.89343000  1.0
  C  C158  1  0.58804000  0.90638000  0.15157000  1.0
  C  C159  1  0.00476000  0.46546000  0.96757000  1.0
  C  C160  1  0.38748000  0.59353000  0.35357000  1.0
  C  C161  1  0.94640000  0.85697000  0.96280000  1.0
  C  C162  1  0.42200000  0.32813000  0.60661000  1.0
  C  C163  1  0.24261000  0.88894000  0.60308000  1.0
  C  C164  1  0.25429000  0.24584000  0.00328000  1.0
  C  C165  1  0.81323000  0.83422000  0.95119000  1.0
  C  C166  1  0.99972000  0.96520000  0.46763000  1.0
  C  C167  1  0.90633000  0.82690000  0.39869000  1.0
  C  C168  1  0.61258000  0.40636000  0.64647000  1.0
  C  C169  1  0.25737000  0.11110000  0.10309000  1.0
  C  C170  1  0.50476000  0.46542000  0.53246000  1.0
  C  C171  1  0.09367000  0.17312000  0.60130000  1.0
  C  C172  1  0.90564000  0.88912000  0.46118000  1.0
  C  C173  1  0.89251000  0.52871000  0.08535000  1.0
  C  C174  1  0.43425000  0.99038000  0.62937000  1.0
  C  C175  1  0.68826000  0.67084000  0.94989000  1.0
  N  N176  1  0.47971000  0.66399000  0.34277000  1.0
  N  N177  1  0.00532000  0.16414000  0.65761000  1.0
  N  N178  1  0.49470000  0.83585000  0.15764000  1.0
  N  N179  1  0.50532000  0.16410000  0.84242000  1.0
  N  N180  1  0.99468000  0.83588000  0.34238000  1.0
  N  N181  1  0.52032000  0.33593000  0.65729000  1.0
  N  N182  1  0.97967000  0.66405000  0.15725000  1.0
  N  N183  1  0.02030000  0.33597000  0.84274000  1.0
  O  O184  1  0.37815000  0.92220000  0.32234000  1.0
  O  O185  1  0.59164000  0.59088000  0.17918000  1.0
  O  O186  1  0.87813000  0.92227000  0.17770000  1.0
  O  O187  1  0.08048000  0.85390000  0.19198000  1.0
  O  O188  1  0.41950000  0.14610000  0.69202000  1.0
  O  O189  1  0.58052000  0.85385000  0.30806000  1.0
  O  O190  1  0.62186000  0.07777000  0.67770000  1.0
  O  O191  1  0.09159000  0.59090000  0.32079000  1.0
  O  O192  1  0.11647000  0.35282000  0.69436000  1.0
  O  O193  1  0.61644000  0.35278000  0.80566000  1.0
  O  O194  1  0.38354000  0.64718000  0.19439000  1.0
  O  O195  1  0.12189000  0.07778000  0.82232000  1.0
  O  O196  1  0.40835000  0.40913000  0.82079000  1.0
  O  O197  1  0.91952000  0.14611000  0.80802000  1.0
  O  O198  1  0.90837000  0.40913000  0.67918000  1.0
  O  O199  1  0.88350000  0.64721000  0.30563000  1.0
