# generated using pymatgen
data_ZnH16C20(NO2)2
_symmetry_space_group_name_H-M   'P 1'
_cell_length_a   7.40528000
_cell_length_b   9.31669424
_cell_length_c   13.76860000
_cell_angle_alpha   88.87679690
_cell_angle_beta   87.07360000
_cell_angle_gamma   66.66579554
_symmetry_Int_Tables_number   1
_chemical_formula_structural   ZnH16C20(NO2)2
_chemical_formula_sum   'Zn2 H32 C40 N4 O8'
_cell_volume   871.10068192
_cell_formula_units_Z   2
loop_
 _symmetry_equiv_pos_site_id
 _symmetry_equiv_pos_as_xyz
  1  'x, y, z'
loop_
 _atom_site_type_symbol
 _atom_site_label
 _atom_site_symmetry_multiplicity
 _atom_site_fract_x
 _atom_site_fract_y
 _atom_site_fract_z
 _atom_site_occupancy
  Zn  Zn0  1  0.67888000  0.26512000  0.90872000  1.0
  Zn  Zn1  1  0.94478000  0.73497000  0.40975000  1.0
  H  H2  1  0.01300000  0.98355000  0.10136000  1.0
  H  H3  1  0.99610000  0.01730000  0.60161000  1.0
  H  H4  1  0.61555000  0.01889000  0.22392000  1.0
  H  H5  1  0.63482000  0.97978000  0.72404000  1.0
  H  H6  1  0.24061000  0.84779000  0.89529000  1.0
  H  H7  1  0.08842000  0.15241000  0.39474000  1.0
  H  H8  1  0.21350000  0.08902000  0.99494000  1.0
  H  H9  1  0.30155000  0.91129000  0.49495000  1.0
  H  H10  1  0.41492000  0.91340000  0.33061000  1.0
  H  H11  1  0.32919000  0.08616000  0.83086000  1.0
  H  H12  1  0.97482000  0.82320000  0.80392000  1.0
  H  H13  1  0.79826000  0.17724000  0.30321000  1.0
  H  H14  1  0.00734000  0.42861000  0.71229000  1.0
  H  H15  1  0.43738000  0.57178000  0.21215000  1.0
  H  H16  1  0.92615000  0.62641000  0.66919000  1.0
  H  H17  1  0.55383000  0.37402000  0.16882000  1.0
  H  H18  1  0.82918000  0.58518000  0.78089000  1.0
  H  H19  1  0.41548000  0.41497000  0.28045000  1.0
  H  H20  1  0.31932000  0.32731000  0.78456000  1.0
  H  H21  1  0.64833000  0.67323000  0.28490000  1.0
  H  H22  1  0.97614000  0.32119000  0.03462000  1.0
  H  H23  1  0.29869000  0.67855000  0.53569000  1.0
  H  H24  1  0.52647000  0.84700000  0.93826000  1.0
  H  H25  1  0.37291000  0.15306000  0.43827000  1.0
  H  H26  1  0.82035000  0.81846000  0.02879000  1.0
  H  H27  1  0.63860000  0.18135000  0.52868000  1.0
  H  H28  1  0.11649000  0.65223000  0.10966000  1.0
  H  H29  1  0.76952000  0.34737000  0.60960000  1.0
  H  H30  1  0.23900000  0.47243000  0.04426000  1.0
  H  H31  1  0.71245000  0.52736000  0.54453000  1.0
  H  H32  1  0.11660000  0.47455000  0.15807000  1.0
  H  H33  1  0.59269000  0.52486000  0.65843000  1.0
  C  C34  1  0.42561000  0.06239000  0.10351000  1.0
  C  C35  1  0.48767000  0.93709000  0.60360000  1.0
  C  C36  1  0.20317000  0.93962000  0.22189000  1.0
  C  C37  1  0.14306000  0.06064000  0.72212000  1.0
  C  C38  1  0.14662000  0.98915000  0.12724000  1.0
  C  C39  1  0.13556000  0.01132000  0.62742000  1.0
  C  C40  1  0.48187000  0.01309000  0.19821000  1.0
  C  C41  1  0.49511000  0.98618000  0.69835000  1.0
  C  C42  1  0.25696000  0.73384000  0.86869000  1.0
  C  C43  1  0.99109000  0.26642000  0.36841000  1.0
  C  C44  1  0.54496000  0.12755000  0.04044000  1.0
  C  C45  1  0.67191000  0.87185000  0.54044000  1.0
  C  C46  1  0.25750000  0.05021000  0.06852000  1.0
  C  C47  1  0.30718000  0.94990000  0.56858000  1.0
  C  C48  1  0.08577000  0.87258000  0.28479000  1.0
  C  C49  1  0.95914000  0.12764000  0.78526000  1.0
  C  C50  1  0.37084000  0.95236000  0.25707000  1.0
  C  C51  1  0.32364000  0.04736000  0.75728000  1.0
  C  C52  1  0.59299000  0.59845000  0.94060000  1.0
  C  C53  1  0.19177000  0.40164000  0.44101000  1.0
  C  C54  1  0.42507000  0.59961000  0.88643000  1.0
  C  C55  1  0.02517000  0.40064000  0.38663000  1.0
  C  C56  1  0.10693000  0.71968000  0.81805000  1.0
  C  C57  1  0.82710000  0.28070000  0.31765000  1.0
  C  C58  1  0.12331000  0.57283000  0.78596000  1.0
  C  C59  1  0.69708000  0.42764000  0.28580000  1.0
  C  C60  1  0.96403000  0.55089000  0.73374000  1.0
  C  C61  1  0.51610000  0.44949000  0.23344000  1.0
  C  C62  1  0.29620000  0.44525000  0.80685000  1.0
  C  C63  1  0.74264000  0.55521000  0.30704000  1.0
  C  C64  1  0.92439000  0.56744000  0.03997000  1.0
  C  C65  1  0.49255000  0.43233000  0.54030000  1.0
  C  C66  1  0.87980000  0.44033000  0.01561000  1.0
  C  C67  1  0.32104000  0.55952000  0.51636000  1.0
  C  C68  1  0.62605000  0.73187000  0.96188000  1.0
  C  C69  1  0.35779000  0.26814000  0.46207000  1.0
  C  C70  1  0.79211000  0.71555000  0.01195000  1.0
  C  C71  1  0.50776000  0.28432000  0.51208000  1.0
  C  C72  1  0.10900000  0.54128000  0.09062000  1.0
  C  C73  1  0.65129000  0.45837000  0.59082000  1.0
  N  N74  1  0.44116000  0.45832000  0.85520000  1.0
  N  N75  1  0.90045000  0.54202000  0.35561000  1.0
  N  N76  1  0.72101000  0.45537000  0.96764000  1.0
  N  N77  1  0.17709000  0.54464000  0.46844000  1.0
  O  O78  1  0.11517000  0.85990000  0.37705000  1.0
  O  O79  1  0.97591000  0.14006000  0.87746000  1.0
  O  O80  1  0.50973000  0.14505000  0.94865000  1.0
  O  O81  1  0.65437000  0.85474000  0.44862000  1.0
  O  O82  1  0.96345000  0.82754000  0.24855000  1.0
  O  O83  1  0.79162000  0.17292000  0.74916000  1.0
  O  O84  1  0.67349000  0.16570000  0.07588000  1.0
  O  O85  1  0.83861000  0.83335000  0.57592000  1.0
