# generated using pymatgen
data_CdH12C16SN4O5
_symmetry_space_group_name_H-M   'P 1'
_cell_length_a   7.02482000
_cell_length_b   7.78152000
_cell_length_c   16.14987001
_cell_angle_alpha   100.83852064
_cell_angle_beta   93.55080043
_cell_angle_gamma   96.28340000
_symmetry_Int_Tables_number   1
_chemical_formula_structural   CdH12C16SN4O5
_chemical_formula_sum   'Cd2 H24 C32 S2 N8 O10'
_cell_volume   858.77179613
_cell_formula_units_Z   2
loop_
 _symmetry_equiv_pos_site_id
 _symmetry_equiv_pos_as_xyz
  1  'x, y, z'
loop_
 _atom_site_type_symbol
 _atom_site_label
 _atom_site_symmetry_multiplicity
 _atom_site_fract_x
 _atom_site_fract_y
 _atom_site_fract_z
 _atom_site_occupancy
  Cd  Cd0  1  0.66353000  0.41210000  0.40245000  1.0
  Cd  Cd1  1  0.33647000  0.58790000  0.59755000  1.0
  H  H2  1  0.84609000  0.67489000  0.34113000  1.0
  H  H3  1  0.15391000  0.32510000  0.65887000  1.0
  H  H4  1  0.00954000  0.63608000  0.40466000  1.0
  H  H5  1  0.99046000  0.36392000  0.59534000  1.0
  H  H6  1  0.72022000  0.20102000  0.21910000  1.0
  H  H7  1  0.27978000  0.79896000  0.78090000  1.0
  H  H8  1  0.54080000  0.99535000  0.09440000  1.0
  H  H9  1  0.45920000  0.00465000  0.90560000  1.0
  H  H10  1  0.02167000  0.06211000  0.22303000  1.0
  H  H11  1  0.97832000  0.93789000  0.77697000  1.0
  H  H12  1  0.22066000  0.26844000  0.33867000  1.0
  H  H13  1  0.77934000  0.73155000  0.66133000  1.0
  H  H14  1  0.97184000  0.46814000  0.81842000  1.0
  H  H15  1  0.02816000  0.53188000  0.18159000  1.0
  H  H16  1  0.69659000  0.27549000  0.73155000  1.0
  H  H17  1  0.30342000  0.72452000  0.26844000  1.0
  H  H18  1  0.30542000  0.48499000  0.89103000  1.0
  H  H19  1  0.69458000  0.51500000  0.10896000  1.0
  H  H20  1  0.55712000  0.68945000  0.98249000  1.0
  H  H21  1  0.44286000  0.31055000  0.01750000  1.0
  H  H22  1  0.46459000  0.98120000  0.40334000  1.0
  H  H23  1  0.53540000  0.01878000  0.59666000  1.0
  H  H24  1  0.09428000  0.96555000  0.41565000  1.0
  H  H25  1  0.90573000  0.03447000  0.58436000  1.0
  C  C26  1  0.56530000  0.16621000  0.21682000  1.0
  C  C27  1  0.43471000  0.83377000  0.78318000  1.0
  C  C28  1  0.46588000  0.05062000  0.14813000  1.0
  C  C29  1  0.53411000  0.94938000  0.85187000  1.0
  C  C30  1  0.26631000  0.00937000  0.14807000  1.0
  C  C31  1  0.73369000  0.99064000  0.85193000  1.0
  C  C32  1  0.17584000  0.08787000  0.21799000  1.0
  C  C33  1  0.82416000  0.91214000  0.78202000  1.0
  C  C34  1  0.28654000  0.20422000  0.28377000  1.0
  C  C35  1  0.71347000  0.79578000  0.71623000  1.0
  C  C36  1  0.16180000  0.88974000  0.07497000  1.0
  C  C37  1  0.83820000  0.11026000  0.92503000  1.0
  C  C38  1  0.94599000  0.70076000  0.96621000  1.0
  C  C39  1  0.05400000  0.29924000  0.03379000  1.0
  C  C40  1  0.78947000  0.58958000  0.91124000  1.0
  C  C41  1  0.21051000  0.41043000  0.08876000  1.0
  C  C42  1  0.82652000  0.47295000  0.83787000  1.0
  C  C43  1  0.17348000  0.52706000  0.16213000  1.0
  C  C44  1  0.67238000  0.36496000  0.78948000  1.0
  C  C45  1  0.32763000  0.63504000  0.21051000  1.0
  C  C46  1  0.45509000  0.47999000  0.87725000  1.0
  C  C47  1  0.54490000  0.52001000  0.12274000  1.0
  C  C48  1  0.59802000  0.59562000  0.92953000  1.0
  C  C49  1  0.40197000  0.40440000  0.07047000  1.0
  C  C50  1  0.54833000  0.75997000  0.45819000  1.0
  C  C51  1  0.45167000  0.24002000  0.54181000  1.0
  C  C52  1  0.49903000  0.94237000  0.46346000  1.0
  C  C53  1  0.50097000  0.05762000  0.53654000  1.0
  C  C54  1  0.90876000  0.17485000  0.44162000  1.0
  C  C55  1  0.09125000  0.82516000  0.55838000  1.0
  C  C56  1  0.00994000  0.03005000  0.46404000  1.0
  C  C57  1  0.99007000  0.96996000  0.53596000  1.0
  S  S58  1  0.91762000  0.81947000  0.06626000  1.0
  S  S59  1  0.08238000  0.18054000  0.93374000  1.0
  N  N60  1  0.47793000  0.24228000  0.28352000  1.0
  N  N61  1  0.52208000  0.75770000  0.71648000  1.0
  N  N62  1  0.24733000  0.82411000  0.00730000  1.0
  N  N63  1  0.75266000  0.17590000  0.99271000  1.0
  N  N64  1  0.12596000  0.71868000  0.94615000  1.0
  N  N65  1  0.87404000  0.28132000  0.05385000  1.0
  N  N66  1  0.48892000  0.36381000  0.80910000  1.0
  N  N67  1  0.51109000  0.63618000  0.19089000  1.0
  O  O68  1  0.86190000  0.16670000  0.36383000  1.0
  O  O69  1  0.13812000  0.83332000  0.63618000  1.0
  O  O70  1  0.86390000  0.29798000  0.49976000  1.0
  O  O71  1  0.13611000  0.70202000  0.50025000  1.0
  O  O72  1  0.55018000  0.66945000  0.38371000  1.0
  O  O73  1  0.44983000  0.33052000  0.61629000  1.0
  O  O74  1  0.59076000  0.70087000  0.52491000  1.0
  O  O75  1  0.40923000  0.29912000  0.47510000  1.0
  O  O76  1  0.92415000  0.58328000  0.35164000  1.0
  O  O77  1  0.07585000  0.41672000  0.64836000  1.0
