# generated using pymatgen
data_CuH17C25N2O7
_symmetry_space_group_name_H-M   'P 1'
_cell_length_a   7.84576000
_cell_length_b   9.20711000
_cell_length_c   14.87690000
_cell_angle_alpha   91.45330000
_cell_angle_beta   96.33620000
_cell_angle_gamma   101.62500000
_symmetry_Int_Tables_number   1
_chemical_formula_structural   CuH17C25N2O7
_chemical_formula_sum   'Cu2 H34 C50 N4 O14'
_cell_volume   1044.93388727
_cell_formula_units_Z   2
loop_
 _symmetry_equiv_pos_site_id
 _symmetry_equiv_pos_as_xyz
  1  'x, y, z'
loop_
 _atom_site_type_symbol
 _atom_site_label
 _atom_site_symmetry_multiplicity
 _atom_site_fract_x
 _atom_site_fract_y
 _atom_site_fract_z
 _atom_site_occupancy
  Cu  Cu0  1  0.35501000  0.07322000  0.08686000  1.0
  Cu  Cu1  1  0.64500000  0.92678000  0.91314000  1.0
  H  H2  1  0.83751000  0.26379000  0.26618000  1.0
  H  H3  1  0.16250000  0.73622000  0.73382000  1.0
  H  H4  1  0.46563000  0.92115000  0.68885000  1.0
  H  H5  1  0.53437000  0.07886000  0.31115000  1.0
  H  H6  1  0.24158000  0.86116000  0.21857000  1.0
  H  H7  1  0.75842000  0.13884000  0.78143000  1.0
  H  H8  1  0.00084000  0.63989000  0.22065000  1.0
  H  H9  1  0.99916000  0.36011000  0.77934000  1.0
  H  H10  1  0.85609000  0.69856000  0.93588000  1.0
  H  H11  1  0.14391000  0.30144000  0.06412000  1.0
  H  H12  1  0.10404000  0.91427000  0.94643000  1.0
  H  H13  1  0.89596000  0.08573000  0.05357000  1.0
  H  H14  1  0.71089000  0.54943000  0.21650000  1.0
  H  H15  1  0.28911000  0.45057000  0.78350000  1.0
  H  H16  1  0.48279000  0.31842000  0.21026000  1.0
  H  H17  1  0.51721000  0.68158000  0.78974000  1.0
  H  H18  1  0.51869000  0.22957000  0.93982000  1.0
  H  H19  1  0.48130000  0.77042000  0.06018000  1.0
  H  H20  1  0.75502000  0.45454000  0.93465000  1.0
  H  H21  1  0.24497000  0.54546000  0.06534000  1.0
  H  H22  1  0.22231000  0.07250000  0.37549000  1.0
  H  H23  1  0.77769000  0.92750000  0.62451000  1.0
  H  H24  1  0.12848000  0.85713000  0.46964000  1.0
  H  H25  1  0.87152000  0.14287000  0.53037000  1.0
  H  H26  1  0.82789000  0.70071000  0.43667000  1.0
  H  H27  1  0.17210000  0.29929000  0.56333000  1.0
  H  H28  1  0.57805000  0.85473000  0.47032000  1.0
  H  H29  1  0.42194000  0.14528000  0.52968000  1.0
  H  H30  1  0.14562000  0.51287000  0.52309000  1.0
  H  H31  1  0.85438000  0.48713000  0.47691000  1.0
  H  H32  1  0.13639000  0.39587000  0.36784000  1.0
  H  H33  1  0.86362000  0.60413000  0.63216000  1.0
  H  H34  1  0.35381000  0.50727000  0.26608000  1.0
  H  H35  1  0.64619000  0.49273000  0.73392000  1.0
  C  C36  1  0.15099000  0.82129000  0.15817000  1.0
  C  C37  1  0.84901000  0.17871000  0.84183000  1.0
  C  C38  1  0.01551000  0.69874000  0.15844000  1.0
  C  C39  1  0.98448000  0.30126000  0.84156000  1.0
  C  C40  1  0.90271000  0.65040000  0.07848000  1.0
  C  C41  1  0.09729000  0.34960000  0.92152000  1.0
  C  C42  1  0.93646000  0.72885000  0.00063000  1.0
  C  C43  1  0.06355000  0.27115000  0.99937000  1.0
  C  C44  1  0.07383000  0.85086000  0.00546000  1.0
  C  C45  1  0.92617000  0.14914000  0.99454000  1.0
  C  C46  1  0.75784000  0.52084000  0.07628000  1.0
  C  C47  1  0.24216000  0.47916000  0.92372000  1.0
  C  C48  1  0.67571000  0.48123000  0.15384000  1.0
  C  C49  1  0.32429000  0.51876000  0.84616000  1.0
  C  C50  1  0.54717000  0.35347000  0.15106000  1.0
  C  C51  1  0.45283000  0.64653000  0.84894000  1.0
  C  C52  1  0.56761000  0.30381000  0.99929000  1.0
  C  C53  1  0.43239000  0.69619000  0.00071000  1.0
  C  C54  1  0.69759000  0.43013000  0.99735000  1.0
  C  C55  1  0.30241000  0.56987000  0.00265000  1.0
  C  C56  1  0.97128000  0.04431000  0.29506000  1.0
  C  C57  1  0.02872000  0.95569000  0.70494000  1.0
  C  C58  1  0.08945000  0.00643000  0.36367000  1.0
  C  C59  1  0.91054000  0.99357000  0.63634000  1.0
  C  C60  1  0.03728000  0.88518000  0.41559000  1.0
  C  C61  1  0.96272000  0.11482000  0.58441000  1.0
  C  C62  1  0.86920000  0.79754000  0.39783000  1.0
  C  C63  1  0.13079000  0.20247000  0.60217000  1.0
  C  C64  1  0.75289000  0.83476000  0.32869000  1.0
  C  C65  1  0.24711000  0.16523000  0.67131000  1.0
  C  C66  1  0.79983000  0.95891000  0.27740000  1.0
  C  C67  1  0.20017000  0.04109000  0.72260000  1.0
  C  C68  1  0.48097000  0.68491000  0.36315000  1.0
  C  C69  1  0.51902000  0.31510000  0.63685000  1.0
  C  C70  1  0.48496000  0.75218000  0.44871000  1.0
  C  C71  1  0.51503000  0.24783000  0.55129000  1.0
  C  C72  1  0.36389000  0.68737000  0.50600000  1.0
  C  C73  1  0.63611000  0.31264000  0.49399000  1.0
  C  C74  1  0.23922000  0.55857000  0.47718000  1.0
  C  C75  1  0.76079000  0.44143000  0.52283000  1.0
  C  C76  1  0.23507000  0.49435000  0.39104000  1.0
  C  C77  1  0.76494000  0.50565000  0.60896000  1.0
  C  C78  1  0.35603000  0.55663000  0.33365000  1.0
  C  C79  1  0.64397000  0.44337000  0.66635000  1.0
  C  C80  1  0.03574000  0.17505000  0.24115000  1.0
  C  C81  1  0.96426000  0.82495000  0.75885000  1.0
  C  C82  1  0.66723000  0.98451000  0.20076000  1.0
  C  C83  1  0.33277000  0.01549000  0.79924000  1.0
  C  C84  1  0.35958000  0.75541000  0.59755000  1.0
  C  C85  1  0.64042000  0.24459000  0.40245000  1.0
  N  N86  1  0.17948000  0.89860000  0.08306000  1.0
  N  N87  1  0.82052000  0.10140000  0.91694000  1.0
  N  N88  1  0.49527000  0.26305000  0.07563000  1.0
  N  N89  1  0.50473000  0.73694000  0.92437000  1.0
  O  O90  1  0.18186000  0.19694000  0.21498000  1.0
  O  O91  1  0.81814000  0.80305000  0.78501000  1.0
  O  O92  1  0.92915000  0.26976000  0.22246000  1.0
  O  O93  1  0.07086000  0.73024000  0.77754000  1.0
  O  O94  1  0.69249000  0.95656000  0.12158000  1.0
  O  O95  1  0.30751000  0.04344000  0.87842000  1.0
  O  O96  1  0.53121000  0.02966000  0.22341000  1.0
  O  O97  1  0.46879000  0.97035000  0.77659000  1.0
  O  O98  1  0.59109000  0.74313000  0.30082000  1.0
  O  O99  1  0.40891000  0.25687000  0.69918000  1.0
  O  O100  1  0.47218000  0.88037000  0.61924000  1.0
  O  O101  1  0.52782000  0.11964000  0.38075000  1.0
  O  O102  1  0.25150000  0.69352000  0.64762000  1.0
  O  O103  1  0.74850000  0.30649000  0.35238000  1.0
