# generated using pymatgen
data_NdH27C28NO12
_symmetry_space_group_name_H-M   'P 1'
_cell_length_a   10.80570000
_cell_length_b   11.61320000
_cell_length_c   13.79300000
_cell_angle_alpha   95.37850000
_cell_angle_beta   103.36200000
_cell_angle_gamma   108.39100000
_symmetry_Int_Tables_number   1
_chemical_formula_structural   NdH27C28NO12
_chemical_formula_sum   'Nd2 H54 C56 N2 O24'
_cell_volume   1571.75266188
_cell_formula_units_Z   2
loop_
 _symmetry_equiv_pos_site_id
 _symmetry_equiv_pos_as_xyz
  1  'x, y, z'
loop_
 _atom_site_type_symbol
 _atom_site_label
 _atom_site_symmetry_multiplicity
 _atom_site_fract_x
 _atom_site_fract_y
 _atom_site_fract_z
 _atom_site_occupancy
  Nd  Nd0  1  0.79936000  0.47051000  0.56490000  1.0
  Nd  Nd1  1  0.20064000  0.52949000  0.43510000  1.0
  H  H2  1  0.49275000  0.23752000  0.53238000  1.0
  H  H3  1  0.50724000  0.76248000  0.46762000  1.0
  H  H4  1  0.51708000  0.43700000  0.20982000  1.0
  H  H5  1  0.48292000  0.56300000  0.79019000  1.0
  H  H6  1  0.38630000  0.40473000  0.27141000  1.0
  H  H7  1  0.61369000  0.59527000  0.72859000  1.0
  H  H8  1  0.30834000  0.47625000  0.11973000  1.0
  H  H9  1  0.69166000  0.52374000  0.88027000  1.0
  H  H10  1  0.21570000  0.31401000  0.09889000  1.0
  H  H11  1  0.78430000  0.68599000  0.90111000  1.0
  H  H12  1  0.13063000  0.41026000  0.97745000  1.0
  H  H13  1  0.86938000  0.58974000  0.02256000  1.0
  H  H14  1  0.02165000  0.43242000  0.80352000  1.0
  H  H15  1  0.97836000  0.56759000  0.19649000  1.0
  H  H16  1  0.44373000  0.32986000  0.86967000  1.0
  H  H17  1  0.55627000  0.67014000  0.13033000  1.0
  H  H18  1  0.33184000  0.35059000  0.69498000  1.0
  H  H19  1  0.66816000  0.64941000  0.30502000  1.0
  H  H20  1  0.62153000  0.30594000  0.29169000  1.0
  H  H21  1  0.37847000  0.69406000  0.70831000  1.0
  H  H22  1  0.53990000  0.14418000  0.24016000  1.0
  H  H23  1  0.46011000  0.85582000  0.75984000  1.0
  H  H24  1  0.62177000  0.34850000  0.11754000  1.0
  H  H25  1  0.37823000  0.65150000  0.88246000  1.0
  H  H26  1  0.72119000  0.25673000  0.16238000  1.0
  H  H27  1  0.27881000  0.74328000  0.83762000  1.0
  H  H28  1  0.74348000  0.33997000  0.01323000  1.0
  H  H29  1  0.25652000  0.66003000  0.98677000  1.0
  H  H30  1  0.76332000  0.36194000  0.83958000  1.0
  H  H31  1  0.23668000  0.63806000  0.16042000  1.0
  H  H32  1  0.37651000  0.02473000  0.88790000  1.0
  H  H33  1  0.62350000  0.97527000  0.11210000  1.0
  H  H34  1  0.38989000  0.05529000  0.71314000  1.0
  H  H35  1  0.61011000  0.94470000  0.28686000  1.0
  H  H36  1  0.34900000  0.14424000  0.31071000  1.0
  H  H37  1  0.65100000  0.85576000  0.68929000  1.0
  H  H38  1  0.23542000  0.20443000  0.23827000  1.0
  H  H39  1  0.76458000  0.79557000  0.76173000  1.0
  H  H40  1  0.31633000  0.99121000  0.15730000  1.0
  H  H41  1  0.68367000  0.00879000  0.84269000  1.0
  H  H42  1  0.16048000  0.98160000  0.18676000  1.0
  H  H43  1  0.83953000  0.01840000  0.81324000  1.0
  H  H44  1  0.10808000  0.82146000  0.07264000  1.0
  H  H45  1  0.89191000  0.17854000  0.92735000  1.0
  H  H46  1  0.00493000  0.65477000  0.92156000  1.0
  H  H47  1  0.99506000  0.34523000  0.07844000  1.0
  H  H48  1  0.15653000  0.09224000  0.87732000  1.0
  H  H49  1  0.84348000  0.90776000  0.12268000  1.0
  H  H50  1  0.05819000  0.92167000  0.72553000  1.0
  H  H51  1  0.94182000  0.07833000  0.27447000  1.0
  H  H52  1  0.88345000  0.29700000  0.41711000  1.0
  H  H53  1  0.11655000  0.70300000  0.58288000  1.0
  H  H54  1  0.72518000  0.25651000  0.38150000  1.0
  H  H55  1  0.27481000  0.74349000  0.61850000  1.0
  C  C56  1  0.41526000  0.37327000  0.20480000  1.0
  C  C57  1  0.58474000  0.62673000  0.79520000  1.0
  C  C58  1  0.31679000  0.38401000  0.11146000  1.0
  C  C59  1  0.68321000  0.61598000  0.88854000  1.0
  C  C60  1  0.29643000  0.37139000  0.93442000  1.0
  C  C61  1  0.70357000  0.62861000  0.06558000  1.0
  C  C62  1  0.17508000  0.39726000  0.91594000  1.0
  C  C63  1  0.82492000  0.60274000  0.08406000  1.0
  C  C64  1  0.11357000  0.40885000  0.81849000  1.0
  C  C65  1  0.88644000  0.59116000  0.18152000  1.0
  C  C66  1  0.35103000  0.35148000  0.85387000  1.0
  C  C67  1  0.64897000  0.64852000  0.14613000  1.0
  C  C68  1  0.28923000  0.36352000  0.75774000  1.0
  C  C69  1  0.71077000  0.63648000  0.24226000  1.0
  C  C70  1  0.17168000  0.39524000  0.73925000  1.0
  C  C71  1  0.82833000  0.60476000  0.26075000  1.0
  C  C72  1  0.11911000  0.42416000  0.63914000  1.0
  C  C73  1  0.88088000  0.57584000  0.36086000  1.0
  C  C74  1  0.54984000  0.23723000  0.22407000  1.0
  C  C75  1  0.45016000  0.76277000  0.77593000  1.0
  C  C76  1  0.61711000  0.25847000  0.13863000  1.0
  C  C77  1  0.38289000  0.74153000  0.86137000  1.0
  C  C78  1  0.55780000  0.18023000  0.96117000  1.0
  C  C79  1  0.44221000  0.81977000  0.03883000  1.0
  C  C80  1  0.66755000  0.27594000  0.94818000  1.0
  C  C81  1  0.33245000  0.72406000  0.05182000  1.0
  C  C82  1  0.67867000  0.28858000  0.85121000  1.0
  C  C83  1  0.32134000  0.71142000  0.14879000  1.0
  C  C84  1  0.46054000  0.09789000  0.87588000  1.0
  C  C85  1  0.53946000  0.90212000  0.12412000  1.0
  C  C86  1  0.46912000  0.11483000  0.77922000  1.0
  C  C87  1  0.53088000  0.88516000  0.22078000  1.0
  C  C88  1  0.57883000  0.21049000  0.76561000  1.0
  C  C89  1  0.42116000  0.78951000  0.23439000  1.0
  C  C90  1  0.59020000  0.23978000  0.66629000  1.0
  C  C91  1  0.40981000  0.76022000  0.33371000  1.0
  C  C92  1  0.31261000  0.16286000  0.23378000  1.0
  C  C93  1  0.68739000  0.83713000  0.76622000  1.0
  C  C94  1  0.24467000  0.04015000  0.16121000  1.0
  C  C95  1  0.75533000  0.95985000  0.83879000  1.0
  C  C96  1  0.13894000  0.96790000  0.98414000  1.0
  C  C97  1  0.86107000  0.03210000  0.01586000  1.0
  C  C98  1  0.09696000  0.84445000  0.99724000  1.0
  C  C99  1  0.90304000  0.15555000  0.00276000  1.0
  C  C100  1  0.03945000  0.75106000  0.91268000  1.0
  C  C101  1  0.96054000  0.24894000  0.08732000  1.0
  C  C102  1  0.12343000  0.99567000  0.88571000  1.0
  C  C103  1  0.87658000  0.00434000  0.11428000  1.0
  C  C104  1  0.06947000  0.90094000  0.80192000  1.0
  C  C105  1  0.93053000  0.09906000  0.19807000  1.0
  C  C106  1  0.02574000  0.77703000  0.81440000  1.0
  C  C107  1  0.97426000  0.22297000  0.18560000  1.0
  C  C108  1  0.95832000  0.67324000  0.72741000  1.0
  C  C109  1  0.04167000  0.32676000  0.27259000  1.0
  C  C110  1  0.46572000  0.43092000  0.47353000  1.0
  C  C111  1  0.53428000  0.56907000  0.52647000  1.0
  N  N112  1  0.41825000  0.24914000  0.20203000  1.0
  N  N113  1  0.58175000  0.75086000  0.79797000  1.0
  O  O114  1  0.19473000  0.06489000  0.06216000  1.0
  O  O115  1  0.80527000  0.93511000  0.93784000  1.0
  O  O116  1  0.53723000  0.16217000  0.05236000  1.0
  O  O117  1  0.46278000  0.83784000  0.94764000  1.0
  O  O118  1  0.36868000  0.36494000  0.02656000  1.0
  O  O119  1  0.63133000  0.63506000  0.97344000  1.0
  O  O120  1  0.47736000  0.19151000  0.58962000  1.0
  O  O121  1  0.52263000  0.80849000  0.41038000  1.0
  O  O122  1  0.69827000  0.31020000  0.65529000  1.0
  O  O123  1  0.30172000  0.68979000  0.34471000  1.0
  O  O124  1  0.87774000  0.57258000  0.74202000  1.0
  O  O125  1  0.12225000  0.42743000  0.25798000  1.0
  O  O126  1  0.97697000  0.68379000  0.63939000  1.0
  O  O127  1  0.02303000  0.31621000  0.36060000  1.0
  O  O128  1  0.19772000  0.44239000  0.58145000  1.0
  O  O129  1  0.80227000  0.55761000  0.41854000  1.0
  O  O130  1  0.00248000  0.43414000  0.61560000  1.0
  O  O131  1  0.99751000  0.56586000  0.38440000  1.0
  O  O132  1  0.54365000  0.36681000  0.47987000  1.0
  O  O133  1  0.45634000  0.63318000  0.52012000  1.0
  O  O134  1  0.34121000  0.39318000  0.42902000  1.0
  O  O135  1  0.65878000  0.60681000  0.57098000  1.0
  O  O136  1  0.80226000  0.29072000  0.44164000  1.0
  O  O137  1  0.19774000  0.70929000  0.55836000  1.0
