# generated using pymatgen
data_CuTeMo3H8C10(NO6)2
_symmetry_space_group_name_H-M   'P 1'
_cell_length_a   7.73435000
_cell_length_b   9.77500000
_cell_length_c   12.46690000
_cell_angle_alpha   99.20170000
_cell_angle_beta   107.20700000
_cell_angle_gamma   101.66000000
_symmetry_Int_Tables_number   1
_chemical_formula_structural   CuTeMo3H8C10(NO6)2
_chemical_formula_sum   'Cu2 Te2 Mo6 H16 C20 N4 O24'
_cell_volume   857.11381547
_cell_formula_units_Z   2
loop_
 _symmetry_equiv_pos_site_id
 _symmetry_equiv_pos_as_xyz
  1  'x, y, z'
loop_
 _atom_site_type_symbol
 _atom_site_label
 _atom_site_symmetry_multiplicity
 _atom_site_fract_x
 _atom_site_fract_y
 _atom_site_fract_z
 _atom_site_occupancy
  Cu  Cu0  1  0.46910000  0.31433000  0.31247000  1.0
  Cu  Cu1  1  0.53089000  0.68566000  0.68753000  1.0
  Te  Te2  1  0.76522000  0.79142000  0.98580000  1.0
  Te  Te3  1  0.23477000  0.20858000  0.01420000  1.0
  Mo  Mo4  1  0.63241000  0.55192000  0.15056000  1.0
  Mo  Mo5  1  0.36759000  0.44807000  0.84946000  1.0
  Mo  Mo6  1  0.71149000  0.25040000  0.96857000  1.0
  Mo  Mo7  1  0.28850000  0.74960000  0.03143000  1.0
  Mo  Mo8  1  0.64069000  0.05152000  0.15737000  1.0
  Mo  Mo9  1  0.35930000  0.94847000  0.84263000  1.0
  H  H10  1  0.16547000  0.03695000  0.24583000  1.0
  H  H11  1  0.83453000  0.96305000  0.75418000  1.0
  H  H12  1  0.04574000  0.86702000  0.35443000  1.0
  H  H13  1  0.95426000  0.13298000  0.64557000  1.0
  H  H14  1  0.19515000  0.92868000  0.57306000  1.0
  H  H15  1  0.80487000  0.07132000  0.42694000  1.0
  H  H16  1  0.45647000  0.14978000  0.66942000  1.0
  H  H17  1  0.54354000  0.85022000  0.33059000  1.0
  H  H18  1  0.01820000  0.67762000  0.64030000  1.0
  H  H19  1  0.98180000  0.32237000  0.35969000  1.0
  H  H20  1  0.79994000  0.57574000  0.43354000  1.0
  H  H21  1  0.20005000  0.42426000  0.56645000  1.0
  H  H22  1  0.69900000  0.33093000  0.73432000  1.0
  H  H23  1  0.30102000  0.66908000  0.26568000  1.0
  H  H24  1  0.96251000  0.55140000  0.79160000  1.0
  H  H25  1  0.03752000  0.44860000  0.20839000  1.0
  C  C26  1  0.22620000  0.05515000  0.33918000  1.0
  C  C27  1  0.77379000  0.94484000  0.66082000  1.0
  C  C28  1  0.45288000  0.20704000  0.50837000  1.0
  C  C29  1  0.54712000  0.79296000  0.49164000  1.0
  C  C30  1  0.16083000  0.96251000  0.40124000  1.0
  C  C31  1  0.83918000  0.03750000  0.59875000  1.0
  C  C32  1  0.24361000  0.99706000  0.52114000  1.0
  C  C33  1  0.75639000  0.00294000  0.47887000  1.0
  C  C34  1  0.39097000  0.12084000  0.57577000  1.0
  C  C35  1  0.60905000  0.87917000  0.42424000  1.0
  C  C36  1  0.61100000  0.33680000  0.55393000  1.0
  C  C37  1  0.38900000  0.66320000  0.44607000  1.0
  C  C38  1  0.90257000  0.58170000  0.61780000  1.0
  C  C39  1  0.09745000  0.41830000  0.38219000  1.0
  C  C40  1  0.78414000  0.52604000  0.50361000  1.0
  C  C41  1  0.21586000  0.47396000  0.49637000  1.0
  C  C42  1  0.72497000  0.38690000  0.66968000  1.0
  C  C43  1  0.27505000  0.61310000  0.33032000  1.0
  C  C44  1  0.87181000  0.51099000  0.70186000  1.0
  C  C45  1  0.12820000  0.48901000  0.29813000  1.0
  N  N46  1  0.36774000  0.17384000  0.39185000  1.0
  N  N47  1  0.63226000  0.82616000  0.60815000  1.0
  N  N48  1  0.64232000  0.40701000  0.47323000  1.0
  N  N49  1  0.35768000  0.59299000  0.52676000  1.0
  O  O50  1  0.79874000  0.14260000  0.07825000  1.0
  O  O51  1  0.20126000  0.85739000  0.92175000  1.0
  O  O52  1  0.72994000  0.40022000  0.09066000  1.0
  O  O53  1  0.27005000  0.59978000  0.90934000  1.0
  O  O54  1  0.55148000  0.87105000  0.98512000  1.0
  O  O55  1  0.44851000  0.12895000  0.01488000  1.0
  O  O56  1  0.46556000  0.67482000  0.13330000  1.0
  O  O57  1  0.53444000  0.32518000  0.86670000  1.0
  O  O58  1  0.63850000  0.60173000  0.98712000  1.0
  O  O59  1  0.36149000  0.39827000  0.01288000  1.0
  O  O60  1  0.56656000  0.47454000  0.25605000  1.0
  O  O61  1  0.43344000  0.52546000  0.74394000  1.0
  O  O62  1  0.67133000  0.19475000  0.26951000  1.0
  O  O63  1  0.32867000  0.80525000  0.73050000  1.0
  O  O64  1  0.79037000  0.95434000  0.21721000  1.0
  O  O65  1  0.20963000  0.04566000  0.78279000  1.0
  O  O66  1  0.59409000  0.06862000  0.85324000  1.0
  O  O67  1  0.40590000  0.93138000  0.14677000  1.0
  O  O68  1  0.91235000  0.30739000  0.93775000  1.0
  O  O69  1  0.08764000  0.69261000  0.06225000  1.0
  O  O70  1  0.74144000  0.76834000  0.83092000  1.0
  O  O71  1  0.25855000  0.23165000  0.16908000  1.0
  O  O72  1  0.84252000  0.67440000  0.22837000  1.0
  O  O73  1  0.15747000  0.32559000  0.77163000  1.0
