# generated using pymatgen
data_MnH18C21N4O5
_symmetry_space_group_name_H-M   'P 1'
_cell_length_a   6.73889000
_cell_length_b   9.74241362
_cell_length_c   15.45710000
_cell_angle_alpha   102.71608930
_cell_angle_beta   95.08600000
_cell_angle_gamma   109.83128422
_symmetry_Int_Tables_number   1
_chemical_formula_structural   MnH18C21N4O5
_chemical_formula_sum   'Mn2 H36 C42 N8 O10'
_cell_volume   916.34002831
_cell_formula_units_Z   2
loop_
 _symmetry_equiv_pos_site_id
 _symmetry_equiv_pos_as_xyz
  1  'x, y, z'
loop_
 _atom_site_type_symbol
 _atom_site_label
 _atom_site_symmetry_multiplicity
 _atom_site_fract_x
 _atom_site_fract_y
 _atom_site_fract_z
 _atom_site_occupancy
  Mn  Mn0  1  0.49801000  0.69891000  0.53451000  1.0
  Mn  Mn1  1  0.50199000  0.30110000  0.46550000  1.0
  H  H2  1  0.28521000  0.91350000  0.53337000  1.0
  H  H3  1  0.71479000  0.08650000  0.46662000  1.0
  H  H4  1  0.17084000  0.81107000  0.59491000  1.0
  H  H5  1  0.82916000  0.18893000  0.40509000  1.0
  H  H6  1  0.27027000  0.72463000  0.21027000  1.0
  H  H7  1  0.72972000  0.27536000  0.78973000  1.0
  H  H8  1  0.47309000  0.75831000  0.77200000  1.0
  H  H9  1  0.52690000  0.24169000  0.22799000  1.0
  H  H10  1  0.96339000  0.56081000  0.11244000  1.0
  H  H11  1  0.03661000  0.43919000  0.88756000  1.0
  H  H12  1  0.76385000  0.37004000  0.97099000  1.0
  H  H13  1  0.23615000  0.62996000  0.02901000  1.0
  H  H14  1  0.88895000  0.02602000  0.07451000  1.0
  H  H15  1  0.11105000  0.97398000  0.92549000  1.0
  H  H16  1  0.08371000  0.21641000  0.21746000  1.0
  H  H17  1  0.91628000  0.78359000  0.78254000  1.0
  H  H18  1  0.16928000  0.40740000  0.36891000  1.0
  H  H19  1  0.83072000  0.59260000  0.63109000  1.0
  H  H20  1  0.46108000  0.86461000  0.37036000  1.0
  H  H21  1  0.53893000  0.13539000  0.62964000  1.0
  H  H22  1  0.63607000  0.83946000  0.94267000  1.0
  H  H23  1  0.36393000  0.16054000  0.05733000  1.0
  H  H24  1  0.49375000  0.97982000  0.71379000  1.0
  H  H25  1  0.50624000  0.02018000  0.28621000  1.0
  H  H26  1  0.02960000  0.21208000  0.54115000  1.0
  H  H27  1  0.97040000  0.78792000  0.45885000  1.0
  H  H28  1  0.02414000  0.03288000  0.77167000  1.0
  H  H29  1  0.97587000  0.96712000  0.22833000  1.0
  H  H30  1  0.40879000  0.49898000  0.79555000  1.0
  H  H31  1  0.59121000  0.50102000  0.20445000  1.0
  H  H32  1  0.40874000  0.40933000  0.92592000  1.0
  H  H33  1  0.59126000  0.59067000  0.07409000  1.0
  H  H34  1  0.39774000  0.21964000  0.90116000  1.0
  H  H35  1  0.60225000  0.78035000  0.09884000  1.0
  H  H36  1  0.17026000  0.26080000  0.93021000  1.0
  H  H37  1  0.82973000  0.73919000  0.06979000  1.0
  C  C38  1  0.94832000  0.44375000  0.10438000  1.0
  C  C39  1  0.05168000  0.55625000  0.89562000  1.0
  C  C40  1  0.83558000  0.33607000  0.02442000  1.0
  C  C41  1  0.16442000  0.66393000  0.97558000  1.0
  C  C42  1  0.81398000  0.18388000  0.01092000  1.0
  C  C43  1  0.18601000  0.81612000  0.98908000  1.0
  C  C44  1  0.90250000  0.14311000  0.08286000  1.0
  C  C45  1  0.09750000  0.85689000  0.91714000  1.0
  C  C46  1  0.01296000  0.25029000  0.16342000  1.0
  C  C47  1  0.98702000  0.74970000  0.83658000  1.0
  C  C48  1  0.04177000  0.40395000  0.17509000  1.0
  C  C49  1  0.95822000  0.59605000  0.82491000  1.0
  C  C50  1  0.16599000  0.51826000  0.25724000  1.0
  C  C51  1  0.83401000  0.48174000  0.74276000  1.0
  C  C52  1  0.21526000  0.50689000  0.34363000  1.0
  C  C53  1  0.78473000  0.49311000  0.65637000  1.0
  C  C54  1  0.36635000  0.74456000  0.34746000  1.0
  C  C55  1  0.63366000  0.25544000  0.65254000  1.0
  C  C56  1  0.70515000  0.07420000  0.92465000  1.0
  C  C57  1  0.29484000  0.92580000  0.07535000  1.0
  C  C58  1  0.63210000  0.91711000  0.90276000  1.0
  C  C59  1  0.36790000  0.08289000  0.09724000  1.0
  C  C60  1  0.55635000  0.99072000  0.78315000  1.0
  C  C61  1  0.44364000  0.00928000  0.21684000  1.0
  C  C62  1  0.22763000  0.36702000  0.66357000  1.0
  C  C63  1  0.77238000  0.63298000  0.33643000  1.0
  C  C64  1  0.08264000  0.22654000  0.61198000  1.0
  C  C65  1  0.91737000  0.77346000  0.38802000  1.0
  C  C66  1  0.00695000  0.10661000  0.65083000  1.0
  C  C67  1  0.99306000  0.89340000  0.34917000  1.0
  C  C68  1  0.08308000  0.12742000  0.74192000  1.0
  C  C69  1  0.91692000  0.87258000  0.25808000  1.0
  C  C70  1  0.22704000  0.26870000  0.79544000  1.0
  C  C71  1  0.77296000  0.73130000  0.20456000  1.0
  C  C72  1  0.29626000  0.38835000  0.75545000  1.0
  C  C73  1  0.70374000  0.61165000  0.24455000  1.0
  C  C74  1  0.83721000  0.96222000  0.59551000  1.0
  C  C75  1  0.16279000  0.03778000  0.40449000  1.0
  C  C76  1  0.31062000  0.48839000  0.61786000  1.0
  C  C77  1  0.68938000  0.51161000  0.38214000  1.0
  C  C78  1  0.30474000  0.29100000  0.89363000  1.0
  C  C79  1  0.69526000  0.70900000  0.10637000  1.0
  N  N80  1  0.33990000  0.64829000  0.39892000  1.0
  N  N81  1  0.66011000  0.35171000  0.60108000  1.0
  N  N82  1  0.26327000  0.67099000  0.26211000  1.0
  N  N83  1  0.73673000  0.32901000  0.73789000  1.0
  N  N84  1  0.53948000  0.86738000  0.81349000  1.0
  N  N85  1  0.46052000  0.13262000  0.18651000  1.0
  N  N86  1  0.65609000  0.11826000  0.84806000  1.0
  N  N87  1  0.34391000  0.88174000  0.15194000  1.0
  O  O88  1  0.38929000  0.62773000  0.66160000  1.0
  O  O89  1  0.61073000  0.37228000  0.33840000  1.0
  O  O90  1  0.30656000  0.45068000  0.53229000  1.0
  O  O91  1  0.69344000  0.54932000  0.46771000  1.0
  O  O92  1  0.72577000  0.96068000  0.52381000  1.0
  O  O93  1  0.27423000  0.03932000  0.47619000  1.0
  O  O94  1  0.79992000  0.84145000  0.62224000  1.0
  O  O95  1  0.20009000  0.15855000  0.37776000  1.0
  O  O96  1  0.30785000  0.85343000  0.57602000  1.0
  O  O97  1  0.69215000  0.14657000  0.42398000  1.0
