# generated using pymatgen
data_CdH8C10S(NCl)2
_symmetry_space_group_name_H-M   'P 1'
_cell_length_a   6.93238000
_cell_length_b   10.48520000
_cell_length_c   17.71270000
_cell_angle_alpha   90.00000000
_cell_angle_beta   90.00010000
_cell_angle_gamma   103.08900000
_symmetry_Int_Tables_number   1
_chemical_formula_structural   CdH8C10S(NCl)2
_chemical_formula_sum   'Cd4 H32 C40 S4 N8 Cl8'
_cell_volume   1254.04026673
_cell_formula_units_Z   4
loop_
 _symmetry_equiv_pos_site_id
 _symmetry_equiv_pos_as_xyz
  1  'x, y, z'
loop_
 _atom_site_type_symbol
 _atom_site_label
 _atom_site_symmetry_multiplicity
 _atom_site_fract_x
 _atom_site_fract_y
 _atom_site_fract_z
 _atom_site_occupancy
  Cd  Cd0  1  0.26920000  0.07732000  0.97573000  1.0
  Cd  Cd1  1  0.23080000  0.42268000  0.47573000  1.0
  Cd  Cd2  1  0.73080000  0.92268000  0.02427000  1.0
  Cd  Cd3  1  0.76920000  0.57732000  0.52427000  1.0
  H  H4  1  0.23063000  0.59475000  0.93798000  1.0
  H  H5  1  0.26937000  0.90525000  0.43798000  1.0
  H  H6  1  0.76937000  0.40525000  0.06202000  1.0
  H  H7  1  0.73063000  0.09475000  0.56202000  1.0
  H  H8  1  0.26331000  0.65156000  0.07375000  1.0
  H  H9  1  0.23668000  0.84844000  0.57374000  1.0
  H  H10  1  0.73669000  0.34844000  0.92626000  1.0
  H  H11  1  0.76332000  0.15156000  0.42626000  1.0
  H  H12  1  0.28879000  0.47336000  0.16794000  1.0
  H  H13  1  0.21120000  0.02664000  0.66794000  1.0
  H  H14  1  0.71121000  0.52664000  0.83206000  1.0
  H  H15  1  0.78880000  0.97336000  0.33206000  1.0
  H  H16  1  0.28893000  0.24965000  0.11798000  1.0
  H  H17  1  0.21107000  0.25035000  0.61798000  1.0
  H  H18  1  0.71107000  0.75035000  0.88201000  1.0
  H  H19  1  0.78893000  0.74965000  0.38202000  1.0
  H  H20  1  0.40326000  0.41063000  0.72998000  1.0
  H  H21  1  0.09674000  0.08937000  0.22998000  1.0
  H  H22  1  0.59674000  0.58937000  0.27002000  1.0
  H  H23  1  0.90326000  0.91063000  0.77002000  1.0
  H  H24  1  0.64734000  0.30376000  0.66824000  1.0
  H  H25  1  0.85266000  0.19624000  0.16824000  1.0
  H  H26  1  0.35266000  0.69624000  0.33176000  1.0
  H  H27  1  0.14734000  0.80376000  0.83176000  1.0
  H  H28  1  0.73924000  0.11130000  0.73437000  1.0
  H  H29  1  0.76076000  0.38870000  0.23437000  1.0
  H  H30  1  0.26076000  0.88870000  0.26563000  1.0
  H  H31  1  0.23923000  0.61130000  0.76563000  1.0
  H  H32  1  0.57792000  0.03720000  0.85780000  1.0
  H  H33  1  0.92209000  0.46280000  0.35780000  1.0
  H  H34  1  0.42208000  0.96279000  0.14220000  1.0
  H  H35  1  0.07791000  0.53721000  0.64220000  1.0
  C  C36  1  0.23067000  0.39061000  0.95740000  1.0
  C  C37  1  0.26933000  0.10939000  0.45740000  1.0
  C  C38  1  0.76933000  0.60939000  0.04260000  1.0
  C  C39  1  0.73067000  0.89061000  0.54260000  1.0
  C  C40  1  0.23852000  0.51982000  0.97964000  1.0
  C  C41  1  0.26147000  0.98018000  0.47964000  1.0
  C  C42  1  0.76147000  0.48018000  0.02036000  1.0
  C  C43  1  0.73853000  0.01982000  0.52036000  1.0
  C  C44  1  0.25840000  0.55126000  0.05601000  1.0
  C  C45  1  0.24160000  0.94874000  0.55601000  1.0
  C  C46  1  0.74160000  0.44874000  0.94399000  1.0
  C  C47  1  0.75840000  0.05126000  0.44399000  1.0
  C  C48  1  0.27432000  0.45364000  0.10762000  1.0
  C  C49  1  0.22567000  0.04636000  0.60762000  1.0
  C  C50  1  0.72567000  0.54636000  0.89238000  1.0
  C  C51  1  0.77433000  0.95364000  0.39238000  1.0
  C  C52  1  0.27284000  0.32889000  0.08038000  1.0
  C  C53  1  0.22716000  0.17111000  0.58038000  1.0
  C  C54  1  0.72716000  0.67111000  0.91962000  1.0
  C  C55  1  0.77284000  0.82889000  0.41962000  1.0
  C  C56  1  0.35883000  0.27767000  0.82543000  1.0
  C  C57  1  0.14117000  0.22233000  0.32543000  1.0
  C  C58  1  0.64117000  0.72233000  0.17457000  1.0
  C  C59  1  0.85883000  0.77767000  0.67457000  1.0
  C  C60  1  0.44326000  0.32651000  0.75651000  1.0
  C  C61  1  0.05674000  0.17349000  0.25651000  1.0
  C  C62  1  0.55674000  0.67349000  0.24349000  1.0
  C  C63  1  0.94326000  0.82651000  0.74349000  1.0
  C  C64  1  0.58076000  0.26680000  0.72214000  1.0
  C  C65  1  0.91924000  0.23320000  0.22214000  1.0
  C  C66  1  0.41924000  0.73320000  0.27786000  1.0
  C  C67  1  0.08076000  0.76680000  0.77786000  1.0
  C  C68  1  0.63231000  0.16141000  0.75855000  1.0
  C  C69  1  0.86768000  0.33859000  0.25855000  1.0
  C  C70  1  0.36768000  0.83859000  0.24145000  1.0
  C  C71  1  0.13232000  0.66141000  0.74145000  1.0
  C  C72  1  0.54248000  0.11907000  0.82719000  1.0
  C  C73  1  0.95752000  0.38093000  0.32719000  1.0
  C  C74  1  0.45752000  0.88093000  0.17281000  1.0
  C  C75  1  0.04248000  0.61908000  0.67281000  1.0
  S  S76  1  0.17403000  0.35458000  0.86090000  1.0
  S  S77  1  0.32598000  0.14542000  0.36090000  1.0
  S  S78  1  0.82598000  0.64543000  0.13910000  1.0
  S  S79  1  0.67402000  0.85458000  0.63910000  1.0
  N  N80  1  0.24809000  0.29678000  0.00692000  1.0
  N  N81  1  0.25191000  0.20322000  0.50692000  1.0
  N  N82  1  0.75191000  0.70322000  0.99308000  1.0
  N  N83  1  0.74809000  0.79678000  0.49308000  1.0
  N  N84  1  0.40635000  0.17470000  0.85993000  1.0
  N  N85  1  0.09366000  0.32530000  0.35993000  1.0
  N  N86  1  0.59365000  0.82530000  0.14007000  1.0
  N  N87  1  0.90634000  0.67470000  0.64007000  1.0
  Cl  Cl88  1  0.06964000  0.99073000  0.09778000  1.0
  Cl  Cl89  1  0.43036000  0.50927000  0.59778000  1.0
  Cl  Cl90  1  0.93036000  0.00927000  0.90222000  1.0
  Cl  Cl91  1  0.56964000  0.49073000  0.40222000  1.0
  Cl  Cl92  1  0.37811000  0.85745000  0.95035000  1.0
  Cl  Cl93  1  0.12189000  0.64255000  0.45035000  1.0
  Cl  Cl94  1  0.62189000  0.14255000  0.04965000  1.0
  Cl  Cl95  1  0.87811000  0.35745000  0.54965000  1.0
