# generated using pymatgen
data_Zn4H4C20O17F2
_symmetry_space_group_name_H-M   'P 1'
_cell_length_a   15.94200000
_cell_length_b   15.94280000
_cell_length_c   17.10400638
_cell_angle_alpha   117.55108209
_cell_angle_beta   117.54903763
_cell_angle_gamma   90.41690000
_symmetry_Int_Tables_number   1
_chemical_formula_structural   Zn4H4C20O17F2
_chemical_formula_sum   'Zn8 H8 C40 O34 F4'
_cell_volume   3279.08751300
_cell_formula_units_Z   2
loop_
 _symmetry_equiv_pos_site_id
 _symmetry_equiv_pos_as_xyz
  1  'x, y, z'
loop_
 _atom_site_type_symbol
 _atom_site_label
 _atom_site_symmetry_multiplicity
 _atom_site_fract_x
 _atom_site_fract_y
 _atom_site_fract_z
 _atom_site_occupancy
  Zn  Zn0  1  0.89479000  0.29253000  0.58761000  1.0
  Zn  Zn1  1  0.29623000  0.69571000  0.59030000  1.0
  Zn  Zn2  1  0.69572000  0.29623000  0.59031000  1.0
  Zn  Zn3  1  0.30428000  0.70377000  0.40969000  1.0
  Zn  Zn4  1  0.70377000  0.30429000  0.40970000  1.0
  Zn  Zn5  1  0.10519000  0.70746000  0.41238000  1.0
  Zn  Zn6  1  0.70745000  0.10521000  0.41238000  1.0
  Zn  Zn7  1  0.29254000  0.89479000  0.58762000  1.0
  H  H8  1  0.11388000  0.41668000  0.07035000  1.0
  H  H9  1  0.79280000  0.19521000  0.82345000  1.0
  H  H10  1  0.19500000  0.79318000  0.82342000  1.0
  H  H11  1  0.80501000  0.20682000  0.17658000  1.0
  H  H12  1  0.20720000  0.80480000  0.17655000  1.0
  H  H13  1  0.88612000  0.58331000  0.92965000  1.0
  H  H14  1  0.58313000  0.88581000  0.92968000  1.0
  H  H15  1  0.41687000  0.11419000  0.07032000  1.0
  C  C16  1  0.61165000  0.10822000  0.22224000  1.0
  C  C17  1  0.47322000  0.97255000  0.49979000  1.0
  C  C18  1  0.97256000  0.47322000  0.49979000  1.0
  C  C19  1  0.02744000  0.52677000  0.50020000  1.0
  C  C20  1  0.52678000  0.02746000  0.50022000  1.0
  C  C21  1  0.52681000  0.47318000  0.50000000  1.0
  C  C22  1  0.47318000  0.52681000  0.49999000  1.0
  C  C23  1  0.38835000  0.89178000  0.77776000  1.0
  C  C24  1  0.90793000  0.40897000  0.49978000  1.0
  C  C25  1  0.09207000  0.59102000  0.50021000  1.0
  C  C26  1  0.59102000  0.09207000  0.50022000  1.0
  C  C27  1  0.40898000  0.90792000  0.49978000  1.0
  C  C28  1  0.59083000  0.40919000  0.50001000  1.0
  C  C29  1  0.89180000  0.38831000  0.77775000  1.0
  C  C30  1  0.40917000  0.59081000  0.49999000  1.0
  C  C31  1  0.90931000  0.09069000  0.49999000  1.0
  C  C32  1  0.09069000  0.90931000  0.50001000  1.0
  C  C33  1  0.97319000  0.02680000  0.49999000  1.0
  C  C34  1  0.02680000  0.97320000  0.50000000  1.0
  C  C35  1  0.10820000  0.61169000  0.22225000  1.0
  C  C36  1  0.06443000  0.49017000  0.96907000  1.0
  C  C37  1  0.93557000  0.50983000  0.03093000  1.0
  C  C38  1  0.50965000  0.93561000  0.03096000  1.0
  C  C39  1  0.49035000  0.06439000  0.96904000  1.0
  C  C40  1  0.06342000  0.45393000  0.03882000  1.0
  C  C41  1  0.93658000  0.54607000  0.96118000  1.0
  C  C42  1  0.54598000  0.93641000  0.96121000  1.0
  C  C43  1  0.45402000  0.06359000  0.03879000  1.0
  C  C44  1  0.05011000  0.55386000  0.10692000  1.0
  C  C45  1  0.94989000  0.44614000  0.89308000  1.0
  C  C46  1  0.44617000  0.94988000  0.89309000  1.0
  C  C47  1  0.55383000  0.05012000  0.10691000  1.0
  C  C48  1  0.05105000  0.59214000  0.03635000  1.0
  C  C49  1  0.94895000  0.40786000  0.96365000  1.0
  C  C50  1  0.40777000  0.94912000  0.96364000  1.0
  C  C51  1  0.59222000  0.05087000  0.03635000  1.0
  C  C52  1  0.10341000  0.68831000  0.06427000  1.0
  C  C53  1  0.89659000  0.31169000  0.93573000  1.0
  C  C54  1  0.31150000  0.89697000  0.93570000  1.0
  C  C55  1  0.68850000  0.10304000  0.06430000  1.0
  O  O56  1  0.75003000  0.24997000  0.50000000  1.0
  O  O57  1  0.34544000  0.93744000  0.73297000  1.0
  O  O58  1  0.93745000  0.34538000  0.73295000  1.0
  O  O59  1  0.06255000  0.65462000  0.26705000  1.0
  O  O60  1  0.81813000  0.37496000  0.42570000  1.0
  O  O61  1  0.18186000  0.62503000  0.57429000  1.0
  O  O62  1  0.62503000  0.18187000  0.57430000  1.0
  O  O63  1  0.37498000  0.81813000  0.42571000  1.0
  O  O64  1  0.24997000  0.75003000  0.50000000  1.0
  O  O65  1  0.63017000  0.39900000  0.44726000  1.0
  O  O66  1  0.36983000  0.60100000  0.55274000  1.0
  O  O67  1  0.60103000  0.36986000  0.55277000  1.0
  O  O68  1  0.39897000  0.63014000  0.44723000  1.0
  O  O69  1  0.81813000  0.04912000  0.45499000  1.0
  O  O70  1  0.18186000  0.95088000  0.54501000  1.0
  O  O71  1  0.95086000  0.18185000  0.54497000  1.0
  O  O72  1  0.04913000  0.81815000  0.45503000  1.0
  O  O73  1  0.94811000  0.39327000  0.57381000  1.0
  O  O74  1  0.05188000  0.60671000  0.42618000  1.0
  O  O75  1  0.60673000  0.05190000  0.42620000  1.0
  O  O76  1  0.39327000  0.94811000  0.57380000  1.0
  O  O77  1  0.61250000  0.19854000  0.26504000  1.0
  O  O78  1  0.38750000  0.80146000  0.73496000  1.0
  O  O79  1  0.80148000  0.38750000  0.73496000  1.0
  O  O80  1  0.19852000  0.61250000  0.26504000  1.0
  O  O81  1  0.65456000  0.06257000  0.26704000  1.0
  O  O82  1  0.08523000  0.71154000  0.00067000  1.0
  O  O83  1  0.17425000  0.74528000  0.16647000  1.0
  O  O84  1  0.91479000  0.28845000  0.99932000  1.0
  O  O85  1  0.82574000  0.25473000  0.83353000  1.0
  O  O86  1  0.28814000  0.91534000  0.99924000  1.0
  O  O87  1  0.25457000  0.82603000  0.83352000  1.0
  O  O88  1  0.71185000  0.08467000  0.00076000  1.0
  O  O89  1  0.74543000  0.17396000  0.16648000  1.0
  F  F90  1  0.13175000  0.48239000  0.94035000  1.0
  F  F91  1  0.86825000  0.51761000  0.05965000  1.0
  F  F92  1  0.51723000  0.86833000  0.05970000  1.0
  F  F93  1  0.48277000  0.13168000  0.94030000  1.0
