# generated using pymatgen
data_CdH11C15Br4(NO3)2
_symmetry_space_group_name_H-M   'P 1'
_cell_length_a   9.30999000
_cell_length_b   9.34340000
_cell_length_c   13.60170000
_cell_angle_alpha   70.43460000
_cell_angle_beta   88.52110000
_cell_angle_gamma   63.70010000
_symmetry_Int_Tables_number   1
_chemical_formula_structural   CdH11C15Br4(NO3)2
_chemical_formula_sum   'Cd2 H22 C30 Br8 N4 O12'
_cell_volume   988.87556201
_cell_formula_units_Z   2
loop_
 _symmetry_equiv_pos_site_id
 _symmetry_equiv_pos_as_xyz
  1  'x, y, z'
loop_
 _atom_site_type_symbol
 _atom_site_label
 _atom_site_symmetry_multiplicity
 _atom_site_fract_x
 _atom_site_fract_y
 _atom_site_fract_z
 _atom_site_occupancy
  Cd  Cd0  1  0.46122000  0.30582000  0.53416000  1.0
  Cd  Cd1  1  0.53878000  0.69418000  0.46583000  1.0
  H  H2  1  0.16024000  0.26725000  0.55094000  1.0
  H  H3  1  0.83976000  0.73275000  0.44906000  1.0
  H  H4  1  0.31684000  0.10237000  0.62828000  1.0
  H  H5  1  0.68316000  0.89763000  0.37172000  1.0
  H  H6  1  0.60844000  0.95980000  0.63207000  1.0
  H  H7  1  0.39157000  0.04020000  0.36793000  1.0
  H  H8  1  0.68157000  0.94998000  0.52584000  1.0
  H  H9  1  0.31844000  0.05003000  0.47415000  1.0
  H  H10  1  0.56521000  0.42658000  0.29222000  1.0
  H  H11  1  0.43479000  0.57343000  0.70777000  1.0
  H  H12  1  0.13141000  0.39895000  0.36201000  1.0
  H  H13  1  0.86860000  0.60104000  0.63799000  1.0
  H  H14  1  0.14710000  0.46479000  0.14733000  1.0
  H  H15  1  0.85290000  0.53521000  0.85267000  1.0
  H  H16  1  0.61194000  0.21694000  0.14513000  1.0
  H  H17  1  0.38806000  0.78306000  0.85487000  1.0
  H  H18  1  0.11372000  0.77422000  0.03372000  1.0
  H  H19  1  0.88628000  0.22578000  0.96628000  1.0
  H  H20  1  0.19179000  0.91048000  0.95668000  1.0
  H  H21  1  0.80821000  0.08952000  0.04332000  1.0
  H  H22  1  0.24873000  0.81421000  0.09625000  1.0
  H  H23  1  0.75127000  0.18579000  0.90375000  1.0
  C  C24  1  0.48483000  0.08309000  0.77102000  1.0
  C  C25  1  0.51517000  0.91691000  0.22898000  1.0
  C  C26  1  0.49492000  0.04054000  0.88976000  1.0
  C  C27  1  0.50508000  0.95945000  0.11024000  1.0
  C  C28  1  0.63988000  0.92282000  0.95809000  1.0
  C  C29  1  0.36012000  0.07718000  0.04192000  1.0
  C  C30  1  0.35521000  0.11669000  0.93280000  1.0
  C  C31  1  0.64479000  0.88330000  0.06720000  1.0
  C  C32  1  0.18880000  0.63786000  0.53150000  1.0
  C  C33  1  0.81120000  0.36214000  0.46850000  1.0
  C  C34  1  0.09018000  0.82532000  0.51594000  1.0
  C  C35  1  0.90983000  0.17468000  0.48406000  1.0
  C  C36  1  0.96953000  0.05299000  0.58636000  1.0
  C  C37  1  0.03047000  0.94701000  0.41364000  1.0
  C  C38  1  0.05708000  0.87914000  0.60199000  1.0
  C  C39  1  0.94292000  0.12086000  0.39802000  1.0
  C  C40  1  0.45086000  0.42462000  0.28425000  1.0
  C  C41  1  0.54914000  0.57539000  0.71575000  1.0
  C  C42  1  0.22471000  0.41265000  0.31617000  1.0
  C  C43  1  0.77529000  0.58735000  0.68383000  1.0
  C  C44  1  0.22857000  0.44865000  0.20988000  1.0
  C  C45  1  0.77143000  0.55135000  0.79012000  1.0
  C  C46  1  0.43447000  0.48080000  0.09217000  1.0
  C  C47  1  0.56553000  0.51920000  0.90783000  1.0
  C  C48  1  0.56661000  0.34076000  0.08086000  1.0
  C  C49  1  0.43339000  0.65924000  0.91913000  1.0
  C  C50  1  0.36366000  0.64338000  0.01203000  1.0
  C  C51  1  0.63634000  0.35662000  0.98797000  1.0
  C  C52  1  0.22227000  0.79352000  0.02526000  1.0
  C  C53  1  0.77773000  0.20648000  0.97474000  1.0
  Br  Br54  1  0.12745000  0.71006000  0.73998000  1.0
  Br  Br55  1  0.87256000  0.28994000  0.26002000  1.0
  Br  Br56  1  0.93309000  0.13070000  0.70083000  1.0
  Br  Br57  1  0.06692000  0.86930000  0.29918000  1.0
  Br  Br58  1  0.82849000  0.82345000  0.89844000  1.0
  Br  Br59  1  0.17150000  0.17655000  0.10156000  1.0
  Br  Br60  1  0.15823000  0.26944000  0.83976000  1.0
  Br  Br61  1  0.84177000  0.73056000  0.16024000  1.0
  N  N62  1  0.36481000  0.39738000  0.36135000  1.0
  N  N63  1  0.63520000  0.60262000  0.63865000  1.0
  N  N64  1  0.37257000  0.45557000  0.19081000  1.0
  N  N65  1  0.62743000  0.54443000  0.80919000  1.0
  O  O66  1  0.49892000  0.21499000  0.71713000  1.0
  O  O67  1  0.50108000  0.78501000  0.28288000  1.0
  O  O68  1  0.46005000  0.98385000  0.73679000  1.0
  O  O69  1  0.53995000  0.01615000  0.26321000  1.0
  O  O70  1  0.34277000  0.58548000  0.53125000  1.0
  O  O71  1  0.65723000  0.41452000  0.46874000  1.0
  O  O72  1  0.11799000  0.54859000  0.54260000  1.0
  O  O73  1  0.88201000  0.45141000  0.45740000  1.0
  O  O74  1  0.26787000  0.17575000  0.55315000  1.0
  O  O75  1  0.73213000  0.82425000  0.44685000  1.0
  O  O76  1  0.65051000  0.01720000  0.57299000  1.0
  O  O77  1  0.34949000  0.98280000  0.42701000  1.0
