# generated using pymatgen
data_NaH3C(N2O)2
_symmetry_space_group_name_H-M   'P 1'
_cell_length_a   3.53810000
_cell_length_b   8.17562000
_cell_length_c   15.35060000
_cell_angle_alpha   89.99990000
_cell_angle_beta   89.99940000
_cell_angle_gamma   84.70400000
_symmetry_Int_Tables_number   1
_chemical_formula_structural   NaH3C(N2O)2
_chemical_formula_sum   'Na4 H12 C4 N16 O8'
_cell_volume   442.13841219
_cell_formula_units_Z   4
loop_
 _symmetry_equiv_pos_site_id
 _symmetry_equiv_pos_as_xyz
  1  'x, y, z'
loop_
 _atom_site_type_symbol
 _atom_site_label
 _atom_site_symmetry_multiplicity
 _atom_site_fract_x
 _atom_site_fract_y
 _atom_site_fract_z
 _atom_site_occupancy
  Na  Na0  1  0.22089000  0.63187000  0.42623000  1.0
  Na  Na1  1  0.27912000  0.86813000  0.92623000  1.0
  Na  Na2  1  0.77911000  0.36813000  0.57377000  1.0
  Na  Na3  1  0.72088000  0.13187000  0.07377000  1.0
  H  H4  1  0.10969000  0.58099000  0.76000000  1.0
  H  H5  1  0.39031000  0.91901000  0.26000000  1.0
  H  H6  1  0.89032000  0.41901000  0.24000000  1.0
  H  H7  1  0.60969000  0.08099000  0.74000000  1.0
  H  H8  1  0.68629000  0.93906000  0.42955000  1.0
  H  H9  1  0.81371000  0.56094000  0.92955000  1.0
  H  H10  1  0.31371000  0.06094000  0.57045000  1.0
  H  H11  1  0.18628000  0.43906000  0.07045000  1.0
  H  H12  1  0.62918000  0.84197000  0.51574000  1.0
  H  H13  1  0.87082000  0.65803000  0.01574000  1.0
  H  H14  1  0.37082000  0.15803000  0.48427000  1.0
  H  H15  1  0.12918000  0.34197000  0.98426000  1.0
  C  C16  1  0.27662000  0.68704000  0.63679000  1.0
  C  C17  1  0.22336000  0.81296000  0.13680000  1.0
  C  C18  1  0.72338000  0.31295000  0.36320000  1.0
  C  C19  1  0.77664000  0.18705000  0.86319000  1.0
  N  N20  1  0.21485000  0.67823000  0.72493000  1.0
  N  N21  1  0.28515000  0.82178000  0.22493000  1.0
  N  N22  1  0.78516000  0.32178000  0.27507000  1.0
  N  N23  1  0.71485000  0.17822000  0.77507000  1.0
  N  N24  1  0.30627000  0.81618000  0.76410000  1.0
  N  N25  1  0.19373000  0.68382000  0.26409000  1.0
  N  N26  1  0.69373000  0.18382000  0.23591000  1.0
  N  N27  1  0.80626000  0.31618000  0.73591000  1.0
  N  N28  1  0.42226000  0.90909000  0.70270000  1.0
  N  N29  1  0.07775000  0.59092000  0.20269000  1.0
  N  N30  1  0.57775000  0.09092000  0.29731000  1.0
  N  N31  1  0.92225000  0.40908000  0.79730000  1.0
  N  N32  1  0.40876000  0.83749000  0.62375000  1.0
  N  N33  1  0.09123000  0.66251000  0.12375000  1.0
  N  N34  1  0.59125000  0.16251000  0.37626000  1.0
  N  N35  1  0.90876000  0.33749000  0.87625000  1.0
  O  O36  1  0.22786000  0.57612000  0.58113000  1.0
  O  O37  1  0.27211000  0.92388000  0.08114000  1.0
  O  O38  1  0.77215000  0.42389000  0.41887000  1.0
  O  O39  1  0.72789000  0.07612000  0.91886000  1.0
  O  O40  1  0.69559000  0.82701000  0.45307000  1.0
  O  O41  1  0.80440000  0.67299000  0.95307000  1.0
  O  O42  1  0.30439000  0.17298000  0.54693000  1.0
  O  O43  1  0.19560000  0.32701000  0.04692000  1.0
