# generated using pymatgen
data_SrZnH18C14(NO7)2
_symmetry_space_group_name_H-M   'P 1'
_cell_length_a   7.08182000
_cell_length_b   9.86386490
_cell_length_c   16.67175985
_cell_angle_alpha   81.54693510
_cell_angle_beta   77.74204077
_cell_angle_gamma   68.98028665
_symmetry_Int_Tables_number   1
_chemical_formula_structural   SrZnH18C14(NO7)2
_chemical_formula_sum   'Sr2 Zn2 H36 C28 N4 O28'
_cell_volume   1059.10297489
_cell_formula_units_Z   2
loop_
 _symmetry_equiv_pos_site_id
 _symmetry_equiv_pos_as_xyz
  1  'x, y, z'
loop_
 _atom_site_type_symbol
 _atom_site_label
 _atom_site_symmetry_multiplicity
 _atom_site_fract_x
 _atom_site_fract_y
 _atom_site_fract_z
 _atom_site_occupancy
  Sr  Sr0  1  0.47929000  0.74986000  0.24996000  1.0
  Sr  Sr1  1  0.52072000  0.25014000  0.75003000  1.0
  Zn  Zn2  1  1.00000000  0.50000000  0.50000000  1.0
  Zn  Zn3  1  0.00000000  0.00000000  0.00000000  1.0
  H  H4  1  0.11717000  0.97610000  0.18064000  1.0
  H  H5  1  0.27375000  0.52366000  0.31943000  1.0
  H  H6  1  0.88283000  0.02390000  0.81937000  1.0
  H  H7  1  0.72625000  0.47634000  0.68057000  1.0
  H  H8  1  0.98509000  0.90152000  0.24911000  1.0
  H  H9  1  0.13550000  0.59834000  0.25101000  1.0
  H  H10  1  0.01492000  0.09848000  0.75088000  1.0
  H  H11  1  0.86450000  0.40166000  0.74899000  1.0
  H  H12  1  0.56992000  0.00498000  0.26450000  1.0
  H  H13  1  0.83942000  0.49498000  0.23540000  1.0
  H  H14  1  0.43008000  0.99502000  0.73550000  1.0
  H  H15  1  0.16058000  0.50502000  0.76460000  1.0
  H  H16  1  0.64334000  0.97737000  0.17195000  1.0
  H  H17  1  0.79262000  0.52236000  0.32799000  1.0
  H  H18  1  0.35666000  0.02263000  0.82805000  1.0
  H  H19  1  0.20738000  0.47764000  0.67201000  1.0
  H  H20  1  0.32812000  0.96816000  0.58664000  1.0
  H  H21  1  0.88304000  0.53184000  0.91354000  1.0
  H  H22  1  0.67187000  0.03184000  0.41336000  1.0
  H  H23  1  0.11698000  0.46816000  0.08646000  1.0
  H  H24  1  0.14309000  0.02554000  0.34994000  1.0
  H  H25  1  0.51808000  0.47431000  0.15002000  1.0
  H  H26  1  0.85690000  0.97446000  0.65006000  1.0
  H  H27  1  0.48191000  0.52570000  0.84998000  1.0
  H  H28  1  0.41498000  0.41320000  0.44543000  1.0
  H  H29  1  0.27388000  0.08661000  0.05453000  1.0
  H  H30  1  0.58503000  0.58679000  0.55457000  1.0
  H  H31  1  0.72613000  0.91339000  0.94547000  1.0
  H  H32  1  0.32404000  0.58877000  0.42528000  1.0
  H  H33  1  0.33797000  0.91103000  0.07471000  1.0
  H  H34  1  0.67596000  0.41122000  0.57472000  1.0
  H  H35  1  0.66203000  0.08898000  0.92529000  1.0
  H  H36  1  0.99880000  0.29315000  0.36527000  1.0
  H  H37  1  0.65684000  0.20673000  0.13471000  1.0
  H  H38  1  0.00120000  0.70685000  0.63473000  1.0
  H  H39  1  0.34314000  0.79329000  0.86530000  1.0
  C  C40  1  0.17859000  0.18784000  0.53905000  1.0
  C  C41  1  0.90553000  0.31213000  0.96106000  1.0
  C  C42  1  0.82140000  0.81216000  0.46095000  1.0
  C  C43  1  0.09448000  0.68787000  0.03895000  1.0
  C  C44  1  0.25861000  0.03754000  0.53624000  1.0
  C  C45  1  0.83236000  0.46244000  0.96388000  1.0
  C  C46  1  0.74137000  0.96246000  0.46376000  1.0
  C  C47  1  0.16764000  0.53756000  0.03612000  1.0
  C  C48  1  0.25021000  0.97577000  0.46746000  1.0
  C  C49  1  0.69319000  0.52418000  0.03258000  1.0
  C  C50  1  0.74978000  0.02423000  0.53254000  1.0
  C  C51  1  0.30681000  0.47582000  0.96742000  1.0
  C  C52  1  0.15794000  0.06819000  0.40422000  1.0
  C  C53  1  0.62991000  0.43172000  0.09575000  1.0
  C  C54  1  0.84207000  0.93180000  0.59578000  1.0
  C  C55  1  0.37008000  0.56829000  0.90425000  1.0
  C  C56  1  0.07732000  0.21823000  0.41230000  1.0
  C  C57  1  0.70761000  0.28167000  0.08770000  1.0
  C  C58  1  0.92268000  0.78176000  0.58770000  1.0
  C  C59  1  0.29239000  0.71833000  0.91230000  1.0
  C  C60  1  0.19614000  0.25936000  0.60977000  1.0
  C  C61  1  0.06549000  0.24076000  0.89037000  1.0
  C  C62  1  0.80386000  0.74063000  0.39023000  1.0
  C  C63  1  0.93451000  0.75925000  0.10963000  1.0
  C  C64  1  0.33727000  0.81140000  0.46588000  1.0
  C  C65  1  0.61428000  0.68853000  0.03422000  1.0
  C  C66  1  0.66273000  0.18860000  0.53413000  1.0
  C  C67  1  0.38574000  0.31147000  0.96577000  1.0
  N  N68  1  0.08844000  0.27677000  0.47812000  1.0
  N  N69  1  0.84335000  0.22314000  0.02195000  1.0
  N  N70  1  0.91156000  0.72323000  0.52188000  1.0
  N  N71  1  0.15665000  0.77686000  0.97805000  1.0
  O  O72  1  0.10715000  0.93000000  0.23793000  1.0
  O  O73  1  0.27493000  0.56965000  0.26211000  1.0
  O  O74  1  0.89286000  0.07000000  0.76207000  1.0
  O  O75  1  0.72505000  0.43036000  0.73789000  1.0
  O  O76  1  0.51651000  0.01076000  0.21414000  1.0
  O  O77  1  0.74146000  0.48904000  0.28573000  1.0
  O  O78  1  0.48349000  0.98924000  0.78586000  1.0
  O  O79  1  0.25854000  0.51096000  0.71427000  1.0
  O  O80  1  0.13236000  0.39928000  0.60484000  1.0
  O  O81  1  0.13639000  0.10084000  0.89520000  1.0
  O  O82  1  0.86764000  0.60071000  0.39516000  1.0
  O  O83  1  0.86362000  0.89916000  0.10480000  1.0
  O  O84  1  0.27559000  0.17939000  0.66852000  1.0
  O  O85  1  0.12414000  0.32081000  0.83176000  1.0
  O  O86  1  0.72440000  0.82061000  0.33149000  1.0
  O  O87  1  0.87586000  0.67919000  0.16824000  1.0
  O  O88  1  0.32838000  0.75701000  0.40204000  1.0
  O  O89  1  0.48667000  0.74283000  0.09796000  1.0
  O  O90  1  0.67162000  0.24299000  0.59796000  1.0
  O  O91  1  0.51330000  0.25718000  0.90204000  1.0
  O  O92  1  0.40994000  0.74066000  0.52791000  1.0
  O  O93  1  0.67852000  0.75935000  0.97229000  1.0
  O  O94  1  0.59006000  0.25933000  0.47209000  1.0
  O  O95  1  0.32149000  0.24065000  0.02771000  1.0
  O  O96  1  0.29658000  0.49514000  0.42645000  1.0
  O  O97  1  0.21827000  0.00476000  0.07354000  1.0
  O  O98  1  0.70342000  0.50485000  0.57355000  1.0
  O  O99  1  0.78175000  0.99524000  0.92646000  1.0
