# generated using pymatgen
data_ZnH16C16(NO2)2
_symmetry_space_group_name_H-M   'P 1'
_cell_length_a   9.88914000
_cell_length_b   13.35780000
_cell_length_c   13.67570000
_cell_angle_alpha   89.99870000
_cell_angle_beta   90.51610000
_cell_angle_gamma   89.99980000
_symmetry_Int_Tables_number   1
_chemical_formula_structural   ZnH16C16(NO2)2
_chemical_formula_sum   'Zn4 H64 C64 N8 O16'
_cell_volume   1806.44776453
_cell_formula_units_Z   4
loop_
 _symmetry_equiv_pos_site_id
 _symmetry_equiv_pos_as_xyz
  1  'x, y, z'
loop_
 _atom_site_type_symbol
 _atom_site_label
 _atom_site_symmetry_multiplicity
 _atom_site_fract_x
 _atom_site_fract_y
 _atom_site_fract_z
 _atom_site_occupancy
  Zn  Zn0  1  0.70259000  0.13161000  0.17447000  1.0
  Zn  Zn1  1  0.79744000  0.63161000  0.32552000  1.0
  Zn  Zn2  1  0.29741000  0.86838000  0.82553000  1.0
  Zn  Zn3  1  0.20257000  0.36840000  0.67448000  1.0
  H  H4  1  0.55691000  0.38513000  0.95106000  1.0
  H  H5  1  0.94311000  0.88512000  0.54890000  1.0
  H  H6  1  0.44308000  0.61485000  0.04893000  1.0
  H  H7  1  0.05690000  0.11488000  0.45110000  1.0
  H  H8  1  0.41573000  0.33049000  0.01176000  1.0
  H  H9  1  0.08429000  0.83046000  0.48822000  1.0
  H  H10  1  0.58425000  0.66951000  0.98822000  1.0
  H  H11  1  0.91572000  0.16953000  0.51178000  1.0
  H  H12  1  0.57160000  0.23181000  0.84419000  1.0
  H  H13  1  0.92839000  0.73181000  0.65580000  1.0
  H  H14  1  0.42842000  0.76820000  0.15582000  1.0
  H  H15  1  0.07161000  0.26818000  0.34420000  1.0
  H  H16  1  0.41930000  0.18644000  0.89545000  1.0
  H  H17  1  0.08070000  0.68643000  0.60456000  1.0
  H  H18  1  0.58072000  0.81354000  0.10454000  1.0
  H  H19  1  0.91930000  0.31357000  0.39544000  1.0
  H  H20  1  0.75174000  0.01989000  0.36287000  1.0
  H  H21  1  0.74828000  0.51991000  0.13711000  1.0
  H  H22  1  0.24825000  0.98011000  0.63713000  1.0
  H  H23  1  0.25173000  0.48011000  0.86289000  1.0
  H  H24  1  0.63322000  0.89316000  0.46512000  1.0
  H  H25  1  0.86681000  0.39318000  0.03487000  1.0
  H  H26  1  0.36678000  0.10684000  0.53488000  1.0
  H  H27  1  0.13320000  0.60684000  0.96512000  1.0
  H  H28  1  0.28337000  0.93152000  0.27708000  1.0
  H  H29  1  0.21664000  0.43151000  0.22294000  1.0
  H  H30  1  0.71664000  0.06845000  0.72291000  1.0
  H  H31  1  0.78336000  0.56847000  0.77709000  1.0
  H  H32  1  0.41780000  0.05693000  0.18161000  1.0
  H  H33  1  0.08220000  0.55693000  0.31840000  1.0
  H  H34  1  0.58220000  0.94305000  0.81838000  1.0
  H  H35  1  0.91779000  0.44307000  0.68162000  1.0
  H  H36  1  0.26929000  0.81680000  0.41290000  1.0
  H  H37  1  0.23073000  0.31680000  0.08711000  1.0
  H  H38  1  0.73071000  0.18320000  0.58710000  1.0
  H  H39  1  0.76928000  0.68321000  0.91290000  1.0
  H  H40  1  0.37901000  0.83918000  0.51403000  1.0
  H  H41  1  0.12101000  0.33918000  0.98598000  1.0
  H  H42  1  0.62099000  0.16081000  0.48597000  1.0
  H  H43  1  0.87901000  0.66083000  0.01403000  1.0
  H  H44  1  0.43828000  0.70013000  0.34000000  1.0
  H  H45  1  0.06175000  0.20012000  0.16001000  1.0
  H  H46  1  0.56172000  0.29988000  0.66000000  1.0
  H  H47  1  0.93826000  0.79989000  0.83999000  1.0
  H  H48  1  0.55480000  0.72763000  0.43488000  1.0
  H  H49  1  0.94521000  0.22763000  0.06513000  1.0
  H  H50  1  0.44519000  0.27237000  0.56511000  1.0
  H  H51  1  0.05480000  0.77238000  0.93487000  1.0
  H  H52  1  0.35395000  0.53754000  0.35508000  1.0
  H  H53  1  0.14605000  0.03753000  0.14493000  1.0
  H  H54  1  0.64605000  0.46245000  0.64491000  1.0
  H  H55  1  0.85395000  0.96247000  0.85508000  1.0
  H  H56  1  0.26342000  0.39856000  0.46051000  1.0
  H  H57  1  0.23655000  0.89855000  0.03949000  1.0
  H  H58  1  0.73657000  0.60144000  0.53948000  1.0
  H  H59  1  0.76345000  0.10145000  0.96052000  1.0
  H  H60  1  0.32596000  0.56562000  0.71214000  1.0
  H  H61  1  0.17403000  0.06562000  0.78787000  1.0
  H  H62  1  0.67404000  0.43440000  0.28786000  1.0
  H  H63  1  0.82598000  0.93439000  0.21213000  1.0
  H  H64  1  0.41458000  0.70934000  0.61943000  1.0
  H  H65  1  0.08542000  0.20934000  0.88058000  1.0
  H  H66  1  0.58544000  0.29067000  0.38056000  1.0
  H  H67  1  0.91458000  0.79066000  0.11943000  1.0
  C  C68  1  0.60491000  0.25468000  0.03636000  1.0
  C  C69  1  0.89509000  0.75467000  0.46362000  1.0
  C  C70  1  0.39506000  0.74531000  0.96364000  1.0
  C  C71  1  0.10490000  0.24534000  0.53637000  1.0
  C  C72  1  0.50922000  0.31429000  0.97216000  1.0
  C  C73  1  0.99079000  0.81427000  0.52783000  1.0
  C  C74  1  0.49075000  0.68570000  0.02784000  1.0
  C  C75  1  0.00921000  0.18572000  0.47217000  1.0
  C  C76  1  0.47635000  0.25477000  0.87898000  1.0
  C  C77  1  0.02364000  0.75476000  0.62100000  1.0
  C  C78  1  0.52364000  0.74522000  0.12101000  1.0
  C  C79  1  0.97635000  0.24523000  0.37899000  1.0
  C  C80  1  0.39806000  0.31782000  0.80530000  1.0
  C  C81  1  0.10192000  0.81781000  0.69469000  1.0
  C  C82  1  0.60193000  0.68218000  0.19470000  1.0
  C  C83  1  0.89806000  0.18219000  0.30531000  1.0
  C  C84  1  0.64690000  0.99906000  0.34787000  1.0
  C  C85  1  0.85314000  0.49908000  0.15212000  1.0
  C  C86  1  0.35309000  0.00094000  0.65213000  1.0
  C  C87  1  0.14688000  0.50095000  0.84788000  1.0
  C  C88  1  0.57963000  0.92937000  0.40462000  1.0
  C  C89  1  0.92040000  0.42938000  0.09538000  1.0
  C  C90  1  0.42037000  0.07063000  0.59538000  1.0
  C  C91  1  0.07962000  0.57064000  0.90463000  1.0
  C  C92  1  0.44679000  0.90234000  0.37978000  1.0
  C  C93  1  0.05324000  0.40234000  0.12023000  1.0
  C  C94  1  0.55322000  0.09765000  0.62022000  1.0
  C  C95  1  0.94677000  0.59768000  0.87977000  1.0
  C  C96  1  0.38693000  0.94960000  0.29893000  1.0
  C  C97  1  0.11309000  0.44960000  0.20107000  1.0
  C  C98  1  0.61307000  0.05039000  0.70107000  1.0
  C  C99  1  0.88691000  0.55039000  0.79894000  1.0
  C  C100  1  0.46059000  0.01907000  0.24549000  1.0
  C  C101  1  0.03943000  0.51907000  0.25452000  1.0
  C  C102  1  0.53941000  0.98091000  0.75451000  1.0
  C  C103  1  0.96058000  0.48094000  0.74550000  1.0
  C  C104  1  0.37608000  0.82130000  0.43545000  1.0
  C  C105  1  0.12395000  0.32129000  0.06456000  1.0
  C  C106  1  0.62392000  0.17870000  0.56455000  1.0
  C  C107  1  0.87607000  0.67872000  0.93545000  1.0
  C  C108  1  0.44613000  0.71986000  0.41771000  1.0
  C  C109  1  0.05389000  0.21987000  0.08229000  1.0
  C  C110  1  0.55387000  0.28014000  0.58228000  1.0
  C  C111  1  0.94612000  0.78014000  0.91771000  1.0
  C  C112  1  0.38983000  0.63622000  0.47785000  1.0
  C  C113  1  0.11017000  0.13622000  0.02216000  1.0
  C  C114  1  0.61017000  0.36378000  0.52215000  1.0
  C  C115  1  0.88983000  0.86378000  0.97785000  1.0
  C  C116  1  0.34614000  0.54701000  0.43407000  1.0
  C  C117  1  0.15386000  0.04700000  0.06594000  1.0
  C  C118  1  0.65386000  0.45299000  0.56592000  1.0
  C  C119  1  0.84615000  0.95301000  0.93407000  1.0
  C  C120  1  0.29620000  0.46988000  0.49147000  1.0
  C  C121  1  0.20379000  0.96987000  0.00854000  1.0
  C  C122  1  0.70380000  0.53012000  0.50853000  1.0
  C  C123  1  0.79620000  0.03012000  0.99147000  1.0
  C  C124  1  0.33139000  0.56263000  0.63280000  1.0
  C  C125  1  0.16860000  0.06264000  0.86721000  1.0
  C  C126  1  0.66861000  0.43736000  0.36719000  1.0
  C  C127  1  0.83141000  0.93736000  0.13280000  1.0
  C  C128  1  0.38206000  0.64258000  0.57993000  1.0
  C  C129  1  0.11795000  0.14258000  0.92008000  1.0
  C  C130  1  0.61795000  0.35742000  0.42007000  1.0
  C  C131  1  0.88207000  0.85743000  0.07993000  1.0
  N  N132  1  0.58914000  0.04302000  0.26889000  1.0
  N  N133  1  0.91087000  0.54303000  0.23110000  1.0
  N  N134  1  0.41084000  0.95697000  0.73110000  1.0
  N  N135  1  0.08914000  0.45699000  0.76891000  1.0
  N  N136  1  0.28816000  0.47743000  0.58965000  1.0
  N  N137  1  0.21182000  0.97743000  0.91036000  1.0
  N  N138  1  0.71183000  0.52257000  0.41035000  1.0
  N  N139  1  0.78817000  0.02257000  0.08965000  1.0
  O  O140  1  0.55145000  0.20262000  0.10617000  1.0
  O  O141  1  0.94857000  0.70260000  0.39382000  1.0
  O  O142  1  0.44852000  0.79737000  0.89384000  1.0
  O  O143  1  0.05142000  0.29741000  0.60617000  1.0
  O  O144  1  0.72925000  0.25369000  0.01763000  1.0
  O  O145  1  0.77075000  0.75369000  0.48234000  1.0
  O  O146  1  0.27071000  0.74629000  0.98237000  1.0
  O  O147  1  0.22925000  0.24630000  0.51766000  1.0
  O  O148  1  0.29993000  0.27267000  0.75947000  1.0
  O  O149  1  0.20006000  0.77268000  0.74052000  1.0
  O  O150  1  0.70007000  0.72733000  0.24051000  1.0
  O  O151  1  0.79995000  0.22734000  0.25947000  1.0
  O  O152  1  0.42954000  0.40764000  0.79168000  1.0
  O  O153  1  0.07044000  0.90765000  0.70830000  1.0
  O  O154  1  0.57048000  0.59234000  0.20832000  1.0
  O  O155  1  0.92954000  0.09235000  0.29168000  1.0
