# generated using pymatgen
data_CdH16C22(NO2)2
_symmetry_space_group_name_H-M   'P 1'
_cell_length_a   9.44307000
_cell_length_b   10.36210000
_cell_length_c   12.32480000
_cell_angle_alpha   96.63070000
_cell_angle_beta   95.15380000
_cell_angle_gamma   114.56500000
_symmetry_Int_Tables_number   1
_chemical_formula_structural   CdH16C22(NO2)2
_chemical_formula_sum   'Cd2 H32 C44 N4 O8'
_cell_volume   1076.73719974
_cell_formula_units_Z   2
loop_
 _symmetry_equiv_pos_site_id
 _symmetry_equiv_pos_as_xyz
  1  'x, y, z'
loop_
 _atom_site_type_symbol
 _atom_site_label
 _atom_site_symmetry_multiplicity
 _atom_site_fract_x
 _atom_site_fract_y
 _atom_site_fract_z
 _atom_site_occupancy
  Cd  Cd0  1  0.70887000  0.61214000  0.10880000  1.0
  Cd  Cd1  1  0.29113000  0.38785000  0.89119000  1.0
  H  H2  1  0.84547000  0.44450000  0.96275000  1.0
  H  H3  1  0.15453000  0.55550000  0.03725000  1.0
  H  H4  1  0.94159000  0.43321000  0.78273000  1.0
  H  H5  1  0.05841000  0.56679000  0.21728000  1.0
  H  H6  1  0.96848000  0.85870000  0.77098000  1.0
  H  H7  1  0.03152000  0.14130000  0.22902000  1.0
  H  H8  1  0.87348000  0.85230000  0.95363000  1.0
  H  H9  1  0.12653000  0.14770000  0.04637000  1.0
  H  H10  1  0.05120000  0.73813000  0.62125000  1.0
  H  H11  1  0.94880000  0.26187000  0.37875000  1.0
  H  H12  1  0.06489000  0.45670000  0.64887000  1.0
  H  H13  1  0.93512000  0.54330000  0.35112000  1.0
  H  H14  1  0.21059000  0.67209000  0.50677000  1.0
  H  H15  1  0.78941000  0.32791000  0.49323000  1.0
  H  H16  1  0.81012000  0.62518000  0.49456000  1.0
  H  H17  1  0.18988000  0.37482000  0.50544000  1.0
  H  H18  1  0.64357000  0.69687000  0.60864000  1.0
  H  H19  1  0.35644000  0.30313000  0.39136000  1.0
  H  H20  1  0.43580000  0.62456000  0.73200000  1.0
  H  H21  1  0.56420000  0.37544000  0.26800000  1.0
  H  H22  1  0.45535000  0.23565000  0.74367000  1.0
  H  H23  1  0.54466000  0.76436000  0.25633000  1.0
  H  H24  1  0.66209000  0.28949000  0.62189000  1.0
  H  H25  1  0.33791000  0.71051000  0.37811000  1.0
  H  H26  1  0.33232000  0.09550000  0.90141000  1.0
  H  H27  1  0.66768000  0.90450000  0.09859000  1.0
  H  H28  1  0.73503000  0.16649000  0.13516000  1.0
  H  H29  1  0.26496000  0.83351000  0.86483000  1.0
  H  H30  1  0.15005000  0.86565000  0.43453000  1.0
  H  H31  1  0.84995000  0.13435000  0.56547000  1.0
  H  H32  1  0.77675000  0.99235000  0.37186000  1.0
  H  H33  1  0.22325000  0.00764000  0.62814000  1.0
  C  C34  1  0.87372000  0.53373000  0.91695000  1.0
  C  C35  1  0.12628000  0.46627000  0.08305000  1.0
  C  C36  1  0.92594000  0.52783000  0.81560000  1.0
  C  C37  1  0.07406000  0.47217000  0.18441000  1.0
  C  C38  1  0.95388000  0.64194000  0.75701000  1.0
  C  C39  1  0.04612000  0.35806000  0.24299000  1.0
  C  C40  1  0.94073000  0.76331000  0.80978000  1.0
  C  C41  1  0.05927000  0.23669000  0.19022000  1.0
  C  C42  1  0.88896000  0.76121000  0.91198000  1.0
  C  C43  1  0.11104000  0.23879000  0.08802000  1.0
  C  C44  1  0.97928000  0.63053000  0.63902000  1.0
  C  C45  1  0.02072000  0.36947000  0.36098000  1.0
  C  C46  1  0.02923000  0.51390000  0.59073000  1.0
  C  C47  1  0.97077000  0.48610000  0.40927000  1.0
  C  C48  1  0.12620000  0.55847000  0.49655000  1.0
  C  C49  1  0.87380000  0.44153000  0.50345000  1.0
  C  C50  1  0.81755000  0.55311000  0.55137000  1.0
  C  C51  1  0.18245000  0.44689000  0.44863000  1.0
  C  C52  1  0.67420000  0.50063000  0.60638000  1.0
  C  C53  1  0.32580000  0.49937000  0.39362000  1.0
  C  C54  1  0.60438000  0.59282000  0.63616000  1.0
  C  C55  1  0.39563000  0.40718000  0.36384000  1.0
  C  C56  1  0.48956000  0.55396000  0.70457000  1.0
  C  C57  1  0.51044000  0.44604000  0.29543000  1.0
  C  C58  1  0.49976000  0.33622000  0.71094000  1.0
  C  C59  1  0.50024000  0.66378000  0.28906000  1.0
  C  C60  1  0.61476000  0.36726000  0.64237000  1.0
  C  C61  1  0.38524000  0.63274000  0.35763000  1.0
  C  C62  1  0.58219000  0.30537000  0.04414000  1.0
  C  C63  1  0.41781000  0.69462000  0.95586000  1.0
  C  C64  1  0.53810000  0.14733000  0.02142000  1.0
  C  C65  1  0.46190000  0.85267000  0.97858000  1.0
  C  C66  1  0.40554000  0.05380000  0.94469000  1.0
  C  C67  1  0.59446000  0.94620000  0.05531000  1.0
  C  C68  1  0.63191000  0.09243000  0.07641000  1.0
  C  C69  1  0.36808000  0.90757000  0.92359000  1.0
  C  C70  1  0.90969000  0.82991000  0.27967000  1.0
  C  C71  1  0.09031000  0.17009000  0.72033000  1.0
  C  C72  1  0.96025000  0.92195000  0.39216000  1.0
  C  C73  1  0.03974000  0.07805000  0.60784000  1.0
  C  C74  1  0.08606000  0.92589000  0.46417000  1.0
  C  C75  1  0.91394000  0.07411000  0.53582000  1.0
  C  C76  1  0.87446000  0.99674000  0.42889000  1.0
  C  C77  1  0.12554000  0.00326000  0.57111000  1.0
  N  N78  1  0.85117000  0.64631000  0.96362000  1.0
  N  N79  1  0.14883000  0.35369000  0.03638000  1.0
  N  N80  1  0.44032000  0.42899000  0.74396000  1.0
  N  N81  1  0.55968000  0.57101000  0.25604000  1.0
  O  O82  1  0.50180000  0.35812000  0.99209000  1.0
  O  O83  1  0.49820000  0.64188000  0.00791000  1.0
  O  O84  1  0.70382000  0.38455000  0.11581000  1.0
  O  O85  1  0.29618000  0.61545000  0.88419000  1.0
  O  O86  1  0.95065000  0.72822000  0.26204000  1.0
  O  O87  1  0.04936000  0.27178000  0.73796000  1.0
  O  O88  1  0.81859000  0.85354000  0.20926000  1.0
  O  O89  1  0.18141000  0.14645000  0.79074000  1.0
