# generated using pymatgen
data_TlH5C7N4
_symmetry_space_group_name_H-M   'P 1'
_cell_length_a   4.11721000
_cell_length_b   12.84890000
_cell_length_c   16.30122550
_cell_angle_alpha   77.78397575
_cell_angle_beta   82.72922542
_cell_angle_gamma   90.00820000
_symmetry_Int_Tables_number   1
_chemical_formula_structural   TlH5C7N4
_chemical_formula_sum   'Tl4 H20 C28 N16'
_cell_volume   835.73501798
_cell_formula_units_Z   4
loop_
 _symmetry_equiv_pos_site_id
 _symmetry_equiv_pos_as_xyz
  1  'x, y, z'
loop_
 _atom_site_type_symbol
 _atom_site_label
 _atom_site_symmetry_multiplicity
 _atom_site_fract_x
 _atom_site_fract_y
 _atom_site_fract_z
 _atom_site_occupancy
  Tl  Tl0  1  0.43892000  0.09941000  0.08470000  1.0
  Tl  Tl1  1  0.52302000  0.40060000  0.91538000  1.0
  Tl  Tl2  1  0.56106000  0.90059000  0.91530000  1.0
  Tl  Tl3  1  0.47698000  0.59940000  0.08462000  1.0
  H  H4  1  0.25666000  0.21306000  0.31898000  1.0
  H  H5  1  0.57421000  0.28679000  0.68105000  1.0
  H  H6  1  0.74335000  0.78694000  0.68102000  1.0
  H  H7  1  0.42578000  0.71321000  0.31896000  1.0
  H  H8  1  0.41087000  0.24711000  0.45445000  1.0
  H  H9  1  0.86442000  0.25291000  0.54557000  1.0
  H  H10  1  0.58913000  0.75289000  0.54555000  1.0
  H  H11  1  0.13557000  0.74709000  0.45443000  1.0
  H  H12  1  0.32998000  0.42573000  0.48862000  1.0
  H  H13  1  0.81841000  0.07423000  0.51135000  1.0
  H  H14  1  0.67002000  0.57426000  0.51138000  1.0
  H  H15  1  0.18160000  0.92578000  0.48865000  1.0
  H  H16  1  0.09173000  0.57003000  0.38752000  1.0
  H  H17  1  0.47884000  0.92988000  0.61243000  1.0
  H  H18  1  0.90827000  0.42997000  0.61248000  1.0
  H  H19  1  0.52118000  0.07012000  0.38756000  1.0
  H  H20  1  0.93681000  0.53657000  0.25401000  1.0
  H  H21  1  0.19002000  0.96318000  0.74594000  1.0
  H  H22  1  0.06319000  0.46343000  0.74599000  1.0
  H  H23  1  0.80997000  0.03682000  0.25406000  1.0
  C  C24  1  0.00182000  0.34935000  0.19893000  1.0
  C  C25  1  0.19966000  0.15052000  0.80110000  1.0
  C  C26  1  0.99820000  0.65065000  0.80107000  1.0
  C  C27  1  0.80033000  0.84948000  0.19890000  1.0
  C  C28  1  0.09043000  0.37200000  0.27748000  1.0
  C  C29  1  0.36674000  0.12782000  0.72253000  1.0
  C  C30  1  0.90958000  0.62800000  0.72252000  1.0
  C  C31  1  0.63325000  0.87218000  0.27747000  1.0
  C  C32  1  0.22136000  0.29080000  0.33502000  1.0
  C  C33  1  0.55518000  0.20906000  0.66496000  1.0
  C  C34  1  0.77865000  0.70919000  0.66498000  1.0
  C  C35  1  0.44482000  0.79094000  0.33504000  1.0
  C  C36  1  0.30727000  0.31024000  0.41037000  1.0
  C  C37  1  0.71673000  0.18972000  0.58960000  1.0
  C  C38  1  0.69274000  0.68976000  0.58963000  1.0
  C  C39  1  0.28327000  0.81029000  0.41040000  1.0
  C  C40  1  0.26263000  0.41080000  0.42945000  1.0
  C  C41  1  0.69162000  0.08915000  0.57050000  1.0
  C  C42  1  0.73737000  0.58919000  0.57055000  1.0
  C  C43  1  0.30839000  0.91085000  0.42950000  1.0
  C  C44  1  0.13124000  0.49176000  0.37265000  1.0
  C  C45  1  0.50341000  0.00816000  0.62730000  1.0
  C  C46  1  0.86875000  0.50824000  0.62736000  1.0
  C  C47  1  0.49660000  0.99184000  0.37270000  1.0
  C  C48  1  0.04583000  0.47306000  0.29678000  1.0
  C  C49  1  0.34187000  0.02676000  0.70321000  1.0
  C  C50  1  0.95418000  0.52694000  0.70322000  1.0
  C  C51  1  0.65813000  0.97324000  0.29679000  1.0
  N  N52  1  0.94753000  0.25064000  0.18605000  1.0
  N  N53  1  0.13262000  0.24927000  0.81390000  1.0
  N  N54  1  0.05249000  0.74936000  0.81395000  1.0
  N  N55  1  0.86737000  0.75074000  0.18610000  1.0
  N  N56  1  0.87521000  0.26642000  0.10632000  1.0
  N  N57  1  0.98100000  0.23360000  0.89368000  1.0
  N  N58  1  0.12478000  0.73358000  0.89368000  1.0
  N  N59  1  0.01899000  0.76640000  0.10632000  1.0
  N  N60  1  0.88601000  0.36979000  0.07157000  1.0
  N  N61  1  0.95710000  0.13025000  0.92852000  1.0
  N  N62  1  0.11398000  0.63021000  0.92843000  1.0
  N  N63  1  0.04289000  0.86975000  0.07148000  1.0
  N  N64  1  0.96502000  0.42414000  0.12881000  1.0
  N  N65  1  0.09300000  0.07581000  0.87130000  1.0
  N  N66  1  0.03499000  0.57586000  0.87119000  1.0
  N  N67  1  0.90700000  0.92419000  0.12869000  1.0
