# generated using pymatgen
data_NiH8C12(N2O)2
_symmetry_space_group_name_H-M   'P 1'
_cell_length_a   4.84752000
_cell_length_b   10.78350000
_cell_length_c   10.83990000
_cell_angle_alpha   89.99990000
_cell_angle_beta   93.98430000
_cell_angle_gamma   89.99990000
_symmetry_Int_Tables_number   1
_chemical_formula_structural   NiH8C12(N2O)2
_chemical_formula_sum   'Ni2 H16 C24 N8 O4'
_cell_volume   565.26711811
_cell_formula_units_Z   2
loop_
 _symmetry_equiv_pos_site_id
 _symmetry_equiv_pos_as_xyz
  1  'x, y, z'
loop_
 _atom_site_type_symbol
 _atom_site_label
 _atom_site_symmetry_multiplicity
 _atom_site_fract_x
 _atom_site_fract_y
 _atom_site_fract_z
 _atom_site_occupancy
  Ni  Ni0  1  0.00000000  0.50000000  0.00000000  1.0
  Ni  Ni1  1  0.00000000  0.00000000  0.50000000  1.0
  H  H2  1  0.49500000  0.88051000  0.07377000  1.0
  H  H3  1  0.50499000  0.38051000  0.42623000  1.0
  H  H4  1  0.50500000  0.11949000  0.92623000  1.0
  H  H5  1  0.49501000  0.61949000  0.57377000  1.0
  H  H6  1  0.74596000  0.02209000  0.22625000  1.0
  H  H7  1  0.25404000  0.52209000  0.27375000  1.0
  H  H8  1  0.25404000  0.97791000  0.77375000  1.0
  H  H9  1  0.74596000  0.47791000  0.72625000  1.0
  H  H10  1  0.03303000  0.72908000  0.44383000  1.0
  H  H11  1  0.96697000  0.22908000  0.05617000  1.0
  H  H12  1  0.96697000  0.27092000  0.55617000  1.0
  H  H13  1  0.03303000  0.77092000  0.94383000  1.0
  H  H14  1  0.80724000  0.57336000  0.29574000  1.0
  H  H15  1  0.19276000  0.07336000  0.20426000  1.0
  H  H16  1  0.19276000  0.42664000  0.70426000  1.0
  H  H17  1  0.80724000  0.92665000  0.79574000  1.0
  C  C18  1  0.46741000  0.62786000  0.09112000  1.0
  C  C19  1  0.53258000  0.12786000  0.40887000  1.0
  C  C20  1  0.53259000  0.37214000  0.90888000  1.0
  C  C21  1  0.46741000  0.87214000  0.59112000  1.0
  C  C22  1  0.61645000  0.84289000  0.15361000  1.0
  C  C23  1  0.38354000  0.34288000  0.34639000  1.0
  C  C24  1  0.38355000  0.15712000  0.84639000  1.0
  C  C25  1  0.61646000  0.65711000  0.65361000  1.0
  C  C26  1  0.63295000  0.71479000  0.17269000  1.0
  C  C27  1  0.36705000  0.21479000  0.32731000  1.0
  C  C28  1  0.36705000  0.28521000  0.82731000  1.0
  C  C29  1  0.63295000  0.78521000  0.67269000  1.0
  C  C30  1  0.75459000  0.92185000  0.23835000  1.0
  C  C31  1  0.24540000  0.42185000  0.26165000  1.0
  C  C32  1  0.24541000  0.07815000  0.76165000  1.0
  C  C33  1  0.75460000  0.57815000  0.73836000  1.0
  C  C34  1  0.91668000  0.75774000  0.35893000  1.0
  C  C35  1  0.08331000  0.25774000  0.14107000  1.0
  C  C36  1  0.08332000  0.24226000  0.64107000  1.0
  C  C37  1  0.91669000  0.74226000  0.85893000  1.0
  C  C38  1  0.78910000  0.67245000  0.27749000  1.0
  C  C39  1  0.21089000  0.17245000  0.22250000  1.0
  C  C40  1  0.21090000  0.32755000  0.72251000  1.0
  C  C41  1  0.78910000  0.82755000  0.77749000  1.0
  N  N42  1  0.59354000  0.53713000  0.03566000  1.0
  N  N43  1  0.40646000  0.03713000  0.46434000  1.0
  N  N44  1  0.40646000  0.46287000  0.96434000  1.0
  N  N45  1  0.59354000  0.96287000  0.53566000  1.0
  N  N46  1  0.90028000  0.88115000  0.34083000  1.0
  N  N47  1  0.09971000  0.38115000  0.15917000  1.0
  N  N48  1  0.09971000  0.11885000  0.65917000  1.0
  N  N49  1  0.90029000  0.61885000  0.84083000  1.0
  O  O50  1  0.20329000  0.64568000  0.08533000  1.0
  O  O51  1  0.79671000  0.14568000  0.41467000  1.0
  O  O52  1  0.79671000  0.35432000  0.91467000  1.0
  O  O53  1  0.20329000  0.85432000  0.58533000  1.0
