# generated using pymatgen
data_CuH6C6BrNO4
_symmetry_space_group_name_H-M   'P 1'
_cell_length_a   9.60079000
_cell_length_b   9.66259000
_cell_length_c   9.81190000
_cell_angle_alpha   89.99950000
_cell_angle_beta   89.99960000
_cell_angle_gamma   69.53900000
_symmetry_Int_Tables_number   1
_chemical_formula_structural   CuH6C6BrNO4
_chemical_formula_sum   'Cu4 H24 C24 Br4 N4 O16'
_cell_volume   852.80879936
_cell_formula_units_Z   4
loop_
 _symmetry_equiv_pos_site_id
 _symmetry_equiv_pos_as_xyz
  1  'x, y, z'
loop_
 _atom_site_type_symbol
 _atom_site_label
 _atom_site_symmetry_multiplicity
 _atom_site_fract_x
 _atom_site_fract_y
 _atom_site_fract_z
 _atom_site_occupancy
  Cu  Cu0  1  0.50763000  0.41163000  0.34225000  1.0
  Cu  Cu1  1  0.49236000  0.08837000  0.84225000  1.0
  Cu  Cu2  1  0.49237000  0.58837000  0.65775000  1.0
  Cu  Cu3  1  0.50763000  0.91163000  0.15776000  1.0
  H  H4  1  0.99397000  0.50688000  0.25807000  1.0
  H  H5  1  0.00602000  0.99313000  0.75808000  1.0
  H  H6  1  0.00604000  0.49312000  0.74193000  1.0
  H  H7  1  0.99397000  0.00688000  0.24193000  1.0
  H  H8  1  0.19739000  0.30665000  0.37962000  1.0
  H  H9  1  0.80261000  0.19335000  0.87963000  1.0
  H  H10  1  0.80261000  0.69334000  0.62037000  1.0
  H  H11  1  0.19739000  0.80665000  0.12037000  1.0
  H  H12  1  0.12545000  0.16296000  0.56233000  1.0
  H  H13  1  0.87454000  0.33704000  0.06233000  1.0
  H  H14  1  0.87455000  0.83703000  0.43767000  1.0
  H  H15  1  0.12544000  0.66297000  0.93767000  1.0
  H  H16  1  0.84894000  0.21992000  0.60897000  1.0
  H  H17  1  0.15106000  0.28008000  0.10896000  1.0
  H  H18  1  0.15106000  0.78008000  0.39103000  1.0
  H  H19  1  0.84893000  0.71992000  0.89103000  1.0
  H  H20  1  0.48011000  0.17454000  0.36334000  1.0
  H  H21  1  0.51988000  0.32546000  0.86334000  1.0
  H  H22  1  0.51988000  0.82547000  0.63666000  1.0
  H  H23  1  0.48012000  0.67454000  0.13666000  1.0
  H  H24  1  0.51567000  0.21321000  0.51225000  1.0
  H  H25  1  0.48433000  0.28679000  0.01224000  1.0
  H  H26  1  0.48434000  0.78678000  0.48775000  1.0
  H  H27  1  0.51568000  0.71322000  0.98775000  1.0
  C  C28  1  0.81962000  0.46485000  0.36434000  1.0
  C  C29  1  0.18038000  0.03514000  0.86433000  1.0
  C  C30  1  0.18039000  0.53515000  0.63566000  1.0
  C  C31  1  0.81962000  0.96485000  0.13567000  1.0
  C  C32  1  0.96875000  0.43779000  0.33496000  1.0
  C  C33  1  0.03124000  0.06221000  0.83496000  1.0
  C  C34  1  0.03125000  0.56220000  0.66503000  1.0
  C  C35  1  0.96875000  0.93780000  0.16504000  1.0
  C  C36  1  0.08087000  0.32810000  0.40313000  1.0
  C  C37  1  0.91913000  0.17191000  0.90314000  1.0
  C  C38  1  0.91914000  0.67189000  0.59686000  1.0
  C  C39  1  0.08086000  0.82810000  0.09687000  1.0
  C  C40  1  0.04100000  0.24770000  0.50476000  1.0
  C  C41  1  0.95901000  0.25230000  0.00476000  1.0
  C  C42  1  0.95900000  0.75229000  0.49524000  1.0
  C  C43  1  0.04100000  0.74771000  0.99524000  1.0
  C  C44  1  0.89268000  0.27649000  0.53342000  1.0
  C  C45  1  0.10732000  0.22351000  0.03343000  1.0
  C  C46  1  0.10732000  0.72351000  0.46658000  1.0
  C  C47  1  0.89268000  0.77649000  0.96658000  1.0
  C  C48  1  0.69972000  0.58199000  0.28748000  1.0
  C  C49  1  0.30027000  0.91801000  0.78747000  1.0
  C  C50  1  0.30028000  0.41802000  0.71252000  1.0
  C  C51  1  0.69972000  0.08199000  0.21253000  1.0
  Br  Br52  1  0.32358000  0.44644000  0.16648000  1.0
  Br  Br53  1  0.67643000  0.05356000  0.66648000  1.0
  Br  Br54  1  0.67643000  0.55355000  0.83352000  1.0
  Br  Br55  1  0.32358000  0.94642000  0.33352000  1.0
  N  N56  1  0.78521000  0.38199000  0.46269000  1.0
  N  N57  1  0.21479000  0.11801000  0.96267000  1.0
  N  N58  1  0.21480000  0.61801000  0.53731000  1.0
  N  N59  1  0.78521000  0.88200000  0.03731000  1.0
  O  O60  1  0.64492000  0.40364000  0.49656000  1.0
  O  O61  1  0.35508000  0.09636000  0.99655000  1.0
  O  O62  1  0.35508000  0.59636000  0.50343000  1.0
  O  O63  1  0.64492000  0.90364000  0.00343000  1.0
  O  O64  1  0.57631000  0.56088000  0.26048000  1.0
  O  O65  1  0.42368000  0.93912000  0.76048000  1.0
  O  O66  1  0.42370000  0.43912000  0.73951000  1.0
  O  O67  1  0.57629000  0.06088000  0.23951000  1.0
  O  O68  1  0.72870000  0.69135000  0.24775000  1.0
  O  O69  1  0.27129000  0.80865000  0.74775000  1.0
  O  O70  1  0.27130000  0.30865000  0.75225000  1.0
  O  O71  1  0.72869000  0.19136000  0.25225000  1.0
  O  O72  1  0.44870000  0.25537000  0.43371000  1.0
  O  O73  1  0.55131000  0.24462000  0.93371000  1.0
  O  O74  1  0.55131000  0.74463000  0.56630000  1.0
  O  O75  1  0.44871000  0.75536000  0.06630000  1.0
