# generated using pymatgen
data_AlH4C14NO5
_symmetry_space_group_name_H-M   'P 1'
_cell_length_a   6.67510000
_cell_length_b   18.78290000
_cell_length_c   22.05590000
_cell_angle_alpha   93.30000000
_cell_angle_beta   89.99930000
_cell_angle_gamma   89.99790000
_symmetry_Int_Tables_number   1
_chemical_formula_structural   AlH4C14NO5
_chemical_formula_sum   'Al4 H16 C56 N4 O20'
_cell_volume   2760.73339498
_cell_formula_units_Z   4
loop_
 _symmetry_equiv_pos_site_id
 _symmetry_equiv_pos_as_xyz
  1  'x, y, z'
loop_
 _atom_site_type_symbol
 _atom_site_label
 _atom_site_symmetry_multiplicity
 _atom_site_fract_x
 _atom_site_fract_y
 _atom_site_fract_z
 _atom_site_occupancy
  Al  Al0  1  0.22537000  0.74959000  0.74966000  1.0
  Al  Al1  1  0.77464000  0.25041000  0.25034000  1.0
  Al  Al2  1  0.72537000  0.75042000  0.75034000  1.0
  Al  Al3  1  0.27464000  0.24959000  0.24966000  1.0
  H  H4  1  0.73423000  0.42111000  0.14486000  1.0
  H  H5  1  0.26578000  0.57889000  0.85514000  1.0
  H  H6  1  0.23420000  0.07889000  0.35513000  1.0
  H  H7  1  0.76576000  0.92110000  0.64485000  1.0
  H  H8  1  0.56275000  0.52081000  0.09645000  1.0
  H  H9  1  0.43726000  0.47919000  0.90355000  1.0
  H  H10  1  0.06273000  0.97920000  0.40355000  1.0
  H  H11  1  0.93722000  0.02080000  0.59645000  1.0
  H  H12  1  0.54827000  0.60630000  0.01558000  1.0
  H  H13  1  0.45176000  0.39370000  0.98442000  1.0
  H  H14  1  0.04823000  0.89370000  0.48442000  1.0
  H  H15  1  0.95172000  0.10630000  0.51558000  1.0
  H  H16  1  0.47729000  0.66263000  0.72121000  1.0
  H  H17  1  0.52273000  0.33737000  0.27879000  1.0
  H  H18  1  0.97728000  0.83737000  0.77879000  1.0
  H  H19  1  0.02274000  0.16263000  0.22121000  1.0
  C  C20  1  0.47471000  0.83489000  0.83667000  1.0
  C  C21  1  0.52530000  0.16513000  0.16334000  1.0
  C  C22  1  0.97470000  0.66512000  0.66333000  1.0
  C  C23  1  0.02530000  0.33488000  0.33667000  1.0
  C  C24  1  0.47534000  0.83305000  0.67020000  1.0
  C  C25  1  0.52466000  0.16694000  0.32979000  1.0
  C  C26  1  0.97530000  0.66694000  0.82980000  1.0
  C  C27  1  0.02471000  0.33306000  0.17020000  1.0
  C  C28  1  0.17944000  0.38133000  0.07525000  1.0
  C  C29  1  0.82058000  0.61867000  0.92475000  1.0
  C  C30  1  0.67941000  0.11866000  0.42475000  1.0
  C  C31  1  0.32055000  0.88133000  0.57525000  1.0
  C  C32  1  0.02099000  0.38020000  0.11776000  1.0
  C  C33  1  0.97902000  0.61980000  0.88224000  1.0
  C  C34  1  0.52098000  0.11979000  0.38224000  1.0
  C  C35  1  0.47901000  0.88019000  0.61776000  1.0
  C  C36  1  0.85627000  0.42486000  0.11238000  1.0
  C  C37  1  0.14373000  0.57514000  0.88762000  1.0
  C  C38  1  0.35625000  0.07513000  0.38762000  1.0
  C  C39  1  0.64372000  0.92485000  0.61238000  1.0
  C  C40  1  0.84628000  0.47391000  0.06693000  1.0
  C  C41  1  0.15374000  0.52609000  0.93307000  1.0
  C  C42  1  0.34626000  0.02610000  0.43307000  1.0
  C  C43  1  0.65372000  0.97390000  0.56693000  1.0
  C  C44  1  0.00452000  0.47560000  0.02347000  1.0
  C  C45  1  0.99551000  0.52440000  0.97652000  1.0
  C  C46  1  0.50448000  0.02439000  0.47652000  1.0
  C  C47  1  0.49549000  0.97559000  0.52347000  1.0
  C  C48  1  0.17120000  0.42823000  0.02683000  1.0
  C  C49  1  0.82880000  0.57178000  0.97317000  1.0
  C  C50  1  0.67117000  0.07176000  0.47316000  1.0
  C  C51  1  0.32878000  0.92822000  0.52684000  1.0
  C  C52  1  0.68274000  0.52255000  0.06295000  1.0
  C  C53  1  0.31726000  0.47745000  0.93705000  1.0
  C  C54  1  0.18272000  0.97745000  0.43706000  1.0
  C  C55  1  0.81726000  0.02254000  0.56295000  1.0
  C  C56  1  0.67463000  0.56986000  0.01821000  1.0
  C  C57  1  0.32537000  0.43015000  0.98180000  1.0
  C  C58  1  0.17460000  0.93014000  0.48179000  1.0
  C  C59  1  0.82535000  0.06984000  0.51820000  1.0
  C  C60  1  0.02449000  0.38472000  0.38865000  1.0
  C  C61  1  0.97553000  0.61530000  0.61135000  1.0
  C  C62  1  0.52450000  0.11529000  0.11134000  1.0
  C  C63  1  0.47550000  0.88471000  0.88865000  1.0
  C  C64  1  0.01598000  0.42884000  0.43176000  1.0
  C  C65  1  0.98406000  0.57117000  0.56824000  1.0
  C  C66  1  0.51599000  0.07118000  0.06823000  1.0
  C  C67  1  0.48402000  0.92884000  0.93176000  1.0
  C  C68  1  0.00541000  0.47745000  0.47860000  1.0
  C  C69  1  0.99465000  0.52256000  0.52140000  1.0
  C  C70  1  0.50540000  0.02256000  0.02140000  1.0
  C  C71  1  0.49463000  0.97745000  0.97860000  1.0
  C  C72  1  0.34812000  0.33488000  0.07728000  1.0
  C  C73  1  0.65190000  0.66512000  0.92272000  1.0
  C  C74  1  0.84808000  0.16511000  0.42272000  1.0
  C  C75  1  0.15189000  0.83489000  0.57728000  1.0
  N  N76  1  0.49117000  0.29897000  0.07324000  1.0
  N  N77  1  0.50883000  0.70103000  0.92676000  1.0
  N  N78  1  0.99116000  0.20103000  0.42676000  1.0
  N  N79  1  0.00881000  0.79897000  0.57325000  1.0
  O  O80  1  0.64441000  0.81732000  0.69223000  1.0
  O  O81  1  0.35558000  0.18269000  0.30777000  1.0
  O  O82  1  0.14444000  0.68269000  0.80777000  1.0
  O  O83  1  0.85556000  0.31731000  0.19224000  1.0
  O  O84  1  0.30492000  0.81577000  0.81511000  1.0
  O  O85  1  0.69507000  0.18423000  0.18489000  1.0
  O  O86  1  0.80496000  0.68423000  0.68489000  1.0
  O  O87  1  0.19505000  0.31577000  0.31511000  1.0
  O  O88  1  0.30422000  0.81476000  0.68925000  1.0
  O  O89  1  0.69578000  0.18524000  0.31074000  1.0
  O  O90  1  0.80425000  0.68524000  0.81075000  1.0
  O  O91  1  0.19577000  0.31476000  0.18926000  1.0
  O  O92  1  0.14566000  0.68417000  0.68400000  1.0
  O  O93  1  0.85434000  0.31582000  0.31601000  1.0
  O  O94  1  0.64565000  0.81583000  0.81601000  1.0
  O  O95  1  0.35438000  0.18417000  0.18399000  1.0
  O  O96  1  0.47589000  0.70649000  0.74671000  1.0
  O  O97  1  0.52413000  0.29351000  0.25330000  1.0
  O  O98  1  0.97588000  0.79352000  0.75330000  1.0
  O  O99  1  0.02413000  0.20649000  0.24671000  1.0
