# generated using pymatgen
data_Zn2H14C13(NCl)4
_symmetry_space_group_name_H-M   'P 1'
_cell_length_a   6.95747000
_cell_length_b   8.81663000
_cell_length_c   29.05300000
_cell_angle_alpha   96.84850000
_cell_angle_beta   90.00000000
_cell_angle_gamma   90.00000000
_symmetry_Int_Tables_number   1
_chemical_formula_structural   Zn2H14C13(NCl)4
_chemical_formula_sum   'Zn8 H56 C52 N16 Cl16'
_cell_volume   1769.43702568
_cell_formula_units_Z   4
loop_
 _symmetry_equiv_pos_site_id
 _symmetry_equiv_pos_as_xyz
  1  'x, y, z'
loop_
 _atom_site_type_symbol
 _atom_site_label
 _atom_site_symmetry_multiplicity
 _atom_site_fract_x
 _atom_site_fract_y
 _atom_site_fract_z
 _atom_site_occupancy
  Zn  Zn0  1  0.83666000  0.58744000  0.83955000  1.0
  Zn  Zn1  1  0.33666000  0.91256000  0.66045000  1.0
  Zn  Zn2  1  0.16334000  0.41256000  0.16045000  1.0
  Zn  Zn3  1  0.66335000  0.08744000  0.33955000  1.0
  Zn  Zn4  1  0.33036000  0.74227000  0.87087000  1.0
  Zn  Zn5  1  0.83036000  0.75773000  0.62913000  1.0
  Zn  Zn6  1  0.66964000  0.25773000  0.12913000  1.0
  Zn  Zn7  1  0.16964000  0.24227000  0.37087000  1.0
  H  H8  1  0.86499000  0.88148000  0.90884000  1.0
  H  H9  1  0.36501000  0.61853000  0.59116000  1.0
  H  H10  1  0.13500000  0.11852000  0.09115000  1.0
  H  H11  1  0.63501000  0.38148000  0.40884000  1.0
  H  H12  1  0.83019000  0.94908000  0.99535000  1.0
  H  H13  1  0.33018000  0.55092000  0.50465000  1.0
  H  H14  1  0.16982000  0.05092000  0.00465000  1.0
  H  H15  1  0.66980000  0.44908000  0.49535000  1.0
  H  H16  1  0.77957000  0.73604000  0.04398000  1.0
  H  H17  1  0.27956000  0.76395000  0.45602000  1.0
  H  H18  1  0.22045000  0.26396000  0.95602000  1.0
  H  H19  1  0.72041000  0.23604000  0.54398000  1.0
  H  H20  1  0.75605000  0.47073000  0.00613000  1.0
  H  H21  1  0.25604000  0.02927000  0.49387000  1.0
  H  H22  1  0.24396000  0.52928000  0.99387000  1.0
  H  H23  1  0.74394000  0.97072000  0.50613000  1.0
  H  H24  1  0.63639000  0.16195000  0.91541000  1.0
  H  H25  1  0.13639000  0.33805000  0.58459000  1.0
  H  H26  1  0.36362000  0.83805000  0.08459000  1.0
  H  H27  1  0.86361000  0.66195000  0.41541000  1.0
  H  H28  1  0.59987000  0.30108000  0.96327000  1.0
  H  H29  1  0.09987000  0.19892000  0.53673000  1.0
  H  H30  1  0.40014000  0.69892000  0.03673000  1.0
  H  H31  1  0.90013000  0.80109000  0.46327000  1.0
  H  H32  1  0.82193000  0.20440000  0.95747000  1.0
  H  H33  1  0.32193000  0.29559000  0.54253000  1.0
  H  H34  1  0.17808000  0.79559000  0.04253000  1.0
  H  H35  1  0.67807000  0.70441000  0.45747000  1.0
  H  H36  1  0.94778000  0.10881000  0.88123000  1.0
  H  H37  1  0.44778000  0.39118000  0.61877000  1.0
  H  H38  1  0.05222000  0.89118000  0.11877000  1.0
  H  H39  1  0.55222000  0.60881000  0.38123000  1.0
  H  H40  1  0.96099000  0.03721000  0.82217000  1.0
  H  H41  1  0.46099000  0.46278000  0.67782000  1.0
  H  H42  1  0.03901000  0.96279000  0.17782000  1.0
  H  H43  1  0.53902000  0.53721000  0.32218000  1.0
  H  H44  1  0.73817000  0.02499000  0.85159000  1.0
  H  H45  1  0.23818000  0.47501000  0.64841000  1.0
  H  H46  1  0.26182000  0.97501000  0.14841000  1.0
  H  H47  1  0.76183000  0.52499000  0.35159000  1.0
  H  H48  1  0.81940000  0.03599000  0.75975000  1.0
  H  H49  1  0.31941000  0.46402000  0.74025000  1.0
  H  H50  1  0.18060000  0.96402000  0.24025000  1.0
  H  H51  1  0.68059000  0.53599000  0.25975000  1.0
  H  H52  1  0.83103000  0.10115000  0.67925000  1.0
  H  H53  1  0.33103000  0.39885000  0.82075000  1.0
  H  H54  1  0.16897000  0.89886000  0.32075000  1.0
  H  H55  1  0.66897000  0.60115000  0.17925000  1.0
  H  H56  1  0.84084000  0.37762000  0.66490000  1.0
  H  H57  1  0.34084000  0.12239000  0.83510000  1.0
  H  H58  1  0.15916000  0.62239000  0.33510000  1.0
  H  H59  1  0.65916000  0.87761000  0.16490000  1.0
  H  H60  1  0.83764000  0.57791000  0.73400000  1.0
  H  H61  1  0.33763000  0.92209000  0.76600000  1.0
  H  H62  1  0.16236000  0.42209000  0.26600000  1.0
  H  H63  1  0.66236000  0.07791000  0.23400000  1.0
  C  C64  1  0.83971000  0.79431000  0.93169000  1.0
  C  C65  1  0.33973000  0.70569000  0.56831000  1.0
  C  C66  1  0.16028000  0.20569000  0.06831000  1.0
  C  C67  1  0.66028000  0.29431000  0.43169000  1.0
  C  C68  1  0.82299000  0.83095000  0.97950000  1.0
  C  C69  1  0.32300000  0.66905000  0.52050000  1.0
  C  C70  1  0.17701000  0.16905000  0.02050000  1.0
  C  C71  1  0.67700000  0.33095000  0.47950000  1.0
  C  C72  1  0.79351000  0.71250000  0.00643000  1.0
  C  C73  1  0.29350000  0.78750000  0.49358000  1.0
  C  C74  1  0.20651000  0.28750000  0.99357000  1.0
  C  C75  1  0.70648000  0.21251000  0.50643000  1.0
  C  C76  1  0.77949000  0.56289000  0.98497000  1.0
  C  C77  1  0.27948000  0.93711000  0.51503000  1.0
  C  C78  1  0.22052000  0.43711000  0.01503000  1.0
  C  C79  1  0.72050000  0.06289000  0.48497000  1.0
  C  C80  1  0.79510000  0.53473000  0.93674000  1.0
  C  C81  1  0.29510000  0.96527000  0.56326000  1.0
  C  C82  1  0.20490000  0.46528000  0.06326000  1.0
  C  C83  1  0.70490000  0.03472000  0.43674000  1.0
  C  C84  1  0.77792000  0.37887000  0.91167000  1.0
  C  C85  1  0.27792000  0.12113000  0.58833000  1.0
  C  C86  1  0.22209000  0.62113000  0.08833000  1.0
  C  C87  1  0.72208000  0.87888000  0.41168000  1.0
  C  C88  1  0.70704000  0.25361000  0.93785000  1.0
  C  C89  1  0.20704000  0.24639000  0.56215000  1.0
  C  C90  1  0.29297000  0.74638000  0.06215000  1.0
  C  C91  1  0.79296000  0.75362000  0.43785000  1.0
  C  C92  1  0.86663000  0.09558000  0.84873000  1.0
  C  C93  1  0.36663000  0.40442000  0.65127000  1.0
  C  C94  1  0.13337000  0.90442000  0.15127000  1.0
  C  C95  1  0.63339000  0.59558000  0.34873000  1.0
  C  C96  1  0.82691000  0.27492000  0.78995000  1.0
  C  C97  1  0.32691000  0.22508000  0.71005000  1.0
  C  C98  1  0.17309000  0.72508000  0.21005000  1.0
  C  C99  1  0.67309000  0.77492000  0.28995000  1.0
  C  C100  1  0.82686000  0.15496000  0.75339000  1.0
  C  C101  1  0.32686000  0.34504000  0.74661000  1.0
  C  C102  1  0.17314000  0.84504000  0.24661000  1.0
  C  C103  1  0.67314000  0.65496000  0.25339000  1.0
  C  C104  1  0.83213000  0.19190000  0.70828000  1.0
  C  C105  1  0.33214000  0.30810000  0.79172000  1.0
  C  C106  1  0.16787000  0.80810000  0.29172000  1.0
  C  C107  1  0.66786000  0.69190000  0.20828000  1.0
  C  C108  1  0.83735000  0.34508000  0.69993000  1.0
  C  C109  1  0.33735000  0.15492000  0.80007000  1.0
  C  C110  1  0.16265000  0.65493000  0.30007000  1.0
  C  C111  1  0.66265000  0.84508000  0.19993000  1.0
  C  C112  1  0.83498000  0.45645000  0.73787000  1.0
  C  C113  1  0.33497000  0.04355000  0.76213000  1.0
  C  C114  1  0.16503000  0.54356000  0.26213000  1.0
  C  C115  1  0.66502000  0.95645000  0.23787000  1.0
  N  N116  1  0.82658000  0.65082000  0.91105000  1.0
  N  N117  1  0.32660000  0.84918000  0.58895000  1.0
  N  N118  1  0.17341000  0.34918000  0.08895000  1.0
  N  N119  1  0.67342000  0.15082000  0.41105000  1.0
  N  N120  1  0.81614000  0.37291000  0.86767000  1.0
  N  N121  1  0.31614000  0.12708000  0.63233000  1.0
  N  N122  1  0.18386000  0.62709000  0.13233000  1.0
  N  N123  1  0.68386000  0.87291000  0.36767000  1.0
  N  N124  1  0.82051000  0.24740000  0.83641000  1.0
  N  N125  1  0.32050000  0.25261000  0.66359000  1.0
  N  N126  1  0.17949000  0.75261000  0.16359000  1.0
  N  N127  1  0.67950000  0.74740000  0.33641000  1.0
  N  N128  1  0.82866000  0.42207000  0.78175000  1.0
  N  N129  1  0.32865000  0.07794000  0.71825000  1.0
  N  N130  1  0.17134000  0.57794000  0.21825000  1.0
  N  N131  1  0.67134000  0.92206000  0.28175000  1.0
  Cl  Cl132  1  0.08683000  0.73222000  0.81425000  1.0
  Cl  Cl133  1  0.58682000  0.76777000  0.68575000  1.0
  Cl  Cl134  1  0.91317000  0.26777000  0.18575000  1.0
  Cl  Cl135  1  0.41317000  0.23222000  0.31425000  1.0
  Cl  Cl136  1  0.58150000  0.73897000  0.81729000  1.0
  Cl  Cl137  1  0.08150000  0.76103000  0.68271000  1.0
  Cl  Cl138  1  0.41850000  0.26103000  0.18271000  1.0
  Cl  Cl139  1  0.91850000  0.23897000  0.31729000  1.0
  Cl  Cl140  1  0.31597000  0.52791000  0.90432000  1.0
  Cl  Cl141  1  0.81597000  0.97209000  0.59568000  1.0
  Cl  Cl142  1  0.68403000  0.47209000  0.09568000  1.0
  Cl  Cl143  1  0.18403000  0.02791000  0.40432000  1.0
  Cl  Cl144  1  0.32154000  0.96921000  0.91374000  1.0
  Cl  Cl145  1  0.82155000  0.53078000  0.58626000  1.0
  Cl  Cl146  1  0.67845000  0.03078000  0.08626000  1.0
  Cl  Cl147  1  0.17846000  0.46921000  0.41374000  1.0
