# generated using pymatgen
data_CoH7C7N7O2
_symmetry_space_group_name_H-M   'P 1'
_cell_length_a   6.18229000
_cell_length_b   8.34297000
_cell_length_c   10.64850000
_cell_angle_alpha   107.59500000
_cell_angle_beta   103.61900000
_cell_angle_gamma   95.63820000
_symmetry_Int_Tables_number   1
_chemical_formula_structural   CoH7C7N7O2
_chemical_formula_sum   'Co2 H14 C14 N14 O4'
_cell_volume   500.23884468
_cell_formula_units_Z   2
loop_
 _symmetry_equiv_pos_site_id
 _symmetry_equiv_pos_as_xyz
  1  'x, y, z'
loop_
 _atom_site_type_symbol
 _atom_site_label
 _atom_site_symmetry_multiplicity
 _atom_site_fract_x
 _atom_site_fract_y
 _atom_site_fract_z
 _atom_site_occupancy
  Co  Co0  1  0.00000000  0.00000000  0.00000000  1.0
  Co  Co1  1  0.50000000  0.00000000  0.00000000  1.0
  H  H2  1  0.72859000  0.60234000  0.12743000  1.0
  H  H3  1  0.27141000  0.39766000  0.87257000  1.0
  H  H4  1  0.86082000  0.42397000  0.13718000  1.0
  H  H5  1  0.13919000  0.57603000  0.86282000  1.0
  H  H6  1  0.02220000  0.61189000  0.13374000  1.0
  H  H7  1  0.97781000  0.38812000  0.86626000  1.0
  H  H8  1  0.65290000  0.74454000  0.31649000  1.0
  H  H9  1  0.34710000  0.25545000  0.68351000  1.0
  H  H10  1  0.75031000  0.87515000  0.57078000  1.0
  H  H11  1  0.24969000  0.12485000  0.42922000  1.0
  H  H12  1  0.37102000  0.67309000  0.59607000  1.0
  H  H13  1  0.62898000  0.32691000  0.40392000  1.0
  H  H14  1  0.24845000  0.54561000  0.33706000  1.0
  H  H15  1  0.75155000  0.45439000  0.66294000  1.0
  C  C16  1  0.88574000  0.56406000  0.16978000  1.0
  C  C17  1  0.11427000  0.43594000  0.83022000  1.0
  C  C18  1  0.80788000  0.72915000  0.38225000  1.0
  C  C19  1  0.19211000  0.27084000  0.61775000  1.0
  C  C20  1  0.86275000  0.79985000  0.52348000  1.0
  C  C21  1  0.13725000  0.20015000  0.47652000  1.0
  C  C22  1  0.06671000  0.77944000  0.60351000  1.0
  C  C23  1  0.93329000  0.22056000  0.39649000  1.0
  C  C24  1  0.21004000  0.68831000  0.53668000  1.0
  C  C25  1  0.78996000  0.31170000  0.46332000  1.0
  C  C26  1  0.14614000  0.61808000  0.39565000  1.0
  C  C27  1  0.85386000  0.38193000  0.60435000  1.0
  C  C28  1  0.13269000  0.85473000  0.75566000  1.0
  C  C29  1  0.86731000  0.14527000  0.24434000  1.0
  N  N30  1  0.36591000  0.87997000  0.29990000  1.0
  N  N31  1  0.63410000  0.12003000  0.70010000  1.0
  N  N32  1  0.31064000  0.86224000  0.18250000  1.0
  N  N33  1  0.68936000  0.13776000  0.81749000  1.0
  N  N34  1  0.25381000  0.84340000  0.06196000  1.0
  N  N35  1  0.74619000  0.15661000  0.93804000  1.0
  N  N36  1  0.27379000  0.15228000  0.01072000  1.0
  N  N37  1  0.72620000  0.84772000  0.98927000  1.0
  N  N38  1  0.32911000  0.29670000  0.09218000  1.0
  N  N39  1  0.67089000  0.70329000  0.90782000  1.0
  N  N40  1  0.38282000  0.43770000  0.16619000  1.0
  N  N41  1  0.61718000  0.56230000  0.83381000  1.0
  N  N42  1  0.94670000  0.63823000  0.32033000  1.0
  N  N43  1  0.05330000  0.36177000  0.67967000  1.0
  O  O44  1  0.34446000  0.87826000  0.81452000  1.0
  O  O45  1  0.65554000  0.12174000  0.18548000  1.0
  O  O46  1  0.97223000  0.88594000  0.81109000  1.0
  O  O47  1  0.02777000  0.11407000  0.18891000  1.0
