# generated using pymatgen
data_Zn4H2C24S4Br4Cl2O13
_symmetry_space_group_name_H-M   'P 1'
_cell_length_a   19.68330000
_cell_length_b   19.76910000
_cell_length_c   33.38920000
_cell_angle_alpha   78.91610000
_cell_angle_beta   79.16670000
_cell_angle_gamma   63.93050000
_symmetry_Int_Tables_number   1
_chemical_formula_structural   Zn4H2C24S4Br4Cl2O13
_chemical_formula_sum   'Zn16 H8 C96 S16 Br16 Cl8 O52'
_cell_volume   11373.75061484
_cell_formula_units_Z   4
loop_
 _symmetry_equiv_pos_site_id
 _symmetry_equiv_pos_as_xyz
  1  'x, y, z'
loop_
 _atom_site_type_symbol
 _atom_site_label
 _atom_site_symmetry_multiplicity
 _atom_site_fract_x
 _atom_site_fract_y
 _atom_site_fract_z
 _atom_site_occupancy
  Zn  Zn0  1  0.05545000  0.40066000  0.47791000  1.0
  Zn  Zn1  1  0.98584000  0.48396000  0.56017000  1.0
  Zn  Zn2  1  0.05809000  0.56177000  0.48176000  1.0
  Zn  Zn3  1  0.89993000  0.55514000  0.48018000  1.0
  Zn  Zn4  1  0.69382000  0.34932000  0.27225000  1.0
  Zn  Zn5  1  0.69083000  0.18822000  0.26602000  1.0
  Zn  Zn6  1  0.76953000  0.26634000  0.19002000  1.0
  Zn  Zn7  1  0.84748000  0.19515000  0.27164000  1.0
  Zn  Zn8  1  0.26476000  0.76543000  0.68989000  1.0
  Zn  Zn9  1  0.34961000  0.69768000  0.77123000  1.0
  Zn  Zn10  1  0.19171000  0.84964000  0.77083000  1.0
  Zn  Zn11  1  0.19224000  0.68782000  0.76826000  1.0
  Zn  Zn12  1  0.55847000  0.06231000  0.98403000  1.0
  Zn  Zn13  1  0.40284000  0.05225000  0.97688000  1.0
  Zn  Zn14  1  0.55869000  0.90026000  0.97930000  1.0
  Zn  Zn15  1  0.48008000  0.98392000  0.05997000  1.0
  H  H16  1  0.74997000  0.44871000  0.34867000  1.0
  H  H17  1  0.99896000  0.30299000  0.40125000  1.0
  H  H18  1  0.20136000  0.69938000  0.60244000  1.0
  H  H19  1  0.04870000  0.55078000  0.64746000  1.0
  H  H20  1  0.64664000  0.14894000  0.04957000  1.0
  H  H21  1  0.60357000  0.10069000  0.20047000  1.0
  H  H22  1  0.30474000  0.99788000  0.90140000  1.0
  H  H23  1  0.44661000  0.75057000  0.84852000  1.0
  C  C24  1  0.06180000  0.31690000  0.56175000  1.0
  C  C25  1  0.07025000  0.57158000  0.56740000  1.0
  C  C26  1  0.18336000  0.43971000  0.43838000  1.0
  C  C27  1  0.93515000  0.68434000  0.43874000  1.0
  C  C28  1  0.92879000  0.43248000  0.43132000  1.0
  C  C29  1  0.81779000  0.56087000  0.56339000  1.0
  C  C30  1  0.56630000  0.30919000  0.31119000  1.0
  C  C31  1  0.68376000  0.18052000  0.17964000  1.0
  C  C32  1  0.68975000  0.43321000  0.18859000  1.0
  C  C33  1  0.93559000  0.18793000  0.18965000  1.0
  C  C34  1  0.81974000  0.31850000  0.31923000  1.0
  C  C35  1  0.81212000  0.06563000  0.31089000  1.0
  C  C36  1  0.43246000  0.68970000  0.68764000  1.0
  C  C37  1  0.31620000  0.82257000  0.81870000  1.0
  C  C38  1  0.18791000  0.93267000  0.68734000  1.0
  C  C39  1  0.06554000  0.80916000  0.81114000  1.0
  C  C40  1  0.17996000  0.67842000  0.68249000  1.0
  C  C41  1  0.31599000  0.56650000  0.81171000  1.0
  C  C42  1  0.43686000  0.18365000  0.93859000  1.0
  C  C43  1  0.43540000  0.92634000  0.93081000  1.0
  C  C44  1  0.68423000  0.94204000  0.93937000  1.0
  C  C45  1  0.56070000  0.81685000  0.06251000  1.0
  C  C46  1  0.56619000  0.06937000  0.07039000  1.0
  C  C47  1  0.31412000  0.06188000  0.05921000  1.0
  C  C48  1  0.89801000  0.40644000  0.40227000  1.0
  C  C49  1  0.85078000  0.34512000  0.34783000  1.0
  C  C50  1  0.82673000  0.44808000  0.38698000  1.0
  C  C51  1  0.92225000  0.30365000  0.36293000  1.0
  C  C52  1  0.80487000  0.41681000  0.36041000  1.0
  C  C53  1  0.94403000  0.33487000  0.38956000  1.0
  C  C54  1  0.09990000  0.60065000  0.59544000  1.0
  C  C55  1  0.15008000  0.64958000  0.65445000  1.0
  C  C56  1  0.14367000  0.64328000  0.58270000  1.0
  C  C57  1  0.10623000  0.60703000  0.66719000  1.0
  C  C58  1  0.16760000  0.66658000  0.61215000  1.0
  C  C59  1  0.08237000  0.58366000  0.63774000  1.0
  C  C60  1  0.30525000  0.45371000  0.40057000  1.0
  C  C61  1  0.44478000  0.29478000  0.34953000  1.0
  C  C62  1  0.25854000  0.41557000  0.41385000  1.0
  C  C63  1  0.49147000  0.33290000  0.33615000  1.0
  C  C64  1  0.37698000  0.33870000  0.37302000  1.0
  C  C65  1  0.37315000  0.40974000  0.37714000  1.0
  C  C66  1  0.72547000  0.57556000  0.63113000  1.0
  C  C67  1  0.52491000  0.67377000  0.61998000  1.0
  C  C68  1  0.74346000  0.58481000  0.58871000  1.0
  C  C69  1  0.50692000  0.66487000  0.66243000  1.0
  C  C70  1  0.60455000  0.64126000  0.60854000  1.0
  C  C71  1  0.64584000  0.60799000  0.64258000  1.0
  C  C72  1  0.07673000  0.22459000  0.62960000  1.0
  C  C73  1  0.17417000  0.02465000  0.61938000  1.0
  C  C74  1  0.08606000  0.24255000  0.58713000  1.0
  C  C75  1  0.16443000  0.00685000  0.66185000  1.0
  C  C76  1  0.14218000  0.10401000  0.60756000  1.0
  C  C77  1  0.10879000  0.14523000  0.64137000  1.0
  C  C78  1  0.84112000  0.80203000  0.39694000  1.0
  C  C79  1  0.90582000  0.94813000  0.35285000  1.0
  C  C80  1  0.90928000  0.75885000  0.41372000  1.0
  C  C81  1  0.83771000  0.99118000  0.33597000  1.0
  C  C82  1  0.90718000  0.87909000  0.37502000  1.0
  C  C83  1  0.83985000  0.87098000  0.37469000  1.0
  C  C84  1  0.65524000  0.15328000  0.15006000  1.0
  C  C85  1  0.59493000  0.09638000  0.09998000  1.0
  C  C86  1  0.66738000  0.16694000  0.10675000  1.0
  C  C87  1  0.58282000  0.08270000  0.14328000  1.0
  C  C88  1  0.63733000  0.13846000  0.08291000  1.0
  C  C89  1  0.61291000  0.11111000  0.16713000  1.0
  C  C90  1  0.67350000  0.52503000  0.12061000  1.0
  C  C91  1  0.57585000  0.72508000  0.13053000  1.0
  C  C92  1  0.66471000  0.50742000  0.16313000  1.0
  C  C93  1  0.58503000  0.74272000  0.08803000  1.0
  C  C94  1  0.60815000  0.64578000  0.14243000  1.0
  C  C95  1  0.64120000  0.60435000  0.10870000  1.0
  C  C96  1  0.08307000  0.12320000  0.17740000  1.0
  C  C97  1  0.16655000  0.12760000  0.07154000  1.0
  C  C98  1  0.01052000  0.16279000  0.16510000  1.0
  C  C99  1  0.23913000  0.08792000  0.08376000  1.0
  C  C100  1  0.10965000  0.14062000  0.10566000  1.0
  C  C101  1  0.14005000  0.11046000  0.14332000  1.0
  C  C102  1  0.34363000  0.85212000  0.84769000  1.0
  C  C103  1  0.40775000  0.89634000  0.90219000  1.0
  C  C104  1  0.30320000  0.92294000  0.86300000  1.0
  C  C105  1  0.44808000  0.82541000  0.88700000  1.0
  C  C106  1  0.33575000  0.94334000  0.88962000  1.0
  C  C107  1  0.41555000  0.80506000  0.86035000  1.0
  C  C108  1  0.40993000  0.44742000  0.85314000  1.0
  C  C109  1  0.34332000  0.30252000  0.89699000  1.0
  C  C110  1  0.34183000  0.49153000  0.83644000  1.0
  C  C111  1  0.41139000  0.25849000  0.91375000  1.0
  C  C112  1  0.34275000  0.37136000  0.87487000  1.0
  C  C113  1  0.41057000  0.37852000  0.87520000  1.0
  C  C114  1  0.94364000  0.79588000  0.84961000  1.0
  C  C115  1  0.80561000  0.95588000  0.90032000  1.0
  C  C116  1  0.99067000  0.83354000  0.83590000  1.0
  C  C117  1  0.75868000  0.91816000  0.91414000  1.0
  C  C118  1  0.87304000  0.91137000  0.87679000  1.0
  C  C119  1  0.87617000  0.84042000  0.87308000  1.0
  S  S120  1  0.29794000  0.32569000  0.39772000  1.0
  S  S121  1  0.45221000  0.42268000  0.35240000  1.0
  S  S122  1  0.66284000  0.63301000  0.56275000  1.0
  S  S123  1  0.58756000  0.61661000  0.68838000  1.0
  S  S124  1  0.13422000  0.16210000  0.56157000  1.0
  S  S125  1  0.11632000  0.08730000  0.68737000  1.0
  S  S126  1  0.97191000  0.80261000  0.40226000  1.0
  S  S127  1  0.77524000  0.94729000  0.34728000  1.0
  S  S128  1  0.61657000  0.58803000  0.18853000  1.0
  S  S129  1  0.63322000  0.66211000  0.06262000  1.0
  S  S130  1  0.01190000  0.18449000  0.11185000  1.0
  S  S131  1  0.23781000  0.06656000  0.13705000  1.0
  S  S132  1  0.27845000  0.44856000  0.84774000  1.0
  S  S133  1  0.47468000  0.30152000  0.90253000  1.0
  S  S134  1  0.95216000  0.92365000  0.85163000  1.0
  S  S135  1  0.79709000  0.82812000  0.89831000  1.0
  Br  Br136  1  0.28626000  0.55097000  0.41079000  1.0
  Br  Br137  1  0.46375000  0.19742000  0.33945000  1.0
  Br  Br138  1  0.79390000  0.52704000  0.67069000  1.0
  Br  Br139  1  0.45674000  0.72222000  0.58028000  1.0
  Br  Br140  1  0.02839000  0.29250000  0.66903000  1.0
  Br  Br141  1  0.22254000  0.95648000  0.58010000  1.0
  Br  Br142  1  0.75830000  0.77689000  0.40114000  1.0
  Br  Br143  1  0.98890000  0.97295000  0.34860000  1.0
  Br  Br144  1  0.72072000  0.45685000  0.08128000  1.0
  Br  Br145  1  0.52837000  0.79344000  0.16975000  1.0
  Br  Br146  1  0.10823000  0.08882000  0.23138000  1.0
  Br  Br147  1  0.14117000  0.16183000  0.01759000  1.0
  Br  Br148  1  0.49364000  0.47126000  0.84879000  1.0
  Br  Br149  1  0.25926000  0.27907000  0.90154000  1.0
  Br  Br150  1  0.96189000  0.69870000  0.83963000  1.0
  Br  Br151  1  0.78725000  0.05323000  0.91004000  1.0
  Cl  Cl152  1  0.76276000  0.53724000  0.39877000  1.0
  Cl  Cl153  1  0.98674000  0.21485000  0.35078000  1.0
  Cl  Cl154  1  0.17110000  0.66907000  0.53208000  1.0
  Cl  Cl155  1  0.07895000  0.58108000  0.71781000  1.0
  Cl  Cl156  1  0.71773000  0.21772000  0.08022000  1.0
  Cl  Cl157  1  0.53235000  0.03203000  0.16981000  1.0
  Cl  Cl158  1  0.21423000  0.98827000  0.85089000  1.0
  Cl  Cl159  1  0.53705000  0.76021000  0.89914000  1.0
  O  O160  1  0.00063000  0.49905000  0.49981000  1.0
  O  O161  1  0.07752000  0.31545000  0.52278000  1.0
  O  O162  1  0.03486000  0.53087000  0.58488000  1.0
  O  O163  1  0.15416000  0.50600000  0.44926000  1.0
  O  O164  1  0.02770000  0.37549000  0.58051000  1.0
  O  O165  1  0.15408000  0.39137000  0.44641000  1.0
  O  O166  1  0.08210000  0.58943000  0.52896000  1.0
  O  O167  1  0.00301000  0.65761000  0.44842000  1.0
  O  O168  1  0.88638000  0.49615000  0.44407000  1.0
  O  O169  1  0.88885000  0.65318000  0.44861000  1.0
  O  O170  1  0.99544000  0.38795000  0.44097000  1.0
  O  O171  1  0.87736000  0.52667000  0.58176000  1.0
  O  O172  1  0.81517000  0.57724000  0.52449000  1.0
  O  O173  1  0.74857000  0.25102000  0.25024000  1.0
  O  O174  1  0.59563000  0.35748000  0.30378000  1.0
  O  O175  1  0.66569000  0.16368000  0.21784000  1.0
  O  O176  1  0.72647000  0.37471000  0.16993000  1.0
  O  O177  1  0.59498000  0.24373000  0.29931000  1.0
  O  O178  1  0.67219000  0.43465000  0.22751000  1.0
  O  O179  1  0.72327000  0.21776000  0.16470000  1.0
  O  O180  1  0.87824000  0.22479000  0.16925000  1.0
  O  O181  1  0.86145000  0.25376000  0.30758000  1.0
  O  O182  1  0.93384000  0.17123000  0.22849000  1.0
  O  O183  1  0.75363000  0.36327000  0.30892000  1.0
  O  O184  1  0.74578000  0.09139000  0.29927000  1.0
  O  O185  1  0.85758000  0.09777000  0.30299000  1.0
  O  O186  1  0.24980000  0.75043000  0.75026000  1.0
  O  O187  1  0.37331000  0.72284000  0.66891000  1.0
  O  O188  1  0.36225000  0.75797000  0.80739000  1.0
  O  O189  1  0.17025000  0.93462000  0.72621000  1.0
  O  O190  1  0.43448000  0.67523000  0.72663000  1.0
  O  O191  1  0.22316000  0.87374000  0.66892000  1.0
  O  O192  1  0.25028000  0.86330000  0.80774000  1.0
  O  O193  1  0.09364000  0.85846000  0.80212000  1.0
  O  O194  1  0.16724000  0.66140000  0.72095000  1.0
  O  O195  1  0.09573000  0.74225000  0.80104000  1.0
  O  O196  1  0.21636000  0.71817000  0.66499000  1.0
  O  O197  1  0.36117000  0.59902000  0.80296000  1.0
  O  O198  1  0.24880000  0.59221000  0.80123000  1.0
  O  O199  1  0.50068000  0.99958000  0.99976000  1.0
  O  O200  1  0.50266000  0.15861000  0.95077000  1.0
  O  O201  1  0.39039000  0.99230000  0.94068000  1.0
  O  O202  1  0.65586000  0.89295000  0.94761000  1.0
  O  O203  1  0.39227000  0.15056000  0.94573000  1.0
  O  O204  1  0.65485000  0.00800000  0.95067000  1.0
  O  O205  1  0.50028000  0.88486000  0.94291000  1.0
  O  O206  1  0.58085000  0.81507000  0.02377000  1.0
  O  O207  1  0.52721000  0.03159000  0.08533000  1.0
  O  O208  1  0.52207000  0.87564000  0.08078000  1.0
  O  O209  1  0.58356000  0.08694000  0.03220000  1.0
  O  O210  1  0.31618000  0.07575000  0.02026000  1.0
  O  O211  1  0.37121000  0.02685000  0.07993000  1.0
