# generated using pymatgen
data_PrH20C15NO7
_symmetry_space_group_name_H-M   'P 1'
_cell_length_a   7.82573000
_cell_length_b   10.98010000
_cell_length_c   11.63540000
_cell_angle_alpha   110.01700000
_cell_angle_beta   106.49600000
_cell_angle_gamma   103.35600000
_symmetry_Int_Tables_number   1
_chemical_formula_structural   PrH20C15NO7
_chemical_formula_sum   'Pr2 H40 C30 N2 O14'
_cell_volume   838.84166071
_cell_formula_units_Z   2
loop_
 _symmetry_equiv_pos_site_id
 _symmetry_equiv_pos_as_xyz
  1  'x, y, z'
loop_
 _atom_site_type_symbol
 _atom_site_label
 _atom_site_symmetry_multiplicity
 _atom_site_fract_x
 _atom_site_fract_y
 _atom_site_fract_z
 _atom_site_occupancy
  Pr  Pr0  1  0.28044000  0.02299000  0.07211000  1.0
  Pr  Pr1  1  0.71956000  0.97701000  0.92790000  1.0
  H  H2  1  0.23426000  0.41879000  0.06992000  1.0
  H  H3  1  0.76574000  0.58121000  0.93009000  1.0
  H  H4  1  0.28048000  0.30312000  0.94682000  1.0
  H  H5  1  0.71952000  0.69688000  0.05318000  1.0
  H  H6  1  0.96649000  0.42344000  0.87998000  1.0
  H  H7  1  0.03351000  0.57656000  0.12003000  1.0
  H  H8  1  0.05458000  0.33310000  0.76866000  1.0
  H  H9  1  0.94543000  0.66690000  0.23135000  1.0
  H  H10  1  0.83244000  0.80091000  0.51931000  1.0
  H  H11  1  0.16755000  0.19909000  0.48069000  1.0
  H  H12  1  0.08485000  0.83878000  0.57630000  1.0
  H  H13  1  0.91515000  0.16122000  0.42370000  1.0
  H  H14  1  0.08057000  0.64622000  0.82718000  1.0
  H  H15  1  0.91943000  0.35379000  0.17282000  1.0
  H  H16  1  0.15532000  0.53796000  0.71340000  1.0
  H  H17  1  0.84468000  0.46204000  0.28660000  1.0
  H  H18  1  0.14120000  0.09282000  0.64482000  1.0
  H  H19  1  0.85880000  0.90718000  0.35518000  1.0
  H  H20  1  0.89187000  0.05375000  0.58564000  1.0
  H  H21  1  0.10813000  0.94624000  0.41436000  1.0
  H  H22  1  0.28405000  0.61698000  0.01258000  1.0
  H  H23  1  0.71595000  0.38302000  0.98742000  1.0
  H  H24  1  0.38464000  0.52438000  0.91113000  1.0
  H  H25  1  0.61536000  0.47562000  0.08887000  1.0
  H  H26  1  0.51886000  0.94994000  0.28159000  1.0
  H  H27  1  0.48114000  0.05006000  0.71841000  1.0
  H  H28  1  0.66195000  0.02308000  0.22520000  1.0
  H  H29  1  0.33805000  0.97692000  0.77480000  1.0
  H  H30  1  0.48144000  0.49072000  0.74285000  1.0
  H  H31  1  0.51856000  0.50928000  0.25715000  1.0
  H  H32  1  0.67337000  0.27240000  0.45054000  1.0
  H  H33  1  0.32663000  0.72760000  0.54946000  1.0
  H  H34  1  0.42835000  0.28512000  0.79689000  1.0
  H  H35  1  0.57165000  0.71488000  0.20311000  1.0
  H  H36  1  0.62262000  0.08214000  0.51966000  1.0
  H  H37  1  0.37738000  0.91786000  0.48034000  1.0
  H  H38  1  0.70017000  0.51566000  0.50047000  1.0
  H  H39  1  0.29982000  0.48435000  0.49953000  1.0
  H  H40  1  0.64966000  0.61506000  0.63551000  1.0
  H  H41  1  0.35033000  0.38495000  0.36449000  1.0
  C  C42  1  0.98478000  0.91497000  0.73127000  1.0
  C  C43  1  0.01522000  0.08503000  0.26873000  1.0
  C  C44  1  0.16713000  0.34041000  0.96491000  1.0
  C  C45  1  0.83288000  0.65959000  0.03509000  1.0
  C  C46  1  0.09689000  0.40596000  0.87327000  1.0
  C  C47  1  0.90312000  0.59404000  0.12673000  1.0
  C  C48  1  0.97338000  0.88001000  0.59081000  1.0
  C  C49  1  0.02662000  0.11998000  0.40919000  1.0
  C  C50  1  0.19926000  0.61192000  0.81766000  1.0
  C  C51  1  0.80074000  0.38808000  0.18234000  1.0
  C  C52  1  0.01558000  0.22136000  0.95773000  1.0
  C  C53  1  0.98442000  0.77864000  0.04227000  1.0
  C  C54  1  0.00281000  0.01255000  0.56922000  1.0
  C  C55  1  0.99719000  0.98745000  0.43077000  1.0
  C  C56  1  0.25184000  0.54286000  0.91054000  1.0
  C  C57  1  0.74816000  0.45714000  0.08946000  1.0
  C  C58  1  0.37289000  0.73533000  0.85447000  1.0
  C  C59  1  0.62711000  0.26467000  0.14553000  1.0
  C  C60  1  0.51493000  0.40119000  0.69249000  1.0
  C  C61  1  0.48507000  0.59881000  0.30751000  1.0
  C  C62  1  0.62552000  0.28257000  0.53150000  1.0
  C  C63  1  0.37448000  0.71743000  0.46850000  1.0
  C  C64  1  0.48506000  0.28731000  0.72161000  1.0
  C  C65  1  0.51494000  0.71269000  0.27839000  1.0
  C  C66  1  0.58521000  0.39936000  0.59390000  1.0
  C  C67  1  0.41478000  0.60064000  0.40610000  1.0
  C  C68  1  0.59298000  0.17417000  0.56827000  1.0
  C  C69  1  0.40701000  0.82583000  0.43173000  1.0
  C  C70  1  0.59970000  0.51321000  0.55002000  1.0
  C  C71  1  0.40030000  0.48679000  0.44998000  1.0
  N  N72  1  0.52131000  0.17414000  0.66035000  1.0
  N  N73  1  0.47869000  0.82587000  0.33965000  1.0
  O  O74  1  0.06867000  0.15268000  0.02297000  1.0
  O  O75  1  0.93133000  0.84732000  0.97703000  1.0
  O  O76  1  0.15208000  0.96073000  0.82431000  1.0
  O  O77  1  0.84792000  0.03927000  0.17569000  1.0
  O  O78  1  0.54805000  0.02306000  0.24799000  1.0
  O  O79  1  0.45195000  0.97694000  0.75201000  1.0
  O  O80  1  0.41154000  0.85361000  0.95117000  1.0
  O  O81  1  0.58846000  0.14639000  0.04883000  1.0
  O  O82  1  0.83110000  0.90326000  0.74932000  1.0
  O  O83  1  0.16890000  0.09674000  0.25068000  1.0
  O  O84  1  0.48571000  0.72058000  0.79568000  1.0
  O  O85  1  0.51429000  0.27942000  0.20432000  1.0
  O  O86  1  0.84054000  0.19145000  0.89260000  1.0
  O  O87  1  0.15947000  0.80855000  0.10740000  1.0
