# generated using pymatgen
data_CsH19C22Br(NO)3
_symmetry_space_group_name_H-M   'P 1'
_cell_length_a   8.05686000
_cell_length_b   11.47000000
_cell_length_c   14.61900000
_cell_angle_alpha   106.30100000
_cell_angle_beta   102.77700000
_cell_angle_gamma   99.23120000
_symmetry_Int_Tables_number   1
_chemical_formula_structural   CsH19C22Br(NO)3
_chemical_formula_sum   'Cs2 H38 C44 Br2 N6 O6'
_cell_volume   1228.31388258
_cell_formula_units_Z   2
loop_
 _symmetry_equiv_pos_site_id
 _symmetry_equiv_pos_as_xyz
  1  'x, y, z'
loop_
 _atom_site_type_symbol
 _atom_site_label
 _atom_site_symmetry_multiplicity
 _atom_site_fract_x
 _atom_site_fract_y
 _atom_site_fract_z
 _atom_site_occupancy
  Cs  Cs0  1  0.35439000  0.49235000  0.36943000  1.0
  Cs  Cs1  1  0.64561000  0.50765000  0.63057000  1.0
  H  H2  1  0.23886000  0.54633000  0.79587000  1.0
  H  H3  1  0.76114000  0.45367000  0.20413000  1.0
  H  H4  1  0.13391000  0.99047000  0.42695000  1.0
  H  H5  1  0.86608000  0.00953000  0.57305000  1.0
  H  H6  1  0.28273000  0.03970000  0.36518000  1.0
  H  H7  1  0.71727000  0.96030000  0.63482000  1.0
  H  H8  1  0.95615000  0.15680000  0.08136000  1.0
  H  H9  1  0.04385000  0.84321000  0.91864000  1.0
  H  H10  1  0.65822000  0.37216000  0.88053000  1.0
  H  H11  1  0.34178000  0.62784000  0.11947000  1.0
  H  H12  1  0.01725000  0.44974000  0.64933000  1.0
  H  H13  1  0.98275000  0.55026000  0.35067000  1.0
  H  H14  1  0.97651000  0.28331000  0.59016000  1.0
  H  H15  1  0.02348000  0.71669000  0.40985000  1.0
  H  H16  1  0.10132000  0.38799000  0.54859000  1.0
  H  H17  1  0.89868000  0.61200000  0.45140000  1.0
  H  H18  1  0.50786000  0.54588000  0.91935000  1.0
  H  H19  1  0.49215000  0.45412000  0.08065000  1.0
  H  H20  1  0.82720000  0.93507000  0.18592000  1.0
  H  H21  1  0.17281000  0.06494000  0.81408000  1.0
  H  H22  1  0.90863000  0.86922000  0.27828000  1.0
  H  H23  1  0.09136000  0.13078000  0.72171000  1.0
  H  H24  1  0.04180000  0.90652000  0.20349000  1.0
  H  H25  1  0.95821000  0.09348000  0.79650000  1.0
  H  H26  1  0.58425000  0.14980000  0.18748000  1.0
  H  H27  1  0.41575000  0.85020000  0.81252000  1.0
  H  H28  1  0.40477000  0.15383000  0.30445000  1.0
  H  H29  1  0.59522000  0.84618000  0.69555000  1.0
  H  H30  1  0.14037000  0.16406000  0.96664000  1.0
  H  H31  1  0.85963000  0.83594000  0.03336000  1.0
  H  H32  1  0.60754000  0.16358000  0.64176000  1.0
  H  H33  1  0.39246000  0.83641000  0.35824000  1.0
  H  H34  1  0.48392000  0.07955000  0.69804000  1.0
  H  H35  1  0.51607000  0.92045000  0.30196000  1.0
  H  H36  1  0.68772000  0.18613000  0.77075000  1.0
  H  H37  1  0.31227000  0.81386000  0.22925000  1.0
  H  H38  1  0.22163000  0.08736000  0.57846000  1.0
  H  H39  1  0.77837000  0.91264000  0.42154000  1.0
  C  C40  1  0.88412000  0.11640000  0.36710000  1.0
  C  C41  1  0.11587000  0.88360000  0.63290000  1.0
  C  C42  1  0.32595000  0.27764000  0.66653000  1.0
  C  C43  1  0.67405000  0.72235000  0.33347000  1.0
  C  C44  1  0.86166000  0.22667000  0.34630000  1.0
  C  C45  1  0.13834000  0.77333000  0.65370000  1.0
  C  C46  1  0.76357000  0.30662000  0.38591000  1.0
  C  C47  1  0.23642000  0.69338000  0.61409000  1.0
  C  C48  1  0.16602000  0.15156000  0.19994000  1.0
  C  C49  1  0.83398000  0.84845000  0.80007000  1.0
  C  C50  1  0.96958000  0.25252000  0.28348000  1.0
  C  C51  1  0.03041000  0.74748000  0.71652000  1.0
  C  C52  1  0.02199000  0.06807000  0.31706000  1.0
  C  C53  1  0.97801000  0.93194000  0.68294000  1.0
  C  C54  1  0.23728000  0.37398000  0.68795000  1.0
  C  C55  1  0.76272000  0.62602000  0.31205000  1.0
  C  C56  1  0.25691000  0.18763000  0.48479000  1.0
  C  C57  1  0.74309000  0.81237000  0.51521000  1.0
  C  C58  1  0.30581000  0.47062000  0.77967000  1.0
  C  C59  1  0.69419000  0.52938000  0.22033000  1.0
  C  C60  1  0.47754000  0.27514000  0.73544000  1.0
  C  C61  1  0.52246000  0.72486000  0.26456000  1.0
  C  C62  1  0.17914000  0.06547000  0.39887000  1.0
  C  C63  1  0.82086000  0.93453000  0.60113000  1.0
  C  C64  1  0.09352000  0.15497000  0.10437000  1.0
  C  C65  1  0.90648000  0.84503000  0.89563000  1.0
  C  C66  1  0.54082000  0.37265000  0.82654000  1.0
  C  C67  1  0.45918000  0.62735000  0.17346000  1.0
  C  C68  1  0.07315000  0.37339000  0.61527000  1.0
  C  C69  1  0.92685000  0.62661000  0.38474000  1.0
  C  C70  1  0.45630000  0.47003000  0.84846000  1.0
  C  C71  1  0.54370000  0.52997000  0.15154000  1.0
  C  C72  1  0.94484000  0.93660000  0.24149000  1.0
  C  C73  1  0.05516000  0.06340000  0.75850000  1.0
  C  C74  1  0.37240000  0.15663000  0.07031000  1.0
  C  C75  1  0.62761000  0.84337000  0.92970000  1.0
  C  C76  1  0.44631000  0.14998000  0.16376000  1.0
  C  C77  1  0.55369000  0.85002000  0.83624000  1.0
  C  C78  1  0.34322000  0.14904000  0.22893000  1.0
  C  C79  1  0.65678000  0.85096000  0.77108000  1.0
  C  C80  1  0.19657000  0.15907000  0.03988000  1.0
  C  C81  1  0.80344000  0.84092000  0.96012000  1.0
  C  C82  1  0.56928000  0.17096000  0.71060000  1.0
  C  C83  1  0.43072000  0.82904000  0.28940000  1.0
  Br  Br84  1  0.51503000  0.16512000  0.98293000  1.0
  Br  Br85  1  0.48498000  0.83487000  0.01708000  1.0
  N  N86  1  0.06156000  0.15947000  0.26676000  1.0
  N  N87  1  0.93843000  0.84053000  0.73324000  1.0
  N  N88  1  0.25857000  0.17686000  0.57494000  1.0
  N  N89  1  0.74143000  0.82314000  0.42506000  1.0
  N  N90  1  0.68215000  0.37445000  0.42023000  1.0
  N  N91  1  0.31783000  0.62554000  0.57977000  1.0
  O  O92  1  0.98501000  0.34180000  0.25072000  1.0
  O  O93  1  0.01499000  0.65820000  0.74928000  1.0
  O  O94  1  0.31563000  0.28794000  0.47249000  1.0
  O  O95  1  0.68437000  0.71205000  0.52752000  1.0
  O  O96  1  0.81462000  0.06325000  0.41825000  1.0
  O  O97  1  0.18538000  0.93675000  0.58175000  1.0
