# generated using pymatgen
data_CdP2H32C28S4(NO2)2
_symmetry_space_group_name_H-M   'P 1'
_cell_length_a   8.09734000
_cell_length_b   9.77294000
_cell_length_c   10.43960000
_cell_angle_alpha   91.67060000
_cell_angle_beta   101.53000000
_cell_angle_gamma   100.98400000
_symmetry_Int_Tables_number   1
_chemical_formula_structural   CdP2H32C28S4(NO2)2
_chemical_formula_sum   'Cd1 P2 H32 C28 S4 N2 O4'
_cell_volume   792.69168689
_cell_formula_units_Z   1
loop_
 _symmetry_equiv_pos_site_id
 _symmetry_equiv_pos_as_xyz
  1  'x, y, z'
loop_
 _atom_site_type_symbol
 _atom_site_label
 _atom_site_symmetry_multiplicity
 _atom_site_fract_x
 _atom_site_fract_y
 _atom_site_fract_z
 _atom_site_occupancy
  Cd  Cd0  1  0.50000000  0.50000000  0.50000000  1.0
  P  P1  1  0.74262000  0.70921000  0.35558000  1.0
  P  P2  1  0.25737000  0.29079000  0.64442000  1.0
  H  H3  1  0.02465000  0.66088000  0.55217000  1.0
  H  H4  1  0.97535000  0.33912000  0.44784000  1.0
  H  H5  1  0.94352000  0.80469000  0.60713000  1.0
  H  H6  1  0.05647000  0.19531000  0.39287000  1.0
  H  H7  1  0.28288000  0.82713000  0.50830000  1.0
  H  H8  1  0.71712000  0.17287000  0.49170000  1.0
  H  H9  1  0.26501000  0.85377000  0.67281000  1.0
  H  H10  1  0.73498000  0.14623000  0.32719000  1.0
  H  H11  1  0.19902000  0.97145000  0.55548000  1.0
  H  H12  1  0.80098000  0.02855000  0.44452000  1.0
  H  H13  1  0.91124000  0.95230000  0.23114000  1.0
  H  H14  1  0.08876000  0.04770000  0.76886000  1.0
  H  H15  1  0.83776000  0.03936000  0.01092000  1.0
  H  H16  1  0.16224000  0.96064000  0.98908000  1.0
  H  H17  1  0.39475000  0.70143000  0.90994000  1.0
  H  H18  1  0.60525000  0.29857000  0.09006000  1.0
  H  H19  1  0.47354000  0.61169000  0.12987000  1.0
  H  H20  1  0.52645000  0.38831000  0.87012000  1.0
  H  H21  1  0.67841000  0.12452000  0.83812000  1.0
  H  H22  1  0.32159000  0.87548000  0.16189000  1.0
  H  H23  1  0.59892000  0.04049000  0.67727000  1.0
  H  H24  1  0.40109000  0.95951000  0.32273000  1.0
  H  H25  1  0.79314000  0.00523000  0.77560000  1.0
  H  H26  1  0.20687000  0.99477000  0.22440000  1.0
  H  H27  1  0.19569000  0.66129000  0.36999000  1.0
  H  H28  1  0.80431000  0.33871000  0.63001000  1.0
  H  H29  1  0.99912000  0.67786000  0.16105000  1.0
  H  H30  1  0.00089000  0.32214000  0.83895000  1.0
  H  H31  1  0.14889000  0.31070000  0.01259000  1.0
  H  H32  1  0.85111000  0.68929000  0.98741000  1.0
  H  H33  1  0.33565000  0.30915000  0.23136000  1.0
  H  H34  1  0.66435000  0.69085000  0.76864000  1.0
  C  C35  1  0.02321000  0.77250000  0.54220000  1.0
  C  C36  1  0.97679000  0.22750000  0.45780000  1.0
  C  C37  1  0.20190000  0.86131000  0.57066000  1.0
  C  C38  1  0.79810000  0.13869000  0.42934000  1.0
  C  C39  1  0.69787000  0.77657000  0.19580000  1.0
  C  C40  1  0.30212000  0.22343000  0.80420000  1.0
  C  C41  1  0.79852000  0.89689000  0.16073000  1.0
  C  C42  1  0.20148000  0.10311000  0.83927000  1.0
  C  C43  1  0.75661000  0.94640000  0.03646000  1.0
  C  C44  1  0.24339000  0.05360000  0.96354000  1.0
  C  C45  1  0.60990000  0.87612000  0.94658000  1.0
  C  C46  1  0.39011000  0.12388000  0.05342000  1.0
  C  C47  1  0.50638000  0.75639000  0.98194000  1.0
  C  C48  1  0.49362000  0.24361000  0.01806000  1.0
  C  C49  1  0.55122000  0.70691000  0.10451000  1.0
  C  C50  1  0.44878000  0.29309000  0.89549000  1.0
  C  C51  1  0.66541000  0.02801000  0.77697000  1.0
  C  C52  1  0.33460000  0.97199000  0.22303000  1.0
  C  C53  1  0.18103000  0.58538000  0.28817000  1.0
  C  C54  1  0.81897000  0.41461000  0.71183000  1.0
  C  C55  1  0.07157000  0.59443000  0.16936000  1.0
  C  C56  1  0.92844000  0.40557000  0.83065000  1.0
  C  C57  1  0.05621000  0.49637000  0.06454000  1.0
  C  C58  1  0.94379000  0.50363000  0.93545000  1.0
  C  C59  1  0.15240000  0.39071000  0.08832000  1.0
  C  C60  1  0.84761000  0.60929000  0.91168000  1.0
  C  C61  1  0.25817000  0.38889000  0.21051000  1.0
  C  C62  1  0.74183000  0.61111000  0.78949000  1.0
  S  S63  1  0.59478000  0.77141000  0.47091000  1.0
  S  S64  1  0.40522000  0.22859000  0.52909000  1.0
  S  S65  1  0.72301000  0.50150000  0.33802000  1.0
  S  S66  1  0.27699000  0.49851000  0.66198000  1.0
  N  N67  1  0.27391000  0.48538000  0.30871000  1.0
  N  N68  1  0.72609000  0.51462000  0.69129000  1.0
  O  O69  1  0.94084000  0.78977000  0.40726000  1.0
  O  O70  1  0.05916000  0.21023000  0.59274000  1.0
  O  O71  1  0.55911000  0.91288000  0.82242000  1.0
  O  O72  1  0.44090000  0.08712000  0.17758000  1.0
