# generated using pymatgen
data_ZnH8C12(N3O)2
_symmetry_space_group_name_H-M   'P 1'
_cell_length_a   6.02088000
_cell_length_b   9.45644000
_cell_length_c   21.46930000
_cell_angle_alpha   91.65050000
_cell_angle_beta   90.00000000
_cell_angle_gamma   90.00000000
_symmetry_Int_Tables_number   1
_chemical_formula_structural   ZnH8C12(N3O)2
_chemical_formula_sum   'Zn4 H32 C48 N24 O8'
_cell_volume   1221.87086307
_cell_formula_units_Z   4
loop_
 _symmetry_equiv_pos_site_id
 _symmetry_equiv_pos_as_xyz
  1  'x, y, z'
loop_
 _atom_site_type_symbol
 _atom_site_label
 _atom_site_symmetry_multiplicity
 _atom_site_fract_x
 _atom_site_fract_y
 _atom_site_fract_z
 _atom_site_occupancy
  Zn  Zn0  1  0.87550000  0.91994000  0.83694000  1.0
  Zn  Zn1  1  0.37549000  0.58005000  0.66307000  1.0
  Zn  Zn2  1  0.12451000  0.08006000  0.16307000  1.0
  Zn  Zn3  1  0.62450000  0.41995000  0.33693000  1.0
  H  H4  1  0.37399000  0.36378000  0.05191000  1.0
  H  H5  1  0.87399000  0.13622000  0.44809000  1.0
  H  H6  1  0.62601000  0.63623000  0.94809000  1.0
  H  H7  1  0.12603000  0.86377000  0.55191000  1.0
  H  H8  1  0.72029000  0.82819000  0.61342000  1.0
  H  H9  1  0.22028000  0.67180000  0.88658000  1.0
  H  H10  1  0.27971000  0.17181000  0.38658000  1.0
  H  H11  1  0.77972000  0.32820000  0.11342000  1.0
  H  H12  1  0.88241000  0.07279000  0.61174000  1.0
  H  H13  1  0.38242000  0.42720000  0.88826000  1.0
  H  H14  1  0.11758000  0.92721000  0.38825000  1.0
  H  H15  1  0.61758000  0.57279000  0.11174000  1.0
  H  H16  1  0.11790000  0.17316000  0.01112000  1.0
  H  H17  1  0.61789000  0.32684000  0.48889000  1.0
  H  H18  1  0.88212000  0.82684000  0.98888000  1.0
  H  H19  1  0.38211000  0.67315000  0.51112000  1.0
  H  H20  1  0.88665000  0.23557000  0.92076000  1.0
  H  H21  1  0.38665000  0.26443000  0.57924000  1.0
  H  H22  1  0.11335000  0.76442000  0.07924000  1.0
  H  H23  1  0.61334000  0.73558000  0.42076000  1.0
  H  H24  1  0.70363000  0.27255000  0.66935000  1.0
  H  H25  1  0.20364000  0.22744000  0.83065000  1.0
  H  H26  1  0.29636000  0.72745000  0.33065000  1.0
  H  H27  1  0.79636000  0.77256000  0.16935000  1.0
  H  H28  1  0.74854000  0.39454000  0.00642000  1.0
  H  H29  1  0.24854000  0.10546000  0.49358000  1.0
  H  H30  1  0.25147000  0.60546000  0.99358000  1.0
  H  H31  1  0.75148000  0.89455000  0.50643000  1.0
  H  H32  1  0.36095000  0.24010000  0.73077000  1.0
  H  H33  1  0.86096000  0.25989000  0.76923000  1.0
  H  H34  1  0.63904000  0.75990000  0.26923000  1.0
  H  H35  1  0.13903000  0.74011000  0.23077000  1.0
  C  C36  1  0.42671000  0.29354000  0.01351000  1.0
  C  C37  1  0.92670000  0.20646000  0.48650000  1.0
  C  C38  1  0.57330000  0.70646000  0.98649000  1.0
  C  C39  1  0.07330000  0.79354000  0.51351000  1.0
  C  C40  1  0.64102000  0.91786000  0.63731000  1.0
  C  C41  1  0.14101000  0.58213000  0.86270000  1.0
  C  C42  1  0.35898000  0.08215000  0.36269000  1.0
  C  C43  1  0.85898000  0.41786000  0.13730000  1.0
  C  C44  1  0.72946000  0.05318000  0.63728000  1.0
  C  C45  1  0.22946000  0.44682000  0.86272000  1.0
  C  C46  1  0.27054000  0.94682000  0.36272000  1.0
  C  C47  1  0.77054000  0.55318000  0.13728000  1.0
  C  C48  1  0.44416000  0.89995000  0.67137000  1.0
  C  C49  1  0.94416000  0.60004000  0.82864000  1.0
  C  C50  1  0.55586000  0.10004000  0.32863000  1.0
  C  C51  1  0.05585000  0.39996000  0.17137000  1.0
  C  C52  1  0.36181000  0.10319000  0.94212000  1.0
  C  C53  1  0.86180000  0.39681000  0.55788000  1.0
  C  C54  1  0.63821000  0.89680000  0.05787000  1.0
  C  C55  1  0.13820000  0.60320000  0.44212000  1.0
  C  C56  1  0.28200000  0.18967000  0.99129000  1.0
  C  C57  1  0.78199000  0.31033000  0.50871000  1.0
  C  C58  1  0.71800000  0.81034000  0.00871000  1.0
  C  C59  1  0.21800000  0.68966000  0.49129000  1.0
  C  C60  1  0.72107000  0.22261000  0.93989000  1.0
  C  C61  1  0.22107000  0.27739000  0.56011000  1.0
  C  C62  1  0.27894000  0.77739000  0.06011000  1.0
  C  C63  1  0.77894000  0.72262000  0.43990000  1.0
  C  C64  1  0.62832000  0.16801000  0.67038000  1.0
  C  C65  1  0.12833000  0.33198000  0.82962000  1.0
  C  C66  1  0.37167000  0.83200000  0.32962000  1.0
  C  C67  1  0.87167000  0.66801000  0.17038000  1.0
  C  C68  1  0.64184000  0.31045000  0.98769000  1.0
  C  C69  1  0.14183000  0.18956000  0.51231000  1.0
  C  C70  1  0.35817000  0.68956000  0.01231000  1.0
  C  C71  1  0.85817000  0.81044000  0.48769000  1.0
  C  C72  1  0.34732000  0.01492000  0.70487000  1.0
  C  C73  1  0.84732000  0.48506000  0.79514000  1.0
  C  C74  1  0.65268000  0.98508000  0.29513000  1.0
  C  C75  1  0.15268000  0.51492000  0.20487000  1.0
  C  C76  1  0.57721000  0.11618000  0.91701000  1.0
  C  C77  1  0.07720000  0.38382000  0.58300000  1.0
  C  C78  1  0.42279000  0.88381000  0.08299000  1.0
  C  C79  1  0.92278000  0.61619000  0.41701000  1.0
  C  C80  1  0.43612000  0.15170000  0.70503000  1.0
  C  C81  1  0.93613000  0.34830000  0.79497000  1.0
  C  C82  1  0.56388000  0.84830000  0.29497000  1.0
  C  C83  1  0.06387000  0.65171000  0.20503000  1.0
  N  N84  1  0.31555000  0.78326000  0.68163000  1.0
  N  N85  1  0.81555000  0.71673000  0.81838000  1.0
  N  N86  1  0.68445000  0.21675000  0.31837000  1.0
  N  N87  1  0.18445000  0.28326000  0.18162000  1.0
  N  N88  1  0.60004000  0.01342000  0.87083000  1.0
  N  N89  1  0.10003000  0.48658000  0.62918000  1.0
  N  N90  1  0.39997000  0.98659000  0.12917000  1.0
  N  N91  1  0.89997000  0.51342000  0.37082000  1.0
  N  N92  1  0.14768000  0.81890000  0.71967000  1.0
  N  N93  1  0.64767000  0.68110000  0.78033000  1.0
  N  N94  1  0.85231000  0.18110000  0.28033000  1.0
  N  N95  1  0.35232000  0.31891000  0.21967000  1.0
  N  N96  1  0.26960000  0.99263000  0.90789000  1.0
  N  N97  1  0.76959000  0.50737000  0.59211000  1.0
  N  N98  1  0.73040000  0.00738000  0.09211000  1.0
  N  N99  1  0.23039000  0.49262000  0.40789000  1.0
  N  N100  1  0.41104000  0.93908000  0.86597000  1.0
  N  N101  1  0.91103000  0.56092000  0.63403000  1.0
  N  N102  1  0.58897000  0.06092000  0.13403000  1.0
  N  N103  1  0.08896000  0.43907000  0.36597000  1.0
  N  N104  1  0.16703000  0.95593000  0.73367000  1.0
  N  N105  1  0.66702000  0.54406000  0.76634000  1.0
  N  N106  1  0.83297000  0.04407000  0.26633000  1.0
  N  N107  1  0.33297000  0.45594000  0.23367000  1.0
  O  O108  1  0.06617000  0.94232000  0.91390000  1.0
  O  O109  1  0.56617000  0.55768000  0.58610000  1.0
  O  O110  1  0.93383000  0.05768000  0.08610000  1.0
  O  O111  1  0.43382000  0.44232000  0.41390000  1.0
  O  O112  1  0.02517000  0.02471000  0.77083000  1.0
  O  O113  1  0.52517000  0.47528000  0.72917000  1.0
  O  O114  1  0.97482000  0.97529000  0.22917000  1.0
  O  O115  1  0.47482000  0.52472000  0.27083000  1.0
