# generated using pymatgen
data_CuH6C7N3
_symmetry_space_group_name_H-M   'P 1'
_cell_length_a   9.16667000
_cell_length_b   11.59000000
_cell_length_c   12.58400000
_cell_angle_alpha   89.99990000
_cell_angle_beta   90.00000000
_cell_angle_gamma   89.99970000
_symmetry_Int_Tables_number   1
_chemical_formula_structural   CuH6C7N3
_chemical_formula_sum   'Cu8 H48 C56 N24'
_cell_volume   1336.94561947
_cell_formula_units_Z   8
loop_
 _symmetry_equiv_pos_site_id
 _symmetry_equiv_pos_as_xyz
  1  'x, y, z'
loop_
 _atom_site_type_symbol
 _atom_site_label
 _atom_site_symmetry_multiplicity
 _atom_site_fract_x
 _atom_site_fract_y
 _atom_site_fract_z
 _atom_site_occupancy
  Cu  Cu0  1  0.75975000  0.16269000  0.50259000  1.0
  Cu  Cu1  1  0.25974000  0.83731000  0.99741000  1.0
  Cu  Cu2  1  0.24025000  0.33731000  0.00259000  1.0
  Cu  Cu3  1  0.74026000  0.66269000  0.49741000  1.0
  Cu  Cu4  1  0.24026000  0.83731000  0.49741000  1.0
  Cu  Cu5  1  0.74026000  0.16269000  0.00259000  1.0
  Cu  Cu6  1  0.75974000  0.66269000  0.99741000  1.0
  Cu  Cu7  1  0.25974000  0.33731000  0.50259000  1.0
  H  H8  1  0.98818000  0.63445000  0.33041000  1.0
  H  H9  1  0.48818000  0.36555000  0.16959000  1.0
  H  H10  1  0.01182000  0.86554000  0.83041000  1.0
  H  H11  1  0.51182000  0.13445000  0.66959000  1.0
  H  H12  1  0.01181000  0.36556000  0.66959000  1.0
  H  H13  1  0.51181000  0.63445000  0.83041000  1.0
  H  H14  1  0.98819000  0.13445000  0.16959000  1.0
  H  H15  1  0.48819000  0.86555000  0.33040000  1.0
  H  H16  1  0.17364000  0.52747000  0.22273000  1.0
  H  H17  1  0.67364000  0.47253000  0.27727000  1.0
  H  H18  1  0.82636000  0.97252000  0.72273000  1.0
  H  H19  1  0.32636000  0.02747000  0.77728000  1.0
  H  H20  1  0.82635000  0.47255000  0.77727000  1.0
  H  H21  1  0.32634000  0.52746000  0.72272000  1.0
  H  H22  1  0.17365000  0.02746000  0.27728000  1.0
  H  H23  1  0.67365000  0.97254000  0.22272000  1.0
  H  H24  1  0.18858000  0.31502000  0.22895000  1.0
  H  H25  1  0.68858000  0.68498000  0.27105000  1.0
  H  H26  1  0.81141000  0.18498000  0.72895000  1.0
  H  H27  1  0.31141000  0.81503000  0.77105000  1.0
  H  H28  1  0.81141000  0.68500000  0.77105000  1.0
  H  H29  1  0.31141000  0.31501000  0.72894000  1.0
  H  H30  1  0.18859000  0.81501000  0.27105000  1.0
  H  H31  1  0.68859000  0.18499000  0.22895000  1.0
  H  H32  1  0.01906000  0.20089000  0.34518000  1.0
  H  H33  1  0.51905000  0.79910000  0.15483000  1.0
  H  H34  1  0.98094000  0.29910000  0.84517000  1.0
  H  H35  1  0.48094000  0.70090000  0.65483000  1.0
  H  H36  1  0.98094000  0.79911000  0.65482000  1.0
  H  H37  1  0.48094000  0.20089000  0.84517000  1.0
  H  H38  1  0.01906000  0.70089000  0.15482000  1.0
  H  H39  1  0.51906000  0.29911000  0.34518000  1.0
  H  H40  1  0.59562000  0.33662000  0.61221000  1.0
  H  H41  1  0.09561000  0.66338000  0.88780000  1.0
  H  H42  1  0.40438000  0.16338000  0.11220000  1.0
  H  H43  1  0.90438000  0.83662000  0.38780000  1.0
  H  H44  1  0.40438000  0.66338000  0.38780000  1.0
  H  H45  1  0.90437000  0.33662000  0.11220000  1.0
  H  H46  1  0.59562000  0.83662000  0.88780000  1.0
  H  H47  1  0.09563000  0.16338000  0.61220000  1.0
  H  H48  1  0.58379000  0.48277000  0.60664000  1.0
  H  H49  1  0.08378000  0.51723000  0.89336000  1.0
  H  H50  1  0.41621000  0.01724000  0.10663000  1.0
  H  H51  1  0.91622000  0.98276000  0.39337000  1.0
  H  H52  1  0.41621000  0.51724000  0.39337000  1.0
  H  H53  1  0.91621000  0.48276000  0.10663000  1.0
  H  H54  1  0.58379000  0.98276000  0.89337000  1.0
  H  H55  1  0.08379000  0.01723000  0.60663000  1.0
  C  C56  1  0.73135000  0.41211000  0.50439000  1.0
  C  C57  1  0.23135000  0.58789000  0.99561000  1.0
  C  C58  1  0.26865000  0.08789000  0.00439000  1.0
  C  C59  1  0.76865000  0.91211000  0.49562000  1.0
  C  C60  1  0.26864000  0.58789000  0.49561000  1.0
  C  C61  1  0.76864000  0.41211000  0.00439000  1.0
  C  C62  1  0.73136000  0.91211000  0.99561000  1.0
  C  C63  1  0.23136000  0.08789000  0.50439000  1.0
  C  C64  1  0.89866000  0.47677000  0.39601000  1.0
  C  C65  1  0.39866000  0.52323000  0.10399000  1.0
  C  C66  1  0.10134000  0.02323000  0.89601000  1.0
  C  C67  1  0.60134000  0.97677000  0.60399000  1.0
  C  C68  1  0.10133000  0.52324000  0.60399000  1.0
  C  C69  1  0.60133000  0.47676000  0.89601000  1.0
  C  C70  1  0.89867000  0.97675000  0.10399000  1.0
  C  C71  1  0.39868000  0.02324000  0.39601000  1.0
  C  C72  1  0.99342000  0.54049000  0.33232000  1.0
  C  C73  1  0.49342000  0.45950000  0.16768000  1.0
  C  C74  1  0.00658000  0.95951000  0.83232000  1.0
  C  C75  1  0.50658000  0.04049000  0.66768000  1.0
  C  C76  1  0.00657000  0.45952000  0.66768000  1.0
  C  C77  1  0.50657000  0.54049000  0.83232000  1.0
  C  C78  1  0.99343000  0.04048000  0.16768000  1.0
  C  C79  1  0.49343000  0.95951000  0.33232000  1.0
  C  C80  1  0.09711000  0.48027000  0.27257000  1.0
  C  C81  1  0.59711000  0.51973000  0.22743000  1.0
  C  C82  1  0.90289000  0.01973000  0.77257000  1.0
  C  C83  1  0.40289000  0.98027000  0.72743000  1.0
  C  C84  1  0.90288000  0.51974000  0.72743000  1.0
  C  C85  1  0.40288000  0.48026000  0.77257000  1.0
  C  C86  1  0.09712000  0.98026000  0.22743000  1.0
  C  C87  1  0.59713000  0.01974000  0.27257000  1.0
  C  C88  1  0.10604000  0.35922000  0.27647000  1.0
  C  C89  1  0.60604000  0.64078000  0.22354000  1.0
  C  C90  1  0.89396000  0.14078000  0.77646000  1.0
  C  C91  1  0.39395000  0.85922000  0.72354000  1.0
  C  C92  1  0.89395000  0.64079000  0.72353000  1.0
  C  C93  1  0.39395000  0.35921000  0.77646000  1.0
  C  C94  1  0.10605000  0.85921000  0.22354000  1.0
  C  C95  1  0.60605000  0.14079000  0.27646000  1.0
  C  C96  1  0.01143000  0.29460000  0.34062000  1.0
  C  C97  1  0.51143000  0.70540000  0.15939000  1.0
  C  C98  1  0.98856000  0.20540000  0.84061000  1.0
  C  C99  1  0.48856000  0.79460000  0.65939000  1.0
  C  C100  1  0.98856000  0.70541000  0.65938000  1.0
  C  C101  1  0.48856000  0.29459000  0.84061000  1.0
  C  C102  1  0.01144000  0.79459000  0.15939000  1.0
  C  C103  1  0.51144000  0.20541000  0.34061000  1.0
  C  C104  1  0.90770000  0.35439000  0.40022000  1.0
  C  C105  1  0.40769000  0.64560000  0.09978000  1.0
  C  C106  1  0.09230000  0.14561000  0.90022000  1.0
  C  C107  1  0.59230000  0.85440000  0.59978000  1.0
  C  C108  1  0.09229000  0.64561000  0.59977000  1.0
  C  C109  1  0.59229000  0.35439000  0.90022000  1.0
  C  C110  1  0.90771000  0.85439000  0.09978000  1.0
  C  C111  1  0.40771000  0.14561000  0.40022000  1.0
  N  N112  1  0.80117000  0.31549000  0.47028000  1.0
  N  N113  1  0.30117000  0.68451000  0.02972000  1.0
  N  N114  1  0.19883000  0.18451000  0.97028000  1.0
  N  N115  1  0.69883000  0.81549000  0.52972000  1.0
  N  N116  1  0.19882000  0.68452000  0.52971000  1.0
  N  N117  1  0.69882000  0.31548000  0.97028000  1.0
  N  N118  1  0.80118000  0.81548000  0.02972000  1.0
  N  N119  1  0.30118000  0.18452000  0.47028000  1.0
  N  N120  1  0.78594000  0.51130000  0.46275000  1.0
  N  N121  1  0.28593000  0.48870000  0.03725000  1.0
  N  N122  1  0.21407000  0.98870000  0.96274000  1.0
  N  N123  1  0.71407000  0.01130000  0.53726000  1.0
  N  N124  1  0.21406000  0.48870000  0.53725000  1.0
  N  N125  1  0.71405000  0.51130000  0.96275000  1.0
  N  N126  1  0.78595000  0.01130000  0.03725000  1.0
  N  N127  1  0.28595000  0.98870000  0.46274000  1.0
  N  N128  1  0.61178000  0.40895000  0.56829000  1.0
  N  N129  1  0.11177000  0.59105000  0.93171000  1.0
  N  N130  1  0.38823000  0.09105000  0.06829000  1.0
  N  N131  1  0.88823000  0.90895000  0.43171000  1.0
  N  N132  1  0.38823000  0.59105000  0.43171000  1.0
  N  N133  1  0.88822000  0.40895000  0.06829000  1.0
  N  N134  1  0.61178000  0.90895000  0.93171000  1.0
  N  N135  1  0.11178000  0.09105000  0.56829000  1.0
