# generated using pymatgen
data_AgH3C5(NO2)2
_symmetry_space_group_name_H-M   'P 1'
_cell_length_a   7.41429000
_cell_length_b   7.71235000
_cell_length_c   11.35930000
_cell_angle_alpha   89.99990000
_cell_angle_beta   89.38200000
_cell_angle_gamma   89.99980000
_symmetry_Int_Tables_number   1
_chemical_formula_structural   AgH3C5(NO2)2
_chemical_formula_sum   'Ag4 H12 C20 N8 O16'
_cell_volume   649.50515921
_cell_formula_units_Z   4
loop_
 _symmetry_equiv_pos_site_id
 _symmetry_equiv_pos_as_xyz
  1  'x, y, z'
loop_
 _atom_site_type_symbol
 _atom_site_label
 _atom_site_symmetry_multiplicity
 _atom_site_fract_x
 _atom_site_fract_y
 _atom_site_fract_z
 _atom_site_occupancy
  Ag  Ag0  1  0.85912000  0.66763000  0.07339000  1.0
  Ag  Ag1  1  0.64088000  0.16763000  0.92661000  1.0
  Ag  Ag2  1  0.14088000  0.33237000  0.92661000  1.0
  Ag  Ag3  1  0.35912000  0.83238000  0.07339000  1.0
  H  H4  1  0.50258000  0.81622000  0.77803000  1.0
  H  H5  1  0.99742000  0.31622000  0.22197000  1.0
  H  H6  1  0.49743000  0.18378000  0.22197000  1.0
  H  H7  1  0.00258000  0.68378000  0.77803000  1.0
  H  H8  1  0.29932000  0.38495000  0.55352000  1.0
  H  H9  1  0.20069000  0.88495000  0.44648000  1.0
  H  H10  1  0.70069000  0.61505000  0.44649000  1.0
  H  H11  1  0.79932000  0.11505000  0.55352000  1.0
  H  H12  1  0.40839000  0.12592000  0.66697000  1.0
  H  H13  1  0.09161000  0.62592000  0.33303000  1.0
  H  H14  1  0.59161000  0.87408000  0.33303000  1.0
  H  H15  1  0.90839000  0.37408000  0.66697000  1.0
  C  C16  1  0.61695000  0.59548000  0.87389000  1.0
  C  C17  1  0.88305000  0.09549000  0.12611000  1.0
  C  C18  1  0.38305000  0.40452000  0.12611000  1.0
  C  C19  1  0.11695000  0.90452000  0.87389000  1.0
  C  C20  1  0.42720000  0.54648000  0.68560000  1.0
  C  C21  1  0.07280000  0.04648000  0.31440000  1.0
  C  C22  1  0.57280000  0.45352000  0.31440000  1.0
  C  C23  1  0.92720000  0.95352000  0.68560000  1.0
  C  C24  1  0.43312000  0.25990000  0.69132000  1.0
  C  C25  1  0.06688000  0.75990000  0.30868000  1.0
  C  C26  1  0.56688000  0.74010000  0.30868000  1.0
  C  C27  1  0.93312000  0.24010000  0.69132000  1.0
  C  C28  1  0.52334000  0.49134000  0.78397000  1.0
  C  C29  1  0.97667000  0.99135000  0.21603000  1.0
  C  C30  1  0.47666000  0.50866000  0.21603000  1.0
  C  C31  1  0.02334000  0.00865000  0.78397000  1.0
  C  C32  1  0.38056000  0.71842000  0.63775000  1.0
  C  C33  1  0.11944000  0.21842000  0.36225000  1.0
  C  C34  1  0.61944000  0.28158000  0.36225000  1.0
  C  C35  1  0.88056000  0.78158000  0.63775000  1.0
  N  N36  1  0.52463000  0.31227000  0.78561000  1.0
  N  N37  1  0.97537000  0.81228000  0.21439000  1.0
  N  N38  1  0.47537000  0.68773000  0.21439000  1.0
  N  N39  1  0.02463000  0.18772000  0.78561000  1.0
  N  N40  1  0.37367000  0.39738000  0.62985000  1.0
  N  N41  1  0.12634000  0.89738000  0.37015000  1.0
  N  N42  1  0.62633000  0.60261000  0.37015000  1.0
  N  N43  1  0.87366000  0.10262000  0.62985000  1.0
  O  O44  1  0.59881000  0.76050000  0.87188000  1.0
  O  O45  1  0.90119000  0.26050000  0.12812000  1.0
  O  O46  1  0.40120000  0.23950000  0.12811000  1.0
  O  O47  1  0.09881000  0.73950000  0.87189000  1.0
  O  O48  1  0.71176000  0.51425000  0.94834000  1.0
  O  O49  1  0.78824000  0.01425000  0.05166000  1.0
  O  O50  1  0.28825000  0.48575000  0.05166000  1.0
  O  O51  1  0.21176000  0.98575000  0.94834000  1.0
  O  O52  1  0.42988000  0.85487000  0.69866000  1.0
  O  O53  1  0.07012000  0.35487000  0.30134000  1.0
  O  O54  1  0.57012000  0.14513000  0.30134000  1.0
  O  O55  1  0.92988000  0.64513000  0.69866000  1.0
  O  O56  1  0.29672000  0.72883000  0.54396000  1.0
  O  O57  1  0.20328000  0.22883000  0.45604000  1.0
  O  O58  1  0.70328000  0.27117000  0.45604000  1.0
  O  O59  1  0.79673000  0.77117000  0.54396000  1.0
