# generated using pymatgen
data_KH13C11S(NO3)2
_symmetry_space_group_name_H-M   'P 1'
_cell_length_a   5.47745000
_cell_length_b   7.75431000
_cell_length_c   16.88100000
_cell_angle_alpha   88.25120000
_cell_angle_beta   88.31190000
_cell_angle_gamma   74.55600000
_symmetry_Int_Tables_number   1
_chemical_formula_structural   KH13C11S(NO3)2
_chemical_formula_sum   'K2 H26 C22 S2 N4 O12'
_cell_volume   690.61968318
_cell_formula_units_Z   2
loop_
 _symmetry_equiv_pos_site_id
 _symmetry_equiv_pos_as_xyz
  1  'x, y, z'
loop_
 _atom_site_type_symbol
 _atom_site_label
 _atom_site_symmetry_multiplicity
 _atom_site_fract_x
 _atom_site_fract_y
 _atom_site_fract_z
 _atom_site_occupancy
  K  K0  1  0.60865000  0.74694000  0.52033000  1.0
  K  K1  1  0.39134000  0.25306000  0.47967000  1.0
  H  H2  1  0.52776000  0.26448000  0.70769000  1.0
  H  H3  1  0.47225000  0.73551000  0.29231000  1.0
  H  H4  1  0.44846000  0.37298000  0.84630000  1.0
  H  H5  1  0.55155000  0.62704000  0.15369000  1.0
  H  H6  1  0.78779000  0.26455000  0.94631000  1.0
  H  H7  1  0.21220000  0.73548000  0.05368000  1.0
  H  H8  1  0.18938000  0.04433000  0.90835000  1.0
  H  H9  1  0.81061000  0.95569000  0.09166000  1.0
  H  H10  1  0.05499000  0.45018000  0.66912000  1.0
  H  H11  1  0.94500000  0.54980000  0.33088000  1.0
  H  H12  1  0.07831000  0.41427000  0.77495000  1.0
  H  H13  1  0.92169000  0.58572000  0.22505000  1.0
  H  H14  1  0.19159000  0.58554000  0.72947000  1.0
  H  H15  1  0.80841000  0.41444000  0.27053000  1.0
  H  H16  1  0.80755000  0.64012000  0.01292000  1.0
  H  H17  1  0.19250000  0.35992000  0.98708000  1.0
  H  H18  1  0.51525000  0.67614000  0.96090000  1.0
  H  H19  1  0.48479000  0.32390000  0.03911000  1.0
  H  H20  1  0.64337000  0.85811000  0.97545000  1.0
  H  H21  1  0.35670000  0.14192000  0.02454000  1.0
  H  H22  1  0.35855000  0.85885000  0.71162000  1.0
  H  H23  1  0.64142000  0.14113000  0.28838000  1.0
  H  H24  1  0.15841000  0.68009000  0.57041000  1.0
  H  H25  1  0.84159000  0.31989000  0.42959000  1.0
  H  H26  1  0.12684000  0.65457000  0.48085000  1.0
  H  H27  1  0.87316000  0.34543000  0.51915000  1.0
  C  C28  1  0.90048000  0.09760000  0.73010000  1.0
  C  C29  1  0.09950000  0.90239000  0.26990000  1.0
  C  C30  1  0.67109000  0.21769000  0.75250000  1.0
  C  C31  1  0.32890000  0.78231000  0.24750000  1.0
  C  C32  1  0.62657000  0.27746000  0.82995000  1.0
  C  C33  1  0.37343000  0.72255000  0.17005000  1.0
  C  C34  1  0.81562000  0.21603000  0.88591000  1.0
  C  C35  1  0.18438000  0.78398000  0.11409000  1.0
  C  C36  1  0.04211000  0.09399000  0.86518000  1.0
  C  C37  1  0.95788000  0.90602000  0.13483000  1.0
  C  C38  1  0.08842000  0.03184000  0.78736000  1.0
  C  C39  1  0.91156000  0.96816000  0.21265000  1.0
  C  C40  1  0.04352000  0.51443000  0.72643000  1.0
  C  C41  1  0.95648000  0.48556000  0.27356000  1.0
  C  C42  1  0.78786000  0.64336000  0.73619000  1.0
  C  C43  1  0.21213000  0.35664000  0.26381000  1.0
  C  C44  1  0.69868000  0.72476000  0.81309000  1.0
  C  C45  1  0.30132000  0.27524000  0.18691000  1.0
  C  C46  1  0.84360000  0.67661000  0.88722000  1.0
  C  C47  1  0.15642000  0.32341000  0.11278000  1.0
  C  C48  1  0.69401000  0.71382000  0.96434000  1.0
  C  C49  1  0.30603000  0.28620000  0.03566000  1.0
  S  S50  1  0.94681000  0.05041000  0.62692000  1.0
  S  S51  1  0.05318000  0.94957000  0.37308000  1.0
  N  N52  1  0.31869000  0.90653000  0.76865000  1.0
  N  N53  1  0.68130000  0.09346000  0.23135000  1.0
  N  N54  1  0.47639000  0.84287000  0.82514000  1.0
  N  N55  1  0.52361000  0.15713000  0.17486000  1.0
  O  O56  1  0.64160000  0.68070000  0.67888000  1.0
  O  O57  1  0.35838000  0.31928000  0.32111000  1.0
  O  O58  1  0.07534000  0.60767000  0.88667000  1.0
  O  O59  1  0.92467000  0.39233000  0.11331000  1.0
  O  O60  1  0.04808000  0.19488000  0.59252000  1.0
  O  O61  1  0.95191000  0.80509000  0.40748000  1.0
  O  O62  1  0.69992000  0.05125000  0.59570000  1.0
  O  O63  1  0.30007000  0.94872000  0.40430000  1.0
  O  O64  1  0.13467000  0.87475000  0.62268000  1.0
  O  O65  1  0.86532000  0.12522000  0.37732000  1.0
  O  O66  1  0.19905000  0.58853000  0.52935000  1.0
  O  O67  1  0.80096000  0.41146000  0.47065000  1.0
