# generated using pymatgen
data_ZnH4(CO3)2
_symmetry_space_group_name_H-M   'P 1'
_cell_length_a   7.10411133
_cell_length_b   7.10552000
_cell_length_c   9.73439000
_cell_angle_alpha   90.02730000
_cell_angle_beta   90.00010075
_cell_angle_gamma   119.99167283
_symmetry_Int_Tables_number   1
_chemical_formula_structural   ZnH4(CO3)2
_chemical_formula_sum   'Zn3 H12 C6 O18'
_cell_volume   425.58015477
_cell_formula_units_Z   3
loop_
 _symmetry_equiv_pos_site_id
 _symmetry_equiv_pos_as_xyz
  1  'x, y, z'
loop_
 _atom_site_type_symbol
 _atom_site_label
 _atom_site_symmetry_multiplicity
 _atom_site_fract_x
 _atom_site_fract_y
 _atom_site_fract_z
 _atom_site_occupancy
  Zn  Zn0  1  0.37145000  0.37158000  0.66666667  1.0
  Zn  Zn1  1  0.99988000  0.62841000  0.33333333  1.0
  Zn  Zn2  1  0.62864000  0.00000000  0.99999000  1.0
  H  H3  1  0.71684000  0.64925000  0.81792000  1.0
  H  H4  1  0.93240000  0.28355000  0.48470000  1.0
  H  H5  1  0.35097000  0.06712000  0.15151000  1.0
  H  H6  1  0.64885000  0.71643000  0.51530000  1.0
  H  H7  1  0.28386000  0.93288000  0.84849000  1.0
  H  H8  1  0.06758000  0.35076000  0.18208000  1.0
  H  H9  1  0.71355000  0.42118000  0.82511000  1.0
  H  H10  1  0.70740000  0.28662000  0.49167000  1.0
  H  H11  1  0.57884000  0.29216000  0.15853000  1.0
  H  H12  1  0.42077000  0.71337000  0.50832000  1.0
  H  H13  1  0.28668000  0.70784000  0.84147000  1.0
  H  H14  1  0.29237000  0.57883000  0.17490000  1.0
  C  C15  1  0.07201000  0.99998000  0.50000000  1.0
  C  C16  1  0.92765000  0.92744000  0.16664000  1.0
  C  C17  1  0.00021000  0.07256000  0.83338000  1.0
  C  C18  1  0.29040000  0.00000000  0.50000000  1.0
  C  C19  1  0.70932000  0.70924000  0.16652000  1.0
  C  C20  1  0.00008000  0.29079000  0.83348000  1.0
  O  O21  1  0.45189000  0.16079000  0.55593000  1.0
  O  O22  1  0.70855000  0.54786000  0.22255000  1.0
  O  O23  1  0.83934000  0.29138000  0.88954000  1.0
  O  O24  1  0.16071000  0.45215000  0.77744000  1.0
  O  O25  1  0.54795000  0.70861000  0.11047000  1.0
  O  O26  1  0.29109000  0.83919000  0.44408000  1.0
  O  O27  1  0.07972000  0.17453000  0.53651000  1.0
  O  O28  1  0.09451000  0.91972000  0.20305000  1.0
  O  O29  1  0.82573000  0.90564000  0.86971000  1.0
  O  O30  1  0.17480000  0.08031000  0.79696000  1.0
  O  O31  1  0.92006000  0.09435000  0.13029000  1.0
  O  O32  1  0.90516000  0.82543000  0.46351000  1.0
  O  O33  1  0.63522000  0.49396000  0.78970000  1.0
  O  O34  1  0.85870000  0.36518000  0.45656000  1.0
  O  O35  1  0.50638000  0.14075000  0.12359000  1.0
  O  O36  1  0.49351000  0.63479000  0.54341000  1.0
  O  O37  1  0.36564000  0.85925000  0.87640000  1.0
  O  O38  1  0.14126000  0.50605000  0.21029000  1.0
