# generated using pymatgen
data_ZnH11C18N3O7
_symmetry_space_group_name_H-M   'P 1'
_cell_length_a   13.25380000
_cell_length_b   15.93880000
_cell_length_c   17.12020000
_cell_angle_alpha   88.66490000
_cell_angle_beta   87.17300000
_cell_angle_gamma   78.74210000
_symmetry_Int_Tables_number   1
_chemical_formula_structural   ZnH11C18N3O7
_chemical_formula_sum   'Zn2 H22 C36 N6 O14'
_cell_volume   3542.38480424
_cell_formula_units_Z   2
loop_
 _symmetry_equiv_pos_site_id
 _symmetry_equiv_pos_as_xyz
  1  'x, y, z'
loop_
 _atom_site_type_symbol
 _atom_site_label
 _atom_site_symmetry_multiplicity
 _atom_site_fract_x
 _atom_site_fract_y
 _atom_site_fract_z
 _atom_site_occupancy
  Zn  Zn0  1  0.48529000  0.59069000  0.50575000  1.0
  Zn  Zn1  1  0.51081000  0.40906000  0.49549000  1.0
  H  H2  1  0.19147000  0.40905000  0.44684000  1.0
  H  H3  1  0.58493000  0.38379000  0.10533000  1.0
  H  H4  1  0.51685000  0.65851000  0.10825000  1.0
  H  H5  1  0.54105000  0.33958000  0.89153000  1.0
  H  H6  1  0.49545000  0.65465000  0.25551000  1.0
  H  H7  1  0.51765000  0.34695000  0.74594000  1.0
  H  H8  1  0.57722000  0.71715000  0.40961000  1.0
  H  H9  1  0.41657000  0.28230000  0.59020000  1.0
  H  H10  1  0.22478000  0.65251000  0.55854000  1.0
  H  H11  1  0.77267000  0.34517000  0.44339000  1.0
  H  H12  1  0.00532000  0.29733000  0.39060000  1.0
  H  H13  1  0.80548000  0.58981000  0.55227000  1.0
  H  H14  1  0.99155000  0.70114000  0.60918000  1.0
  H  H15  1  0.57971000  0.94235000  0.41422000  1.0
  H  H16  1  0.41828000  0.05652000  0.58640000  1.0
  H  H17  1  0.61496000  0.11176000  0.37743000  1.0
  H  H18  1  0.38609000  0.88776000  0.62527000  1.0
  H  H19  1  0.60506000  0.27078000  0.38791000  1.0
  H  H20  1  0.39420000  0.72897000  0.61478000  1.0
  H  H21  1  0.54069000  0.61199000  0.74397000  1.0
  H  H22  1  0.56422000  0.38015000  0.25204000  1.0
  H  H23  1  0.56597000  0.60433000  0.88882000  1.0
  C  C24  1  0.51211000  0.51206000  0.34913000  1.0
  C  C25  1  0.52772000  0.40291000  0.77779000  1.0
  C  C26  1  0.45960000  0.24271000  0.54392000  1.0
  C  C27  1  0.53608000  0.75680000  0.45660000  1.0
  C  C28  1  0.45939000  0.15467000  0.54306000  1.0
  C  C29  1  0.53768000  0.84459000  0.45774000  1.0
  C  C30  1  0.51744000  0.10528000  0.48155000  1.0
  C  C31  1  0.48145000  0.89398000  0.51996000  1.0
  C  C32  1  0.57057000  0.14809000  0.42502000  1.0
  C  C33  1  0.42902000  0.85137000  0.57712000  1.0
  C  C34  1  0.56598000  0.23499000  0.43058000  1.0
  C  C35  1  0.50666000  0.48814000  0.65153000  1.0
  C  C36  1  0.43250000  0.76464000  0.57148000  1.0
  C  C37  1  0.70346000  0.47578000  0.49611000  1.0
  C  C38  1  0.29401000  0.52179000  0.50451000  1.0
  C  C39  1  0.18065000  0.52659000  0.50734000  1.0
  C  C40  1  0.81662000  0.47182000  0.49247000  1.0
  C  C41  1  0.98869000  0.40008000  0.44702000  1.0
  C  C42  1  0.00839000  0.59873000  0.55213000  1.0
  C  C43  1  0.88287000  0.40176000  0.45546000  1.0
  C  C44  1  0.11436000  0.59663000  0.54440000  1.0
  C  C45  1  0.85742000  0.53679000  0.52386000  1.0
  C  C46  1  0.56563000  0.44240000  0.13889000  1.0
  C  C47  1  0.13962000  0.46207000  0.47531000  1.0
  C  C48  1  0.96450000  0.53407000  0.51940000  1.0
  C  C49  1  0.03252000  0.46492000  0.47951000  1.0
  C  C50  1  0.52746000  0.51700000  0.26207000  1.0
  C  C51  1  0.52544000  0.48053000  0.73711000  1.0
  C  C52  1  0.55407000  0.44063000  0.21967000  1.0
  C  C53  1  0.54064000  0.55285000  0.77718000  1.0
  C  C54  1  0.55478000  0.54881000  0.85690000  1.0
  C  C55  1  0.55026000  0.52169000  0.09882000  1.0
  C  C56  1  0.55275000  0.47168000  0.89820000  1.0
  C  C57  1  0.52719000  0.59815000  0.14097000  1.0
  C  C58  1  0.54120000  0.39856000  0.85797000  1.0
  C  C59  1  0.51533000  0.59586000  0.22219000  1.0
  N  N60  1  0.55223000  0.53116000  0.01654000  1.0
  N  N61  1  0.55764000  0.46186000  0.98018000  1.0
  N  N62  1  0.51160000  0.28102000  0.48957000  1.0
  N  N63  1  0.48483000  0.71869000  0.51160000  1.0
  N  N64  1  0.52482000  0.01827000  0.47392000  1.0
  N  N65  1  0.47474000  0.98089000  0.52761000  1.0
  O  O66  1  0.49242000  0.58202000  0.38689000  1.0
  O  O67  1  0.84800000  0.33510000  0.42543000  1.0
  O  O68  1  0.05045000  0.33443000  0.40800000  1.0
  O  O69  1  0.94650000  0.66432000  0.59117000  1.0
  O  O70  1  0.59058000  0.87894000  0.40105000  1.0
  O  O71  1  0.40594000  0.12014000  0.59925000  1.0
  O  O72  1  0.51268000  0.41909000  0.61359000  1.0
  O  O73  1  0.51994000  0.43741000  0.37921000  1.0
  O  O74  1  0.48603000  0.56361000  0.62284000  1.0
  O  O75  1  0.64483000  0.54743000  0.50736000  1.0
  O  O76  1  0.35212000  0.45005000  0.49256000  1.0
  O  O77  1  0.67276000  0.40461000  0.48656000  1.0
  O  O78  1  0.32560000  0.59236000  0.51549000  1.0
  O  O79  1  0.14923000  0.66279000  0.57540000  1.0
