# generated using pymatgen
data_ZnH12C18N3O4
_symmetry_space_group_name_H-M   'P 1'
_cell_length_a   8.05401000
_cell_length_b   12.13820000
_cell_length_c   12.23320000
_cell_angle_alpha   112.75600000
_cell_angle_beta   101.29200000
_cell_angle_gamma   101.74900000
_symmetry_Int_Tables_number   1
_chemical_formula_structural   ZnH12C18N3O4
_chemical_formula_sum   'Zn2 H24 C36 N6 O8'
_cell_volume   1028.59229817
_cell_formula_units_Z   2
loop_
 _symmetry_equiv_pos_site_id
 _symmetry_equiv_pos_as_xyz
  1  'x, y, z'
loop_
 _atom_site_type_symbol
 _atom_site_label
 _atom_site_symmetry_multiplicity
 _atom_site_fract_x
 _atom_site_fract_y
 _atom_site_fract_z
 _atom_site_occupancy
  Zn  Zn0  1  0.58159000  0.93020000  0.91585000  1.0
  Zn  Zn1  1  0.41839000  0.06979000  0.08415000  1.0
  H  H2  1  0.55803000  0.78413000  0.62161000  1.0
  H  H3  1  0.44196000  0.21586000  0.37839000  1.0
  H  H4  1  0.95769000  0.85963000  0.94305000  1.0
  H  H5  1  0.04231000  0.14037000  0.05695000  1.0
  H  H6  1  0.91702000  0.77420000  0.51648000  1.0
  H  H7  1  0.08298000  0.22581000  0.48352000  1.0
  H  H8  1  0.70189000  0.66175000  0.45902000  1.0
  H  H9  1  0.29811000  0.33826000  0.54098000  1.0
  H  H10  1  0.18794000  0.72326000  0.59302000  1.0
  H  H11  1  0.81206000  0.27675000  0.40697000  1.0
  H  H12  1  0.67036000  0.44475000  0.42791000  1.0
  H  H13  1  0.32963000  0.55525000  0.57209000  1.0
  H  H14  1  0.14967000  0.75961000  0.13708000  1.0
  H  H15  1  0.85033000  0.24039000  0.86293000  1.0
  H  H16  1  0.99381000  0.64692000  0.23883000  1.0
  H  H17  1  0.00617000  0.35306000  0.76118000  1.0
  H  H18  1  0.18293000  0.55372000  0.77170000  1.0
  H  H19  1  0.81706000  0.44627000  0.22830000  1.0
  H  H20  1  0.31248000  0.94887000  0.57899000  1.0
  H  H21  1  0.68752000  0.05113000  0.42101000  1.0
  H  H22  1  0.99424000  0.07852000  0.81526000  1.0
  H  H23  1  0.00576000  0.92147000  0.18474000  1.0
  H  H24  1  0.22203000  0.91803000  0.35856000  1.0
  H  H25  1  0.77798000  0.08197000  0.64144000  1.0
  C  C26  1  0.67820000  0.78994000  0.68471000  1.0
  C  C27  1  0.32180000  0.21006000  0.31529000  1.0
  C  C28  1  0.88343000  0.82793000  0.84657000  1.0
  C  C29  1  0.11657000  0.17207000  0.15343000  1.0
  C  C30  1  0.83465000  0.69681000  0.52674000  1.0
  C  C31  1  0.16536000  0.30319000  0.47326000  1.0
  C  C32  1  0.92011000  0.59447000  0.51023000  1.0
  C  C33  1  0.07991000  0.40554000  0.48976000  1.0
  C  C34  1  0.10581000  0.62516000  0.55009000  1.0
  C  C35  1  0.89420000  0.37485000  0.44990000  1.0
  C  C36  1  0.81528000  0.46905000  0.46033000  1.0
  C  C37  1  0.18472000  0.53095000  0.53965000  1.0
  C  C38  1  0.17579000  0.66790000  0.95587000  1.0
  C  C39  1  0.82420000  0.33209000  0.04413000  1.0
  C  C40  1  0.11780000  0.67010000  0.05572000  1.0
  C  C41  1  0.88220000  0.32990000  0.94429000  1.0
  C  C42  1  0.02046000  0.55836000  0.05433000  1.0
  C  C43  1  0.97953000  0.44164000  0.94569000  1.0
  C  C44  1  0.96142000  0.55777000  0.15638000  1.0
  C  C45  1  0.03857000  0.44222000  0.84363000  1.0
  C  C46  1  0.13595000  0.55237000  0.84891000  1.0
  C  C47  1  0.86404000  0.44762000  0.15110000  1.0
  C  C48  1  0.28536000  0.78742000  0.96319000  1.0
  C  C49  1  0.71464000  0.21257000  0.03680000  1.0
  C  C50  1  0.16529000  0.01208000  0.70556000  1.0
  C  C51  1  0.83472000  0.98792000  0.29445000  1.0
  C  C52  1  0.07739000  0.98136000  0.49085000  1.0
  C  C53  1  0.92263000  0.01864000  0.50915000  1.0
  C  C54  1  0.19574000  0.97877000  0.59128000  1.0
  C  C55  1  0.80427000  0.02124000  0.40872000  1.0
  C  C56  1  0.29011000  0.00405000  0.80879000  1.0
  C  C57  1  0.70989000  0.99593000  0.19121000  1.0
  C  C58  1  0.01460000  0.05158000  0.72419000  1.0
  C  C59  1  0.98541000  0.94842000  0.27581000  1.0
  C  C60  1  0.10438000  0.94640000  0.37209000  1.0
  C  C61  1  0.89563000  0.05360000  0.62792000  1.0
  N  N62  1  0.71974000  0.84001000  0.80854000  1.0
  N  N63  1  0.28026000  0.15998000  0.19145000  1.0
  N  N64  1  0.81181000  0.74931000  0.65096000  1.0
  N  N65  1  0.18819000  0.25069000  0.34904000  1.0
  N  N66  1  0.94413000  0.77336000  0.75284000  1.0
  N  N67  1  0.05587000  0.22665000  0.24716000  1.0
  O  O68  1  0.38963000  0.77856000  0.89666000  1.0
  O  O69  1  0.61035000  0.22144000  0.10334000  1.0
  O  O70  1  0.40146000  0.94566000  0.77947000  1.0
  O  O71  1  0.59853000  0.05434000  0.22053000  1.0
  O  O72  1  0.26772000  0.88948000  0.03766000  1.0
  O  O73  1  0.73227000  0.11052000  0.96236000  1.0
  O  O74  1  0.27390000  0.05615000  0.91670000  1.0
  O  O75  1  0.72609000  0.94385000  0.08331000  1.0
