# generated using pymatgen
data_CoH16C18(NO3)2
_symmetry_space_group_name_H-M   'P 1'
_cell_length_a   7.34449000
_cell_length_b   10.42160000
_cell_length_c   11.29520000
_cell_angle_alpha   89.98860000
_cell_angle_beta   89.98860000
_cell_angle_gamma   88.45240000
_symmetry_Int_Tables_number   1
_chemical_formula_structural   CoH16C18(NO3)2
_chemical_formula_sum   'Co2 H32 C36 N4 O12'
_cell_volume   864.23431681
_cell_formula_units_Z   2
loop_
 _symmetry_equiv_pos_site_id
 _symmetry_equiv_pos_as_xyz
  1  'x, y, z'
loop_
 _atom_site_type_symbol
 _atom_site_label
 _atom_site_symmetry_multiplicity
 _atom_site_fract_x
 _atom_site_fract_y
 _atom_site_fract_z
 _atom_site_occupancy
  Co  Co0  1  0.74815000  0.25005000  0.72022000  1.0
  Co  Co1  1  0.24814000  0.75006000  0.27976000  1.0
  H  H2  1  0.63188000  0.43476000  0.91426000  1.0
  H  H3  1  0.86344000  0.06991000  0.91298000  1.0
  H  H4  1  0.36343000  0.56998000  0.08709000  1.0
  H  H5  1  0.13187000  0.93479000  0.08566000  1.0
  H  H6  1  0.15649000  0.34897000  0.13486000  1.0
  H  H7  1  0.35059000  0.14608000  0.13410000  1.0
  H  H8  1  0.85082000  0.64596000  0.86595000  1.0
  H  H9  1  0.65665000  0.84882000  0.86512000  1.0
  H  H10  1  0.44603000  0.41784000  0.68912000  1.0
  H  H11  1  0.05195000  0.08351000  0.68801000  1.0
  H  H12  1  0.55193000  0.58356000  0.31201000  1.0
  H  H13  1  0.94593000  0.91774000  0.31081000  1.0
  H  H14  1  0.61931000  0.43984000  0.13654000  1.0
  H  H15  1  0.87825000  0.06342000  0.13509000  1.0
  H  H16  1  0.37826000  0.56338000  0.86498000  1.0
  H  H17  1  0.11931000  0.93982000  0.86338000  1.0
  H  H18  1  0.45829000  0.28662000  0.30298000  1.0
  H  H19  1  0.03954000  0.21552000  0.30215000  1.0
  H  H20  1  0.53954000  0.71546000  0.69776000  1.0
  H  H21  1  0.95832000  0.78662000  0.69712000  1.0
  H  H22  1  0.64116000  0.47753000  0.65940000  1.0
  H  H23  1  0.85633000  0.02551000  0.65615000  1.0
  H  H24  1  0.35623000  0.52560000  0.34387000  1.0
  H  H25  1  0.14107000  0.97749000  0.34049000  1.0
  H  H26  1  0.46862000  0.27792000  0.52375000  1.0
  H  H27  1  0.03013000  0.22184000  0.52309000  1.0
  H  H28  1  0.53006000  0.72179000  0.47684000  1.0
  H  H29  1  0.96860000  0.77794000  0.47634000  1.0
  H  H30  1  0.05315000  0.44259000  0.94280000  1.0
  H  H31  1  0.45243000  0.05357000  0.94125000  1.0
  H  H32  1  0.95260000  0.55356000  0.05887000  1.0
  H  H33  1  0.55331000  0.94253000  0.05712000  1.0
  C  C34  1  0.12915000  0.36627000  0.72311000  1.0
  C  C35  1  0.37348000  0.13082000  0.72206000  1.0
  C  C36  1  0.87351000  0.63079000  0.27801000  1.0
  C  C37  1  0.62916000  0.86628000  0.27686000  1.0
  C  C38  1  0.81364000  0.15024000  0.96661000  1.0
  C  C39  1  0.68203000  0.35413000  0.96733000  1.0
  C  C40  1  0.18206000  0.85415000  0.03261000  1.0
  C  C41  1  0.31365000  0.65029000  0.03343000  1.0
  C  C42  1  0.59290000  0.26657000  0.47153000  1.0
  C  C43  1  0.90558000  0.23332000  0.47114000  1.0
  C  C44  1  0.40557000  0.73329000  0.52883000  1.0
  C  C45  1  0.09288000  0.76658000  0.52855000  1.0
  C  C46  1  0.74861000  0.25149000  0.15387000  1.0
  C  C47  1  0.24863000  0.75149000  0.84612000  1.0
  C  C48  1  0.19493000  0.30326000  0.83610000  1.0
  C  C49  1  0.31059000  0.19383000  0.83567000  1.0
  C  C50  1  0.81071000  0.69381000  0.16437000  1.0
  C  C51  1  0.69506000  0.80327000  0.16389000  1.0
  C  C52  1  0.82020000  0.14703000  0.08950000  1.0
  C  C53  1  0.67669000  0.35647000  0.09024000  1.0
  C  C54  1  0.17671000  0.85647000  0.90970000  1.0
  C  C55  1  0.32023000  0.64704000  0.91055000  1.0
  C  C56  1  0.36407000  0.13891000  0.94368000  1.0
  C  C57  1  0.14190000  0.35746000  0.94451000  1.0
  C  C58  1  0.64208000  0.85742000  0.05544000  1.0
  C  C59  1  0.86424000  0.63886000  0.05640000  1.0
  C  C60  1  0.74885000  0.25091000  0.28445000  1.0
  C  C61  1  0.24885000  0.75088000  0.71554000  1.0
  C  C62  1  0.58755000  0.27043000  0.34868000  1.0
  C  C63  1  0.91041000  0.23084000  0.34825000  1.0
  C  C64  1  0.41043000  0.73078000  0.65172000  1.0
  C  C65  1  0.08752000  0.77042000  0.65138000  1.0
  C  C66  1  0.30783000  0.19178000  0.05133000  1.0
  C  C67  1  0.19885000  0.30385000  0.05172000  1.0
  C  C68  1  0.69903000  0.80375000  0.94827000  1.0
  C  C69  1  0.80800000  0.69169000  0.94872000  1.0
  N  N70  1  0.74936000  0.24940000  0.53232000  1.0
  N  N71  1  0.24931000  0.74942000  0.46768000  1.0
  N  N72  1  0.74718000  0.25232000  0.90562000  1.0
  N  N73  1  0.24720000  0.75235000  0.09434000  1.0
  O  O74  1  0.95685000  0.37756000  0.70912000  1.0
  O  O75  1  0.54528000  0.11627000  0.70574000  1.0
  O  O76  1  0.04531000  0.61622000  0.29435000  1.0
  O  O77  1  0.45687000  0.87759000  0.29084000  1.0
  O  O78  1  0.57852000  0.42545000  0.71730000  1.0
  O  O79  1  0.91922000  0.07613000  0.71504000  1.0
  O  O80  1  0.41919000  0.57619000  0.28496000  1.0
  O  O81  1  0.07850000  0.92538000  0.28261000  1.0
  O  O82  1  0.24514000  0.40778000  0.65055000  1.0
  O  O83  1  0.25481000  0.09236000  0.64997000  1.0
  O  O84  1  0.75476000  0.59235000  0.35007000  1.0
  O  O85  1  0.74515000  0.90777000  0.34941000  1.0
