# generated using pymatgen
data_Tl2H20Au2C43N3Cl20O
_symmetry_space_group_name_H-M   'P 1'
_cell_length_a   11.97640000
_cell_length_b   15.53300000
_cell_length_c   36.26490000
_cell_angle_alpha   89.99980000
_cell_angle_beta   89.99950000
_cell_angle_gamma   74.59600000
_symmetry_Int_Tables_number   1
_chemical_formula_structural   Tl2H20Au2C43N3Cl20O
_chemical_formula_sum   'Tl8 H80 Au8 C172 N12 Cl80 O4'
_cell_volume   6503.98871668
_cell_formula_units_Z   4
loop_
 _symmetry_equiv_pos_site_id
 _symmetry_equiv_pos_as_xyz
  1  'x, y, z'
loop_
 _atom_site_type_symbol
 _atom_site_label
 _atom_site_symmetry_multiplicity
 _atom_site_fract_x
 _atom_site_fract_y
 _atom_site_fract_z
 _atom_site_occupancy
  Tl  Tl0  1  0.55589000  0.67903000  0.61033000  1.0
  Tl  Tl1  1  0.55589000  0.17902000  0.88967000  1.0
  Tl  Tl2  1  0.44410000  0.32098000  0.38967000  1.0
  Tl  Tl3  1  0.44410000  0.82097000  0.11033000  1.0
  Tl  Tl4  1  0.05780000  0.67050000  0.64054000  1.0
  Tl  Tl5  1  0.05780000  0.17050000  0.85946000  1.0
  Tl  Tl6  1  0.94219000  0.32950000  0.35946000  1.0
  Tl  Tl7  1  0.94220000  0.82950000  0.14054000  1.0
  H  H8  1  0.35251000  0.88226000  0.62220000  1.0
  H  H9  1  0.35251000  0.38225000  0.87780000  1.0
  H  H10  1  0.64748000  0.11775000  0.37780000  1.0
  H  H11  1  0.64749000  0.61775000  0.12220000  1.0
  H  H12  1  0.23487000  0.97203000  0.67174000  1.0
  H  H13  1  0.23487000  0.47203000  0.82826000  1.0
  H  H14  1  0.76513000  0.02797000  0.32826000  1.0
  H  H15  1  0.76513000  0.52798000  0.17173000  1.0
  H  H16  1  0.52986000  0.87974000  0.74436000  1.0
  H  H17  1  0.52985000  0.37974000  0.75564000  1.0
  H  H18  1  0.47015000  0.12024000  0.25564000  1.0
  H  H19  1  0.47015000  0.62026000  0.24436000  1.0
  H  H20  1  0.63331000  0.79165000  0.69175000  1.0
  H  H21  1  0.63331000  0.29166000  0.80825000  1.0
  H  H22  1  0.36669000  0.20835000  0.30825000  1.0
  H  H23  1  0.36669000  0.70834000  0.19175000  1.0
  H  H24  1  0.42854000  0.76601000  0.52134000  1.0
  H  H25  1  0.42854000  0.26597000  0.97866000  1.0
  H  H26  1  0.57145000  0.23404000  0.47867000  1.0
  H  H27  1  0.57146000  0.73399000  0.02134000  1.0
  H  H28  1  0.57003000  0.02069000  0.55983000  1.0
  H  H29  1  0.57002000  0.52066000  0.94018000  1.0
  H  H30  1  0.42998000  0.97935000  0.44018000  1.0
  H  H31  1  0.42997000  0.47932000  0.05983000  1.0
  H  H32  1  0.42640000  0.88346000  0.47550000  1.0
  H  H33  1  0.42638000  0.38342000  0.02451000  1.0
  H  H34  1  0.57362000  0.11659000  0.52451000  1.0
  H  H35  1  0.57360000  0.61655000  0.97550000  1.0
  H  H36  1  0.56569000  0.89668000  0.60183000  1.0
  H  H37  1  0.56569000  0.39665000  0.89818000  1.0
  H  H38  1  0.43431000  0.10336000  0.39818000  1.0
  H  H39  1  0.43431000  0.60333000  0.10183000  1.0
  H  H40  1  0.27577000  0.98190000  0.83728000  1.0
  H  H41  1  0.27575000  0.48192000  0.66272000  1.0
  H  H42  1  0.72426000  0.01807000  0.16272000  1.0
  H  H43  1  0.72425000  0.51808000  0.33728000  1.0
  H  H44  1  0.40461000  0.90322000  0.78751000  1.0
  H  H45  1  0.40460000  0.40323000  0.71249000  1.0
  H  H46  1  0.59541000  0.09676000  0.21249000  1.0
  H  H47  1  0.59540000  0.59677000  0.28750000  1.0
  H  H48  1  0.17428000  0.07426000  0.70964000  1.0
  H  H49  1  0.17428000  0.57426000  0.79037000  1.0
  H  H50  1  0.82572000  0.92573000  0.29037000  1.0
  H  H51  1  0.82573000  0.42573000  0.20963000  1.0
  H  H52  1  0.05309000  0.14258000  0.76251000  1.0
  H  H53  1  0.05308000  0.64258000  0.73750000  1.0
  H  H54  1  0.94693000  0.85741000  0.23750000  1.0
  H  H55  1  0.94692000  0.35742000  0.26250000  1.0
  H  H56  1  0.08521000  0.57265000  0.54836000  1.0
  H  H57  1  0.08521000  0.07265000  0.95165000  1.0
  H  H58  1  0.91480000  0.42735000  0.45164000  1.0
  H  H59  1  0.91479000  0.92735000  0.04836000  1.0
  H  H60  1  0.95633000  0.57256000  0.57359000  1.0
  H  H61  1  0.95633000  0.07256000  0.92641000  1.0
  H  H62  1  0.04367000  0.42745000  0.42641000  1.0
  H  H63  1  0.04366000  0.92745000  0.07360000  1.0
  H  H64  1  0.96573000  0.44361000  0.53605000  1.0
  H  H65  1  0.96573000  0.94361000  0.96395000  1.0
  H  H66  1  0.03426000  0.55639000  0.46395000  1.0
  H  H67  1  0.03426000  0.05639000  0.03605000  1.0
  H  H68  1  0.11919000  0.41563000  0.53332000  1.0
  H  H69  1  0.11920000  0.91563000  0.96668000  1.0
  H  H70  1  0.88080000  0.58437000  0.46668000  1.0
  H  H71  1  0.88079000  0.08437000  0.03332000  1.0
  H  H72  1  0.12696000  0.32206000  0.58403000  1.0
  H  H73  1  0.12695000  0.82206000  0.91597000  1.0
  H  H74  1  0.87303000  0.67794000  0.41597000  1.0
  H  H75  1  0.87304000  0.17794000  0.08403000  1.0
  H  H76  1  0.97652000  0.36251000  0.59234000  1.0
  H  H77  1  0.97652000  0.86251000  0.90766000  1.0
  H  H78  1  0.02347000  0.63749000  0.40766000  1.0
  H  H79  1  0.02348000  0.13749000  0.09234000  1.0
  H  H80  1  0.00134000  0.47068000  0.63452000  1.0
  H  H81  1  0.00136000  0.97068000  0.86548000  1.0
  H  H82  1  0.99863000  0.52932000  0.36548000  1.0
  H  H83  1  0.99863000  0.02933000  0.13452000  1.0
  H  H84  1  0.15045000  0.40960000  0.63636000  1.0
  H  H85  1  0.15047000  0.90960000  0.86365000  1.0
  H  H86  1  0.84952000  0.59040000  0.36365000  1.0
  H  H87  1  0.84952000  0.09041000  0.13636000  1.0
  Au  Au88  1  0.80656000  0.68360000  0.62588000  1.0
  Au  Au89  1  0.80655000  0.18361000  0.87411000  1.0
  Au  Au90  1  0.19344000  0.31640000  0.37411000  1.0
  Au  Au91  1  0.19344000  0.81640000  0.12589000  1.0
  Au  Au92  1  0.29166000  0.70197000  0.64385000  1.0
  Au  Au93  1  0.29165000  0.20198000  0.85614000  1.0
  Au  Au94  1  0.70835000  0.29803000  0.35614000  1.0
  Au  Au95  1  0.70835000  0.79802000  0.14385000  1.0
  C  C96  1  0.28554000  0.67179000  0.58822000  1.0
  C  C97  1  0.28553000  0.17178000  0.91177000  1.0
  C  C98  1  0.71447000  0.32821000  0.41177000  1.0
  C  C99  1  0.71446000  0.82820000  0.08822000  1.0
  C  C100  1  0.33631000  0.58576000  0.57420000  1.0
  C  C101  1  0.33630000  0.08575000  0.92579000  1.0
  C  C102  1  0.66370000  0.41424000  0.42579000  1.0
  C  C103  1  0.66369000  0.91423000  0.07421000  1.0
  C  C104  1  0.32815000  0.56293000  0.53696000  1.0
  C  C105  1  0.32814000  0.06293000  0.96304000  1.0
  C  C106  1  0.67186000  0.43707000  0.46304000  1.0
  C  C107  1  0.67185000  0.93706000  0.03696000  1.0
  C  C108  1  0.26772000  0.62872000  0.51218000  1.0
  C  C109  1  0.26772000  0.12872000  0.98782000  1.0
  C  C110  1  0.73229000  0.37127000  0.48782000  1.0
  C  C111  1  0.73228000  0.87127000  0.01218000  1.0
  C  C112  1  0.21469000  0.71553000  0.52506000  1.0
  C  C113  1  0.21469000  0.21553000  0.97494000  1.0
  C  C114  1  0.78532000  0.28446000  0.47494000  1.0
  C  C115  1  0.78531000  0.78446000  0.02506000  1.0
  C  C116  1  0.22466000  0.73513000  0.56262000  1.0
  C  C117  1  0.22466000  0.23513000  0.93738000  1.0
  C  C118  1  0.77534000  0.26486000  0.43738000  1.0
  C  C119  1  0.77534000  0.76486000  0.06262000  1.0
  C  C120  1  0.29329000  0.72655000  0.69986000  1.0
  C  C121  1  0.29329000  0.22656000  0.80014000  1.0
  C  C122  1  0.70672000  0.27345000  0.30014000  1.0
  C  C123  1  0.70671000  0.77344000  0.19985000  1.0
  C  C124  1  0.38553000  0.68067000  0.72226000  1.0
  C  C125  1  0.38552000  0.18068000  0.77774000  1.0
  C  C126  1  0.61448000  0.31933000  0.27774000  1.0
  C  C127  1  0.61447000  0.81932000  0.22226000  1.0
  C  C128  1  0.38594000  0.68948000  0.76088000  1.0
  C  C129  1  0.38593000  0.18948000  0.73912000  1.0
  C  C130  1  0.61407000  0.31052000  0.23912000  1.0
  C  C131  1  0.61406000  0.81052000  0.26088000  1.0
  C  C132  1  0.28796000  0.74428000  0.77845000  1.0
  C  C133  1  0.28795000  0.24429000  0.72155000  1.0
  C  C134  1  0.71205000  0.25572000  0.22155000  1.0
  C  C135  1  0.71205000  0.75572000  0.27845000  1.0
  C  C136  1  0.19379000  0.79226000  0.75713000  1.0
  C  C137  1  0.19378000  0.29226000  0.74287000  1.0
  C  C138  1  0.80622000  0.20774000  0.24287000  1.0
  C  C139  1  0.80622000  0.70774000  0.25713000  1.0
  C  C140  1  0.19984000  0.78407000  0.71849000  1.0
  C  C141  1  0.19984000  0.28408000  0.78151000  1.0
  C  C142  1  0.80016000  0.21592000  0.28151000  1.0
  C  C143  1  0.80016000  0.71592000  0.21849000  1.0
  C  C144  1  0.80708000  0.77275000  0.58325000  1.0
  C  C145  1  0.80708000  0.27275000  0.91675000  1.0
  C  C146  1  0.19291000  0.22724000  0.41675000  1.0
  C  C147  1  0.19291000  0.72724000  0.08325000  1.0
  C  C148  1  0.82723000  0.85650000  0.59023000  1.0
  C  C149  1  0.82723000  0.35650000  0.90977000  1.0
  C  C150  1  0.17276000  0.14350000  0.40977000  1.0
  C  C151  1  0.17276000  0.64350000  0.09023000  1.0
  C  C152  1  0.83671000  0.91680000  0.56226000  1.0
  C  C153  1  0.83671000  0.41679000  0.93775000  1.0
  C  C154  1  0.16329000  0.08319000  0.43775000  1.0
  C  C155  1  0.16329000  0.58320000  0.06225000  1.0
  C  C156  1  0.82259000  0.89463000  0.52526000  1.0
  C  C157  1  0.82259000  0.39462000  0.97474000  1.0
  C  C158  1  0.17741000  0.10537000  0.47474000  1.0
  C  C159  1  0.17741000  0.60537000  0.02526000  1.0
  C  C160  1  0.79645000  0.81359000  0.51716000  1.0
  C  C161  1  0.79645000  0.31358000  0.98283000  1.0
  C  C162  1  0.20355000  0.18641000  0.48284000  1.0
  C  C163  1  0.20355000  0.68641000  0.01716000  1.0
  C  C164  1  0.79044000  0.75439000  0.54601000  1.0
  C  C165  1  0.79044000  0.25439000  0.95399000  1.0
  C  C166  1  0.20955000  0.24561000  0.45399000  1.0
  C  C167  1  0.20955000  0.74561000  0.04601000  1.0
  C  C168  1  0.80429000  0.60074000  0.67072000  1.0
  C  C169  1  0.80429000  0.10076000  0.82928000  1.0
  C  C170  1  0.19571000  0.39925000  0.32928000  1.0
  C  C171  1  0.19571000  0.89924000  0.17072000  1.0
  C  C172  1  0.77971000  0.51718000  0.66871000  1.0
  C  C173  1  0.77971000  0.01719000  0.83128000  1.0
  C  C174  1  0.22029000  0.48282000  0.33129000  1.0
  C  C175  1  0.22029000  0.98281000  0.16871000  1.0
  C  C176  1  0.76742000  0.46703000  0.70008000  1.0
  C  C177  1  0.76742000  0.96704000  0.79992000  1.0
  C  C178  1  0.23257000  0.53297000  0.29992000  1.0
  C  C179  1  0.23258000  0.03296000  0.20008000  1.0
  C  C180  1  0.78231000  0.50030000  0.73531000  1.0
  C  C181  1  0.78231000  0.00031000  0.76469000  1.0
  C  C182  1  0.21769000  0.49970000  0.26469000  1.0
  C  C183  1  0.21769000  0.99970000  0.23531000  1.0
  C  C184  1  0.81214000  0.58148000  0.73860000  1.0
  C  C185  1  0.81214000  0.08149000  0.76140000  1.0
  C  C186  1  0.18786000  0.41852000  0.26140000  1.0
  C  C187  1  0.18786000  0.91852000  0.23860000  1.0
  C  C188  1  0.82167000  0.62964000  0.70652000  1.0
  C  C189  1  0.82167000  0.12965000  0.79348000  1.0
  C  C190  1  0.17833000  0.37036000  0.29349000  1.0
  C  C191  1  0.17833000  0.87035000  0.20652000  1.0
  C  C192  1  0.38902000  0.88391000  0.64970000  1.0
  C  C193  1  0.38901000  0.38392000  0.85030000  1.0
  C  C194  1  0.61098000  0.11609000  0.35030000  1.0
  C  C195  1  0.61099000  0.61609000  0.14970000  1.0
  C  C196  1  0.32391000  0.93514000  0.67747000  1.0
  C  C197  1  0.32391000  0.43514000  0.82253000  1.0
  C  C198  1  0.67609000  0.06486000  0.32253000  1.0
  C  C199  1  0.67609000  0.56486000  0.17747000  1.0
  C  C200  1  0.37133000  0.93357000  0.71291000  1.0
  C  C201  1  0.37133000  0.43357000  0.78709000  1.0
  C  C202  1  0.62867000  0.06642000  0.28709000  1.0
  C  C203  1  0.62867000  0.56642000  0.21290000  1.0
  C  C204  1  0.48573000  0.88201000  0.71797000  1.0
  C  C205  1  0.48573000  0.38201000  0.78203000  1.0
  C  C206  1  0.51427000  0.11798000  0.28203000  1.0
  C  C207  1  0.51427000  0.61799000  0.21797000  1.0
  C  C208  1  0.54474000  0.83308000  0.68847000  1.0
  C  C209  1  0.54474000  0.33307000  0.81153000  1.0
  C  C210  1  0.45526000  0.16693000  0.31153000  1.0
  C  C211  1  0.45527000  0.66693000  0.18846000  1.0
  C  C212  1  0.45934000  0.82386000  0.52883000  1.0
  C  C213  1  0.45935000  0.32383000  0.97118000  1.0
  C  C214  1  0.54065000  0.17619000  0.47118000  1.0
  C  C215  1  0.54066000  0.67615000  0.02883000  1.0
  C  C216  1  0.53733000  0.96618000  0.54963000  1.0
  C  C217  1  0.53732000  0.46615000  0.95038000  1.0
  C  C218  1  0.46268000  0.03387000  0.45038000  1.0
  C  C219  1  0.46267000  0.53382000  0.04963000  1.0
  C  C220  1  0.49890000  0.96401000  0.51320000  1.0
  C  C221  1  0.49889000  0.46398000  0.98681000  1.0
  C  C222  1  0.50111000  0.03603000  0.48681000  1.0
  C  C223  1  0.50110000  0.53599000  0.01320000  1.0
  C  C224  1  0.45874000  0.89023000  0.50308000  1.0
  C  C225  1  0.45873000  0.39019000  0.99692000  1.0
  C  C226  1  0.54127000  0.10982000  0.49692000  1.0
  C  C227  1  0.54127000  0.60978000  0.00308000  1.0
  C  C228  1  0.53516000  0.89680000  0.57350000  1.0
  C  C229  1  0.53516000  0.39677000  0.92650000  1.0
  C  C230  1  0.46483000  0.10324000  0.42650000  1.0
  C  C231  1  0.46483000  0.60320000  0.07351000  1.0
  C  C232  1  0.25510000  0.99951000  0.80849000  1.0
  C  C233  1  0.25509000  0.49953000  0.69151000  1.0
  C  C234  1  0.74494000  0.00046000  0.19151000  1.0
  C  C235  1  0.74492000  0.50048000  0.30849000  1.0
  C  C236  1  0.32812000  0.95649000  0.78050000  1.0
  C  C237  1  0.32811000  0.45650000  0.71950000  1.0
  C  C238  1  0.67190000  0.04350000  0.21950000  1.0
  C  C239  1  0.67189000  0.54350000  0.28049000  1.0
  C  C240  1  0.30049000  0.98090000  0.74369000  1.0
  C  C241  1  0.30048000  0.48090000  0.75631000  1.0
  C  C242  1  0.69953000  0.01909000  0.25631000  1.0
  C  C243  1  0.69952000  0.51910000  0.24369000  1.0
  C  C244  1  0.19981000  0.04991000  0.73736000  1.0
  C  C245  1  0.19981000  0.54991000  0.76265000  1.0
  C  C246  1  0.80020000  0.95008000  0.26265000  1.0
  C  C247  1  0.80020000  0.45009000  0.23735000  1.0
  C  C248  1  0.13156000  0.08890000  0.76702000  1.0
  C  C249  1  0.13157000  0.58890000  0.73299000  1.0
  C  C250  1  0.86845000  0.91109000  0.23299000  1.0
  C  C251  1  0.86844000  0.41110000  0.26701000  1.0
  C  C252  1  0.04503000  0.53310000  0.56661000  1.0
  C  C253  1  0.04503000  0.03310000  0.93340000  1.0
  C  C254  1  0.95497000  0.46690000  0.43340000  1.0
  C  C255  1  0.95496000  0.96690000  0.06661000  1.0
  C  C256  1  0.04498000  0.44125000  0.55166000  1.0
  C  C257  1  0.04497000  0.94126000  0.94834000  1.0
  C  C258  1  0.95502000  0.55874000  0.44834000  1.0
  C  C259  1  0.95502000  0.05874000  0.05167000  1.0
  C  C260  1  0.05584000  0.38292000  0.58680000  1.0
  C  C261  1  0.05584000  0.88292000  0.91321000  1.0
  C  C262  1  0.94414000  0.61708000  0.41320000  1.0
  C  C263  1  0.94415000  0.11709000  0.08680000  1.0
  C  C264  1  0.07972000  0.44281000  0.61788000  1.0
  C  C265  1  0.07972000  0.94281000  0.88212000  1.0
  C  C266  1  0.92027000  0.55719000  0.38212000  1.0
  C  C267  1  0.92028000  0.05720000  0.11788000  1.0
  N  N268  1  0.49765000  0.83299000  0.65491000  1.0
  N  N269  1  0.49766000  0.33299000  0.84509000  1.0
  N  N270  1  0.50234000  0.16702000  0.34509000  1.0
  N  N271  1  0.50234000  0.66702000  0.15491000  1.0
  N  N272  1  0.49663000  0.82651000  0.56357000  1.0
  N  N273  1  0.49663000  0.32648000  0.93643000  1.0
  N  N274  1  0.50336000  0.17354000  0.43644000  1.0
  N  N275  1  0.50337000  0.67350000  0.06357000  1.0
  N  N276  1  0.15743000  0.06406000  0.80212000  1.0
  N  N277  1  0.15742000  0.56408000  0.69789000  1.0
  N  N278  1  0.84259000  0.93592000  0.19789000  1.0
  N  N279  1  0.84258000  0.43593000  0.30211000  1.0
  Cl  Cl280  1  0.41350000  0.50325000  0.60371000  1.0
  Cl  Cl281  1  0.41351000  0.00326000  0.89629000  1.0
  Cl  Cl282  1  0.58649000  0.49675000  0.39629000  1.0
  Cl  Cl283  1  0.58649000  0.99673000  0.10371000  1.0
  Cl  Cl284  1  0.38756000  0.45595000  0.52167000  1.0
  Cl  Cl285  1  0.38756000  0.95595000  0.97833000  1.0
  Cl  Cl286  1  0.61244000  0.54404000  0.47833000  1.0
  Cl  Cl287  1  0.61244000  0.04404000  0.02167000  1.0
  Cl  Cl288  1  0.25785000  0.60294000  0.46649000  1.0
  Cl  Cl289  1  0.25784000  0.10293000  0.03350000  1.0
  Cl  Cl290  1  0.74216000  0.39706000  0.53350000  1.0
  Cl  Cl291  1  0.74217000  0.89706000  0.96649000  1.0
  Cl  Cl292  1  0.13913000  0.79547000  0.49503000  1.0
  Cl  Cl293  1  0.13912000  0.29547000  0.00497000  1.0
  Cl  Cl294  1  0.86088000  0.20452000  0.50497000  1.0
  Cl  Cl295  1  0.86089000  0.70452000  0.99503000  1.0
  Cl  Cl296  1  0.15716000  0.84239000  0.57782000  1.0
  Cl  Cl297  1  0.15715000  0.34239000  0.92218000  1.0
  Cl  Cl298  1  0.84284000  0.15760000  0.42217000  1.0
  Cl  Cl299  1  0.84284000  0.65760000  0.07782000  1.0
  Cl  Cl300  1  0.50541000  0.60824000  0.70194000  1.0
  Cl  Cl301  1  0.50540000  0.10825000  0.79805000  1.0
  Cl  Cl302  1  0.49460000  0.39176000  0.29805000  1.0
  Cl  Cl303  1  0.49460000  0.89176000  0.20194000  1.0
  Cl  Cl304  1  0.50292000  0.63309000  0.78666000  1.0
  Cl  Cl305  1  0.50290000  0.13309000  0.71334000  1.0
  Cl  Cl306  1  0.49710000  0.36691000  0.21334000  1.0
  Cl  Cl307  1  0.49709000  0.86692000  0.28666000  1.0
  Cl  Cl308  1  0.28317000  0.75153000  0.82574000  1.0
  Cl  Cl309  1  0.28316000  0.25153000  0.67426000  1.0
  Cl  Cl310  1  0.71684000  0.24847000  0.17426000  1.0
  Cl  Cl311  1  0.71683000  0.74847000  0.32574000  1.0
  Cl  Cl312  1  0.07326000  0.85869000  0.77847000  1.0
  Cl  Cl313  1  0.07325000  0.35870000  0.72153000  1.0
  Cl  Cl314  1  0.92675000  0.14131000  0.22153000  1.0
  Cl  Cl315  1  0.92675000  0.64131000  0.27847000  1.0
  Cl  Cl316  1  0.08452000  0.84809000  0.69305000  1.0
  Cl  Cl317  1  0.08451000  0.34810000  0.80695000  1.0
  Cl  Cl318  1  0.91549000  0.15190000  0.30695000  1.0
  Cl  Cl319  1  0.91549000  0.65190000  0.19305000  1.0
  Cl  Cl320  1  0.83945000  0.88873000  0.63555000  1.0
  Cl  Cl321  1  0.83944000  0.38874000  0.86445000  1.0
  Cl  Cl322  1  0.16055000  0.11126000  0.36446000  1.0
  Cl  Cl323  1  0.16054000  0.61126000  0.13555000  1.0
  Cl  Cl324  1  0.86314000  0.01764000  0.57256000  1.0
  Cl  Cl325  1  0.86313000  0.51764000  0.92744000  1.0
  Cl  Cl326  1  0.13688000  0.98235000  0.42744000  1.0
  Cl  Cl327  1  0.13687000  0.48235000  0.07256000  1.0
  Cl  Cl328  1  0.83554000  0.96637000  0.49060000  1.0
  Cl  Cl329  1  0.83554000  0.46636000  0.00940000  1.0
  Cl  Cl330  1  0.16446000  0.03364000  0.50940000  1.0
  Cl  Cl331  1  0.16446000  0.53363000  0.99060000  1.0
  Cl  Cl332  1  0.77003000  0.78973000  0.47225000  1.0
  Cl  Cl333  1  0.77003000  0.28972000  0.02774000  1.0
  Cl  Cl334  1  0.22996000  0.21029000  0.52774000  1.0
  Cl  Cl335  1  0.22997000  0.71027000  0.97226000  1.0
  Cl  Cl336  1  0.75729000  0.65540000  0.53465000  1.0
  Cl  Cl337  1  0.75729000  0.15539000  0.96535000  1.0
  Cl  Cl338  1  0.24270000  0.34460000  0.46535000  1.0
  Cl  Cl339  1  0.24271000  0.84460000  0.03465000  1.0
  Cl  Cl340  1  0.76056000  0.47356000  0.62576000  1.0
  Cl  Cl341  1  0.76058000  0.97357000  0.87423000  1.0
  Cl  Cl342  1  0.23942000  0.52644000  0.37424000  1.0
  Cl  Cl343  1  0.23943000  0.02643000  0.12576000  1.0
  Cl  Cl344  1  0.73225000  0.36705000  0.69624000  1.0
  Cl  Cl345  1  0.73227000  0.86705000  0.80376000  1.0
  Cl  Cl346  1  0.26774000  0.63295000  0.30376000  1.0
  Cl  Cl347  1  0.26773000  0.13295000  0.19624000  1.0
  Cl  Cl348  1  0.76119000  0.44409000  0.77410000  1.0
  Cl  Cl349  1  0.76121000  0.94409000  0.72590000  1.0
  Cl  Cl350  1  0.23880000  0.55591000  0.22591000  1.0
  Cl  Cl351  1  0.23879000  0.05591000  0.27409000  1.0
  Cl  Cl352  1  0.83421000  0.62076000  0.78154000  1.0
  Cl  Cl353  1  0.83421000  0.12077000  0.71845000  1.0
  Cl  Cl354  1  0.16580000  0.37924000  0.21846000  1.0
  Cl  Cl355  1  0.16579000  0.87923000  0.28154000  1.0
  Cl  Cl356  1  0.85434000  0.73117000  0.71212000  1.0
  Cl  Cl357  1  0.85432000  0.23118000  0.78787000  1.0
  Cl  Cl358  1  0.14568000  0.26883000  0.28787000  1.0
  Cl  Cl359  1  0.14568000  0.76882000  0.21213000  1.0
  O  O360  1  0.11397000  0.51518000  0.59993000  1.0
  O  O361  1  0.11397000  0.01518000  0.90007000  1.0
  O  O362  1  0.88603000  0.48482000  0.40007000  1.0
  O  O363  1  0.88602000  0.98483000  0.09994000  1.0
