# generated using pymatgen
data_AgH20C24(N2O)2
_symmetry_space_group_name_H-M   'P 1'
_cell_length_a   8.22930000
_cell_length_b   11.35670000
_cell_length_c   11.69460000
_cell_angle_alpha   82.65270000
_cell_angle_beta   82.46200000
_cell_angle_gamma   70.22260000
_symmetry_Int_Tables_number   1
_chemical_formula_structural   AgH20C24(N2O)2
_chemical_formula_sum   'Ag2 H40 C48 N8 O4'
_cell_volume   1015.50179126
_cell_formula_units_Z   2
loop_
 _symmetry_equiv_pos_site_id
 _symmetry_equiv_pos_as_xyz
  1  'x, y, z'
loop_
 _atom_site_type_symbol
 _atom_site_label
 _atom_site_symmetry_multiplicity
 _atom_site_fract_x
 _atom_site_fract_y
 _atom_site_fract_z
 _atom_site_occupancy
  Ag  Ag0  1  0.01073000  0.51289000  0.87866000  1.0
  Ag  Ag1  1  0.98926000  0.48712000  0.12134000  1.0
  H  H2  1  0.19052000  0.08490000  0.85514000  1.0
  H  H3  1  0.80948000  0.91510000  0.14485000  1.0
  H  H4  1  0.27995000  0.25480000  0.73043000  1.0
  H  H5  1  0.72004000  0.74521000  0.26958000  1.0
  H  H6  1  0.16954000  0.87272000  0.84049000  1.0
  H  H7  1  0.83047000  0.12728000  0.15950000  1.0
  H  H8  1  0.31485000  0.12993000  0.44814000  1.0
  H  H9  1  0.68516000  0.87007000  0.55186000  1.0
  H  H10  1  0.40155000  0.09257000  0.02526000  1.0
  H  H11  1  0.59845000  0.90743000  0.97474000  1.0
  H  H12  1  0.01571000  0.68184000  0.70041000  1.0
  H  H13  1  0.98429000  0.31816000  0.29959000  1.0
  H  H14  1  0.91911000  0.66014000  0.58054000  1.0
  H  H15  1  0.08089000  0.33986000  0.41946000  1.0
  H  H16  1  0.23635000  0.79177000  0.66850000  1.0
  H  H17  1  0.76364000  0.20824000  0.33150000  1.0
  H  H18  1  0.34953000  0.94435000  0.54397000  1.0
  H  H19  1  0.65048000  0.05565000  0.45603000  1.0
  H  H20  1  0.49453000  0.64041000  0.23789000  1.0
  H  H21  1  0.50546000  0.35958000  0.76211000  1.0
  H  H22  1  0.31671000  0.93192000  0.15666000  1.0
  H  H23  1  0.68329000  0.06808000  0.84334000  1.0
  H  H24  1  0.45349000  0.28033000  0.51313000  1.0
  H  H25  1  0.54650000  0.71967000  0.48687000  1.0
  H  H26  1  0.40718000  0.28718000  0.31583000  1.0
  H  H27  1  0.59282000  0.71282000  0.68417000  1.0
  H  H28  1  0.30910000  0.53206000  0.44227000  1.0
  H  H29  1  0.69090000  0.46793000  0.55773000  1.0
  H  H30  1  0.67555000  0.41170000  0.14788000  1.0
  H  H31  1  0.32445000  0.58830000  0.85212000  1.0
  H  H32  1  0.98623000  0.74456000  0.38552000  1.0
  H  H33  1  0.01378000  0.25544000  0.61448000  1.0
  H  H34  1  0.59233000  0.26874000  0.04219000  1.0
  H  H35  1  0.40767000  0.73126000  0.95781000  1.0
  H  H36  1  0.37678000  0.31752000  0.00147000  1.0
  H  H37  1  0.62322000  0.68248000  0.99853000  1.0
  H  H38  1  0.15277000  0.67248000  0.20986000  1.0
  H  H39  1  0.84723000  0.32752000  0.79014000  1.0
  H  H40  1  0.09792000  0.89768000  0.25984000  1.0
  H  H41  1  0.90209000  0.10231000  0.74016000  1.0
  C  C42  1  0.10658000  0.04721000  0.91801000  1.0
  C  C43  1  0.89343000  0.95279000  0.08199000  1.0
  C  C44  1  0.01035000  0.12026000  0.00735000  1.0
  C  C45  1  0.98966000  0.87974000  0.99265000  1.0
  C  C46  1  0.26447000  0.33694000  0.66863000  1.0
  C  C47  1  0.73553000  0.66306000  0.33137000  1.0
  C  C48  1  0.30685000  0.01882000  0.31325000  1.0
  C  C49  1  0.69315000  0.98117000  0.68675000  1.0
  C  C50  1  0.23732000  0.92998000  0.39068000  1.0
  C  C51  1  0.76269000  0.07002000  0.60932000  1.0
  C  C52  1  0.09608000  0.92868000  0.91060000  1.0
  C  C53  1  0.90393000  0.07133000  0.08940000  1.0
  C  C54  1  0.10724000  0.75535000  0.53465000  1.0
  C  C55  1  0.89277000  0.24465000  0.46535000  1.0
  C  C56  1  0.02286000  0.24816000  0.01473000  1.0
  C  C57  1  0.97714000  0.75185000  0.98527000  1.0
  C  C58  1  0.33876000  0.11848000  0.35558000  1.0
  C  C59  1  0.66124000  0.88152000  0.64442000  1.0
  C  C60  1  0.41129000  0.20103000  0.16103000  1.0
  C  C61  1  0.58871000  0.79897000  0.83896000  1.0
  C  C62  1  0.38712000  0.09895000  0.11845000  1.0
  C  C63  1  0.61288000  0.90105000  0.88155000  1.0
  C  C64  1  0.04081000  0.66058000  0.60935000  1.0
  C  C65  1  0.95918000  0.33942000  0.39065000  1.0
  C  C66  1  0.20712000  0.81454000  0.57836000  1.0
  C  C67  1  0.79289000  0.18545000  0.42165000  1.0
  C  C68  1  0.27018000  0.90104000  0.50783000  1.0
  C  C69  1  0.72982000  0.09896000  0.49217000  1.0
  C  C70  1  0.44349000  0.57809000  0.20251000  1.0
  C  C71  1  0.55651000  0.42191000  0.79749000  1.0
  C  C72  1  0.33678000  0.00926000  0.19289000  1.0
  C  C73  1  0.66322000  0.99074000  0.80711000  1.0
  C  C74  1  0.35042000  0.35109000  0.55810000  1.0
  C  C75  1  0.64957000  0.64891000  0.44190000  1.0
  C  C76  1  0.39017000  0.20810000  0.28071000  1.0
  C  C77  1  0.60983000  0.79190000  0.71929000  1.0
  C  C78  1  0.28193000  0.47801000  0.52138000  1.0
  C  C79  1  0.71807000  0.52199000  0.47862000  1.0
  C  C80  1  0.53741000  0.46337000  0.15932000  1.0
  C  C81  1  0.46258000  0.53663000  0.84068000  1.0
  C  C82  1  0.06875000  0.78707000  0.41943000  1.0
  C  C83  1  0.93126000  0.21293000  0.58057000  1.0
  C  C84  1  0.45450000  0.30019000  0.07534000  1.0
  C  C85  1  0.54550000  0.69981000  0.92466000  1.0
  C  C86  1  0.26959000  0.59553000  0.18856000  1.0
  C  C87  1  0.73040000  0.40447000  0.81144000  1.0
  C  C88  1  0.13284000  0.87263000  0.34858000  1.0
  C  C89  1  0.86717000  0.12736000  0.65143000  1.0
  N  N90  1  0.42081000  0.41900000  0.12282000  1.0
  N  N91  1  0.57919000  0.58100000  0.87718000  1.0
  N  N92  1  0.15102000  0.44774000  0.69808000  1.0
  N  N93  1  0.84898000  0.55226000  0.30192000  1.0
  N  N94  1  0.16393000  0.53232000  0.60782000  1.0
  N  N95  1  0.83606000  0.46768000  0.39218000  1.0
  N  N96  1  0.25643000  0.49845000  0.14047000  1.0
  N  N97  1  0.74356000  0.50155000  0.85953000  1.0
  O  O98  1  0.12187000  0.28651000  0.93790000  1.0
  O  O99  1  0.87813000  0.71349000  0.06210000  1.0
  O  O100  1  0.93091000  0.30920000  0.09873000  1.0
  O  O101  1  0.06908000  0.69080000  0.90127000  1.0
