# generated using pymatgen
data_CdH9C6SN2O7
_symmetry_space_group_name_H-M   'P 1'
_cell_length_a   7.81029000
_cell_length_b   9.87199000
_cell_length_c   13.47700000
_cell_angle_alpha   92.18430000
_cell_angle_beta   90.00000000
_cell_angle_gamma   90.00000000
_symmetry_Int_Tables_number   1
_chemical_formula_structural   CdH9C6SN2O7
_chemical_formula_sum   'Cd4 H36 C24 S4 N8 O28'
_cell_volume   1038.36351726
_cell_formula_units_Z   4
loop_
 _symmetry_equiv_pos_site_id
 _symmetry_equiv_pos_as_xyz
  1  'x, y, z'
loop_
 _atom_site_type_symbol
 _atom_site_label
 _atom_site_symmetry_multiplicity
 _atom_site_fract_x
 _atom_site_fract_y
 _atom_site_fract_z
 _atom_site_occupancy
  Cd  Cd0  1  0.18233000  0.10678000  0.85813000  1.0
  Cd  Cd1  1  0.68233000  0.89323000  0.64188000  1.0
  Cd  Cd2  1  0.81767000  0.89322000  0.14188000  1.0
  Cd  Cd3  1  0.31767000  0.10678000  0.35812000  1.0
  H  H4  1  0.29506000  0.38536000  0.79781000  1.0
  H  H5  1  0.79507000  0.61464000  0.70219000  1.0
  H  H6  1  0.70494000  0.61463000  0.20219000  1.0
  H  H7  1  0.20494000  0.38536000  0.29781000  1.0
  H  H8  1  0.21312000  0.63373000  0.80288000  1.0
  H  H9  1  0.71312000  0.36627000  0.69712000  1.0
  H  H10  1  0.78689000  0.36627000  0.19712000  1.0
  H  H11  1  0.28689000  0.63373000  0.30288000  1.0
  H  H12  1  0.92958000  0.69979000  0.87468000  1.0
  H  H13  1  0.42958000  0.30021000  0.62531000  1.0
  H  H14  1  0.07042000  0.30021000  0.12531000  1.0
  H  H15  1  0.57042000  0.69979000  0.37469000  1.0
  H  H16  1  0.83013000  0.27597000  0.91991000  1.0
  H  H17  1  0.33013000  0.72403000  0.58010000  1.0
  H  H18  1  0.16987000  0.72403000  0.08010000  1.0
  H  H19  1  0.66987000  0.27597000  0.41991000  1.0
  H  H20  1  0.66551000  0.63507000  0.93494000  1.0
  H  H21  1  0.16551000  0.36493000  0.56506000  1.0
  H  H22  1  0.33449000  0.36493000  0.06506000  1.0
  H  H23  1  0.83449000  0.63507000  0.43494000  1.0
  H  H24  1  0.47705000  0.13838000  0.75773000  1.0
  H  H25  1  0.97705000  0.86161000  0.74227000  1.0
  H  H26  1  0.52295000  0.86161000  0.24227000  1.0
  H  H27  1  0.02295000  0.13838000  0.25773000  1.0
  H  H28  1  0.54332000  0.16111000  0.86810000  1.0
  H  H29  1  0.04332000  0.83889000  0.63190000  1.0
  H  H30  1  0.45668000  0.83889000  0.13190000  1.0
  H  H31  1  0.95668000  0.16111000  0.36810000  1.0
  H  H32  1  0.30289000  0.87154000  0.92998000  1.0
  H  H33  1  0.80289000  0.12846000  0.57002000  1.0
  H  H34  1  0.69711000  0.12846000  0.07002000  1.0
  H  H35  1  0.19711000  0.87154000  0.42998000  1.0
  H  H36  1  0.42789000  0.89248000  0.84148000  1.0
  H  H37  1  0.92790000  0.10752000  0.65851000  1.0
  H  H38  1  0.57210000  0.10752000  0.15851000  1.0
  H  H39  1  0.07210000  0.89248000  0.34149000  1.0
  C  C40  1  0.17084000  0.42027000  0.82512000  1.0
  C  C41  1  0.67084000  0.57973000  0.67487000  1.0
  C  C42  1  0.82915000  0.57973000  0.17487000  1.0
  C  C43  1  0.32916000  0.42027000  0.32512000  1.0
  C  C44  1  0.12544000  0.55661000  0.82843000  1.0
  C  C45  1  0.62544000  0.44339000  0.67157000  1.0
  C  C46  1  0.87456000  0.44339000  0.17157000  1.0
  C  C47  1  0.37456000  0.55661000  0.32843000  1.0
  C  C48  1  0.96722000  0.59380000  0.86750000  1.0
  C  C49  1  0.46722000  0.40621000  0.63250000  1.0
  C  C50  1  0.03278000  0.40620000  0.13250000  1.0
  C  C51  1  0.53278000  0.59380000  0.36750000  1.0
  C  C52  1  0.85623000  0.49353000  0.90078000  1.0
  C  C53  1  0.35623000  0.50647000  0.59922000  1.0
  C  C54  1  0.14377000  0.50647000  0.09922000  1.0
  C  C55  1  0.64377000  0.49353000  0.40078000  1.0
  C  C56  1  0.91045000  0.35768000  0.89470000  1.0
  C  C57  1  0.41045000  0.64232000  0.60530000  1.0
  C  C58  1  0.08955000  0.64232000  0.10530000  1.0
  C  C59  1  0.58955000  0.35768000  0.39470000  1.0
  C  C60  1  0.58006000  0.45851000  0.98620000  1.0
  C  C61  1  0.08006000  0.54149000  0.51380000  1.0
  C  C62  1  0.41994000  0.54149000  0.01380000  1.0
  C  C63  1  0.91994000  0.45851000  0.48620000  1.0
  S  S64  1  0.76633000  0.95120000  0.89522000  1.0
  S  S65  1  0.26633000  0.04880000  0.60478000  1.0
  S  S66  1  0.23367000  0.04880000  0.10478000  1.0
  S  S67  1  0.73367000  0.95120000  0.39522000  1.0
  N  N68  1  0.06542000  0.32378000  0.85797000  1.0
  N  N69  1  0.56542000  0.67622000  0.64204000  1.0
  N  N70  1  0.93458000  0.67622000  0.14203000  1.0
  N  N71  1  0.43458000  0.32378000  0.35797000  1.0
  N  N72  1  0.69651000  0.53415000  0.93793000  1.0
  N  N73  1  0.19651000  0.46586000  0.56207000  1.0
  N  N74  1  0.30349000  0.46586000  0.06207000  1.0
  N  N75  1  0.80349000  0.53414000  0.43793000  1.0
  O  O76  1  0.59394000  0.33875000  0.00810000  1.0
  O  O77  1  0.09394000  0.66125000  0.49190000  1.0
  O  O78  1  0.40606000  0.66126000  0.99190000  1.0
  O  O79  1  0.90606000  0.33875000  0.50810000  1.0
  O  O80  1  0.93966000  0.96606000  0.84927000  1.0
  O  O81  1  0.43966000  0.03394000  0.65073000  1.0
  O  O82  1  0.06034000  0.03394000  0.15073000  1.0
  O  O83  1  0.56034000  0.96606000  0.34927000  1.0
  O  O84  1  0.77478000  0.84971000  0.97427000  1.0
  O  O85  1  0.27478000  0.15029000  0.52573000  1.0
  O  O86  1  0.22522000  0.15029000  0.02573000  1.0
  O  O87  1  0.72522000  0.84971000  0.47427000  1.0
  O  O88  1  0.64679000  0.89632000  0.81637000  1.0
  O  O89  1  0.14679000  0.10368000  0.68363000  1.0
  O  O90  1  0.35321000  0.10368000  0.18363000  1.0
  O  O91  1  0.85321000  0.89632000  0.31637000  1.0
  O  O92  1  0.70500000  0.08364000  0.93609000  1.0
  O  O93  1  0.20500000  0.91636000  0.56391000  1.0
  O  O94  1  0.29500000  0.91636000  0.06391000  1.0
  O  O95  1  0.79500000  0.08364000  0.43609000  1.0
  O  O96  1  0.45538000  0.19135000  0.82047000  1.0
  O  O97  1  0.95538000  0.80865000  0.67953000  1.0
  O  O98  1  0.54462000  0.80865000  0.17953000  1.0
  O  O99  1  0.04462000  0.19135000  0.32047000  1.0
  O  O100  1  0.30412000  0.89166000  0.85866000  1.0
  O  O101  1  0.80413000  0.10834000  0.64134000  1.0
  O  O102  1  0.69587000  0.10834000  0.14134000  1.0
  O  O103  1  0.19587000  0.89166000  0.35866000  1.0
