# generated using pymatgen
data_ZnH16C24N5O8
_symmetry_space_group_name_H-M   'P 1'
_cell_length_a   12.06600000
_cell_length_b   13.29440000
_cell_length_c   19.02540000
_cell_angle_alpha   89.02590000
_cell_angle_beta   88.67100000
_cell_angle_gamma   88.77090000
_symmetry_Int_Tables_number   1
_chemical_formula_structural   ZnH16C24N5O8
_chemical_formula_sum   'Zn2 H32 C48 N10 O16'
_cell_volume   3049.93002908
_cell_formula_units_Z   2
loop_
 _symmetry_equiv_pos_site_id
 _symmetry_equiv_pos_as_xyz
  1  'x, y, z'
loop_
 _atom_site_type_symbol
 _atom_site_label
 _atom_site_symmetry_multiplicity
 _atom_site_fract_x
 _atom_site_fract_y
 _atom_site_fract_z
 _atom_site_occupancy
  Zn  Zn0  1  0.61807000  0.49616000  0.49870000  1.0
  Zn  Zn1  1  0.38169000  0.49512000  0.49804000  1.0
  H  H2  1  0.67521000  0.49662000  0.26239000  1.0
  H  H3  1  0.34899000  0.44018000  0.73869000  1.0
  H  H4  1  0.00899000  0.36565000  0.61132000  1.0
  H  H5  1  0.98777000  0.62938000  0.38100000  1.0
  H  H6  1  0.65960000  0.54055000  0.13450000  1.0
  H  H7  1  0.35442000  0.48233000  0.86591000  1.0
  H  H8  1  0.32944000  0.56706000  0.29350000  1.0
  H  H9  1  0.62314000  0.63632000  0.69747000  1.0
  H  H10  1  0.17236000  0.58510000  0.23534000  1.0
  H  H11  1  0.20343000  0.49839000  0.16584000  1.0
  H  H12  1  0.13115000  0.61489000  0.14730000  1.0
  H  H13  1  0.53838000  0.82407000  0.83207000  1.0
  H  H14  1  0.61125000  0.80866000  0.74946000  1.0
  H  H15  1  0.68519000  0.84312000  0.82607000  1.0
  H  H16  1  0.27932000  0.22583000  0.44780000  1.0
  H  H17  1  0.18324000  0.19756000  0.51914000  1.0
  H  H18  1  0.24119000  0.09744000  0.46750000  1.0
  H  H19  1  0.72408000  0.75470000  0.55660000  1.0
  H  H20  1  0.76928000  0.88264000  0.54278000  1.0
  H  H21  1  0.82462000  0.78474000  0.48815000  1.0
  H  H22  1  0.64674000  0.18784000  0.31057000  1.0
  H  H23  1  0.72909000  0.29296000  0.33323000  1.0
  H  H24  1  0.58580000  0.29177000  0.35871000  1.0
  H  H25  1  0.18276000  0.84720000  0.54155000  1.0
  H  H26  1  0.17198000  0.83643000  0.63521000  1.0
  H  H27  1  0.17346000  0.72474000  0.58292000  1.0
  H  H28  1  0.78526000  0.53804000  0.65513000  1.0
  H  H29  1  0.74840000  0.41546000  0.68526000  1.0
  H  H30  1  0.89293000  0.44673000  0.67641000  1.0
  H  H31  1  0.25710000  0.73191000  0.42446000  1.0
  H  H32  1  0.11056000  0.72492000  0.44312000  1.0
  H  H33  1  0.16239000  0.71226000  0.35412000  1.0
  C  C34  1  0.48981000  0.69351000  0.50756000  1.0
  C  C35  1  0.51312000  0.30007000  0.49104000  1.0
  C  C36  1  0.52209000  0.18719000  0.48284000  1.0
  C  C37  1  0.48602000  0.80551000  0.51978000  1.0
  C  C38  1  0.38017000  0.95636000  0.55700000  1.0
  C  C39  1  0.63361000  0.03659000  0.45168000  1.0
  C  C40  1  0.39255000  0.85125000  0.55494000  1.0
  C  C41  1  0.61697000  0.14124000  0.44971000  1.0
  C  C42  1  0.56983000  0.86697000  0.49293000  1.0
  C  C43  1  0.44144000  0.12475000  0.51277000  1.0
  C  C44  1  0.55552000  0.97379000  0.48827000  1.0
  C  C45  1  0.45795000  0.01843000  0.51896000  1.0
  C  C46  1  0.04372000  0.41614000  0.57147000  1.0
  C  C47  1  0.95467000  0.58474000  0.42469000  1.0
  C  C48  1  0.15765000  0.42112000  0.56202000  1.0
  C  C49  1  0.84079000  0.57439000  0.43169000  1.0
  C  C50  1  0.14325000  0.53732000  0.46913000  1.0
  C  C51  1  0.85653000  0.47351000  0.53242000  1.0
  C  C52  1  0.02417000  0.53541000  0.47332000  1.0
  C  C53  1  0.97529000  0.47498000  0.52740000  1.0
  C  C54  1  0.50475000  0.50588000  0.36230000  1.0
  C  C55  1  0.49023000  0.50979000  0.63410000  1.0
  C  C56  1  0.59618000  0.52101000  0.24078000  1.0
  C  C57  1  0.40909000  0.49286000  0.75748000  1.0
  C  C58  1  0.58744000  0.54615000  0.16988000  1.0
  C  C59  1  0.41261000  0.51604000  0.82821000  1.0
  C  C60  1  0.48588000  0.57861000  0.14132000  1.0
  C  C61  1  0.49032000  0.58349000  0.85373000  1.0
  C  C62  1  0.39176000  0.58760000  0.18685000  1.0
  C  C63  1  0.56557000  0.62846000  0.80513000  1.0
  C  C64  1  0.40056000  0.56051000  0.25755000  1.0
  C  C65  1  0.56375000  0.60266000  0.73443000  1.0
  C  C66  1  0.50185000  0.52772000  0.28491000  1.0
  C  C67  1  0.48667000  0.53511000  0.71037000  1.0
  C  C68  1  0.48680000  0.60246000  0.92946000  1.0
  C  C69  1  0.48125000  0.59922000  0.06541000  1.0
  C  C70  1  0.19549000  0.57853000  0.17915000  1.0
  C  C71  1  0.61706000  0.79870000  0.80694000  1.0
  C  C72  1  0.25722000  0.17156000  0.48976000  1.0
  C  C73  1  0.75066000  0.81136000  0.51729000  1.0
  C  C74  1  0.66088000  0.24484000  0.35054000  1.0
  C  C75  1  0.20582000  0.80090000  0.58756000  1.0
  C  C76  1  0.29729000  0.99702000  0.60365000  1.0
  C  C77  1  0.72966000  0.99947000  0.41431000  1.0
  C  C78  1  0.80984000  0.45819000  0.65497000  1.0
  C  C79  1  0.17955000  0.69725000  0.40969000  1.0
  C  C80  1  0.77458000  0.62740000  0.38111000  1.0
  C  C81  1  0.22427000  0.36261000  0.60949000  1.0
  N  N82  1  0.38501000  0.58635000  0.03174000  1.0
  N  N83  1  0.57780000  0.63202000  0.96295000  1.0
  N  N84  1  0.38652000  0.59229000  0.96275000  1.0
  N  N85  1  0.57372000  0.63445000  0.03231000  1.0
  N  N86  1  0.79238000  0.51974000  0.48566000  1.0
  N  N87  1  0.20655000  0.48156000  0.51154000  1.0
  N  N88  1  0.22897000  0.01956000  0.64549000  1.0
  N  N89  1  0.81101000  0.97763000  0.38303000  1.0
  N  N90  1  0.73538000  0.67771000  0.33693000  1.0
  N  N91  1  0.26580000  0.31315000  0.65321000  1.0
  O  O92  1  0.58396000  0.64893000  0.50838000  1.0
  O  O93  1  0.41762000  0.34185000  0.48927000  1.0
  O  O94  1  0.39805000  0.65322000  0.49487000  1.0
  O  O95  1  0.60412000  0.34340000  0.50116000  1.0
  O  O96  1  0.59852000  0.49471000  0.39142000  1.0
  O  O97  1  0.39789000  0.50280000  0.60359000  1.0
  O  O98  1  0.41071000  0.50160000  0.39365000  1.0
  O  O99  1  0.58585000  0.49940000  0.60554000  1.0
  O  O100  1  0.29591000  0.62910000  0.16119000  1.0
  O  O101  1  0.64212000  0.69604000  0.82638000  1.0
  O  O102  1  0.34452000  0.16361000  0.54003000  1.0
  O  O103  1  0.66625000  0.82701000  0.46578000  1.0
  O  O104  1  0.69565000  0.19605000  0.41481000  1.0
  O  O105  1  0.32430000  0.78799000  0.59082000  1.0
  O  O106  1  0.80495000  0.42062000  0.58355000  1.0
  O  O107  1  0.19749000  0.58941000  0.41915000  1.0
