# generated using pymatgen
data_AlH12C24(SO5)3
_symmetry_space_group_name_H-M   'P 1'
_cell_length_a   4.25220000
_cell_length_b   28.88859648
_cell_length_c   28.88700000
_cell_angle_alpha   59.99748472
_cell_angle_beta   89.99950000
_cell_angle_gamma   89.99999999
_symmetry_Int_Tables_number   1
_chemical_formula_structural   AlH12C24(SO5)3
_chemical_formula_sum   'Al2 H24 C48 S6 O30'
_cell_volume   3072.99738661
_cell_formula_units_Z   2
loop_
 _symmetry_equiv_pos_site_id
 _symmetry_equiv_pos_as_xyz
  1  'x, y, z'
loop_
 _atom_site_type_symbol
 _atom_site_label
 _atom_site_symmetry_multiplicity
 _atom_site_fract_x
 _atom_site_fract_y
 _atom_site_fract_z
 _atom_site_occupancy
  Al  Al0  1  0.02821000  0.50000000  0.00000000  1.0
  Al  Al1  1  0.02853000  0.16666000  0.66669000  1.0
  H  H2  1  0.78912000  0.30582000  0.51964000  1.0
  H  H3  1  0.78257000  0.35521000  0.41968000  1.0
  H  H4  1  0.31558000  0.17322000  0.52111000  1.0
  H  H5  1  0.31547000  0.49343000  0.14558000  1.0
  H  H6  1  0.78867000  0.36080000  0.14705000  1.0
  H  H7  1  0.78222000  0.31143000  0.24702000  1.0
  H  H8  1  0.78912000  0.17454000  0.80586000  1.0
  H  H9  1  0.78261000  0.22512000  0.85523000  1.0
  H  H10  1  0.31562000  0.30568000  0.67324000  1.0
  H  H11  1  0.31551000  0.36099000  0.99343000  1.0
  H  H12  1  0.78865000  0.49217000  0.86078000  1.0
  H  H13  1  0.78225000  0.44158000  0.81142000  1.0
  H  H14  1  0.78906000  0.01963000  0.67454000  1.0
  H  H15  1  0.78256000  0.91968000  0.72510000  1.0
  H  H16  1  0.31563000  0.02106000  0.80570000  1.0
  H  H17  1  0.31552000  0.64558000  0.86097000  1.0
  H  H18  1  0.78860000  0.64704000  0.99215000  1.0
  H  H19  1  0.78223000  0.74700000  0.94155000  1.0
  H  H20  1  0.85023000  0.22239000  0.37533000  1.0
  H  H21  1  0.85019000  0.44428000  0.29134000  1.0
  H  H22  1  0.85032000  0.40229000  0.72238000  1.0
  H  H23  1  0.85029000  0.26439000  0.94428000  1.0
  H  H24  1  0.85035000  0.87529000  0.90230000  1.0
  H  H25  1  0.85034000  0.79135000  0.76436000  1.0
  C  C26  1  0.53182000  0.58078000  0.96142000  1.0
  C  C27  1  0.53182000  0.45780000  0.08077000  1.0
  C  C28  1  0.53183000  0.46144000  0.95778000  1.0
  C  C29  1  0.53210000  0.20884000  0.58591000  1.0
  C  C30  1  0.53210000  0.20525000  0.70887000  1.0
  C  C31  1  0.53211000  0.08588000  0.70527000  1.0
  C  C32  1  0.54782000  0.23706000  0.52647000  1.0
  C  C33  1  0.68703000  0.28770000  0.49787000  1.0
  C  C34  1  0.68594000  0.31500000  0.44238000  1.0
  C  C35  1  0.56279000  0.29109000  0.41394000  1.0
  C  C36  1  0.43984000  0.23857000  0.44372000  1.0
  C  C37  1  0.42251000  0.21268000  0.49915000  1.0
  C  C38  1  0.56432000  0.32008000  0.35763000  1.0
  C  C39  1  0.56425000  0.34658000  0.30906000  1.0
  C  C40  1  0.56264000  0.37557000  0.25274000  1.0
  C  C41  1  0.43971000  0.42808000  0.22297000  1.0
  C  C42  1  0.42233000  0.45397000  0.16754000  1.0
  C  C43  1  0.54752000  0.42958000  0.14022000  1.0
  C  C44  1  0.68665000  0.37893000  0.16882000  1.0
  C  C45  1  0.68564000  0.35164000  0.22432000  1.0
  C  C46  1  0.54780000  0.23647000  0.73709000  1.0
  C  C47  1  0.68703000  0.21443000  0.78773000  1.0
  C  C48  1  0.68601000  0.24263000  0.81502000  1.0
  C  C49  1  0.56289000  0.29498000  0.79110000  1.0
  C  C50  1  0.43991000  0.31772000  0.73858000  1.0
  C  C51  1  0.42256000  0.28818000  0.71270000  1.0
  C  C52  1  0.56436000  0.32230000  0.82008000  1.0
  C  C53  1  0.56434000  0.34438000  0.84658000  1.0
  C  C54  1  0.56268000  0.37171000  0.87556000  1.0
  C  C55  1  0.43977000  0.34896000  0.92808000  1.0
  C  C56  1  0.42237000  0.37850000  0.95396000  1.0
  C  C57  1  0.54754000  0.43021000  0.92957000  1.0
  C  C58  1  0.68666000  0.45226000  0.87892000  1.0
  C  C59  1  0.68567000  0.42406000  0.85163000  1.0
  C  C60  1  0.54779000  0.02644000  0.73649000  1.0
  C  C61  1  0.68699000  0.99785000  0.71444000  1.0
  C  C62  1  0.68594000  0.94236000  0.74263000  1.0
  C  C63  1  0.56285000  0.91392000  0.79497000  1.0
  C  C64  1  0.43990000  0.94368000  0.81773000  1.0
  C  C65  1  0.42254000  0.99911000  0.78819000  1.0
  C  C66  1  0.56438000  0.85761000  0.82229000  1.0
  C  C67  1  0.56436000  0.80904000  0.84436000  1.0
  C  C68  1  0.56275000  0.75273000  0.87168000  1.0
  C  C69  1  0.43983000  0.72296000  0.84894000  1.0
  C  C70  1  0.42239000  0.66754000  0.87848000  1.0
  C  C71  1  0.54754000  0.64022000  0.93019000  1.0
  C  C72  1  0.68666000  0.66881000  0.95225000  1.0
  C  C73  1  0.68569000  0.72430000  0.92404000  1.0
  S  S74  1  0.30442000  0.20192000  0.41298000  1.0
  S  S75  1  0.30436000  0.46475000  0.25370000  1.0
  S  S76  1  0.30451000  0.38511000  0.70192000  1.0
  S  S77  1  0.30446000  0.28156000  0.96476000  1.0
  S  S78  1  0.30452000  0.91293000  0.88513000  1.0
  S  S79  1  0.30450000  0.75370000  0.78153000  1.0
  O  O80  1  0.29148000  0.45336000  0.98739000  1.0
  O  O81  1  0.29147000  0.55925000  0.95334000  1.0
  O  O82  1  0.29148000  0.48740000  0.05924000  1.0
  O  O83  1  0.75908000  0.49358000  0.94975000  1.0
  O  O84  1  0.75906000  0.44976000  0.05667000  1.0
  O  O85  1  0.75906000  0.55667000  0.99356000  1.0
  O  O86  1  0.29179000  0.10742000  0.71334000  1.0
  O  O87  1  0.29178000  0.17924000  0.60745000  1.0
  O  O88  1  0.29177000  0.21331000  0.67927000  1.0
  O  O89  1  0.75935000  0.10999000  0.67313000  1.0
  O  O90  1  0.75935000  0.17310000  0.71692000  1.0
  O  O91  1  0.75936000  0.21689000  0.61001000  1.0
  O  O92  1  0.56634000  0.19517000  0.38393000  1.0
  O  O93  1  0.15314000  0.15415000  0.45298000  1.0
  O  O94  1  0.07280000  0.24098000  0.36976000  1.0
  O  O95  1  0.56632000  0.47151000  0.28274000  1.0
  O  O96  1  0.15307000  0.51252000  0.21370000  1.0
  O  O97  1  0.07276000  0.42570000  0.29692000  1.0
  O  O98  1  0.56644000  0.42091000  0.69516000  1.0
  O  O99  1  0.15323000  0.39287000  0.65415000  1.0
  O  O100  1  0.07289000  0.38928000  0.74097000  1.0
  O  O101  1  0.56642000  0.24577000  0.97151000  1.0
  O  O102  1  0.15317000  0.27379000  0.01253000  1.0
  O  O103  1  0.07287000  0.27739000  0.92570000  1.0
  O  O104  1  0.56645000  0.88389000  0.92092000  1.0
  O  O105  1  0.15320000  0.95292000  0.89291000  1.0
  O  O106  1  0.07291000  0.86972000  0.88928000  1.0
  O  O107  1  0.56645000  0.78274000  0.74574000  1.0
  O  O108  1  0.15318000  0.71371000  0.77376000  1.0
  O  O109  1  0.07290000  0.79692000  0.77737000  1.0
