# generated using pymatgen
data_ZnH16C19N3O5
_symmetry_space_group_name_H-M   'P 1'
_cell_length_a   7.72525000
_cell_length_b   10.83860000
_cell_length_c   12.43550000
_cell_angle_alpha   67.40360000
_cell_angle_beta   73.65700000
_cell_angle_gamma   80.42310000
_symmetry_Int_Tables_number   1
_chemical_formula_structural   ZnH16C19N3O5
_chemical_formula_sum   'Zn2 H32 C38 N6 O10'
_cell_volume   920.46610941
_cell_formula_units_Z   2
loop_
 _symmetry_equiv_pos_site_id
 _symmetry_equiv_pos_as_xyz
  1  'x, y, z'
loop_
 _atom_site_type_symbol
 _atom_site_label
 _atom_site_symmetry_multiplicity
 _atom_site_fract_x
 _atom_site_fract_y
 _atom_site_fract_z
 _atom_site_occupancy
  Zn  Zn0  1  0.14877000  0.11839000  0.27076000  1.0
  Zn  Zn1  1  0.85123000  0.88161000  0.72924000  1.0
  H  H2  1  0.71770000  0.24757000  0.19141000  1.0
  H  H3  1  0.28231000  0.75243000  0.80859000  1.0
  H  H4  1  0.95454000  0.40096000  0.14545000  1.0
  H  H5  1  0.04546000  0.59904000  0.85455000  1.0
  H  H6  1  0.54959000  0.73101000  0.11582000  1.0
  H  H7  1  0.45041000  0.26899000  0.88418000  1.0
  H  H8  1  0.31528000  0.57766000  0.16332000  1.0
  H  H9  1  0.68471000  0.42234000  0.83668000  1.0
  H  H10  1  0.03168000  0.65343000  0.03974000  1.0
  H  H11  1  0.96832000  0.34657000  0.96026000  1.0
  H  H12  1  0.96581000  0.63475000  0.19265000  1.0
  H  H13  1  0.03419000  0.36525000  0.80734000  1.0
  H  H14  1  0.78989000  0.78863000  0.25763000  1.0
  H  H15  1  0.21011000  0.21137000  0.74238000  1.0
  H  H16  1  0.65141000  0.02784000  0.21346000  1.0
  H  H17  1  0.34859000  0.97216000  0.78654000  1.0
  H  H18  1  0.67735000  0.17434000  0.99883000  1.0
  H  H19  1  0.32265000  0.82566000  0.00117000  1.0
  H  H20  1  0.93863000  0.32892000  0.39280000  1.0
  H  H21  1  0.06137000  0.67108000  0.60720000  1.0
  H  H22  1  0.52153000  0.05933000  0.57395000  1.0
  H  H23  1  0.47847000  0.94067000  0.42605000  1.0
  H  H24  1  0.80710000  0.94747000  0.43820000  1.0
  H  H25  1  0.19290000  0.05253000  0.56180000  1.0
  H  H26  1  0.66492000  0.31660000  0.62136000  1.0
  H  H27  1  0.33508000  0.68340000  0.37864000  1.0
  H  H28  1  0.46415000  0.27055000  0.60880000  1.0
  H  H29  1  0.53585000  0.72945000  0.39120000  1.0
  H  H30  1  0.49973000  0.44824000  0.40042000  1.0
  H  H31  1  0.50027000  0.55176000  0.59959000  1.0
  H  H32  1  0.69106000  0.49979000  0.41864000  1.0
  H  H33  1  0.30894000  0.50021000  0.58136000  1.0
  C  C34  1  0.35008000  0.31260000  0.21815000  1.0
  C  C35  1  0.64993000  0.68739000  0.78185000  1.0
  C  C36  1  0.49974000  0.40222000  0.18148000  1.0
  C  C37  1  0.50026000  0.59778000  0.81851000  1.0
  C  C38  1  0.68114000  0.35375000  0.17421000  1.0
  C  C39  1  0.31886000  0.64625000  0.82579000  1.0
  C  C40  1  0.81454000  0.44007000  0.14800000  1.0
  C  C41  1  0.18546000  0.55993000  0.85200000  1.0
  C  C42  1  0.76897000  0.57639000  0.12889000  1.0
  C  C43  1  0.23103000  0.42361000  0.87111000  1.0
  C  C44  1  0.58904000  0.62538000  0.13164000  1.0
  C  C45  1  0.41096000  0.37462000  0.86835000  1.0
  C  C46  1  0.45564000  0.53927000  0.15780000  1.0
  C  C47  1  0.54436000  0.46074000  0.84220000  1.0
  C  C48  1  0.91585000  0.66365000  0.11135000  1.0
  C  C49  1  0.08415000  0.33635000  0.88865000  1.0
  C  C50  1  0.78315000  0.85741000  0.16801000  1.0
  C  C51  1  0.21685000  0.14259000  0.83199000  1.0
  C  C52  1  0.71282000  0.98749000  0.14274000  1.0
  C  C53  1  0.28718000  0.01251000  0.85727000  1.0
  C  C54  1  0.72462000  0.06893000  0.02200000  1.0
  C  C55  1  0.27537000  0.93107000  0.97800000  1.0
  C  C56  1  0.79879000  0.01979000  0.92998000  1.0
  C  C57  1  0.20122000  0.98021000  0.07001000  1.0
  C  C58  1  0.86095000  0.88089000  0.95927000  1.0
  C  C59  1  0.13904000  0.11911000  0.04073000  1.0
  C  C60  1  0.81961000  0.11605000  0.80131000  1.0
  C  C61  1  0.18040000  0.88395000  0.19868000  1.0
  C  C62  1  0.86364000  0.24073000  0.42376000  1.0
  C  C63  1  0.13636000  0.75927000  0.57624000  1.0
  C  C64  1  0.64759000  0.09911000  0.51445000  1.0
  C  C65  1  0.35241000  0.90089000  0.48555000  1.0
  C  C66  1  0.78938000  0.04416000  0.44811000  1.0
  C  C67  1  0.21062000  0.95584000  0.55189000  1.0
  C  C68  1  0.59333000  0.31497000  0.55688000  1.0
  C  C69  1  0.40667000  0.68503000  0.44313000  1.0
  C  C70  1  0.56052000  0.45500000  0.46794000  1.0
  C  C71  1  0.43948000  0.54500000  0.53206000  1.0
  N  N72  1  0.85441000  0.80600000  0.07984000  1.0
  N  N73  1  0.14559000  0.19400000  0.92016000  1.0
  N  N74  1  0.92306000  0.13391000  0.39188000  1.0
  N  N75  1  0.07694000  0.86609000  0.60812000  1.0
  N  N76  1  0.69664000  0.22318000  0.49755000  1.0
  N  N77  1  0.30335000  0.77682000  0.50246000  1.0
  O  O78  1  0.39153000  0.18583000  0.23536000  1.0
  O  O79  1  0.60848000  0.81417000  0.76464000  1.0
  O  O80  1  0.18839000  0.35951000  0.23341000  1.0
  O  O81  1  0.81162000  0.64049000  0.76658000  1.0
  O  O82  1  0.92514000  0.81934000  0.88648000  1.0
  O  O83  1  0.07485000  0.18066000  0.11352000  1.0
  O  O84  1  0.82993000  0.07039000  0.71762000  1.0
  O  O85  1  0.17007000  0.92961000  0.28238000  1.0
  O  O86  1  0.82566000  0.23752000  0.78187000  1.0
  O  O87  1  0.17434000  0.76248000  0.21813000  1.0
