# generated using pymatgen
data_ZnSiH20C24(N4F3)2
_symmetry_space_group_name_H-M   'P 1'
_cell_length_a   7.76452000
_cell_length_b   10.84690000
_cell_length_c   12.16390000
_cell_angle_alpha   85.64140000
_cell_angle_beta   77.66370000
_cell_angle_gamma   69.02310000
_symmetry_Int_Tables_number   1
_chemical_formula_structural   ZnSiH20C24(N4F3)2
_chemical_formula_sum   'Zn1 Si1 H20 C24 N8 F6'
_cell_volume   934.47282629
_cell_formula_units_Z   1
loop_
 _symmetry_equiv_pos_site_id
 _symmetry_equiv_pos_as_xyz
  1  'x, y, z'
loop_
 _atom_site_type_symbol
 _atom_site_label
 _atom_site_symmetry_multiplicity
 _atom_site_fract_x
 _atom_site_fract_y
 _atom_site_fract_z
 _atom_site_occupancy
  Zn  Zn0  1  0.50000000  0.00000000  0.50000000  1.0
  Si  Si1  1  0.00000000  0.00000000  0.50000000  1.0
  H  H2  1  0.75808000  0.11192000  0.32205000  1.0
  H  H3  1  0.12988000  0.11202000  0.67809000  1.0
  H  H4  1  0.24192000  0.88808000  0.67795000  1.0
  H  H5  1  0.87012000  0.88798000  0.32191000  1.0
  H  H6  1  0.72544000  0.27505000  0.16442000  1.0
  H  H7  1  0.99988000  0.27533000  0.83574000  1.0
  H  H8  1  0.27457000  0.72495000  0.83558000  1.0
  H  H9  1  0.00012000  0.72468000  0.16425000  1.0
  H  H10  1  0.12142000  0.38520000  0.26945000  1.0
  H  H11  1  0.49338000  0.38566000  0.72977000  1.0
  H  H12  1  0.87858000  0.61480000  0.73055000  1.0
  H  H13  1  0.50662000  0.61434000  0.27023000  1.0
  H  H14  1  0.24374000  0.50595000  0.11114000  1.0
  H  H15  1  0.25025000  0.50638000  0.88888000  1.0
  H  H16  1  0.75626000  0.49405000  0.88886000  1.0
  H  H17  1  0.74974000  0.49362000  0.11112000  1.0
  H  H18  1  0.17718000  0.20797000  0.41498000  1.0
  H  H19  1  0.61439000  0.20827000  0.58429000  1.0
  H  H20  1  0.82282000  0.79203000  0.58502000  1.0
  H  H21  1  0.38561000  0.79173000  0.41571000  1.0
  C  C22  1  0.61960000  0.17192000  0.30560000  1.0
  C  C23  1  0.20840000  0.17210000  0.69434000  1.0
  C  C24  1  0.38041000  0.82808000  0.69440000  1.0
  C  C25  1  0.79160000  0.82790000  0.30566000  1.0
  C  C26  1  0.60110000  0.26449000  0.21961000  1.0
  C  C27  1  0.13459000  0.26475000  0.78034000  1.0
  C  C28  1  0.39890000  0.73551000  0.78039000  1.0
  C  C29  1  0.86541000  0.73525000  0.21966000  1.0
  C  C30  1  0.26480000  0.32540000  0.27737000  1.0
  C  C31  1  0.40973000  0.32583000  0.72208000  1.0
  C  C32  1  0.73520000  0.67460000  0.72263000  1.0
  C  C33  1  0.59027000  0.67417000  0.27792000  1.0
  C  C34  1  0.38868000  0.44170000  0.11481000  1.0
  C  C35  1  0.16974000  0.44203000  0.88508000  1.0
  C  C36  1  0.61133000  0.55830000  0.88518000  1.0
  C  C37  1  0.83025000  0.55797000  0.11492000  1.0
  C  C38  1  0.41990000  0.34366000  0.20411000  1.0
  C  C39  1  0.23658000  0.34404000  0.79562000  1.0
  C  C40  1  0.58010000  0.65633000  0.79588000  1.0
  C  C41  1  0.76342000  0.65596000  0.20437000  1.0
  C  C42  1  0.29485000  0.22780000  0.35949000  1.0
  C  C43  1  0.47704000  0.22815000  0.63994000  1.0
  C  C44  1  0.70515000  0.77220000  0.64051000  1.0
  C  C45  1  0.52296000  0.77185000  0.36006000  1.0
  N  N46  1  0.46925000  0.15233000  0.37330000  1.0
  N  N47  1  0.37818000  0.15253000  0.62639000  1.0
  N  N48  1  0.53075000  0.84767000  0.62670000  1.0
  N  N49  1  0.62182000  0.84747000  0.37361000  1.0
  N  N50  1  0.52891000  0.45089000  0.03913000  1.0
  N  N51  1  0.02037000  0.45095000  0.96076000  1.0
  N  N52  1  0.47109000  0.54911000  0.96087000  1.0
  N  N53  1  0.97962000  0.54905000  0.03924000  1.0
  F  F54  1  0.22806000  0.99990000  0.49574000  1.0
  F  F55  1  0.77193000  0.00010000  0.50426000  1.0
  F  F56  1  0.08394000  0.83164000  0.50032000  1.0
  F  F57  1  0.91605000  0.16836000  0.49968000  1.0
  F  F58  1  0.95940000  0.00045000  0.64328000  1.0
  F  F59  1  0.04060000  0.99955000  0.35672000  1.0
