# generated using pymatgen
data_CdH6C10I2(Br2N)2
_symmetry_space_group_name_H-M   'P 1'
_cell_length_a   4.13955000
_cell_length_b   14.68370000
_cell_length_c   14.68400000
_cell_angle_alpha   91.20310000
_cell_angle_beta   96.42220000
_cell_angle_gamma   96.42150000
_symmetry_Int_Tables_number   1
_chemical_formula_structural   CdH6C10I2(Br2N)2
_chemical_formula_sum   'Cd2 H12 C20 I4 Br8 N4'
_cell_volume   880.87764954
_cell_formula_units_Z   2
loop_
 _symmetry_equiv_pos_site_id
 _symmetry_equiv_pos_as_xyz
  1  'x, y, z'
loop_
 _atom_site_type_symbol
 _atom_site_label
 _atom_site_symmetry_multiplicity
 _atom_site_fract_x
 _atom_site_fract_y
 _atom_site_fract_z
 _atom_site_occupancy
  Cd  Cd0  1  0.99998000  0.00000000  0.00000000  1.0
  Cd  Cd1  1  0.00002000  0.50000000  0.50000000  1.0
  H  H2  1  0.93740000  0.77569000  0.97392000  1.0
  H  H3  1  0.93743000  0.97392000  0.77569000  1.0
  H  H4  1  0.06254000  0.22430000  0.02608000  1.0
  H  H5  1  0.06253000  0.02608000  0.22430000  1.0
  H  H6  1  0.20708000  0.70659000  0.70659000  1.0
  H  H7  1  0.79294000  0.29342000  0.29341000  1.0
  H  H8  1  0.75086000  0.52479000  0.28279000  1.0
  H  H9  1  0.75082000  0.28278000  0.52480000  1.0
  H  H10  1  0.24919000  0.47521000  0.71722000  1.0
  H  H11  1  0.24920000  0.71722000  0.47521000  1.0
  H  H12  1  0.00000000  0.80232000  0.19768000  1.0
  H  H13  1  0.00001000  0.19767000  0.80232000  1.0
  C  C14  1  0.97557000  0.79274000  0.90373000  1.0
  C  C15  1  0.97560000  0.90374000  0.79274000  1.0
  C  C16  1  0.02437000  0.20726000  0.09626000  1.0
  C  C17  1  0.02437000  0.09627000  0.20724000  1.0
  C  C18  1  0.06863000  0.72913000  0.84275000  1.0
  C  C19  1  0.06868000  0.84274000  0.72912000  1.0
  C  C20  1  0.93131000  0.27088000  0.15725000  1.0
  C  C21  1  0.93133000  0.15725000  0.27087000  1.0
  C  C22  1  0.12331000  0.75422000  0.75421000  1.0
  C  C23  1  0.87669000  0.24580000  0.24578000  1.0
  C  C24  1  0.86085000  0.59541000  0.29685000  1.0
  C  C25  1  0.86082000  0.29683000  0.59542000  1.0
  C  C26  1  0.13917000  0.40458000  0.70315000  1.0
  C  C27  1  0.13922000  0.70316000  0.40459000  1.0
  C  C28  1  0.85502000  0.66087000  0.22937000  1.0
  C  C29  1  0.85500000  0.22937000  0.66088000  1.0
  C  C30  1  0.14500000  0.33912000  0.77063000  1.0
  C  C31  1  0.14500000  0.77063000  0.33912000  1.0
  C  C32  1  0.00001000  0.75041000  0.24959000  1.0
  C  C33  1  0.00002000  0.24959000  0.75042000  1.0
  I  I34  1  0.49998000  0.89998000  0.10001000  1.0
  I  I35  1  0.49999000  0.10002000  0.89998000  1.0
  I  I36  1  0.58526000  0.60402000  0.60402000  1.0
  I  I37  1  0.41477000  0.39598000  0.39599000  1.0
  Br  Br38  1  0.13028000  0.60862000  0.88039000  1.0
  Br  Br39  1  0.13033000  0.88040000  0.60863000  1.0
  Br  Br40  1  0.86971000  0.39138000  0.11961000  1.0
  Br  Br41  1  0.86971000  0.11961000  0.39139000  1.0
  Br  Br42  1  0.64551000  0.62750000  0.10962000  1.0
  Br  Br43  1  0.64548000  0.10961000  0.62750000  1.0
  Br  Br44  1  0.35453000  0.37250000  0.89039000  1.0
  Br  Br45  1  0.35452000  0.89039000  0.37250000  1.0
  N  N46  1  0.93743000  0.87859000  0.87857000  1.0
  N  N47  1  0.06252000  0.12142000  0.12140000  1.0
  N  N48  1  0.00002000  0.61740000  0.38260000  1.0
  N  N49  1  0.00001000  0.38260000  0.61741000  1.0
