# generated using pymatgen
data_CoH18C21N2O5
_symmetry_space_group_name_H-M   'P 1'
_cell_length_a   9.33947000
_cell_length_b   10.19850000
_cell_length_c   11.43130000
_cell_angle_alpha   74.04510000
_cell_angle_beta   80.08670000
_cell_angle_gamma   64.76580000
_symmetry_Int_Tables_number   1
_chemical_formula_structural   CoH18C21N2O5
_chemical_formula_sum   'Co2 H36 C42 N4 O10'
_cell_volume   945.07867156
_cell_formula_units_Z   2
loop_
 _symmetry_equiv_pos_site_id
 _symmetry_equiv_pos_as_xyz
  1  'x, y, z'
loop_
 _atom_site_type_symbol
 _atom_site_label
 _atom_site_symmetry_multiplicity
 _atom_site_fract_x
 _atom_site_fract_y
 _atom_site_fract_z
 _atom_site_occupancy
  Co  Co0  1  0.45624000  0.37231000  0.38466000  1.0
  Co  Co1  1  0.54376000  0.62769000  0.61534000  1.0
  H  H2  1  0.57251000  0.07823000  0.57593000  1.0
  H  H3  1  0.42749000  0.92177000  0.42407000  1.0
  H  H4  1  0.66720000  0.78476000  0.93258000  1.0
  H  H5  1  0.33279000  0.21524000  0.06743000  1.0
  H  H6  1  0.69019000  0.21423000  0.85751000  1.0
  H  H7  1  0.30981000  0.78577000  0.14249000  1.0
  H  H8  1  0.84195000  0.08240000  0.03202000  1.0
  H  H9  1  0.15805000  0.91759000  0.96798000  1.0
  H  H10  1  0.74221000  0.02450000  0.17264000  1.0
  H  H11  1  0.25779000  0.97550000  0.82736000  1.0
  H  H12  1  0.63156000  0.17646000  0.05746000  1.0
  H  H13  1  0.36844000  0.82354000  0.94254000  1.0
  H  H14  1  0.47536000  0.55792000  0.13428000  1.0
  H  H15  1  0.52464000  0.44208000  0.86572000  1.0
  H  H16  1  0.66656000  0.55784000  0.95121000  1.0
  H  H17  1  0.33344000  0.44217000  0.04879000  1.0
  H  H18  1  0.01983000  0.17956000  0.16796000  1.0
  H  H19  1  0.98017000  0.82043000  0.83203000  1.0
  H  H20  1  0.81140000  0.19275000  0.34001000  1.0
  H  H21  1  0.18860000  0.80724000  0.65999000  1.0
  H  H22  1  0.09685000  0.28765000  0.96140000  1.0
  H  H23  1  0.90316000  0.71234000  0.03859000  1.0
  H  H24  1  0.98014000  0.47895000  0.90675000  1.0
  H  H25  1  0.01987000  0.52105000  0.09325000  1.0
  H  H26  1  0.93654000  0.22085000  0.85129000  1.0
  H  H27  1  0.06347000  0.77915000  0.14871000  1.0
  H  H28  1  0.81361000  0.41196000  0.80255000  1.0
  H  H29  1  0.18639000  0.58804000  0.19745000  1.0
  H  H30  1  0.21805000  0.57560000  0.53994000  1.0
  H  H31  1  0.78194000  0.42441000  0.46006000  1.0
  H  H32  1  0.01603000  0.57126000  0.71111000  1.0
  H  H33  1  0.98397000  0.42875000  0.28889000  1.0
  H  H34  1  0.10423000  0.12925000  0.68428000  1.0
  H  H35  1  0.89577000  0.87075000  0.31572000  1.0
  H  H36  1  0.30285000  0.15028000  0.51550000  1.0
  H  H37  1  0.69716000  0.84972000  0.48450000  1.0
  C  C38  1  0.63221000  0.15936000  0.70853000  1.0
  C  C39  1  0.36779000  0.84063000  0.29147000  1.0
  C  C40  1  0.60338000  0.05524000  0.66916000  1.0
  C  C41  1  0.39662000  0.94475000  0.33084000  1.0
  C  C42  1  0.61632000  0.92007000  0.74993000  1.0
  C  C43  1  0.38367000  0.07992000  0.25008000  1.0
  C  C44  1  0.65674000  0.88965000  0.86930000  1.0
  C  C45  1  0.34326000  0.11035000  0.13071000  1.0
  C  C46  1  0.67926000  0.99691000  0.90996000  1.0
  C  C47  1  0.32074000  0.00309000  0.09005000  1.0
  C  C48  1  0.66942000  0.13075000  0.82934000  1.0
  C  C49  1  0.33058000  0.86925000  0.17066000  1.0
  C  C50  1  0.62110000  0.30320000  0.62238000  1.0
  C  C51  1  0.37890000  0.69680000  0.37762000  1.0
  C  C52  1  0.58625000  0.80907000  0.70671000  1.0
  C  C53  1  0.41374000  0.19093000  0.29330000  1.0
  C  C54  1  0.73298000  0.06785000  0.07433000  1.0
  C  C55  1  0.26702000  0.93214000  0.92567000  1.0
  C  C56  1  0.59703000  0.47529000  0.13700000  1.0
  C  C57  1  0.40298000  0.52471000  0.86300000  1.0
  C  C58  1  0.70378000  0.47520000  0.03630000  1.0
  C  C59  1  0.29622000  0.52480000  0.96370000  1.0
  C  C60  1  0.86018000  0.36805000  0.04392000  1.0
  C  C61  1  0.13982000  0.63195000  0.95608000  1.0
  C  C62  1  0.89965000  0.26488000  0.15561000  1.0
  C  C63  1  0.10035000  0.73512000  0.84438000  1.0
  C  C64  1  0.78479000  0.27177000  0.25213000  1.0
  C  C65  1  0.21521000  0.72823000  0.74787000  1.0
  C  C66  1  0.97737000  0.36791000  0.93595000  1.0
  C  C67  1  0.02263000  0.63209000  0.06405000  1.0
  C  C68  1  0.93459000  0.33363000  0.82659000  1.0
  C  C69  1  0.06541000  0.66637000  0.17341000  1.0
  C  C70  1  0.18838000  0.47898000  0.57388000  1.0
  C  C71  1  0.81162000  0.52102000  0.42612000  1.0
  C  C72  1  0.07723000  0.47462000  0.67095000  1.0
  C  C73  1  0.92277000  0.52539000  0.32905000  1.0
  C  C74  1  0.04575000  0.34664000  0.71655000  1.0
  C  C75  1  0.95425000  0.65337000  0.28345000  1.0
  C  C76  1  0.12541000  0.23102000  0.65563000  1.0
  C  C77  1  0.87459000  0.76898000  0.34436000  1.0
  C  C78  1  0.23548000  0.24312000  0.55911000  1.0
  C  C79  1  0.76452000  0.75688000  0.44089000  1.0
  N  N80  1  0.63507000  0.37522000  0.24394000  1.0
  N  N81  1  0.36493000  0.62478000  0.75606000  1.0
  N  N82  1  0.26957000  0.36450000  0.51864000  1.0
  N  N83  1  0.73043000  0.63551000  0.48136000  1.0
  O  O84  1  0.60421000  0.31923000  0.51009000  1.0
  O  O85  1  0.39580000  0.68076000  0.48991000  1.0
  O  O86  1  0.63437000  0.40075000  0.66441000  1.0
  O  O87  1  0.36563000  0.59925000  0.33558000  1.0
  O  O88  1  0.48160000  0.85548000  0.62940000  1.0
  O  O89  1  0.51839000  0.14453000  0.37061000  1.0
  O  O90  1  0.66666667  0.66984000  0.74477000  1.0
  O  O91  1  0.33333333  0.33016000  0.25523000  1.0
  O  O92  1  0.71044000  0.96059000  0.02994000  1.0
  O  O93  1  0.28956000  0.03941000  0.97006000  1.0
