# generated using pymatgen
data_ZnH13C14N2O5
_symmetry_space_group_name_H-M   'P 1'
_cell_length_a   8.01027000
_cell_length_b   9.30890000
_cell_length_c   9.73867000
_cell_angle_alpha   98.73880000
_cell_angle_beta   93.95100000
_cell_angle_gamma   110.66000000
_symmetry_Int_Tables_number   1
_chemical_formula_structural   ZnH13C14N2O5
_chemical_formula_sum   'Zn2 H26 C28 N4 O10'
_cell_volume   665.67491494
_cell_formula_units_Z   2
loop_
 _symmetry_equiv_pos_site_id
 _symmetry_equiv_pos_as_xyz
  1  'x, y, z'
loop_
 _atom_site_type_symbol
 _atom_site_label
 _atom_site_symmetry_multiplicity
 _atom_site_fract_x
 _atom_site_fract_y
 _atom_site_fract_z
 _atom_site_occupancy
  Zn  Zn0  1  0.61715000  0.66977000  0.50811000  1.0
  Zn  Zn1  1  0.38284000  0.33023000  0.49189000  1.0
  H  H2  1  0.43740000  0.88262000  0.89544000  1.0
  H  H3  1  0.56260000  0.11738000  0.10456000  1.0
  H  H4  1  0.29398000  0.91432000  0.11354000  1.0
  H  H5  1  0.70603000  0.08568000  0.88646000  1.0
  H  H6  1  0.16453000  0.42539000  0.12287000  1.0
  H  H7  1  0.83547000  0.57461000  0.87712000  1.0
  H  H8  1  0.30346000  0.39626000  0.90732000  1.0
  H  H9  1  0.69654000  0.60374000  0.09268000  1.0
  H  H10  1  0.98760000  0.60979000  0.39399000  1.0
  H  H11  1  0.01239000  0.39021000  0.60601000  1.0
  H  H12  1  0.97142000  0.46491000  0.24643000  1.0
  H  H13  1  0.02858000  0.53509000  0.75356000  1.0
  H  H14  1  0.90254000  0.79572000  0.29601000  1.0
  H  H15  1  0.09746000  0.20428000  0.70399000  1.0
  H  H16  1  0.64349000  0.03236000  0.55679000  1.0
  H  H17  1  0.35651000  0.96764000  0.44321000  1.0
  H  H18  1  0.81125000  0.21963000  0.37289000  1.0
  H  H19  1  0.18875000  0.78037000  0.62710000  1.0
  H  H20  1  0.13973000  0.10830000  0.23407000  1.0
  H  H21  1  0.86027000  0.89169000  0.76593000  1.0
  H  H22  1  0.98376000  0.19020000  0.18185000  1.0
  H  H23  1  0.01624000  0.80980000  0.81815000  1.0
  H  H24  1  0.79921000  0.93387000  0.01984000  1.0
  H  H25  1  0.20079000  0.06613000  0.98016000  1.0
  H  H26  1  0.96094000  0.85577000  0.06888000  1.0
  H  H27  1  0.03905000  0.14423000  0.93113000  1.0
  C  C28  1  0.44677000  0.60925000  0.75008000  1.0
  C  C29  1  0.55323000  0.39075000  0.24992000  1.0
  C  C30  1  0.37640000  0.63613000  0.88575000  1.0
  C  C31  1  0.62361000  0.36387000  0.11425000  1.0
  C  C32  1  0.37667000  0.78323000  0.94598000  1.0
  C  C33  1  0.62333000  0.21678000  0.05402000  1.0
  C  C34  1  0.29559000  0.80110000  0.06589000  1.0
  C  C35  1  0.70441000  0.19890000  0.93411000  1.0
  C  C36  1  0.21348000  0.67169000  0.12826000  1.0
  C  C37  1  0.78652000  0.32831000  0.87174000  1.0
  C  C38  1  0.22076000  0.52600000  0.07326000  1.0
  C  C39  1  0.77924000  0.47400000  0.92674000  1.0
  C  C40  1  0.29995000  0.50945000  0.95236000  1.0
  C  C41  1  0.70006000  0.49055000  0.04764000  1.0
  C  C42  1  0.21885000  0.54265000  0.39184000  1.0
  C  C43  1  0.78115000  0.45735000  0.60816000  1.0
  C  C44  1  0.06376000  0.57238000  0.31582000  1.0
  C  C45  1  0.93624000  0.42761000  0.68418000  1.0
  C  C46  1  0.85333000  0.88347000  0.34311000  1.0
  C  C47  1  0.14667000  0.11653000  0.65689000  1.0
  C  C48  1  0.72099000  0.00981000  0.47517000  1.0
  C  C49  1  0.27901000  0.99019000  0.52483000  1.0
  C  C50  1  0.80321000  0.10397000  0.38489000  1.0
  C  C51  1  0.19679000  0.89603000  0.61511000  1.0
  C  C52  1  0.99766000  0.07980000  0.19470000  1.0
  C  C53  1  0.00234000  0.92020000  0.80530000  1.0
  C  C54  1  0.94324000  0.96505000  0.05528000  1.0
  C  C55  1  0.05676000  0.03495000  0.94473000  1.0
  N  N56  1  0.88638000  0.02252000  0.30230000  1.0
  N  N57  1  0.11362000  0.97748000  0.69771000  1.0
  N  N58  1  0.75286000  0.87225000  0.44777000  1.0
  N  N59  1  0.24714000  0.12774000  0.55223000  1.0
  O  O60  1  0.55628000  0.72649000  0.70785000  1.0
  O  O61  1  0.44372000  0.27352000  0.29215000  1.0
  O  O62  1  0.38852000  0.46853000  0.68399000  1.0
  O  O63  1  0.61148000  0.53148000  0.31601000  1.0
  O  O64  1  0.18532000  0.40269000  0.40915000  1.0
  O  O65  1  0.81468000  0.59731000  0.59084000  1.0
  O  O66  1  0.36273000  0.65942000  0.43229000  1.0
  O  O67  1  0.63727000  0.34058000  0.56771000  1.0
  O  O68  1  0.12652000  0.69723000  0.24001000  1.0
  O  O69  1  0.87348000  0.30277000  0.75999000  1.0
