# generated using pymatgen
data_ZnH8C10(NO2)3
_symmetry_space_group_name_H-M   'P 1'
_cell_length_a   7.06049000
_cell_length_b   8.40669000
_cell_length_c   19.14700000
_cell_angle_alpha   90.00000000
_cell_angle_beta   99.52340000
_cell_angle_gamma   90.00000000
_symmetry_Int_Tables_number   1
_chemical_formula_structural   ZnH8C10(NO2)3
_chemical_formula_sum   'Zn4 H32 C40 N12 O24'
_cell_volume   1120.81410286
_cell_formula_units_Z   4
loop_
 _symmetry_equiv_pos_site_id
 _symmetry_equiv_pos_as_xyz
  1  'x, y, z'
loop_
 _atom_site_type_symbol
 _atom_site_label
 _atom_site_symmetry_multiplicity
 _atom_site_fract_x
 _atom_site_fract_y
 _atom_site_fract_z
 _atom_site_occupancy
  Zn  Zn0  1  0.39261000  0.60589000  0.14132000  1.0
  Zn  Zn1  1  0.60739000  0.10589000  0.35868000  1.0
  Zn  Zn2  1  0.60739000  0.39411000  0.85868000  1.0
  Zn  Zn3  1  0.39261000  0.89411000  0.64132000  1.0
  H  H4  1  0.92950000  0.69424000  0.18138000  1.0
  H  H5  1  0.07050000  0.19424000  0.31862000  1.0
  H  H6  1  0.07049000  0.30577000  0.81862000  1.0
  H  H7  1  0.92950000  0.80576000  0.68138000  1.0
  H  H8  1  0.66901000  0.00537000  0.15323000  1.0
  H  H9  1  0.33098000  0.50537000  0.34677000  1.0
  H  H10  1  0.33099000  0.99463000  0.84678000  1.0
  H  H11  1  0.66902000  0.49463000  0.65323000  1.0
  H  H12  1  0.96424000  0.10594000  0.11184000  1.0
  H  H13  1  0.03576000  0.60594000  0.38816000  1.0
  H  H14  1  0.03576000  0.89406000  0.88816000  1.0
  H  H15  1  0.96424000  0.39406000  0.61184000  1.0
  H  H16  1  0.81726000  0.80158000  0.92806000  1.0
  H  H17  1  0.18275000  0.30158000  0.57194000  1.0
  H  H18  1  0.18275000  0.19842000  0.07194000  1.0
  H  H19  1  0.81725000  0.69842000  0.42806000  1.0
  H  H20  1  0.53696000  0.70921000  0.97936000  1.0
  H  H21  1  0.46303000  0.20921000  0.52064000  1.0
  H  H22  1  0.46304000  0.29079000  0.02064000  1.0
  H  H23  1  0.53696000  0.79079000  0.47936000  1.0
  H  H24  1  0.06036000  0.49775000  0.06814000  1.0
  H  H25  1  0.93964000  0.99775000  0.43186000  1.0
  H  H26  1  0.93964000  0.50225000  0.93186000  1.0
  H  H27  1  0.06036000  0.00225000  0.56814000  1.0
  H  H28  1  0.16943000  0.58868000  0.01175000  1.0
  H  H29  1  0.83057000  0.08868000  0.48825000  1.0
  H  H30  1  0.83057000  0.41132000  0.98825000  1.0
  H  H31  1  0.16943000  0.91132000  0.51175000  1.0
  H  H32  1  0.91222000  0.83513000  0.29685000  1.0
  H  H33  1  0.08778000  0.33513000  0.20315000  1.0
  H  H34  1  0.08778000  0.16487000  0.70315000  1.0
  H  H35  1  0.91222000  0.66487000  0.79685000  1.0
  C  C36  1  0.05431000  0.73505000  0.21759000  1.0
  C  C37  1  0.94570000  0.23504000  0.28241000  1.0
  C  C38  1  0.94569000  0.26496000  0.78241000  1.0
  C  C39  1  0.05430000  0.76495000  0.71759000  1.0
  C  C40  1  0.34702000  0.79355000  0.26709000  1.0
  C  C41  1  0.65298000  0.29354000  0.23291000  1.0
  C  C42  1  0.65298000  0.20646000  0.73291000  1.0
  C  C43  1  0.34702000  0.70645000  0.76709000  1.0
  C  C44  1  0.22459000  0.85036000  0.31169000  1.0
  C  C45  1  0.77541000  0.35035000  0.18831000  1.0
  C  C46  1  0.77541000  0.14965000  0.68831000  1.0
  C  C47  1  0.22459000  0.64963000  0.81169000  1.0
  C  C48  1  0.55935000  0.78675000  0.27005000  1.0
  C  C49  1  0.44065000  0.28675000  0.22995000  1.0
  C  C50  1  0.44065000  0.21325000  0.72995000  1.0
  C  C51  1  0.55934000  0.71326000  0.77004000  1.0
  C  C52  1  0.25610000  0.91747000  0.38440000  1.0
  C  C53  1  0.74390000  0.41747000  0.11560000  1.0
  C  C54  1  0.74388000  0.08253000  0.61560000  1.0
  C  C55  1  0.25609000  0.58253000  0.88440000  1.0
  C  C56  1  0.71265000  0.96692000  0.10409000  1.0
  C  C57  1  0.28736000  0.46692000  0.39591000  1.0
  C  C58  1  0.28736000  0.03308000  0.89591000  1.0
  C  C59  1  0.71264000  0.53308000  0.60409000  1.0
  C  C60  1  0.87449000  0.01969000  0.07964000  1.0
  C  C61  1  0.12550000  0.51969000  0.42036000  1.0
  C  C62  1  0.12550000  0.98031000  0.92036000  1.0
  C  C63  1  0.87450000  0.48031000  0.57964000  1.0
  C  C64  1  0.91756000  0.96829000  0.01420000  1.0
  C  C65  1  0.08244000  0.46829000  0.48580000  1.0
  C  C66  1  0.08245000  0.03171000  0.98580000  1.0
  C  C67  1  0.91756000  0.53171000  0.51420000  1.0
  C  C68  1  0.79338000  0.85330000  0.97798000  1.0
  C  C69  1  0.20661000  0.35330000  0.52202000  1.0
  C  C70  1  0.20662000  0.14670000  0.02202000  1.0
  C  C71  1  0.79338000  0.64670000  0.47798000  1.0
  C  C72  1  0.63459000  0.80022000  0.00441000  1.0
  C  C73  1  0.36542000  0.30022000  0.49559000  1.0
  C  C74  1  0.36542000  0.19979000  0.99559000  1.0
  C  C75  1  0.63458000  0.69978000  0.50441000  1.0
  N  N76  1  0.23701000  0.72084000  0.20975000  1.0
  N  N77  1  0.76299000  0.22083000  0.29025000  1.0
  N  N78  1  0.76298000  0.27917000  0.79025000  1.0
  N  N79  1  0.23701000  0.77916000  0.70975000  1.0
  N  N80  1  0.04149000  0.81034000  0.27895000  1.0
  N  N81  1  0.95852000  0.31034000  0.22105000  1.0
  N  N82  1  0.95851000  0.18966000  0.72105000  1.0
  N  N83  1  0.04148000  0.68965000  0.77895000  1.0
  N  N84  1  0.59076000  0.86125000  0.06583000  1.0
  N  N85  1  0.40924000  0.36125000  0.43417000  1.0
  N  N86  1  0.40924000  0.13875000  0.93417000  1.0
  N  N87  1  0.59076000  0.63875000  0.56583000  1.0
  O  O88  1  0.61879000  0.69143000  0.22695000  1.0
  O  O89  1  0.38121000  0.19144000  0.27305000  1.0
  O  O90  1  0.38120000  0.30857000  0.77305000  1.0
  O  O91  1  0.61879000  0.80856000  0.72695000  1.0
  O  O92  1  0.67204000  0.87360000  0.31356000  1.0
  O  O93  1  0.32796000  0.37360000  0.18644000  1.0
  O  O94  1  0.32796000  0.12640000  0.68644000  1.0
  O  O95  1  0.67205000  0.62639000  0.81356000  1.0
  O  O96  1  0.40746000  0.99517000  0.40763000  1.0
  O  O97  1  0.59255000  0.49517000  0.09237000  1.0
  O  O98  1  0.59255000  0.00484000  0.59237000  1.0
  O  O99  1  0.40746000  0.50483000  0.90764000  1.0
  O  O100  1  0.12607000  0.88569000  0.42119000  1.0
  O  O101  1  0.87393000  0.38569000  0.07880000  1.0
  O  O102  1  0.87394000  0.11431000  0.57880000  1.0
  O  O103  1  0.12607000  0.61431000  0.92119000  1.0
  O  O104  1  0.42972000  0.82275000  0.08740000  1.0
  O  O105  1  0.57028000  0.32275000  0.41260000  1.0
  O  O106  1  0.57028000  0.17725000  0.91260000  1.0
  O  O107  1  0.42972000  0.67725000  0.58740000  1.0
  O  O108  1  0.16149000  0.57617000  0.06286000  1.0
  O  O109  1  0.83851000  0.07618000  0.43714000  1.0
  O  O110  1  0.83851000  0.42382000  0.93714000  1.0
  O  O111  1  0.16148000  0.92383000  0.56286000  1.0
