# generated using pymatgen
data_ZnH15C18(NO2)2
_symmetry_space_group_name_H-M   'P 1'
_cell_length_a   10.25150000
_cell_length_b   12.40780000
_cell_length_c   16.56880000
_cell_angle_alpha   90.00000000
_cell_angle_beta   89.99920000
_cell_angle_gamma   111.97600000
_symmetry_Int_Tables_number   1
_chemical_formula_structural   ZnH15C18(NO2)2
_chemical_formula_sum   'Zn4 H60 C72 N8 O16'
_cell_volume   1954.39602872
_cell_formula_units_Z   4
loop_
 _symmetry_equiv_pos_site_id
 _symmetry_equiv_pos_as_xyz
  1  'x, y, z'
loop_
 _atom_site_type_symbol
 _atom_site_label
 _atom_site_symmetry_multiplicity
 _atom_site_fract_x
 _atom_site_fract_y
 _atom_site_fract_z
 _atom_site_occupancy
  Zn  Zn0  1  0.80430000  0.72443000  0.72886000  1.0
  Zn  Zn1  1  0.19571000  0.77557000  0.22886000  1.0
  Zn  Zn2  1  0.19570000  0.27557000  0.27114000  1.0
  Zn  Zn3  1  0.80430000  0.22442000  0.77114000  1.0
  H  H4  1  0.95366000  0.67539000  0.46155000  1.0
  H  H5  1  0.04637000  0.82463000  0.96156000  1.0
  H  H6  1  0.04632000  0.32461000  0.53843000  1.0
  H  H7  1  0.95366000  0.17538000  0.03845000  1.0
  H  H8  1  0.38685000  0.77035000  0.09694000  1.0
  H  H9  1  0.61316000  0.72965000  0.59695000  1.0
  H  H10  1  0.61315000  0.22963000  0.90306000  1.0
  H  H11  1  0.38683000  0.27035000  0.40307000  1.0
  H  H12  1  0.56079000  0.73322000  0.82333000  1.0
  H  H13  1  0.43922000  0.76678000  0.32333000  1.0
  H  H14  1  0.43922000  0.26677000  0.17666000  1.0
  H  H15  1  0.56079000  0.23322000  0.67667000  1.0
  H  H16  1  0.04939000  0.32295000  0.93031000  1.0
  H  H17  1  0.95061000  0.17705000  0.43030000  1.0
  H  H18  1  0.95060000  0.67705000  0.06968000  1.0
  H  H19  1  0.04939000  0.82295000  0.56970000  1.0
  H  H20  1  0.14123000  0.47096000  0.91152000  1.0
  H  H21  1  0.85877000  0.02904000  0.41152000  1.0
  H  H22  1  0.85878000  0.52904000  0.08848000  1.0
  H  H23  1  0.14123000  0.97096000  0.58849000  1.0
  H  H24  1  0.32288000  0.59674000  0.86499000  1.0
  H  H25  1  0.67712000  0.90327000  0.36499000  1.0
  H  H26  1  0.67712000  0.40327000  0.13500000  1.0
  H  H27  1  0.32288000  0.09673000  0.63501000  1.0
  H  H28  1  0.05007000  0.51640000  0.20917000  1.0
  H  H29  1  0.94994000  0.98361000  0.70918000  1.0
  H  H30  1  0.94992000  0.48360000  0.79082000  1.0
  H  H31  1  0.05006000  0.01640000  0.29083000  1.0
  H  H32  1  0.22630000  0.30808000  0.01727000  1.0
  H  H33  1  0.77370000  0.19191000  0.51727000  1.0
  H  H34  1  0.77367000  0.69189000  0.98272000  1.0
  H  H35  1  0.22629000  0.80808000  0.48273000  1.0
  H  H36  1  0.36262000  0.42302000  0.96890000  1.0
  H  H37  1  0.63738000  0.07698000  0.46891000  1.0
  H  H38  1  0.63737000  0.57696000  0.03110000  1.0
  H  H39  1  0.36261000  0.92302000  0.53110000  1.0
  H  H40  1  0.06535000  0.36185000  0.11841000  1.0
  H  H41  1  0.93466000  0.13815000  0.61840000  1.0
  H  H42  1  0.93462000  0.63814000  0.88159000  1.0
  H  H43  1  0.06535000  0.86186000  0.38159000  1.0
  H  H44  1  0.42403000  0.62463000  0.00533000  1.0
  H  H45  1  0.57598000  0.87536000  0.50534000  1.0
  H  H46  1  0.57597000  0.37534000  0.99467000  1.0
  H  H47  1  0.42402000  0.12464000  0.49466000  1.0
  H  H48  1  0.41863000  0.32167000  0.75162000  1.0
  H  H49  1  0.58137000  0.17834000  0.25163000  1.0
  H  H50  1  0.58137000  0.67833000  0.24837000  1.0
  H  H51  1  0.41863000  0.82166000  0.74837000  1.0
  H  H52  1  0.64782000  0.47058000  0.70908000  1.0
  H  H53  1  0.35219000  0.02942000  0.20909000  1.0
  H  H54  1  0.35218000  0.52941000  0.29091000  1.0
  H  H55  1  0.64781000  0.97058000  0.79092000  1.0
  H  H56  1  0.21646000  0.27087000  0.84284000  1.0
  H  H57  1  0.78354000  0.22914000  0.34285000  1.0
  H  H58  1  0.78353000  0.72913000  0.15715000  1.0
  H  H59  1  0.21646000  0.77086000  0.65716000  1.0
  H  H60  1  0.13142000  0.34812000  0.79024000  1.0
  H  H61  1  0.86857000  0.15189000  0.29024000  1.0
  H  H62  1  0.86858000  0.65189000  0.20976000  1.0
  H  H63  1  0.13143000  0.84812000  0.70976000  1.0
  C  C64  1  0.97393000  0.59821000  0.47858000  1.0
  C  C65  1  0.02610000  0.90181000  0.97858000  1.0
  C  C66  1  0.02606000  0.40180000  0.52141000  1.0
  C  C67  1  0.97394000  0.09820000  0.02142000  1.0
  C  C68  1  0.84472000  0.59704000  0.60540000  1.0
  C  C69  1  0.15530000  0.90298000  0.10540000  1.0
  C  C70  1  0.15528000  0.40298000  0.39460000  1.0
  C  C71  1  0.84473000  0.09703000  0.89461000  1.0
  C  C72  1  0.34870000  0.44528000  0.81199000  1.0
  C  C73  1  0.65130000  0.05473000  0.31200000  1.0
  C  C74  1  0.65130000  0.55473000  0.18800000  1.0
  C  C75  1  0.34870000  0.94527000  0.68800000  1.0
  C  C76  1  0.32014000  0.67851000  0.10028000  1.0
  C  C77  1  0.67986000  0.82149000  0.60029000  1.0
  C  C78  1  0.67986000  0.32147000  0.89972000  1.0
  C  C79  1  0.32013000  0.17852000  0.39972000  1.0
  C  C80  1  0.94647000  0.44246000  0.57282000  1.0
  C  C81  1  0.05354000  0.05755000  0.07283000  1.0
  C  C82  1  0.05352000  0.55755000  0.42717000  1.0
  C  C83  1  0.94650000  0.94246000  0.92717000  1.0
  C  C84  1  0.52185000  0.64151000  0.80693000  1.0
  C  C85  1  0.47816000  0.85849000  0.30693000  1.0
  C  C86  1  0.47816000  0.35849000  0.19306000  1.0
  C  C87  1  0.52185000  0.14151000  0.69307000  1.0
  C  C88  1  0.92145000  0.54288000  0.55160000  1.0
  C  C89  1  0.07856000  0.95714000  0.05161000  1.0
  C  C90  1  0.07854000  0.45713000  0.44839000  1.0
  C  C91  1  0.92146000  0.04287000  0.94840000  1.0
  C  C92  1  0.24423000  0.48069000  0.05182000  1.0
  C  C93  1  0.75578000  0.01931000  0.55182000  1.0
  C  C94  1  0.75576000  0.51930000  0.94818000  1.0
  C  C95  1  0.24422000  0.98069000  0.44818000  1.0
  C  C96  1  0.87418000  0.37146000  0.64430000  1.0
  C  C97  1  0.12579000  0.12854000  0.14431000  1.0
  C  C98  1  0.12580000  0.62855000  0.35569000  1.0
  C  C99  1  0.87421000  0.87146000  0.85570000  1.0
  C  C100  1  0.15489000  0.38752000  0.91789000  1.0
  C  C101  1  0.84511000  0.11248000  0.41789000  1.0
  C  C102  1  0.84511000  0.61248000  0.08211000  1.0
  C  C103  1  0.15489000  0.88752000  0.58211000  1.0
  C  C104  1  0.39058000  0.56380000  0.83056000  1.0
  C  C105  1  0.60943000  0.93621000  0.33056000  1.0
  C  C106  1  0.60943000  0.43621000  0.16944000  1.0
  C  C107  1  0.39058000  0.06379000  0.66944000  1.0
  C  C108  1  0.12887000  0.53734000  0.16145000  1.0
  C  C109  1  0.87114000  0.96266000  0.66145000  1.0
  C  C110  1  0.87112000  0.46265000  0.83855000  1.0
  C  C111  1  0.12886000  0.03735000  0.33855000  1.0
  C  C112  1  0.25337000  0.39478000  0.99043000  1.0
  C  C113  1  0.74663000  0.10521000  0.49044000  1.0
  C  C114  1  0.74662000  0.60520000  0.00957000  1.0
  C  C115  1  0.25337000  0.89478000  0.50956000  1.0
  C  C116  1  0.13845000  0.45144000  0.11071000  1.0
  C  C117  1  0.86156000  0.04856000  0.61071000  1.0
  C  C118  1  0.86154000  0.54855000  0.88929000  1.0
  C  C119  1  0.13844000  0.95144000  0.38929000  1.0
  C  C120  1  0.33789000  0.59682000  0.04882000  1.0
  C  C121  1  0.66212000  0.90318000  0.54882000  1.0
  C  C122  1  0.66210000  0.40316000  0.95118000  1.0
  C  C123  1  0.33788000  0.09682000  0.45118000  1.0
  C  C124  1  0.44416000  0.41255000  0.76757000  1.0
  C  C125  1  0.55584000  0.08745000  0.26758000  1.0
  C  C126  1  0.55584000  0.58745000  0.23243000  1.0
  C  C127  1  0.44416000  0.91255000  0.73242000  1.0
  C  C128  1  0.57302000  0.49496000  0.74406000  1.0
  C  C129  1  0.42699000  0.00505000  0.24406000  1.0
  C  C130  1  0.42699000  0.50504000  0.25594000  1.0
  C  C131  1  0.57301000  0.99495000  0.75594000  1.0
  C  C132  1  0.20908000  0.35693000  0.83846000  1.0
  C  C133  1  0.79092000  0.14307000  0.33846000  1.0
  C  C134  1  0.79092000  0.64308000  0.16153000  1.0
  C  C135  1  0.20908000  0.85693000  0.66154000  1.0
  N  N136  1  0.61228000  0.60810000  0.76426000  1.0
  N  N137  1  0.38772000  0.89190000  0.26426000  1.0
  N  N138  1  0.38772000  0.39190000  0.23573000  1.0
  N  N139  1  0.61229000  0.10810000  0.73574000  1.0
  N  N140  1  0.21606000  0.64955000  0.15541000  1.0
  N  N141  1  0.78395000  0.85046000  0.65542000  1.0
  N  N142  1  0.78394000  0.35044000  0.84459000  1.0
  N  N143  1  0.21604000  0.14955000  0.34459000  1.0
  O  O144  1  0.90353000  0.63325000  0.67533000  1.0
  O  O145  1  0.09648000  0.86675000  0.17533000  1.0
  O  O146  1  0.09646000  0.36675000  0.32466000  1.0
  O  O147  1  0.90352000  0.13326000  0.82468000  1.0
  O  O148  1  0.75425000  0.36850000  0.66282000  1.0
  O  O149  1  0.24573000  0.13151000  0.16284000  1.0
  O  O150  1  0.24573000  0.63151000  0.33717000  1.0
  O  O151  1  0.75428000  0.86850000  0.83718000  1.0
  O  O152  1  0.73798000  0.61120000  0.57977000  1.0
  O  O153  1  0.26204000  0.88882000  0.07978000  1.0
  O  O154  1  0.26201000  0.38881000  0.42022000  1.0
  O  O155  1  0.73797000  0.11118000  0.92024000  1.0
  O  O156  1  0.93629000  0.31202000  0.68203000  1.0
  O  O157  1  0.06368000  0.18798000  0.18204000  1.0
  O  O158  1  0.06369000  0.68798000  0.31796000  1.0
  O  O159  1  0.93632000  0.81202000  0.81797000  1.0
