# generated using pymatgen
data_SnH13C9NO2
_symmetry_space_group_name_H-M   'P 1'
_cell_length_a   6.68059000
_cell_length_b   12.84570000
_cell_length_c   13.46670000
_cell_angle_alpha   71.41000000
_cell_angle_beta   77.53050000
_cell_angle_gamma   75.45630000
_symmetry_Int_Tables_number   1
_chemical_formula_structural   SnH13C9NO2
_chemical_formula_sum   'Sn4 H52 C36 N4 O8'
_cell_volume   1048.58145714
_cell_formula_units_Z   4
loop_
 _symmetry_equiv_pos_site_id
 _symmetry_equiv_pos_as_xyz
  1  'x, y, z'
loop_
 _atom_site_type_symbol
 _atom_site_label
 _atom_site_symmetry_multiplicity
 _atom_site_fract_x
 _atom_site_fract_y
 _atom_site_fract_z
 _atom_site_occupancy
  Sn  Sn0  1  0.25505000  0.97289000  0.74128000  1.0
  Sn  Sn1  1  0.97881000  0.52658000  0.76158000  1.0
  Sn  Sn2  1  0.74494000  0.02712000  0.25872000  1.0
  Sn  Sn3  1  0.02119000  0.47341000  0.23842000  1.0
  H  H4  1  0.56371000  0.80740000  0.69238000  1.0
  H  H5  1  0.08394000  0.69602000  0.80596000  1.0
  H  H6  1  0.43629000  0.19261000  0.30761000  1.0
  H  H7  1  0.91610000  0.30396000  0.19406000  1.0
  H  H8  1  0.67431000  0.89295000  0.73855000  1.0
  H  H9  1  0.31759000  0.60211000  0.77255000  1.0
  H  H10  1  0.32568000  0.10707000  0.26145000  1.0
  H  H11  1  0.68243000  0.39787000  0.22748000  1.0
  H  H12  1  0.53388000  0.79179000  0.83073000  1.0
  H  H13  1  0.17925000  0.70023000  0.67073000  1.0
  H  H14  1  0.46614000  0.20822000  0.16925000  1.0
  H  H15  1  0.82078000  0.29974000  0.32929000  1.0
  H  H16  1  0.00140000  0.05652000  0.58488000  1.0
  H  H17  1  0.65817000  0.44468000  0.91116000  1.0
  H  H18  1  0.99859000  0.94348000  0.41512000  1.0
  H  H19  1  0.34179000  0.55532000  0.08884000  1.0
  H  H20  1  0.23786000  0.96878000  0.54400000  1.0
  H  H21  1  0.77710000  0.52499000  0.95989000  1.0
  H  H22  1  0.76214000  0.03123000  0.45599000  1.0
  H  H23  1  0.22289000  0.47500000  0.04011000  1.0
  H  H24  1  0.03236000  0.90807000  0.63465000  1.0
  H  H25  1  0.59972000  0.59364000  0.86610000  1.0
  H  H26  1  0.96764000  0.09194000  0.36535000  1.0
  H  H27  1  0.40027000  0.40637000  0.13389000  1.0
  H  H28  1  0.03078000  0.15665000  0.79792000  1.0
  H  H29  1  0.99725000  0.33983000  0.70497000  1.0
  H  H30  1  0.96922000  0.84337000  0.20207000  1.0
  H  H31  1  0.00278000  0.66017000  0.29501000  1.0
  H  H32  1  0.10932000  0.05112000  0.91303000  1.0
  H  H33  1  0.05122000  0.44981000  0.58873000  1.0
  H  H34  1  0.89067000  0.94888000  0.08696000  1.0
  H  H35  1  0.94878000  0.55021000  0.41126000  1.0
  H  H36  1  0.29173000  0.13327000  0.82511000  1.0
  H  H37  1  0.25117000  0.37459000  0.66992000  1.0
  H  H38  1  0.70825000  0.86674000  0.17488000  1.0
  H  H39  1  0.74884000  0.62543000  0.33007000  1.0
  H  H40  1  0.46787000  0.91119000  0.97899000  1.0
  H  H41  1  0.35090000  0.59689000  0.51426000  1.0
  H  H42  1  0.53213000  0.08881000  0.02100000  1.0
  H  H43  1  0.64908000  0.40311000  0.48576000  1.0
  H  H44  1  0.29890000  0.76932000  0.12700000  1.0
  H  H45  1  0.19250000  0.74153000  0.36093000  1.0
  H  H46  1  0.70110000  0.23068000  0.87299000  1.0
  H  H47  1  0.80749000  0.25848000  0.63909000  1.0
  H  H48  1  0.52503000  0.58925000  0.21449000  1.0
  H  H49  1  0.33429000  0.91693000  0.27702000  1.0
  H  H50  1  0.47495000  0.41074000  0.78551000  1.0
  H  H51  1  0.66570000  0.08306000  0.72300000  1.0
  H  H52  1  0.05432000  0.67876000  0.00807000  1.0
  H  H53  1  0.75153000  0.81975000  0.49420000  1.0
  H  H54  1  0.94567000  0.32123000  0.99195000  1.0
  H  H55  1  0.24847000  0.18026000  0.50580000  1.0
  C  C56  1  0.54186000  0.85201000  0.75210000  1.0
  C  C57  1  0.16255000  0.64527000  0.75179000  1.0
  C  C58  1  0.45815000  0.14800000  0.24789000  1.0
  C  C59  1  0.83748000  0.35471000  0.24823000  1.0
  C  C60  1  0.11343000  0.97858000  0.61034000  1.0
  C  C61  1  0.72296000  0.52037000  0.89039000  1.0
  C  C62  1  0.88657000  0.02143000  0.38965000  1.0
  C  C63  1  0.27703000  0.47963000  0.10960000  1.0
  C  C64  1  0.16171000  0.09343000  0.83043000  1.0
  C  C65  1  0.08364000  0.40814000  0.66985000  1.0
  C  C66  1  0.83827000  0.90658000  0.16956000  1.0
  C  C67  1  0.91636000  0.59187000  0.33013000  1.0
  C  C68  1  0.77363000  0.80455000  0.98180000  1.0
  C  C69  1  0.56091000  0.69891000  0.51625000  1.0
  C  C70  1  0.22636000  0.19545000  0.01820000  1.0
  C  C71  1  0.43912000  0.30108000  0.48375000  1.0
  C  C72  1  0.55860000  0.82996000  0.01587000  1.0
  C  C73  1  0.40186000  0.67658000  0.47821000  1.0
  C  C74  1  0.44140000  0.17004000  0.98413000  1.0
  C  C75  1  0.59816000  0.32341000  0.52180000  1.0
  C  C76  1  0.46593000  0.75154000  0.09855000  1.0
  C  C77  1  0.31633000  0.75624000  0.39274000  1.0
  C  C78  1  0.53405000  0.24847000  0.90146000  1.0
  C  C79  1  0.68368000  0.24376000  0.60727000  1.0
  C  C80  1  0.59099000  0.65100000  0.14666000  1.0
  C  C81  1  0.39416000  0.85462000  0.34633000  1.0
  C  C82  1  0.40899000  0.34901000  0.85334000  1.0
  C  C83  1  0.60585000  0.14538000  0.65368000  1.0
  C  C84  1  0.88642000  0.70078000  0.03269000  1.0
  C  C85  1  0.62708000  0.80063000  0.46633000  1.0
  C  C86  1  0.11357000  0.29921000  0.96730000  1.0
  C  C87  1  0.37293000  0.19937000  0.53368000  1.0
  C  C88  1  0.88153000  0.88901000  0.89588000  1.0
  C  C89  1  0.66449000  0.61389000  0.60585000  1.0
  C  C90  1  0.11848000  0.11099000  0.10412000  1.0
  C  C91  1  0.33552000  0.38612000  0.39415000  1.0
  N  N92  1  0.79835000  0.62590000  0.11393000  1.0
  N  N93  1  0.54749000  0.87673000  0.38264000  1.0
  N  N94  1  0.20162000  0.37409000  0.88607000  1.0
  N  N95  1  0.45250000  0.12327000  0.61737000  1.0
  O  O96  1  0.07781000  0.85281000  0.86510000  1.0
  O  O97  1  0.80012000  0.64840000  0.63768000  1.0
  O  O98  1  0.92220000  0.14718000  0.13490000  1.0
  O  O99  1  0.19989000  0.35160000  0.36233000  1.0
  O  O100  1  0.78050000  0.98559000  0.86111000  1.0
  O  O101  1  0.61802000  0.51927000  0.64233000  1.0
  O  O102  1  0.21951000  0.01440000  0.13889000  1.0
  O  O103  1  0.38198000  0.48074000  0.35768000  1.0
