# generated using pymatgen
data_CuAgH11C12N2O5
_symmetry_space_group_name_H-M   'P 1'
_cell_length_a   7.33153000
_cell_length_b   8.51956000
_cell_length_c   10.78060000
_cell_angle_alpha   98.66160000
_cell_angle_beta   101.52900000
_cell_angle_gamma   107.77800000
_symmetry_Int_Tables_number   1
_chemical_formula_structural   CuAgH11C12N2O5
_chemical_formula_sum   'Cu2 Ag2 H22 C24 N4 O10'
_cell_volume   611.90463808
_cell_formula_units_Z   2
loop_
 _symmetry_equiv_pos_site_id
 _symmetry_equiv_pos_as_xyz
  1  'x, y, z'
loop_
 _atom_site_type_symbol
 _atom_site_label
 _atom_site_symmetry_multiplicity
 _atom_site_fract_x
 _atom_site_fract_y
 _atom_site_fract_z
 _atom_site_occupancy
  Cu  Cu0  1  0.24994000  0.53476000  0.99608000  1.0
  Cu  Cu1  1  0.75006000  0.46524000  0.00392000  1.0
  Ag  Ag2  1  0.33102000  0.84613000  0.81748000  1.0
  Ag  Ag3  1  0.66899000  0.15388000  0.18253000  1.0
  H  H4  1  0.20217000  0.09808000  0.00083000  1.0
  H  H5  1  0.79783000  0.90192000  0.99917000  1.0
  H  H6  1  0.04738000  0.16046000  0.09298000  1.0
  H  H7  1  0.95262000  0.83954000  0.90702000  1.0
  H  H8  1  0.90114000  0.07758000  0.81897000  1.0
  H  H9  1  0.09886000  0.92242000  0.18103000  1.0
  H  H10  1  0.69488000  0.60994000  0.24802000  1.0
  H  H11  1  0.30512000  0.39005000  0.75198000  1.0
  H  H12  1  0.52040000  0.64789000  0.32978000  1.0
  H  H13  1  0.47959000  0.35211000  0.67021000  1.0
  H  H14  1  0.70602000  0.05048000  0.62271000  1.0
  H  H15  1  0.29397000  0.94952000  0.37729000  1.0
  H  H16  1  0.57474000  0.16487000  0.43745000  1.0
  H  H17  1  0.42526000  0.83514000  0.56256000  1.0
  H  H18  1  0.68954000  0.47064000  0.45086000  1.0
  H  H19  1  0.31047000  0.52936000  0.54913000  1.0
  H  H20  1  0.96555000  0.91592000  0.59269000  1.0
  H  H21  1  0.03444000  0.08408000  0.40731000  1.0
  H  H22  1  0.72429000  0.75304000  0.55319000  1.0
  H  H23  1  0.27571000  0.24695000  0.44681000  1.0
  H  H24  1  0.90552000  0.73252000  0.46613000  1.0
  H  H25  1  0.09448000  0.26748000  0.53387000  1.0
  C  C26  1  0.34705000  0.32608000  0.15169000  1.0
  C  C27  1  0.65295000  0.67392000  0.84831000  1.0
  C  C28  1  0.90683000  0.29490000  0.73804000  1.0
  C  C29  1  0.09317000  0.70510000  0.26196000  1.0
  C  C30  1  0.16633000  0.20646000  0.04485000  1.0
  C  C31  1  0.83366000  0.79354000  0.95515000  1.0
  C  C32  1  0.97217000  0.21597000  0.83882000  1.0
  C  C33  1  0.02783000  0.78404000  0.16118000  1.0
  C  C34  1  0.89458000  0.53445000  0.64054000  1.0
  C  C35  1  0.10542000  0.46555000  0.35946000  1.0
  C  C36  1  0.98004000  0.47324000  0.74613000  1.0
  C  C37  1  0.01996000  0.52675000  0.25387000  1.0
  C  C38  1  0.54935000  0.62648000  0.23330000  1.0
  C  C39  1  0.45065000  0.37353000  0.76669000  1.0
  C  C40  1  0.75930000  0.18569000  0.62599000  1.0
  C  C41  1  0.24070000  0.81431000  0.37402000  1.0
  C  C42  1  0.68517000  0.24852000  0.52431000  1.0
  C  C43  1  0.31482000  0.75148000  0.47569000  1.0
  C  C44  1  0.75223000  0.42410000  0.53180000  1.0
  C  C45  1  0.24778000  0.57590000  0.46820000  1.0
  C  C46  1  0.88306000  0.77987000  0.56039000  1.0
  C  C47  1  0.11693000  0.22012000  0.43962000  1.0
  C  C48  1  0.56200000  0.78543000  0.18154000  1.0
  C  C49  1  0.43800000  0.21457000  0.81846000  1.0
  N  N50  1  0.10421000  0.29457000  0.94778000  1.0
  N  N51  1  0.89579000  0.70543000  0.05221000  1.0
  N  N52  1  0.39269000  0.48568000  0.14306000  1.0
  N  N53  1  0.60730000  0.51431000  0.85694000  1.0
  O  O54  1  0.96563000  0.70639000  0.65861000  1.0
  O  O55  1  0.03437000  0.29361000  0.34140000  1.0
  O  O56  1  0.43533000  0.77300000  0.07500000  1.0
  O  O57  1  0.56467000  0.22699000  0.92500000  1.0
  O  O58  1  0.11922000  0.58611000  0.84458000  1.0
  O  O59  1  0.88078000  0.41389000  0.15542000  1.0
  O  O60  1  0.43382000  0.26887000  0.23885000  1.0
  O  O61  1  0.56618000  0.73113000  0.76114000  1.0
  O  O62  1  0.69540000  0.92234000  0.24584000  1.0
  O  O63  1  0.30460000  0.07766000  0.75416000  1.0
