# generated using pymatgen
data_ZnH11C14(NO2)2
_symmetry_space_group_name_H-M   'P 1'
_cell_length_a   7.49262000
_cell_length_b   13.25600000
_cell_length_c   16.33360000
_cell_angle_alpha   112.95000000
_cell_angle_beta   90.01810000
_cell_angle_gamma   106.41200000
_symmetry_Int_Tables_number   1
_chemical_formula_structural   ZnH11C14(NO2)2
_chemical_formula_sum   'Zn4 H44 C56 N8 O16'
_cell_volume   1421.75480015
_cell_formula_units_Z   4
loop_
 _symmetry_equiv_pos_site_id
 _symmetry_equiv_pos_as_xyz
  1  'x, y, z'
loop_
 _atom_site_type_symbol
 _atom_site_label
 _atom_site_symmetry_multiplicity
 _atom_site_fract_x
 _atom_site_fract_y
 _atom_site_fract_z
 _atom_site_occupancy
  Zn  Zn0  1  0.05181000  0.67446000  0.82321000  1.0
  Zn  Zn1  1  0.37714000  0.32551000  0.67676000  1.0
  Zn  Zn2  1  0.94820000  0.32555000  0.17679000  1.0
  Zn  Zn3  1  0.62285000  0.67449000  0.32323000  1.0
  H  H4  1  0.79722000  0.47181000  0.77290000  1.0
  H  H5  1  0.32524000  0.52822000  0.72726000  1.0
  H  H6  1  0.20278000  0.52820000  0.22710000  1.0
  H  H7  1  0.67475000  0.47178000  0.27274000  1.0
  H  H8  1  0.96099000  0.48606000  0.84953000  1.0
  H  H9  1  0.47446000  0.51391000  0.65054000  1.0
  H  H10  1  0.03902000  0.51394000  0.15047000  1.0
  H  H11  1  0.52553000  0.48609000  0.34947000  1.0
  H  H12  1  0.45621000  0.69043000  0.08429000  1.0
  H  H13  1  0.76560000  0.30962000  0.41555000  1.0
  H  H14  1  0.54379000  0.30956000  0.91571000  1.0
  H  H15  1  0.23440000  0.69037000  0.58445000  1.0
  H  H16  1  0.91940000  0.55655000  0.00817000  1.0
  H  H17  1  0.36261000  0.44377000  0.49212000  1.0
  H  H18  1  0.08060000  0.44346000  0.99183000  1.0
  H  H19  1  0.63739000  0.55623000  0.50788000  1.0
  H  H20  1  0.58325000  0.58944000  0.81224000  1.0
  H  H21  1  0.99314000  0.41032000  0.68767000  1.0
  H  H22  1  0.41675000  0.41056000  0.18776000  1.0
  H  H23  1  0.00685000  0.58967000  0.31233000  1.0
  H  H24  1  0.83843000  0.80042000  0.77670000  1.0
  H  H25  1  0.03836000  0.19919000  0.72309000  1.0
  H  H26  1  0.16157000  0.19958000  0.22330000  1.0
  H  H27  1  0.96164000  0.80081000  0.27691000  1.0
  H  H28  1  0.63095000  0.91751000  0.84630000  1.0
  H  H29  1  0.71390000  0.08188000  0.65349000  1.0
  H  H30  1  0.36906000  0.08250000  0.15370000  1.0
  H  H31  1  0.28610000  0.91811000  0.34651000  1.0
  H  H32  1  0.82058000  0.92946000  0.10054000  1.0
  H  H33  1  0.89079000  0.07071000  0.39935000  1.0
  H  H34  1  0.17942000  0.07054000  0.89946000  1.0
  H  H35  1  0.10921000  0.92930000  0.60065000  1.0
  H  H36  1  0.02789000  0.81359000  0.01951000  1.0
  H  H37  1  0.21408000  0.18661000  0.48037000  1.0
  H  H38  1  0.97212000  0.18641000  0.98049000  1.0
  H  H39  1  0.78592000  0.81339000  0.51963000  1.0
  H  H40  1  0.54541000  0.98601000  0.08638000  1.0
  H  H41  1  0.55910000  0.01384000  0.41353000  1.0
  H  H42  1  0.45459000  0.01399000  0.91362000  1.0
  H  H43  1  0.44091000  0.98617000  0.58647000  1.0
  H  H44  1  0.67302000  0.09842000  0.05704000  1.0
  H  H45  1  0.57426000  0.90146000  0.44293000  1.0
  H  H46  1  0.32699000  0.90158000  0.94296000  1.0
  H  H47  1  0.42574000  0.09854000  0.55707000  1.0
  C  C48  1  0.50011000  0.64188000  0.94521000  1.0
  C  C49  1  0.85776000  0.35806000  0.55466000  1.0
  C  C50  1  0.49988000  0.35811000  0.05479000  1.0
  C  C51  1  0.14223000  0.64193000  0.44534000  1.0
  C  C52  1  0.54171000  0.65588000  0.03331000  1.0
  C  C53  1  0.88558000  0.34417000  0.46660000  1.0
  C  C54  1  0.45829000  0.34411000  0.96669000  1.0
  C  C55  1  0.11443000  0.65582000  0.53340000  1.0
  C  C56  1  0.69137000  0.62388000  0.05527000  1.0
  C  C57  1  0.06732000  0.37625000  0.44479000  1.0
  C  C58  1  0.30863000  0.37612000  0.94473000  1.0
  C  C59  1  0.93268000  0.62375000  0.55522000  1.0
  C  C60  1  0.80074000  0.57851000  0.98944000  1.0
  C  C61  1  0.22191000  0.42165000  0.51072000  1.0
  C  C62  1  0.19926000  0.42149000  0.01056000  1.0
  C  C63  1  0.77810000  0.57835000  0.48928000  1.0
  C  C64  1  0.75898000  0.56419000  0.90168000  1.0
  C  C65  1  0.19435000  0.43590000  0.59843000  1.0
  C  C66  1  0.24103000  0.43582000  0.09832000  1.0
  C  C67  1  0.80564000  0.56410000  0.40157000  1.0
  C  C68  1  0.60897000  0.59600000  0.87992000  1.0
  C  C69  1  0.01245000  0.40389000  0.62004000  1.0
  C  C70  1  0.39103000  0.40400000  0.12008000  1.0
  C  C71  1  0.98755000  0.59610000  0.37996000  1.0
  C  C72  1  0.33894000  0.67505000  0.92138000  1.0
  C  C73  1  0.66331000  0.32484000  0.57835000  1.0
  C  C74  1  0.66106000  0.32496000  0.07862000  1.0
  C  C75  1  0.33668000  0.67516000  0.42164000  1.0
  C  C76  1  0.73251000  0.63446000  0.14871000  1.0
  C  C77  1  0.09812000  0.36570000  0.35140000  1.0
  C  C78  1  0.26749000  0.36554000  0.85129000  1.0
  C  C79  1  0.90188000  0.63429000  0.64860000  1.0
  C  C80  1  0.83406000  0.83356000  0.84871000  1.0
  C  C81  1  0.00074000  0.16610000  0.65108000  1.0
  C  C82  1  0.16594000  0.16644000  0.15129000  1.0
  C  C83  1  0.99926000  0.83389000  0.34892000  1.0
  C  C84  1  0.71694000  0.89846000  0.88855000  1.0
  C  C85  1  0.81877000  0.10112000  0.61124000  1.0
  C  C86  1  0.28306000  0.10154000  0.11145000  1.0
  C  C87  1  0.18123000  0.89888000  0.38875000  1.0
  C  C88  1  0.70822000  0.93548000  0.98085000  1.0
  C  C89  1  0.77273000  0.06433000  0.51899000  1.0
  C  C90  1  0.29178000  0.06452000  0.01915000  1.0
  C  C91  1  0.22726000  0.93567000  0.48101000  1.0
  C  C92  1  0.82268000  0.90439000  0.02862000  1.0
  C  C93  1  0.91811000  0.09556000  0.47123000  1.0
  C  C94  1  0.17732000  0.09561000  0.97138000  1.0
  C  C95  1  0.08188000  0.90444000  0.52877000  1.0
  C  C96  1  0.93803000  0.84017000  0.98484000  1.0
  C  C97  1  0.09776000  0.15981000  0.51501000  1.0
  C  C98  1  0.06197000  0.15982000  0.01516000  1.0
  C  C99  1  0.90224000  0.84020000  0.48499000  1.0
  C  C100  1  0.58647000  0.00714000  0.02896000  1.0
  C  C101  1  0.57919000  0.99279000  0.47097000  1.0
  C  C102  1  0.41353000  0.99286000  0.97104000  1.0
  C  C103  1  0.42081000  0.00721000  0.52902000  1.0
  N  N104  1  0.87620000  0.52724000  0.83417000  1.0
  N  N105  1  0.34856000  0.47277000  0.66594000  1.0
  N  N106  1  0.12381000  0.47277000  0.16583000  1.0
  N  N107  1  0.65144000  0.52723000  0.33406000  1.0
  N  N108  1  0.94319000  0.80421000  0.89555000  1.0
  N  N109  1  0.13907000  0.19570000  0.60428000  1.0
  N  N110  1  0.05681000  0.19579000  0.10445000  1.0
  N  N111  1  0.86093000  0.80430000  0.39572000  1.0
  O  O112  1  0.30339000  0.65551000  0.83725000  1.0
  O  O113  1  0.64732000  0.34414000  0.66245000  1.0
  O  O114  1  0.69661000  0.34449000  0.16275000  1.0
  O  O115  1  0.35268000  0.65588000  0.33755000  1.0
  O  O116  1  0.24327000  0.71893000  0.98007000  1.0
  O  O117  1  0.52383000  0.28119000  0.51963000  1.0
  O  O118  1  0.75674000  0.28108000  0.01993000  1.0
  O  O119  1  0.47617000  0.71881000  0.48037000  1.0
  O  O120  1  0.62734000  0.68107000  0.20523000  1.0
  O  O121  1  0.94650000  0.31887000  0.29472000  1.0
  O  O122  1  0.37265000  0.31893000  0.79477000  1.0
  O  O123  1  0.05351000  0.68114000  0.70528000  1.0
  O  O124  1  0.85988000  0.60008000  0.16813000  1.0
  O  O125  1  0.25995000  0.40036000  0.33214000  1.0
  O  O126  1  0.14012000  0.39994000  0.83188000  1.0
  O  O127  1  0.74006000  0.59964000  0.66786000  1.0
