# generated using pymatgen
data_CdH25C26N9O4
_symmetry_space_group_name_H-M   'P 1'
_cell_length_a   12.19530000
_cell_length_b   12.19530000
_cell_length_c   23.02770000
_cell_angle_alpha   86.86390000
_cell_angle_beta   86.86360000
_cell_angle_gamma   65.98800000
_symmetry_Int_Tables_number   1
_chemical_formula_structural   CdH25C26N9O4
_chemical_formula_sum   'Cd4 H100 C104 N36 O16'
_cell_volume   3121.75818168
_cell_formula_units_Z   4
loop_
 _symmetry_equiv_pos_site_id
 _symmetry_equiv_pos_as_xyz
  1  'x, y, z'
loop_
 _atom_site_type_symbol
 _atom_site_label
 _atom_site_symmetry_multiplicity
 _atom_site_fract_x
 _atom_site_fract_y
 _atom_site_fract_z
 _atom_site_occupancy
  Cd  Cd0  1  0.47562000  0.94454000  0.26578000  1.0
  Cd  Cd1  1  0.05547000  0.52437000  0.23421000  1.0
  Cd  Cd2  1  0.52438000  0.05546000  0.73422000  1.0
  Cd  Cd3  1  0.94453000  0.47563000  0.76578000  1.0
  H  H4  1  0.45435000  0.63632000  0.15248000  1.0
  H  H5  1  0.48843000  0.54150000  0.05720000  1.0
  H  H6  1  0.69616000  0.45601000  0.01088000  1.0
  H  H7  1  0.86571000  0.46681000  0.06248000  1.0
  H  H8  1  0.36820000  0.85543000  0.14980000  1.0
  H  H9  1  0.23504000  0.20610000  0.21060000  1.0
  H  H10  1  0.05780000  0.30320000  0.13841000  1.0
  H  H11  1  0.14453000  0.26497000  0.07312000  1.0
  H  H12  1  0.87592000  0.32310000  0.18942000  1.0
  H  H13  1  0.83685000  0.19889000  0.20595000  1.0
  H  H14  1  0.98875000  0.17716000  0.20058000  1.0
  H  H15  1  0.11169000  0.25726000  0.96993000  1.0
  H  H16  1  0.20181000  0.12810000  0.01148000  1.0
  H  H17  1  0.13730000  0.11188000  0.94818000  1.0
  H  H18  1  0.63645000  0.24275000  0.99744000  1.0
  H  H19  1  0.73025000  0.10338000  0.96904000  1.0
  H  H20  1  0.66825000  0.10780000  0.04021000  1.0
  H  H21  1  0.61514000  0.26669000  0.09797000  1.0
  H  H22  1  0.67925000  0.28995000  0.16015000  1.0
  H  H23  1  0.73935000  0.84252000  0.17693000  1.0
  H  H24  1  0.51997000  0.20524000  0.21224000  1.0
  H  H25  1  0.87315000  0.07106000  0.92760000  1.0
  H  H26  1  0.01765000  0.07019000  0.92106000  1.0
  H  H27  1  0.04354000  0.22778000  0.85364000  1.0
  H  H28  1  0.68167000  0.46731000  0.84257000  1.0
  H  H29  1  0.36368000  0.54566000  0.34753000  1.0
  H  H30  1  0.45849000  0.51157000  0.44280000  1.0
  H  H31  1  0.54399000  0.30383000  0.48912000  1.0
  H  H32  1  0.53319000  0.13429000  0.43752000  1.0
  H  H33  1  0.14458000  0.63182000  0.35020000  1.0
  H  H34  1  0.79391000  0.76496000  0.28940000  1.0
  H  H35  1  0.69680000  0.94220000  0.36159000  1.0
  H  H36  1  0.73504000  0.85547000  0.42688000  1.0
  H  H37  1  0.67690000  0.12408000  0.31058000  1.0
  H  H38  1  0.80110000  0.16316000  0.29405000  1.0
  H  H39  1  0.82284000  0.01126000  0.29942000  1.0
  H  H40  1  0.74274000  0.88831000  0.53006000  1.0
  H  H41  1  0.87190000  0.79819000  0.48852000  1.0
  H  H42  1  0.88812000  0.86270000  0.55182000  1.0
  H  H43  1  0.75726000  0.36355000  0.50256000  1.0
  H  H44  1  0.89662000  0.26975000  0.53096000  1.0
  H  H45  1  0.89220000  0.33175000  0.45979000  1.0
  H  H46  1  0.73332000  0.38485000  0.40203000  1.0
  H  H47  1  0.71005000  0.32075000  0.33985000  1.0
  H  H48  1  0.15748000  0.26065000  0.32307000  1.0
  H  H49  1  0.79476000  0.48002000  0.28776000  1.0
  H  H50  1  0.92894000  0.12685000  0.57239000  1.0
  H  H51  1  0.92981000  0.98235000  0.57894000  1.0
  H  H52  1  0.77222000  0.95646000  0.64635000  1.0
  H  H53  1  0.53270000  0.31833000  0.65744000  1.0
  H  H54  1  0.54565000  0.36368000  0.84752000  1.0
  H  H55  1  0.51157000  0.45850000  0.94280000  1.0
  H  H56  1  0.30383000  0.54399000  0.98912000  1.0
  H  H57  1  0.13429000  0.53319000  0.93752000  1.0
  H  H58  1  0.63183000  0.14458000  0.85019000  1.0
  H  H59  1  0.76496000  0.79391000  0.78940000  1.0
  H  H60  1  0.94220000  0.69680000  0.86159000  1.0
  H  H61  1  0.85546000  0.73504000  0.92688000  1.0
  H  H62  1  0.12408000  0.67690000  0.81058000  1.0
  H  H63  1  0.16316000  0.80110000  0.79405000  1.0
  H  H64  1  0.01125000  0.82284000  0.79942000  1.0
  H  H65  1  0.88830000  0.74274000  0.03007000  1.0
  H  H66  1  0.79818000  0.87190000  0.98852000  1.0
  H  H67  1  0.86270000  0.88812000  0.05182000  1.0
  H  H68  1  0.36355000  0.75725000  0.00256000  1.0
  H  H69  1  0.26975000  0.89662000  0.03096000  1.0
  H  H70  1  0.33175000  0.89220000  0.95979000  1.0
  H  H71  1  0.38485000  0.73331000  0.90203000  1.0
  H  H72  1  0.32075000  0.71005000  0.83985000  1.0
  H  H73  1  0.26065000  0.15748000  0.82307000  1.0
  H  H74  1  0.48003000  0.79476000  0.78776000  1.0
  H  H75  1  0.12685000  0.92894000  0.07239000  1.0
  H  H76  1  0.98235000  0.92982000  0.07894000  1.0
  H  H77  1  0.95646000  0.77222000  0.14635000  1.0
  H  H78  1  0.31832000  0.53270000  0.15744000  1.0
  H  H79  1  0.63633000  0.45434000  0.65248000  1.0
  H  H80  1  0.54151000  0.48843000  0.55719000  1.0
  H  H81  1  0.45602000  0.69616000  0.51088000  1.0
  H  H82  1  0.46681000  0.86571000  0.56248000  1.0
  H  H83  1  0.85542000  0.36817000  0.64981000  1.0
  H  H84  1  0.20609000  0.23504000  0.71060000  1.0
  H  H85  1  0.30320000  0.05780000  0.63841000  1.0
  H  H86  1  0.26496000  0.14454000  0.57312000  1.0
  H  H87  1  0.32310000  0.87592000  0.68942000  1.0
  H  H88  1  0.19890000  0.83684000  0.70595000  1.0
  H  H89  1  0.17716000  0.98874000  0.70058000  1.0
  H  H90  1  0.25725000  0.11169000  0.46994000  1.0
  H  H91  1  0.12810000  0.20181000  0.51149000  1.0
  H  H92  1  0.11188000  0.13730000  0.44818000  1.0
  H  H93  1  0.24274000  0.63645000  0.49744000  1.0
  H  H94  1  0.10338000  0.73025000  0.46905000  1.0
  H  H95  1  0.10780000  0.66824000  0.54021000  1.0
  H  H96  1  0.26668000  0.61515000  0.59797000  1.0
  H  H97  1  0.28995000  0.67925000  0.66015000  1.0
  H  H98  1  0.84252000  0.73935000  0.67693000  1.0
  H  H99  1  0.20523000  0.51997000  0.71224000  1.0
  H  H100  1  0.07106000  0.87315000  0.42761000  1.0
  H  H101  1  0.07019000  0.01765000  0.42106000  1.0
  H  H102  1  0.22778000  0.04354000  0.35364000  1.0
  H  H103  1  0.46731000  0.68167000  0.34256000  1.0
  C  C104  1  0.61097000  0.67078000  0.21864000  1.0
  C  C105  1  0.63944000  0.60620000  0.16163000  1.0
  C  C106  1  0.54476000  0.59832000  0.13281000  1.0
  C  C107  1  0.56423000  0.54502000  0.07894000  1.0
  C  C108  1  0.67972000  0.49794000  0.05299000  1.0
  C  C109  1  0.77477000  0.50409000  0.08165000  1.0
  C  C110  1  0.75569000  0.55859000  0.13555000  1.0
  C  C111  1  0.85917000  0.56567000  0.16487000  1.0
  C  C112  1  0.31511000  0.95095000  0.15376000  1.0
  C  C113  1  0.24891000  0.12821000  0.18564000  1.0
  C  C114  1  0.09873000  0.23136000  0.10732000  1.0
  C  C115  1  0.00352000  0.20088000  0.08196000  1.0
  C  C116  1  0.90404000  0.20658000  0.11758000  1.0
  C  C117  1  0.90081000  0.22759000  0.18159000  1.0
  C  C118  1  0.80722000  0.19518000  0.09236000  1.0
  C  C119  1  0.81310000  0.16722000  0.03339000  1.0
  C  C120  1  0.91669000  0.15445000  0.99900000  1.0
  C  C121  1  0.01132000  0.17416000  0.02277000  1.0
  C  C122  1  0.12034000  0.16743000  0.98619000  1.0
  C  C123  1  0.70711000  0.15421000  0.00881000  1.0
  C  C124  1  0.69082000  0.22464000  0.12693000  1.0
  C  C125  1  0.70360000  0.94033000  0.17637000  1.0
  C  C126  1  0.59061000  0.12256000  0.19557000  1.0
  C  C127  1  0.92489000  0.12344000  0.93584000  1.0
  C  C128  1  0.94678000  0.27116000  0.86014000  1.0
  C  C129  1  0.76214000  0.39106000  0.85608000  1.0
  C  C130  1  0.32922000  0.38903000  0.28136000  1.0
  C  C131  1  0.39380000  0.36056000  0.33838000  1.0
  C  C132  1  0.40168000  0.45524000  0.36720000  1.0
  C  C133  1  0.45498000  0.43577000  0.42106000  1.0
  C  C134  1  0.50206000  0.32028000  0.44701000  1.0
  C  C135  1  0.49590000  0.22523000  0.41835000  1.0
  C  C136  1  0.44140000  0.24431000  0.36445000  1.0
  C  C137  1  0.43433000  0.14083000  0.33513000  1.0
  C  C138  1  0.04905000  0.68491000  0.34624000  1.0
  C  C139  1  0.87179000  0.75110000  0.31436000  1.0
  C  C140  1  0.76864000  0.90126000  0.39268000  1.0
  C  C141  1  0.79911000  0.99648000  0.41804000  1.0
  C  C142  1  0.79342000  0.09596000  0.38242000  1.0
  C  C143  1  0.77240000  0.09919000  0.31841000  1.0
  C  C144  1  0.80482000  0.19278000  0.40764000  1.0
  C  C145  1  0.83278000  0.18690000  0.46661000  1.0
  C  C146  1  0.84555000  0.08331000  0.50100000  1.0
  C  C147  1  0.82584000  0.98868000  0.47723000  1.0
  C  C148  1  0.83257000  0.87966000  0.51381000  1.0
  C  C149  1  0.84579000  0.29289000  0.49119000  1.0
  C  C150  1  0.77536000  0.30918000  0.37307000  1.0
  C  C151  1  0.05967000  0.29640000  0.32363000  1.0
  C  C152  1  0.87744000  0.40939000  0.30443000  1.0
  C  C153  1  0.87656000  0.07511000  0.56416000  1.0
  C  C154  1  0.72884000  0.05322000  0.63986000  1.0
  C  C155  1  0.60894000  0.23785000  0.64392000  1.0
  C  C156  1  0.38902000  0.32921000  0.78136000  1.0
  C  C157  1  0.36056000  0.39380000  0.83837000  1.0
  C  C158  1  0.45523000  0.40168000  0.86719000  1.0
  C  C159  1  0.43577000  0.45499000  0.92106000  1.0
  C  C160  1  0.32027000  0.50206000  0.94701000  1.0
  C  C161  1  0.22522000  0.49591000  0.91835000  1.0
  C  C162  1  0.24431000  0.44140000  0.86445000  1.0
  C  C163  1  0.14083000  0.43433000  0.83513000  1.0
  C  C164  1  0.68492000  0.04905000  0.84623000  1.0
  C  C165  1  0.75110000  0.87179000  0.81436000  1.0
  C  C166  1  0.90126000  0.76864000  0.89268000  1.0
  C  C167  1  0.99648000  0.79911000  0.91804000  1.0
  C  C168  1  0.09596000  0.79342000  0.88242000  1.0
  C  C169  1  0.09919000  0.77241000  0.81841000  1.0
  C  C170  1  0.19278000  0.80481000  0.90764000  1.0
  C  C171  1  0.18690000  0.83278000  0.96661000  1.0
  C  C172  1  0.08331000  0.84555000  0.00100000  1.0
  C  C173  1  0.98868000  0.82584000  0.97723000  1.0
  C  C174  1  0.87966000  0.83257000  0.01381000  1.0
  C  C175  1  0.29289000  0.84579000  0.99119000  1.0
  C  C176  1  0.30919000  0.77535000  0.87306000  1.0
  C  C177  1  0.29640000  0.05967000  0.82363000  1.0
  C  C178  1  0.40940000  0.87744000  0.80443000  1.0
  C  C179  1  0.07511000  0.87656000  0.06416000  1.0
  C  C180  1  0.05322000  0.72885000  0.13986000  1.0
  C  C181  1  0.23785000  0.60895000  0.14392000  1.0
  C  C182  1  0.67079000  0.61097000  0.71864000  1.0
  C  C183  1  0.60620000  0.63943000  0.66163000  1.0
  C  C184  1  0.59832000  0.54476000  0.63281000  1.0
  C  C185  1  0.54502000  0.56423000  0.57894000  1.0
  C  C186  1  0.49795000  0.67972000  0.55299000  1.0
  C  C187  1  0.50410000  0.77477000  0.58165000  1.0
  C  C188  1  0.55859000  0.75568000  0.63555000  1.0
  C  C189  1  0.56567000  0.85916000  0.66487000  1.0
  C  C190  1  0.95095000  0.31508000  0.65377000  1.0
  C  C191  1  0.12821000  0.24890000  0.68565000  1.0
  C  C192  1  0.23136000  0.09873000  0.60732000  1.0
  C  C193  1  0.20088000  0.00352000  0.58196000  1.0
  C  C194  1  0.20658000  0.90404000  0.61758000  1.0
  C  C195  1  0.22759000  0.90081000  0.68159000  1.0
  C  C196  1  0.19518000  0.80722000  0.59236000  1.0
  C  C197  1  0.16722000  0.81310000  0.53339000  1.0
  C  C198  1  0.15445000  0.91669000  0.49900000  1.0
  C  C199  1  0.17416000  0.01132000  0.52277000  1.0
  C  C200  1  0.16743000  0.12034000  0.48619000  1.0
  C  C201  1  0.15421000  0.70711000  0.50881000  1.0
  C  C202  1  0.22464000  0.69082000  0.62694000  1.0
  C  C203  1  0.94033000  0.70360000  0.67638000  1.0
  C  C204  1  0.12256000  0.59061000  0.69557000  1.0
  C  C205  1  0.12344000  0.92489000  0.43584000  1.0
  C  C206  1  0.27116000  0.94678000  0.36014000  1.0
  C  C207  1  0.39106000  0.76214000  0.35608000  1.0
  N  N208  1  0.32839000  0.01623000  0.19694000  1.0
  N  N209  1  0.23167000  0.01654000  0.11668000  1.0
  N  N210  1  0.19023000  0.12899000  0.13769000  1.0
  N  N211  1  0.60490000  0.00944000  0.20888000  1.0
  N  N212  1  0.75151000  0.00449000  0.14396000  1.0
  N  N213  1  0.67830000  0.12006000  0.15680000  1.0
  N  N214  1  0.88135000  0.23068000  0.89692000  1.0
  N  N215  1  0.76271000  0.30635000  0.89521000  1.0
  N  N216  1  0.87367000  0.37270000  0.83349000  1.0
  N  N217  1  0.98378000  0.67162000  0.30305000  1.0
  N  N218  1  0.98346000  0.76834000  0.38332000  1.0
  N  N219  1  0.87102000  0.80977000  0.36231000  1.0
  N  N220  1  0.99056000  0.39510000  0.29112000  1.0
  N  N221  1  0.99551000  0.24849000  0.35603000  1.0
  N  N222  1  0.87994000  0.32170000  0.34319000  1.0
  N  N223  1  0.76932000  0.11865000  0.60308000  1.0
  N  N224  1  0.69366000  0.23729000  0.60479000  1.0
  N  N225  1  0.62731000  0.12633000  0.66651000  1.0
  N  N226  1  0.67163000  0.98378000  0.80305000  1.0
  N  N227  1  0.76835000  0.98347000  0.88332000  1.0
  N  N228  1  0.80977000  0.87102000  0.86231000  1.0
  N  N229  1  0.39511000  0.99056000  0.79112000  1.0
  N  N230  1  0.24849000  0.99551000  0.85604000  1.0
  N  N231  1  0.32170000  0.87994000  0.84320000  1.0
  N  N232  1  0.11865000  0.76933000  0.10308000  1.0
  N  N233  1  0.23729000  0.69366000  0.10479000  1.0
  N  N234  1  0.12633000  0.62731000  0.16651000  1.0
  N  N235  1  0.01622000  0.32837000  0.69695000  1.0
  N  N236  1  0.01653000  0.23165000  0.61669000  1.0
  N  N237  1  0.12898000  0.19022000  0.63770000  1.0
  N  N238  1  0.00943000  0.60490000  0.70888000  1.0
  N  N239  1  0.00449000  0.75151000  0.64397000  1.0
  N  N240  1  0.12006000  0.67830000  0.65681000  1.0
  N  N241  1  0.23068000  0.88135000  0.39692000  1.0
  N  N242  1  0.30635000  0.76271000  0.39521000  1.0
  N  N243  1  0.37269000  0.87367000  0.33349000  1.0
  O  O244  1  0.55011000  0.78408000  0.21039000  1.0
  O  O245  1  0.64103000  0.61472000  0.26645000  1.0
  O  O246  1  0.84240000  0.65582000  0.19481000  1.0
  O  O247  1  0.96172000  0.47678000  0.15939000  1.0
  O  O248  1  0.21592000  0.44989000  0.28961000  1.0
  O  O249  1  0.38527000  0.35897000  0.23355000  1.0
  O  O250  1  0.34418000  0.15760000  0.30519000  1.0
  O  O251  1  0.52322000  0.03828000  0.34061000  1.0
  O  O252  1  0.44989000  0.21592000  0.78961000  1.0
  O  O253  1  0.35896000  0.38528000  0.73355000  1.0
  O  O254  1  0.15760000  0.34417000  0.80519000  1.0
  O  O255  1  0.03828000  0.52322000  0.84061000  1.0
  O  O256  1  0.78409000  0.55011000  0.71039000  1.0
  O  O257  1  0.61473000  0.64102000  0.76645000  1.0
  O  O258  1  0.65583000  0.84239000  0.69481000  1.0
  O  O259  1  0.47678000  0.96171000  0.65939000  1.0
