# generated using pymatgen
data_NdH6C6(NO4)2
_symmetry_space_group_name_H-M   'P 1'
_cell_length_a   7.46341000
_cell_length_b   8.29672000
_cell_length_c   17.21270000
_cell_angle_alpha   89.99990000
_cell_angle_beta   90.00000000
_cell_angle_gamma   110.74700000
_symmetry_Int_Tables_number   1
_chemical_formula_structural   NdH6C6(NO4)2
_chemical_formula_sum   'Nd4 H24 C24 N8 O32'
_cell_volume   996.72593122
_cell_formula_units_Z   4
loop_
 _symmetry_equiv_pos_site_id
 _symmetry_equiv_pos_as_xyz
  1  'x, y, z'
loop_
 _atom_site_type_symbol
 _atom_site_label
 _atom_site_symmetry_multiplicity
 _atom_site_fract_x
 _atom_site_fract_y
 _atom_site_fract_z
 _atom_site_occupancy
  Nd  Nd0  1  0.81756000  0.75621000  0.41523000  1.0
  Nd  Nd1  1  0.18244000  0.74379000  0.91523000  1.0
  Nd  Nd2  1  0.18243000  0.24380000  0.58477000  1.0
  Nd  Nd3  1  0.81757000  0.25620000  0.08477000  1.0
  H  H4  1  0.45454000  0.90118000  0.20998000  1.0
  H  H5  1  0.54546000  0.59882000  0.70998000  1.0
  H  H6  1  0.54546000  0.09882000  0.79003000  1.0
  H  H7  1  0.45454000  0.40119000  0.29003000  1.0
  H  H8  1  0.35658000  0.92754000  0.34820000  1.0
  H  H9  1  0.64343000  0.57246000  0.84820000  1.0
  H  H10  1  0.64342000  0.07246000  0.65181000  1.0
  H  H11  1  0.35658000  0.42754000  0.15181000  1.0
  H  H12  1  0.42305000  0.66040000  0.46779000  1.0
  H  H13  1  0.57695000  0.83960000  0.96779000  1.0
  H  H14  1  0.57694000  0.33961000  0.53221000  1.0
  H  H15  1  0.42306000  0.16040000  0.03221000  1.0
  H  H16  1  0.40202000  0.49585000  0.41912000  1.0
  H  H17  1  0.59798000  0.00415000  0.91912000  1.0
  H  H18  1  0.59797000  0.50414000  0.58088000  1.0
  H  H19  1  0.40203000  0.99586000  0.08088000  1.0
  H  H20  1  0.73748000  0.07709000  0.47946000  1.0
  H  H21  1  0.26251000  0.42291000  0.97946000  1.0
  H  H22  1  0.26251000  0.92290000  0.52054000  1.0
  H  H23  1  0.73749000  0.57710000  0.02054000  1.0
  H  H24  1  0.65855000  0.00609000  0.39771000  1.0
  H  H25  1  0.34145000  0.49391000  0.89772000  1.0
  H  H26  1  0.34145000  0.99391000  0.60228000  1.0
  H  H27  1  0.65856000  0.50609000  0.10228000  1.0
  C  C28  1  0.01753000  0.65893000  0.24761000  1.0
  C  C29  1  0.98247000  0.84107000  0.74761000  1.0
  C  C30  1  0.98246000  0.34107000  0.75239000  1.0
  C  C31  1  0.01754000  0.15893000  0.25239000  1.0
  C  C32  1  0.81418000  0.53950000  0.24595000  1.0
  C  C33  1  0.18582000  0.96050000  0.74595000  1.0
  C  C34  1  0.18581000  0.46050000  0.75405000  1.0
  C  C35  1  0.81419000  0.03950000  0.25405000  1.0
  C  C36  1  0.26222000  0.84701000  0.30453000  1.0
  C  C37  1  0.73778000  0.65299000  0.80453000  1.0
  C  C38  1  0.73777000  0.15299000  0.69547000  1.0
  C  C39  1  0.26223000  0.34701000  0.19547000  1.0
  C  C40  1  0.17224000  0.67805000  0.10813000  1.0
  C  C41  1  0.82776000  0.82196000  0.60813000  1.0
  C  C42  1  0.82776000  0.32196000  0.89186000  1.0
  C  C43  1  0.17224000  0.17804000  0.39187000  1.0
  C  C44  1  0.16538000  0.71328000  0.19244000  1.0
  C  C45  1  0.83462000  0.78672000  0.69244000  1.0
  C  C46  1  0.83462000  0.28672000  0.80756000  1.0
  C  C47  1  0.16538000  0.21328000  0.30756000  1.0
  C  C48  1  0.08922000  0.57897000  0.51139000  1.0
  C  C49  1  0.91077000  0.92103000  0.01139000  1.0
  C  C50  1  0.91075000  0.42102000  0.48862000  1.0
  C  C51  1  0.08924000  0.07897000  0.98862000  1.0
  N  N52  1  0.31739000  0.83311000  0.23081000  1.0
  N  N53  1  0.68261000  0.66689000  0.73081000  1.0
  N  N54  1  0.68261000  0.16688000  0.76919000  1.0
  N  N55  1  0.31739000  0.33312000  0.26919000  1.0
  N  N56  1  0.08081000  0.74699000  0.31601000  1.0
  N  N57  1  0.91919000  0.75301000  0.81601000  1.0
  N  N58  1  0.91918000  0.25301000  0.68399000  1.0
  N  N59  1  0.08082000  0.24699000  0.18399000  1.0
  O  O60  1  0.70753000  0.55594000  0.30132000  1.0
  O  O61  1  0.29247000  0.94406000  0.80132000  1.0
  O  O62  1  0.29247000  0.44406000  0.69868000  1.0
  O  O63  1  0.70754000  0.05594000  0.19868000  1.0
  O  O64  1  0.75268000  0.42856000  0.19240000  1.0
  O  O65  1  0.24732000  0.07144000  0.69240000  1.0
  O  O66  1  0.24732000  0.57144000  0.80760000  1.0
  O  O67  1  0.75268000  0.92856000  0.30760000  1.0
  O  O68  1  0.09013000  0.72579000  0.49000000  1.0
  O  O69  1  0.90987000  0.77420000  0.99000000  1.0
  O  O70  1  0.90986000  0.27419000  0.51000000  1.0
  O  O71  1  0.09014000  0.22580000  0.01000000  1.0
  O  O72  1  0.06664000  0.53438000  0.08128000  1.0
  O  O73  1  0.93336000  0.96562000  0.58128000  1.0
  O  O74  1  0.93337000  0.46562000  0.91872000  1.0
  O  O75  1  0.06663000  0.03438000  0.41872000  1.0
  O  O76  1  0.46904000  0.62457000  0.41977000  1.0
  O  O77  1  0.53096000  0.87543000  0.91977000  1.0
  O  O78  1  0.53096000  0.37543000  0.58023000  1.0
  O  O79  1  0.46905000  0.12458000  0.08023000  1.0
  O  O80  1  0.22100000  0.55065000  0.54841000  1.0
  O  O81  1  0.77900000  0.94935000  0.04841000  1.0
  O  O82  1  0.77898000  0.44934000  0.45159000  1.0
  O  O83  1  0.22102000  0.05066000  0.95159000  1.0
  O  O84  1  0.65708000  0.97051000  0.45203000  1.0
  O  O85  1  0.34292000  0.52948000  0.95203000  1.0
  O  O86  1  0.34291000  0.02948000  0.54797000  1.0
  O  O87  1  0.65709000  0.47052000  0.04797000  1.0
  O  O88  1  0.28371000  0.79608000  0.06459000  1.0
  O  O89  1  0.71629000  0.70393000  0.56459000  1.0
  O  O90  1  0.71630000  0.20392000  0.93541000  1.0
  O  O91  1  0.28370000  0.29608000  0.43541000  1.0
