# generated using pymatgen
data_Al2H18(C2O)15
_symmetry_space_group_name_H-M   'P 1'
_cell_length_a   4.06185000
_cell_length_b   17.19585000
_cell_length_c   17.19590000
_cell_angle_alpha   59.99971144
_cell_angle_beta   89.99920000
_cell_angle_gamma   90.00059999
_symmetry_Int_Tables_number   1
_chemical_formula_structural   Al2H18(C2O)15
_chemical_formula_sum   'Al2 H18 C30 O15'
_cell_volume   1040.16397668
_cell_formula_units_Z   1
loop_
 _symmetry_equiv_pos_site_id
 _symmetry_equiv_pos_as_xyz
  1  'x, y, z'
loop_
 _atom_site_type_symbol
 _atom_site_label
 _atom_site_symmetry_multiplicity
 _atom_site_fract_x
 _atom_site_fract_y
 _atom_site_fract_z
 _atom_site_occupancy
  Al  Al0  1  0.02366000  0.50000000  0.00000000  1.0
  Al  Al1  1  0.07854000  0.16667000  0.66666000  1.0
  H  H2  1  0.86310000  0.19183000  0.41406000  1.0
  H  H3  1  0.38177000  0.48215000  0.41332000  1.0
  H  H4  1  0.99914000  0.42702000  0.42184000  1.0
  H  H5  1  0.96539000  0.50564000  0.25344000  1.0
  H  H6  1  0.34607000  0.56101000  0.24544000  1.0
  H  H7  1  0.86311000  0.39411000  0.69183000  1.0
  H  H8  1  0.38174000  0.10453000  0.98215000  1.0
  H  H9  1  0.99910000  0.15114000  0.92702000  1.0
  H  H10  1  0.96539000  0.24091000  0.00565000  1.0
  H  H11  1  0.34608000  0.19355000  0.06100000  1.0
  H  H12  1  0.86310000  0.91406000  0.89412000  1.0
  H  H13  1  0.38177000  0.91332000  0.60454000  1.0
  H  H14  1  0.99913000  0.92184000  0.65114000  1.0
  H  H15  1  0.96539000  0.75344000  0.74092000  1.0
  H  H16  1  0.34609000  0.74545000  0.69355000  1.0
  H  H17  1  0.88292000  0.30841000  0.17896000  1.0
  H  H18  1  0.88294000  0.51263000  0.80840000  1.0
  H  H19  1  0.88294000  0.67896000  0.01263000  1.0
  C  C20  1  0.52370000  0.63818000  0.93230000  1.0
  C  C21  1  0.52368000  0.42952000  0.13818000  1.0
  C  C22  1  0.52369000  0.43229000  0.92952000  1.0
  C  C23  1  0.57890000  0.23819000  0.52916000  1.0
  C  C24  1  0.57889000  0.23265000  0.73819000  1.0
  C  C25  1  0.57889000  0.02916000  0.73265000  1.0
  C  C26  1  0.57506000  0.28985000  0.42877000  1.0
  C  C27  1  0.54861000  0.38391000  0.23580000  1.0
  C  C28  1  0.41844000  0.37302000  0.38012000  1.0
  C  C29  1  0.72498000  0.30145000  0.28546000  1.0
  C  C30  1  0.40056000  0.41690000  0.28704000  1.0
  C  C31  1  0.72851000  0.25505000  0.37988000  1.0
  C  C32  1  0.23633000  0.44666000  0.38676000  1.0
  C  C33  1  0.21527000  0.49648000  0.28071000  1.0
  C  C34  1  0.57506000  0.28138000  0.78985000  1.0
  C  C35  1  0.54862000  0.38029000  0.88390000  1.0
  C  C36  1  0.41842000  0.24687000  0.87301000  1.0
  C  C37  1  0.72498000  0.41309000  0.80144000  1.0
  C  C38  1  0.40055000  0.29605000  0.91690000  1.0
  C  C39  1  0.72852000  0.36507000  0.75504000  1.0
  C  C40  1  0.23630000  0.16658000  0.94665000  1.0
  C  C41  1  0.21526000  0.22280000  0.99648000  1.0
  C  C42  1  0.57506000  0.92877000  0.78139000  1.0
  C  C43  1  0.54862000  0.73580000  0.88029000  1.0
  C  C44  1  0.41843000  0.88012000  0.74687000  1.0
  C  C45  1  0.72498000  0.78546000  0.91309000  1.0
  C  C46  1  0.40056000  0.78705000  0.79606000  1.0
  C  C47  1  0.72851000  0.87988000  0.86508000  1.0
  C  C48  1  0.23632000  0.88677000  0.66658000  1.0
  C  C49  1  0.21527000  0.78072000  0.72281000  1.0
  O  O50  1  0.28281000  0.41704000  0.98301000  1.0
  O  O51  1  0.28282000  0.59995000  0.91704000  1.0
  O  O52  1  0.28281000  0.48301000  0.09995000  1.0
  O  O53  1  0.74778000  0.49300000  0.91216000  1.0
  O  O54  1  0.74776000  0.41216000  0.09484000  1.0
  O  O55  1  0.74778000  0.59484000  0.99300000  1.0
  O  O56  1  0.34308000  0.06734000  0.74940000  1.0
  O  O57  1  0.34309000  0.18326000  0.56734000  1.0
  O  O58  1  0.34308000  0.24940000  0.68326000  1.0
  O  O59  1  0.81467000  0.06891000  0.67815000  1.0
  O  O60  1  0.81467000  0.17815000  0.75294000  1.0
  O  O61  1  0.81467000  0.25294000  0.56891000  1.0
  O  O62  1  0.88876000  0.26362000  0.24420000  1.0
  O  O63  1  0.88879000  0.49218000  0.76362000  1.0
  O  O64  1  0.88879000  0.74420000  0.99218000  1.0
