# generated using pymatgen
data_CoH8(C3N)4
_symmetry_space_group_name_H-M   'P 1'
_cell_length_a   5.33436000
_cell_length_b   13.12436031
_cell_length_c   13.25266865
_cell_angle_alpha   95.49479959
_cell_angle_beta   96.53504719
_cell_angle_gamma   98.57663333
_symmetry_Int_Tables_number   1
_chemical_formula_structural   CoH8(C3N)4
_chemical_formula_sum   'Co2 H16 C24 N8'
_cell_volume   905.46268798
_cell_formula_units_Z   2
loop_
 _symmetry_equiv_pos_site_id
 _symmetry_equiv_pos_as_xyz
  1  'x, y, z'
loop_
 _atom_site_type_symbol
 _atom_site_label
 _atom_site_symmetry_multiplicity
 _atom_site_fract_x
 _atom_site_fract_y
 _atom_site_fract_z
 _atom_site_occupancy
  Co  Co0  1  0.20364000  0.52541000  0.48260000  1.0
  Co  Co1  1  0.79642000  0.47457000  0.51739000  1.0
  H  H2  1  0.58723000  0.58385000  0.71408000  1.0
  H  H3  1  0.92258000  0.28722000  0.41424000  1.0
  H  H4  1  0.41276000  0.41618000  0.28594000  1.0
  H  H5  1  0.07747000  0.71278000  0.58576000  1.0
  H  H6  1  0.85722000  0.42148000  0.77687000  1.0
  H  H7  1  0.64346000  0.23301000  0.57040000  1.0
  H  H8  1  0.14277000  0.57855000  0.22314000  1.0
  H  H9  1  0.35656000  0.76692000  0.42957000  1.0
  H  H10  1  0.92041000  0.60999000  0.06126000  1.0
  H  H11  1  0.58139000  0.93251000  0.39534000  1.0
  H  H12  1  0.07954000  0.39005000  0.93875000  1.0
  H  H13  1  0.41852000  0.06747000  0.60465000  1.0
  H  H14  1  0.71841000  0.61391000  0.88691000  1.0
  H  H15  1  0.78453000  0.11077000  0.38855000  1.0
  H  H16  1  0.28161000  0.38609000  0.11310000  1.0
  H  H17  1  0.21532000  0.88922000  0.61147000  1.0
  C  C18  1  0.39245000  0.54584000  0.71421000  1.0
  C  C19  1  0.11619000  0.29001000  0.45122000  1.0
  C  C20  1  0.60759000  0.45419000  0.28582000  1.0
  C  C21  1  0.88385000  0.70998000  0.54878000  1.0
  C  C22  1  0.01982000  0.46030000  0.74531000  1.0
  C  C23  1  0.48219000  0.26303000  0.53316000  1.0
  C  C24  1  0.98020000  0.53973000  0.25468000  1.0
  C  C25  1  0.51786000  0.73693000  0.46681000  1.0
  C  C26  1  0.26963000  0.50311000  0.79307000  1.0
  C  C27  1  0.23382000  0.21165000  0.49312000  1.0
  C  C28  1  0.73042000  0.49694000  0.20694000  1.0
  C  C29  1  0.76616000  0.78833000  0.50684000  1.0
  C  C30  1  0.38322000  0.50191000  0.89806000  1.0
  C  C31  1  0.11808000  0.10428000  0.49618000  1.0
  C  C32  1  0.61675000  0.49813000  0.10195000  1.0
  C  C33  1  0.88185000  0.89570000  0.50380000  1.0
  C  C34  1  0.73620000  0.56111000  0.03505000  1.0
  C  C35  1  0.76477000  0.96137000  0.44196000  1.0
  C  C36  1  0.26378000  0.43893000  0.96496000  1.0
  C  C37  1  0.23516000  0.03862000  0.55803000  1.0
  C  C38  1  0.62186000  0.56313000  0.93596000  1.0
  C  C39  1  0.88022000  0.06278000  0.43822000  1.0
  C  C40  1  0.37813000  0.43691000  0.06405000  1.0
  C  C41  1  0.11968000  0.93719000  0.56177000  1.0
  N  N42  1  0.22810000  0.52848000  0.62762000  1.0
  N  N43  1  0.28128000  0.38010000  0.46545000  1.0
  N  N44  1  0.77196000  0.47153000  0.37240000  1.0
  N  N45  1  0.71881000  0.61987000  0.53456000  1.0
  N  N46  1  0.99998000  0.47709000  0.64645000  1.0
  N  N47  1  0.50596000  0.36352000  0.51611000  1.0
  N  N48  1  0.00004000  0.52291000  0.35354000  1.0
  N  N49  1  0.49416000  0.63645000  0.48389000  1.0
