# generated using pymatgen
data_MnH4CSeN
_symmetry_space_group_name_H-M   'P 1'
_cell_length_a   6.58003000
_cell_length_b   6.62350000
_cell_length_c   17.47630000
_cell_angle_alpha   89.99960000
_cell_angle_beta   90.00010000
_cell_angle_gamma   89.99990000
_symmetry_Int_Tables_number   1
_chemical_formula_structural   MnH4CSeN
_chemical_formula_sum   'Mn8 H32 C8 Se8 N8'
_cell_volume   761.66658928
_cell_formula_units_Z   8
loop_
 _symmetry_equiv_pos_site_id
 _symmetry_equiv_pos_as_xyz
  1  'x, y, z'
loop_
 _atom_site_type_symbol
 _atom_site_label
 _atom_site_symmetry_multiplicity
 _atom_site_fract_x
 _atom_site_fract_y
 _atom_site_fract_z
 _atom_site_occupancy
  Mn  Mn0  1  0.18298000  0.40277000  0.29899000  1.0
  Mn  Mn1  1  0.18299000  0.90276000  0.20101000  1.0
  Mn  Mn2  1  0.31702000  0.40277000  0.79899000  1.0
  Mn  Mn3  1  0.68298000  0.09723000  0.29899000  1.0
  Mn  Mn4  1  0.81702000  0.59723000  0.70101000  1.0
  Mn  Mn5  1  0.81702000  0.09723000  0.79899000  1.0
  Mn  Mn6  1  0.68298000  0.59723000  0.20101000  1.0
  Mn  Mn7  1  0.31702000  0.90277000  0.70101000  1.0
  H  H8  1  0.06227000  0.70635000  0.39291000  1.0
  H  H9  1  0.06227000  0.20634000  0.10709000  1.0
  H  H10  1  0.43774000  0.70635000  0.89291000  1.0
  H  H11  1  0.56226000  0.79366000  0.39291000  1.0
  H  H12  1  0.93774000  0.29366000  0.60709000  1.0
  H  H13  1  0.93773000  0.79366000  0.89291000  1.0
  H  H14  1  0.56226000  0.29366000  0.10709000  1.0
  H  H15  1  0.43774000  0.20634000  0.60709000  1.0
  H  H16  1  0.88046000  0.53836000  0.38013000  1.0
  H  H17  1  0.88046000  0.03836000  0.11987000  1.0
  H  H18  1  0.61954000  0.53837000  0.88013000  1.0
  H  H19  1  0.38046000  0.96164000  0.38013000  1.0
  H  H20  1  0.11955000  0.46164000  0.61987000  1.0
  H  H21  1  0.11955000  0.96163000  0.88013000  1.0
  H  H22  1  0.38045000  0.46164000  0.11987000  1.0
  H  H23  1  0.61955000  0.03836000  0.61987000  1.0
  H  H24  1  0.23103000  0.49469000  0.48519000  1.0
  H  H25  1  0.23104000  0.99468000  0.01481000  1.0
  H  H26  1  0.26896000  0.49471000  0.98519000  1.0
  H  H27  1  0.73104000  0.00530000  0.48519000  1.0
  H  H28  1  0.76896000  0.50531000  0.51481000  1.0
  H  H29  1  0.76896000  0.00530000  0.98519000  1.0
  H  H30  1  0.73104000  0.50531000  0.01481000  1.0
  H  H31  1  0.26896000  0.99470000  0.51481000  1.0
  H  H32  1  0.05895000  0.29754000  0.46283000  1.0
  H  H33  1  0.05896000  0.79754000  0.03717000  1.0
  H  H34  1  0.44103000  0.29755000  0.96283000  1.0
  H  H35  1  0.55896000  0.20245000  0.46283000  1.0
  H  H36  1  0.94104000  0.70246000  0.53717000  1.0
  H  H37  1  0.94105000  0.20245000  0.96283000  1.0
  H  H38  1  0.55895000  0.70246000  0.03717000  1.0
  H  H39  1  0.44104000  0.79755000  0.53717000  1.0
  C  C40  1  0.07251000  0.46255000  0.46898000  1.0
  C  C41  1  0.07251000  0.96254000  0.03102000  1.0
  C  C42  1  0.42749000  0.46256000  0.96899000  1.0
  C  C43  1  0.57251000  0.03745000  0.46898000  1.0
  C  C44  1  0.92750000  0.53745000  0.53102000  1.0
  C  C45  1  0.92749000  0.03745000  0.96898000  1.0
  C  C46  1  0.57250000  0.53745000  0.03102000  1.0
  C  C47  1  0.42749000  0.96255000  0.53102000  1.0
  Se  Se48  1  0.05713000  0.04552000  0.32585000  1.0
  Se  Se49  1  0.05713000  0.54552000  0.17415000  1.0
  Se  Se50  1  0.44287000  0.04553000  0.82585000  1.0
  Se  Se51  1  0.55713000  0.45448000  0.32585000  1.0
  Se  Se52  1  0.94287000  0.95448000  0.67415000  1.0
  Se  Se53  1  0.94287000  0.45448000  0.82585000  1.0
  Se  Se54  1  0.55713000  0.95448000  0.17415000  1.0
  Se  Se55  1  0.44287000  0.54552000  0.67415000  1.0
  N  N56  1  0.03298000  0.55334000  0.39356000  1.0
  N  N57  1  0.03299000  0.05335000  0.10644000  1.0
  N  N58  1  0.46701000  0.55336000  0.89356000  1.0
  N  N59  1  0.53299000  0.94664000  0.39356000  1.0
  N  N60  1  0.96701000  0.44665000  0.60644000  1.0
  N  N61  1  0.96701000  0.94664000  0.89356000  1.0
  N  N62  1  0.53298000  0.44665000  0.10644000  1.0
  N  N63  1  0.46701000  0.05335000  0.60644000  1.0
