# generated using pymatgen
data_LaH26C31(NO4)3
_symmetry_space_group_name_H-M   'P 1'
_cell_length_a   9.77203000
_cell_length_b   11.52130000
_cell_length_c   17.22370000
_cell_angle_alpha   74.13910000
_cell_angle_beta   83.27300000
_cell_angle_gamma   68.11360000
_symmetry_Int_Tables_number   1
_chemical_formula_structural   LaH26C31(NO4)3
_chemical_formula_sum   'La2 H52 C62 N6 O24'
_cell_volume   1730.63147957
_cell_formula_units_Z   2
loop_
 _symmetry_equiv_pos_site_id
 _symmetry_equiv_pos_as_xyz
  1  'x, y, z'
loop_
 _atom_site_type_symbol
 _atom_site_label
 _atom_site_symmetry_multiplicity
 _atom_site_fract_x
 _atom_site_fract_y
 _atom_site_fract_z
 _atom_site_occupancy
  La  La0  1  0.77352000  0.96662000  0.99127000  1.0
  La  La1  1  0.22648000  0.03339000  0.00873000  1.0
  H  H2  1  0.37698000  0.27151000  0.51505000  1.0
  H  H3  1  0.62302000  0.72849000  0.48495000  1.0
  H  H4  1  0.84985000  0.14740000  0.24835000  1.0
  H  H5  1  0.15014000  0.85260000  0.75165000  1.0
  H  H6  1  0.11939000  0.80452000  0.48067000  1.0
  H  H7  1  0.88062000  0.19548000  0.51934000  1.0
  H  H8  1  0.59647000  0.08000000  0.12381000  1.0
  H  H9  1  0.40353000  0.92000000  0.87619000  1.0
  H  H10  1  0.46224000  0.14098000  0.06337000  1.0
  H  H11  1  0.53777000  0.85902000  0.93662000  1.0
  H  H12  1  0.00829000  0.02111000  0.86843000  1.0
  H  H13  1  0.99170000  0.97889000  0.13156000  1.0
  H  H14  1  0.98835000  0.90188000  0.85001000  1.0
  H  H15  1  0.01165000  0.09812000  0.14999000  1.0
  H  H16  1  0.79616000  0.73436000  0.90916000  1.0
  H  H17  1  0.20384000  0.26565000  0.09085000  1.0
  H  H18  1  0.05821000  0.75946000  0.20169000  1.0
  H  H19  1  0.94179000  0.24054000  0.79830000  1.0
  H  H20  1  0.27423000  0.58980000  0.22246000  1.0
  H  H21  1  0.72578000  0.41020000  0.77753000  1.0
  H  H22  1  0.45332000  0.39452000  0.30881000  1.0
  H  H23  1  0.54668000  0.60548000  0.69118000  1.0
  H  H24  1  0.16480000  0.45387000  0.51471000  1.0
  H  H25  1  0.83520000  0.54614000  0.48528000  1.0
  H  H26  1  0.98634000  0.64551000  0.42966000  1.0
  H  H27  1  0.01366000  0.35450000  0.57033000  1.0
  H  H28  1  0.39008000  0.70786000  0.04094000  1.0
  H  H29  1  0.60992000  0.29214000  0.95906000  1.0
  H  H30  1  0.64778000  0.60903000  0.04805000  1.0
  H  H31  1  0.35222000  0.39097000  0.95195000  1.0
  H  H32  1  0.87389000  0.42911000  0.10761000  1.0
  H  H33  1  0.12612000  0.57090000  0.89239000  1.0
  H  H34  1  0.60816000  0.20261000  0.22633000  1.0
  H  H35  1  0.39183000  0.79739000  0.77367000  1.0
  H  H36  1  0.38510000  0.37779000  0.16461000  1.0
  H  H37  1  0.61491000  0.62222000  0.83539000  1.0
  H  H38  1  0.20852000  0.35742000  0.83055000  1.0
  H  H39  1  0.79147000  0.64257000  0.16946000  1.0
  H  H40  1  0.01169000  0.52762000  0.76447000  1.0
  H  H41  1  0.98830000  0.47238000  0.23553000  1.0
  H  H42  1  0.90342000  0.71847000  0.65106000  1.0
  H  H43  1  0.09658000  0.28153000  0.34894000  1.0
  H  H44  1  0.32962000  0.63971000  0.53106000  1.0
  H  H45  1  0.67039000  0.36028000  0.46895000  1.0
  H  H46  1  0.43529000  0.44597000  0.64063000  1.0
  H  H47  1  0.56470000  0.55402000  0.35938000  1.0
  H  H48  1  0.68249000  0.80248000  0.78944000  1.0
  H  H49  1  0.31751000  0.19752000  0.21057000  1.0
  H  H50  1  0.82395000  0.86999000  0.77825000  1.0
  H  H51  1  0.17604000  0.13003000  0.22176000  1.0
  H  H52  1  0.63666000  0.96586000  0.79458000  1.0
  H  H53  1  0.36332000  0.03414000  0.20543000  1.0
  C  C54  1  0.78860000  0.91832000  0.20188000  1.0
  C  C55  1  0.21140000  0.08167000  0.79811000  1.0
  C  C56  1  0.86957000  0.81396000  0.27153000  1.0
  C  C57  1  0.13042000  0.18602000  0.72846000  1.0
  C  C58  1  0.78310000  0.79803000  0.34257000  1.0
  C  C59  1  0.21691000  0.20196000  0.65743000  1.0
  C  C60  1  0.01386000  0.73624000  0.26287000  1.0
  C  C61  1  0.98615000  0.26375000  0.73713000  1.0
  C  C62  1  0.11314000  0.62969000  0.31808000  1.0
  C  C63  1  0.88687000  0.37030000  0.68192000  1.0
  C  C64  1  0.24908000  0.55771000  0.28627000  1.0
  C  C65  1  0.75092000  0.44229000  0.71372000  1.0
  C  C66  1  0.34934000  0.44943000  0.33378000  1.0
  C  C67  1  0.65067000  0.55057000  0.66621000  1.0
  C  C68  1  0.31845000  0.40863000  0.41657000  1.0
  C  C69  1  0.68155000  0.59137000  0.58343000  1.0
  C  C70  1  0.18593000  0.48194000  0.45017000  1.0
  C  C71  1  0.81408000  0.51807000  0.54983000  1.0
  C  C72  1  0.08596000  0.58966000  0.40184000  1.0
  C  C73  1  0.91405000  0.41034000  0.59816000  1.0
  C  C74  1  0.11015000  0.75436000  0.02949000  1.0
  C  C75  1  0.88983000  0.24564000  0.97051000  1.0
  C  C76  1  0.22856000  0.62658000  0.06219000  1.0
  C  C77  1  0.77145000  0.37342000  0.93780000  1.0
  C  C78  1  0.18086000  0.51997000  0.08202000  1.0
  C  C79  1  0.81914000  0.48003000  0.91797000  1.0
  C  C80  1  0.37149000  0.61703000  0.06727000  1.0
  C  C81  1  0.62851000  0.38297000  0.93273000  1.0
  C  C82  1  0.49869000  0.50764000  0.10109000  1.0
  C  C83  1  0.50131000  0.49236000  0.89890000  1.0
  C  C84  1  0.63904000  0.51944000  0.08648000  1.0
  C  C85  1  0.36095000  0.48056000  0.91351000  1.0
  C  C86  1  0.76575000  0.42014000  0.11995000  1.0
  C  C87  1  0.23425000  0.57986000  0.88005000  1.0
  C  C88  1  0.75258000  0.30764000  0.17176000  1.0
  C  C89  1  0.24742000  0.69236000  0.82824000  1.0
  C  C90  1  0.61549000  0.29248000  0.18730000  1.0
  C  C91  1  0.38450000  0.70752000  0.81270000  1.0
  C  C92  1  0.49080000  0.39071000  0.15145000  1.0
  C  C93  1  0.50920000  0.60930000  0.84855000  1.0
  C  C94  1  0.45426000  0.17663000  0.87652000  1.0
  C  C95  1  0.54575000  0.82338000  0.12348000  1.0
  C  C96  1  0.42164000  0.26643000  0.79416000  1.0
  C  C97  1  0.57836000  0.73357000  0.20584000  1.0
  C  C98  1  0.53847000  0.24459000  0.73618000  1.0
  C  C99  1  0.46152000  0.75541000  0.26382000  1.0
  C  C100  1  0.28600000  0.36272000  0.77958000  1.0
  C  C101  1  0.71399000  0.63727000  0.22042000  1.0
  C  C102  1  0.23109000  0.47025000  0.71099000  1.0
  C  C103  1  0.76891000  0.52974000  0.28902000  1.0
  C  C104  1  0.08080000  0.55074000  0.71251000  1.0
  C  C105  1  0.91920000  0.44925000  0.28749000  1.0
  C  C106  1  0.01969000  0.65816000  0.64993000  1.0
  C  C107  1  0.98031000  0.34184000  0.35007000  1.0
  C  C108  1  0.10947000  0.68980000  0.58403000  1.0
  C  C109  1  0.89053000  0.31020000  0.41598000  1.0
  C  C110  1  0.25981000  0.61313000  0.58178000  1.0
  C  C111  1  0.74019000  0.38687000  0.41822000  1.0
  C  C112  1  0.31897000  0.50443000  0.64381000  1.0
  C  C113  1  0.68102000  0.49557000  0.35619000  1.0
  C  C114  1  0.71964000  0.86865000  0.80932000  1.0
  C  C115  1  0.28034000  0.13136000  0.19069000  1.0
  N  N116  1  0.70780000  0.78369000  0.39953000  1.0
  N  N117  1  0.29219000  0.21630000  0.60046000  1.0
  N  N118  1  0.14010000  0.43269000  0.09640000  1.0
  N  N119  1  0.85990000  0.56731000  0.90360000  1.0
  N  N120  1  0.63343000  0.22291000  0.68804000  1.0
  N  N121  1  0.36658000  0.77708000  0.31197000  1.0
  O  O122  1  0.85589000  0.92654000  0.13243000  1.0
  O  O123  1  0.14411000  0.07346000  0.86756000  1.0
  O  O124  1  0.65999000  0.99270000  0.21416000  1.0
  O  O125  1  0.34001000  0.00731000  0.78584000  1.0
  O  O126  1  0.41863000  0.30252000  0.46030000  1.0
  O  O127  1  0.58137000  0.69749000  0.53970000  1.0
  O  O128  1  0.98688000  0.75211000  0.01491000  1.0
  O  O129  1  0.01313000  0.24789000  0.98508000  1.0
  O  O130  1  0.13796000  0.85699000  0.01978000  1.0
  O  O131  1  0.86203000  0.14302000  0.98022000  1.0
  O  O132  1  0.87802000  0.21245000  0.20740000  1.0
  O  O133  1  0.12198000  0.78755000  0.79260000  1.0
  O  O134  1  0.58820000  0.10408000  0.89067000  1.0
  O  O135  1  0.41181000  0.89592000  0.10933000  1.0
  O  O136  1  0.34934000  0.17901000  0.92829000  1.0
  O  O137  1  0.65067000  0.82098000  0.07171000  1.0
  O  O138  1  0.04613000  0.79576000  0.52343000  1.0
  O  O139  1  0.95388000  0.20423000  0.47658000  1.0
  O  O140  1  0.56992000  0.11675000  0.06491000  1.0
  O  O141  1  0.43009000  0.88325000  0.93509000  1.0
  O  O142  1  0.93295000  0.98282000  0.86563000  1.0
  O  O143  1  0.06705000  0.01717000  0.13438000  1.0
  O  O144  1  0.73708000  0.82834000  0.89605000  1.0
  O  O145  1  0.26292000  0.17167000  0.10396000  1.0
