# generated using pymatgen
data_Zn4H8C28S2Br2O13F4
_symmetry_space_group_name_H-M   'P 1'
_cell_length_a   18.57290000
_cell_length_b   19.74060000
_cell_length_c   32.86178024
_cell_angle_alpha   78.61639462
_cell_angle_beta   73.58482511
_cell_angle_gamma   61.93270000
_symmetry_Int_Tables_number   1
_chemical_formula_structural   Zn4H8C28S2Br2O13F4
_chemical_formula_sum   'Zn16 H32 C112 S8 Br8 O52 F16'
_cell_volume   10168.57642711
_cell_formula_units_Z   4
loop_
 _symmetry_equiv_pos_site_id
 _symmetry_equiv_pos_as_xyz
  1  'x, y, z'
loop_
 _atom_site_type_symbol
 _atom_site_label
 _atom_site_symmetry_multiplicity
 _atom_site_fract_x
 _atom_site_fract_y
 _atom_site_fract_z
 _atom_site_occupancy
  Zn  Zn0  1  0.60714000  0.44450000  0.51865000  1.0
  Zn  Zn1  1  0.52332000  0.51468000  0.43846000  1.0
  Zn  Zn2  1  0.43446000  0.60188000  0.52360000  1.0
  Zn  Zn3  1  0.43475000  0.43987000  0.51841000  1.0
  Zn  Zn4  1  0.64300000  0.80791000  0.73268000  1.0
  Zn  Zn5  1  0.80949000  0.65017000  0.72548000  1.0
  Zn  Zn6  1  0.72944000  0.73430000  0.81275000  1.0
  Zn  Zn7  1  0.81803000  0.80757000  0.72912000  1.0
  Zn  Zn8  1  0.22403000  0.23857000  0.31277000  1.0
  Zn  Zn9  1  0.31594000  0.30715000  0.23081000  1.0
  Zn  Zn10  1  0.14536000  0.30729000  0.22904000  1.0
  Zn  Zn11  1  0.31525000  0.14799000  0.22653000  1.0
  Zn  Zn12  1  0.94061000  0.09968000  0.02469000  1.0
  Zn  Zn13  1  0.92981000  0.94449000  0.01828000  1.0
  Zn  Zn14  1  0.10418000  0.94033000  0.01985000  1.0
  Zn  Zn15  1  0.02629000  0.01565000  0.93724000  1.0
  H  H16  1  0.83516000  0.51761000  0.62176000  1.0
  H  H17  1  0.78467000  0.47735000  0.66706000  1.0
  H  H18  1  0.73674000  0.42929000  0.61898000  1.0
  H  H19  1  0.78744000  0.46943000  0.57366000  1.0
  H  H20  1  0.21615000  0.32606000  0.43098000  1.0
  H  H21  1  0.30933000  0.23775000  0.42839000  1.0
  H  H22  1  0.35767000  0.28561000  0.47637000  1.0
  H  H23  1  0.26458000  0.37391000  0.47889000  1.0
  H  H24  1  0.02466000  0.23755000  0.42806000  1.0
  H  H25  1  0.02711000  0.32583000  0.43051000  1.0
  H  H26  1  0.88320000  0.37385000  0.47857000  1.0
  H  H27  1  0.88049000  0.28570000  0.47614000  1.0
  H  H28  1  0.03525000  0.82070000  0.63108000  1.0
  H  H29  1  0.08050000  0.78039000  0.67644000  1.0
  H  H30  1  0.22467000  0.73238000  0.62843000  1.0
  H  H31  1  0.17928000  0.77269000  0.58310000  1.0
  H  H32  1  0.22386000  0.92343000  0.81941000  1.0
  H  H33  1  0.22633000  0.01161000  0.82190000  1.0
  H  H34  1  0.37043000  0.96366000  0.77398000  1.0
  H  H35  1  0.36809000  0.87540000  0.77146000  1.0
  H  H36  1  0.85800000  0.78641000  0.97592000  1.0
  H  H37  1  0.76467000  0.87453000  0.97837000  1.0
  H  H38  1  0.71688000  0.82634000  0.93036000  1.0
  H  H39  1  0.81001000  0.73817000  0.92800000  1.0
  H  H40  1  0.66968000  0.96889000  0.07352000  1.0
  H  H41  1  0.71534000  0.92850000  0.11880000  1.0
  H  H42  1  0.57136000  0.97651000  0.16694000  1.0
  H  H43  1  0.52580000  0.01679000  0.12167000  1.0
  H  H44  1  0.96511000  0.27284000  0.08308000  1.0
  H  H45  1  0.91468000  0.23263000  0.12845000  1.0
  H  H46  1  0.96284000  0.28055000  0.17642000  1.0
  H  H47  1  0.01296000  0.32107000  0.13109000  1.0
  C  C48  1  0.70659000  0.43186000  0.43110000  1.0
  C  C49  1  0.43797000  0.68420000  0.43858000  1.0
  C  C50  1  0.56803000  0.56989000  0.56843000  1.0
  C  C51  1  0.29348000  0.56779000  0.56842000  1.0
  C  C52  1  0.56346000  0.31621000  0.56074000  1.0
  C  C53  1  0.43160000  0.43080000  0.43101000  1.0
  C  C54  1  0.67944000  0.68223000  0.68143000  1.0
  C  C55  1  0.81166000  0.56561000  0.81077000  1.0
  C  C56  1  0.54447000  0.81819000  0.81959000  1.0
  C  C57  1  0.82015000  0.81869000  0.81812000  1.0
  C  C58  1  0.68776000  0.93395000  0.68871000  1.0
  C  C59  1  0.95578000  0.68078000  0.68059000  1.0
  C  C60  1  0.31799000  0.31942000  0.31887000  1.0
  C  C61  1  0.18909000  0.43392000  0.18829000  1.0
  C  C62  1  0.04352000  0.31940000  0.31832000  1.0
  C  C63  1  0.18292000  0.18052000  0.18084000  1.0
  C  C64  1  0.31086000  0.06757000  0.31208000  1.0
  C  C65  1  0.45694000  0.18131000  0.18123000  1.0
  C  C66  1  0.79388000  0.06922000  0.06871000  1.0
  C  C67  1  0.05833000  0.81639000  0.06119000  1.0
  C  C68  1  0.06977000  0.06772000  0.06909000  1.0
  C  C69  1  0.20681000  0.93072000  0.93150000  1.0
  C  C70  1  0.93970000  0.18424000  0.93932000  1.0
  C  C71  1  0.93140000  0.93222000  0.93071000  1.0
  C  C72  1  0.66225000  0.19686000  0.60092000  1.0
  C  C73  1  0.58845000  0.05369000  0.64900000  1.0
  C  C74  1  0.58940000  0.24160000  0.58592000  1.0
  C  C75  1  0.66151000  0.00883000  0.66383000  1.0
  C  C76  1  0.58873000  0.12219000  0.62601000  1.0
  C  C77  1  0.66208000  0.12832000  0.62386000  1.0
  C  C78  1  0.42873000  0.77362000  0.36902000  1.0
  C  C79  1  0.32014000  0.97780000  0.38161000  1.0
  C  C80  1  0.41410000  0.75824000  0.41301000  1.0
  C  C81  1  0.33464000  0.99341000  0.33768000  1.0
  C  C82  1  0.35436000  0.89779000  0.39309000  1.0
  C  C83  1  0.39443000  0.85372000  0.35758000  1.0
  C  C84  1  0.64994000  0.65532000  0.65291000  1.0
  C  C85  1  0.59468000  0.59957000  0.59702000  1.0
  C  C86  1  0.69698000  0.58299000  0.63647000  1.0
  C  C87  1  0.54660000  0.67264000  0.61342000  1.0
  C  C88  1  0.67065000  0.55645000  0.60986000  1.0
  C  C89  1  0.57314000  0.69940000  0.64024000  1.0
  C  C90  1  0.77808000  0.51007000  0.63606000  1.0
  C  C91  1  0.74814000  0.47992000  0.60592000  1.0
  C  C92  1  0.34765000  0.34798000  0.34644000  1.0
  C  C93  1  0.40387000  0.40326000  0.40199000  1.0
  C  C94  1  0.32904000  0.33627000  0.39079000  1.0
  C  C95  1  0.42317000  0.41555000  0.35724000  1.0
  C  C96  1  0.35584000  0.36255000  0.41725000  1.0
  C  C97  1  0.39623000  0.38890000  0.33054000  1.0
  C  C98  1  0.28418000  0.30060000  0.42752000  1.0
  C  C99  1  0.31453000  0.33057000  0.45757000  1.0
  C  C100  1  0.95771000  0.34785000  0.34606000  1.0
  C  C101  1  0.79081000  0.40365000  0.40193000  1.0
  C  C102  1  0.94392000  0.33614000  0.39044000  1.0
  C  C103  1  0.80371000  0.41569000  0.35719000  1.0
  C  C104  1  0.86446000  0.36268000  0.41702000  1.0
  C  C105  1  0.88391000  0.38881000  0.33038000  1.0
  C  C106  1  0.98790000  0.30040000  0.42714000  1.0
  C  C107  1  0.89762000  0.33055000  0.45729000  1.0
  C  C108  1  0.04128000  0.65062000  0.65261000  1.0
  C  C109  1  0.20853000  0.59470000  0.59700000  1.0
  C  C110  1  0.08713000  0.69356000  0.64001000  1.0
  C  C111  1  0.16310000  0.55063000  0.60963000  1.0
  C  C112  1  0.16677000  0.66698000  0.61352000  1.0
  C  C113  1  0.08285000  0.57745000  0.63632000  1.0
  C  C114  1  0.08413000  0.76999000  0.64414000  1.0
  C  C115  1  0.17444000  0.73989000  0.61407000  1.0
  C  C116  1  0.88098000  0.41651000  0.82089000  1.0
  C  C117  1  0.86897000  0.33333333  0.92928000  1.0
  C  C118  1  0.83713000  0.49022000  0.83507000  1.0
  C  C119  1  0.91323000  0.25968000  0.91505000  1.0
  C  C120  1  0.85723000  0.39056000  0.89496000  1.0
  C  C121  1  0.89266000  0.35930000  0.85518000  1.0
  C  C122  1  0.29271000  0.90176000  0.90396000  1.0
  C  C123  1  0.45998000  0.84601000  0.84853000  1.0
  C  C124  1  0.30689000  0.91325000  0.85958000  1.0
  C  C125  1  0.44657000  0.83411000  0.89325000  1.0
  C  C126  1  0.38654000  0.88669000  0.83314000  1.0
  C  C127  1  0.36625000  0.86083000  0.91990000  1.0
  C  C128  1  0.26313000  0.94878000  0.82283000  1.0
  C  C129  1  0.35348000  0.91868000  0.79280000  1.0
  C  C130  1  0.90419000  0.90415000  0.90159000  1.0
  C  C131  1  0.84898000  0.84796000  0.84584000  1.0
  C  C132  1  0.85620000  0.86335000  0.91677000  1.0
  C  C133  1  0.89738000  0.88905000  0.83011000  1.0
  C  C134  1  0.82990000  0.83657000  0.89025000  1.0
  C  C135  1  0.92393000  0.91596000  0.85686000  1.0
  C  C136  1  0.81485000  0.83126000  0.95707000  1.0
  C  C137  1  0.78487000  0.80102000  0.92699000  1.0
  C  C138  1  0.20815000  0.55367000  0.14884000  1.0
  C  C139  1  0.03891000  0.69692000  0.10103000  1.0
  C  C140  1  0.16505000  0.50883000  0.16362000  1.0
  C  C141  1  0.08195000  0.74171000  0.08615000  1.0
  C  C142  1  0.08475000  0.62838000  0.12390000  1.0
  C  C143  1  0.16208000  0.62229000  0.12603000  1.0
  C  C144  1  0.70887000  0.09891000  0.09709000  1.0
  C  C145  1  0.54192000  0.15447000  0.15281000  1.0
  C  C146  1  0.66331000  0.05571000  0.10982000  1.0
  C  C147  1  0.58710000  0.19878000  0.14017000  1.0
  C  C148  1  0.58384000  0.08216000  0.13640000  1.0
  C  C149  1  0.66734000  0.17202000  0.11346000  1.0
  C  C150  1  0.66635000  0.97920000  0.10579000  1.0
  C  C151  1  0.57612000  0.00927000  0.13595000  1.0
  C  C152  1  0.09977000  0.09481000  0.09722000  1.0
  C  C153  1  0.15575000  0.15066000  0.15262000  1.0
  C  C154  1  0.05294000  0.16724000  0.11355000  1.0
  C  C155  1  0.20358000  0.07747000  0.13636000  1.0
  C  C156  1  0.07957000  0.19384000  0.13997000  1.0
  C  C157  1  0.17673000  0.05062000  0.10974000  1.0
  C  C158  1  0.97178000  0.24011000  0.11408000  1.0
  C  C159  1  0.00192000  0.27026000  0.14412000  1.0
  S  S160  1  0.52042000  0.19976000  0.60000000  1.0
  S  S161  1  0.73055000  0.05062000  0.64969000  1.0
  S  S162  1  0.35848000  0.84171000  0.44033000  1.0
  S  S163  1  0.39022000  0.90994000  0.31036000  1.0
  S  S164  1  0.81001000  0.48945000  0.89049000  1.0
  S  S165  1  0.94025000  0.26038000  0.85966000  1.0
  S  S166  1  0.06820000  0.55065000  0.14965000  1.0
  S  S167  1  0.17875000  0.69993000  0.10018000  1.0
  Br  Br168  1  0.75322000  0.21912000  0.59344000  1.0
  Br  Br169  1  0.49758000  0.03142000  0.65643000  1.0
  Br  Br170  1  0.48544000  0.70201000  0.32750000  1.0
  Br  Br171  1  0.26332000  0.04933000  0.42333000  1.0
  Br  Br172  1  0.92283000  0.38980000  0.76429000  1.0
  Br  Br173  1  0.82714000  0.35996000  0.98587000  1.0
  Br  Br174  1  0.31380000  0.53144000  0.15618000  1.0
  Br  Br175  1  0.93322000  0.71922000  0.09345000  1.0
  O  O176  1  0.49985000  0.49977000  0.50084000  1.0
  O  O177  1  0.70569000  0.41672000  0.47090000  1.0
  O  O178  1  0.47932000  0.62355000  0.41849000  1.0
  O  O179  1  0.49761000  0.61279000  0.55876000  1.0
  O  O180  1  0.64336000  0.46823000  0.41433000  1.0
  O  O181  1  0.61976000  0.50273000  0.55611000  1.0
  O  O182  1  0.41465000  0.68769000  0.47908000  1.0
  O  O183  1  0.32480000  0.61581000  0.55950000  1.0
  O  O184  1  0.49230000  0.34280000  0.55104000  1.0
  O  O185  1  0.32722000  0.50076000  0.55542000  1.0
  O  O186  1  0.61321000  0.34728000  0.55091000  1.0
  O  O187  1  0.47340000  0.46889000  0.41425000  1.0
  O  O188  1  0.41041000  0.41341000  0.47074000  1.0
  O  O189  1  0.75039000  0.75027000  0.75021000  1.0
  O  O190  1  0.63262000  0.74872000  0.69502000  1.0
  O  O191  1  0.82944000  0.56590000  0.77039000  1.0
  O  O192  1  0.60808000  0.78128000  0.83610000  1.0
  O  O193  1  0.75060000  0.63478000  0.68970000  1.0
  O  O194  1  0.54488000  0.83454000  0.77988000  1.0
  O  O195  1  0.77351000  0.62443000  0.83284000  1.0
  O  O196  1  0.77819000  0.78130000  0.83767000  1.0
  O  O197  1  0.76059000  0.90537000  0.69678000  1.0
  O  O198  1  0.83915000  0.83294000  0.77811000  1.0
  O  O199  1  0.63648000  0.90448000  0.69992000  1.0
  O  O200  1  0.91897000  0.63751000  0.69040000  1.0
  O  O201  1  0.92694000  0.74860000  0.69219000  1.0
  O  O202  1  0.24907000  0.24926000  0.25028000  1.0
  O  O203  1  0.27409000  0.28374000  0.33831000  1.0
  O  O204  1  0.25936000  0.40406000  0.19877000  1.0
  O  O205  1  0.05020000  0.33216000  0.27830000  1.0
  O  O206  1  0.33830000  0.33269000  0.27889000  1.0
  O  O207  1  0.10337000  0.28428000  0.33798000  1.0
  O  O208  1  0.13656000  0.40543000  0.19700000  1.0
  O  O209  1  0.13241000  0.24856000  0.19216000  1.0
  O  O210  1  0.33441000  0.06343000  0.27166000  1.0
  O  O211  1  0.25268000  0.13698000  0.19116000  1.0
  O  O212  1  0.26969000  0.12840000  0.33204000  1.0
  O  O213  1  0.42303000  0.24876000  0.19364000  1.0
  O  O214  1  0.42549000  0.13333000  0.19064000  1.0
  O  O215  1  0.99953000  0.99984000  0.99966000  1.0
  O  O216  1  0.83139000  0.11182000  0.05968000  1.0
  O  O217  1  0.98786000  0.84728000  0.05079000  1.0
  O  O218  1  0.11536000  0.00034000  0.05651000  1.0
  O  O219  1  0.82159000  0.00246000  0.05592000  1.0
  O  O220  1  0.99940000  0.11581000  0.06009000  1.0
  O  O221  1  0.11211000  0.84343000  0.05220000  1.0
  O  O222  1  0.20001000  0.91523000  0.97143000  1.0
  O  O223  1  0.98061000  0.12551000  0.91714000  1.0
  O  O224  1  0.14697000  0.96902000  0.91201000  1.0
  O  O225  1  0.92009000  0.18391000  0.97969000  1.0
  O  O226  1  0.90700000  0.91721000  0.97044000  1.0
  O  O227  1  0.97568000  0.96806000  0.91409000  1.0
  F  F228  1  0.47159000  0.72150000  0.60420000  1.0
  F  F229  1  0.52025000  0.77052000  0.65331000  1.0
  F  F230  1  0.46898000  0.45382000  0.33736000  1.0
  F  F231  1  0.41972000  0.40500000  0.28848000  1.0
  F  F232  1  0.73936000  0.45414000  0.33741000  1.0
  F  F233  1  0.88611000  0.40487000  0.28832000  1.0
  F  F234  1  0.19439000  0.47955000  0.59649000  1.0
  F  F235  1  0.04748000  0.52857000  0.64544000  1.0
  F  F236  1  0.51084000  0.79610000  0.91317000  1.0
  F  F237  1  0.36369000  0.84510000  0.96198000  1.0
  F  F238  1  0.92133000  0.90487000  0.78800000  1.0
  F  F239  1  0.96991000  0.95420000  0.83699000  1.0
  F  F240  1  0.55575000  0.26987000  0.15318000  1.0
  F  F241  1  0.70261000  0.22096000  0.10424000  1.0
  F  F242  1  0.27868000  0.02862000  0.14549000  1.0
  F  F243  1  0.22939000  0.97957000  0.09666000  1.0
