# generated using pymatgen
data_K2MnH32C28(S2O13)2
_symmetry_space_group_name_H-M   'P 1'
_cell_length_a   7.99696000
_cell_length_b   9.91244000
_cell_length_c   12.50880000
_cell_angle_alpha   98.51290000
_cell_angle_beta   95.39490000
_cell_angle_gamma   105.62000000
_symmetry_Int_Tables_number   1
_chemical_formula_structural   K2MnH32C28(S2O13)2
_chemical_formula_sum   'K2 Mn1 H32 C28 S4 O26'
_cell_volume   935.04781560
_cell_formula_units_Z   1
loop_
 _symmetry_equiv_pos_site_id
 _symmetry_equiv_pos_as_xyz
  1  'x, y, z'
loop_
 _atom_site_type_symbol
 _atom_site_label
 _atom_site_symmetry_multiplicity
 _atom_site_fract_x
 _atom_site_fract_y
 _atom_site_fract_z
 _atom_site_occupancy
  K  K0  1  0.36897000  0.07728000  0.09640000  1.0
  K  K1  1  0.63104000  0.92271000  0.90360000  1.0
  Mn  Mn2  1  0.00001000  0.50000000  0.00000000  1.0
  H  H3  1  0.23840000  0.36497000  0.90851000  1.0
  H  H4  1  0.76162000  0.63504000  0.09149000  1.0
  H  H5  1  0.10814000  0.38662000  0.81233000  1.0
  H  H6  1  0.89187000  0.61338000  0.18767000  1.0
  H  H7  1  0.99925000  0.81252000  0.13630000  1.0
  H  H8  1  0.00076000  0.18748000  0.86371000  1.0
  H  H9  1  0.96858000  0.96416000  0.13536000  1.0
  H  H10  1  0.03141000  0.03584000  0.86464000  1.0
  H  H11  1  0.54427000  0.43267000  0.11576000  1.0
  H  H12  1  0.45573000  0.56733000  0.88425000  1.0
  H  H13  1  0.68964000  0.35156000  0.12737000  1.0
  H  H14  1  0.31034000  0.64843000  0.87263000  1.0
  H  H15  1  0.63489000  0.24217000  0.47861000  1.0
  H  H16  1  0.36513000  0.75784000  0.52140000  1.0
  H  H17  1  0.75578000  0.33195000  0.67726000  1.0
  H  H18  1  0.24423000  0.66804000  0.32275000  1.0
  H  H19  1  0.24963000  0.12584000  0.76080000  1.0
  H  H20  1  0.75036000  0.87418000  0.23919000  1.0
  H  H21  1  0.13599000  0.03346000  0.56526000  1.0
  H  H22  1  0.86401000  0.96657000  0.43474000  1.0
  H  H23  1  0.38023000  0.49333000  0.45415000  1.0
  H  H24  1  0.61977000  0.50664000  0.54584000  1.0
  H  H25  1  0.29152000  0.40660000  0.25487000  1.0
  H  H26  1  0.70848000  0.59338000  0.74512000  1.0
  H  H27  1  0.78843000  0.15700000  0.31423000  1.0
  H  H28  1  0.21156000  0.84300000  0.68576000  1.0
  H  H29  1  0.88605000  0.23671000  0.51576000  1.0
  H  H30  1  0.11394000  0.76328000  0.48423000  1.0
  H  H31  1  0.11829000  0.96128000  0.28601000  1.0
  H  H32  1  0.88170000  0.03874000  0.71399000  1.0
  H  H33  1  0.36622000  0.56243000  0.72758000  1.0
  H  H34  1  0.63376000  0.43756000  0.27242000  1.0
  C  C35  1  0.32078000  0.07619000  0.39112000  1.0
  C  C36  1  0.67922000  0.92383000  0.60888000  1.0
  C  C37  1  0.38170000  0.13036000  0.51012000  1.0
  C  C38  1  0.61831000  0.86966000  0.48988000  1.0
  C  C39  1  0.55445000  0.21579000  0.54221000  1.0
  C  C40  1  0.44557000  0.78422000  0.45780000  1.0
  C  C41  1  0.62026000  0.26741000  0.65224000  1.0
  C  C42  1  0.37976000  0.73258000  0.34777000  1.0
  C  C43  1  0.50867000  0.23523000  0.72998000  1.0
  C  C44  1  0.49133000  0.76478000  0.27002000  1.0
  C  C45  1  0.33484000  0.15071000  0.69914000  1.0
  C  C46  1  0.66517000  0.84930000  0.30086000  1.0
  C  C47  1  0.27147000  0.09807000  0.58929000  1.0
  C  C48  1  0.72853000  0.90195000  0.41071000  1.0
  C  C49  1  0.18281000  0.42707000  0.61642000  1.0
  C  C50  1  0.81718000  0.57293000  0.38358000  1.0
  C  C51  1  0.13498000  0.37353000  0.49680000  1.0
  C  C52  1  0.86502000  0.62647000  0.50320000  1.0
  C  C53  1  0.25123000  0.41988000  0.42389000  1.0
  C  C54  1  0.74877000  0.58010000  0.57610000  1.0
  C  C55  1  0.20195000  0.37206000  0.31224000  1.0
  C  C56  1  0.79805000  0.62793000  0.68775000  1.0
  C  C57  1  0.03466000  0.27959000  0.27372000  1.0
  C  C58  1  0.96534000  0.72041000  0.72628000  1.0
  C  C59  1  0.91762000  0.23077000  0.34537000  1.0
  C  C60  1  0.08237000  0.76923000  0.65463000  1.0
  C  C61  1  0.97013000  0.27674000  0.45716000  1.0
  C  C62  1  0.02987000  0.72325000  0.54283000  1.0
  S  S63  1  0.57991000  0.30252000  0.87166000  1.0
  S  S64  1  0.42010000  0.69747000  0.12835000  1.0
  S  S65  1  0.97323000  0.22607000  0.13021000  1.0
  S  S66  1  0.02676000  0.77393000  0.86979000  1.0
  O  O67  1  0.41613000  0.10550000  0.32058000  1.0
  O  O68  1  0.58388000  0.89450000  0.67942000  1.0
  O  O69  1  0.15537000  0.99352000  0.36924000  1.0
  O  O70  1  0.84464000  0.00651000  0.63077000  1.0
  O  O71  1  0.56305000  0.17900000  0.92515000  1.0
  O  O72  1  0.43694000  0.82099000  0.07485000  1.0
  O  O73  1  0.46127000  0.38663000  0.90740000  1.0
  O  O74  1  0.53876000  0.61337000  0.09260000  1.0
  O  O75  1  0.76148000  0.39546000  0.88044000  1.0
  O  O76  1  0.23853000  0.60453000  0.11957000  1.0
  O  O77  1  0.07890000  0.38928000  0.68183000  1.0
  O  O78  1  0.92108000  0.61072000  0.31817000  1.0
  O  O79  1  0.34081000  0.51818000  0.64440000  1.0
  O  O80  1  0.65918000  0.48182000  0.35560000  1.0
  O  O81  1  0.89683000  0.33829000  0.09614000  1.0
  O  O82  1  0.10315000  0.66171000  0.90385000  1.0
  O  O83  1  0.13269000  0.22579000  0.08289000  1.0
  O  O84  1  0.86730000  0.77419000  0.91710000  1.0
  O  O85  1  0.83900000  0.08715000  0.11187000  1.0
  O  O86  1  0.16098000  0.91285000  0.88812000  1.0
  O  O87  1  0.11585000  0.36725000  0.88943000  1.0
  O  O88  1  0.88417000  0.63276000  0.11057000  1.0
  O  O89  1  0.05447000  0.91669000  0.16140000  1.0
  O  O90  1  0.94553000  0.08332000  0.83860000  1.0
  O  O91  1  0.58213000  0.36467000  0.15577000  1.0
  O  O92  1  0.41785000  0.63531000  0.84424000  1.0
