# generated using pymatgen
data_Cd2H28C35(N2O3)3
_symmetry_space_group_name_H-M   'P 1'
_cell_length_a   15.68470000
_cell_length_b   16.18560000
_cell_length_c   16.76260000
_cell_angle_alpha   89.99990000
_cell_angle_beta   89.99980000
_cell_angle_gamma   117.19000000
_symmetry_Int_Tables_number   1
_chemical_formula_structural   Cd2H28C35(N2O3)3
_chemical_formula_sum   'Cd8 H112 C140 N24 O36'
_cell_volume   3785.21426788
_cell_formula_units_Z   4
loop_
 _symmetry_equiv_pos_site_id
 _symmetry_equiv_pos_as_xyz
  1  'x, y, z'
loop_
 _atom_site_type_symbol
 _atom_site_label
 _atom_site_symmetry_multiplicity
 _atom_site_fract_x
 _atom_site_fract_y
 _atom_site_fract_z
 _atom_site_occupancy
  Cd  Cd0  1  0.16602000  0.82344000  0.72345000  1.0
  Cd  Cd1  1  0.88579000  0.71211000  0.69854000  1.0
  Cd  Cd2  1  0.33398000  0.17656000  0.22345000  1.0
  Cd  Cd3  1  0.61421000  0.28789000  0.19854000  1.0
  Cd  Cd4  1  0.83398000  0.17656000  0.27655000  1.0
  Cd  Cd5  1  0.11421000  0.28789000  0.30147000  1.0
  Cd  Cd6  1  0.66602000  0.82344000  0.77655000  1.0
  Cd  Cd7  1  0.38579000  0.71211000  0.80147000  1.0
  H  H8  1  0.77167000  0.77738000  0.59700000  1.0
  H  H9  1  0.78774000  0.68606000  0.55899000  1.0
  H  H10  1  0.93916000  0.23161000  0.07654000  1.0
  H  H11  1  0.06637000  0.29232000  0.08014000  1.0
  H  H12  1  0.85809000  0.30565000  0.01275000  1.0
  H  H13  1  0.85750000  0.42861000  0.92701000  1.0
  H  H14  1  0.14737000  0.49856000  0.85151000  1.0
  H  H15  1  0.14789000  0.37924000  0.94231000  1.0
  H  H16  1  0.86061000  0.12172000  0.95875000  1.0
  H  H17  1  0.86783000  0.00166000  0.87318000  1.0
  H  H18  1  0.16742000  0.10347000  0.93528000  1.0
  H  H19  1  0.16015000  0.22714000  0.01565000  1.0
  H  H20  1  0.15976000  0.64196000  0.83825000  1.0
  H  H21  1  0.85737000  0.50728000  0.80382000  1.0
  H  H22  1  0.87052000  0.87632000  0.83419000  1.0
  H  H23  1  0.17458000  0.01957000  0.83095000  1.0
  H  H24  1  0.21405000  0.99825000  0.48615000  1.0
  H  H25  1  0.00762000  0.98253000  0.31008000  1.0
  H  H26  1  0.91720000  0.80473000  0.51655000  1.0
  H  H27  1  0.79757000  0.79829000  0.42330000  1.0
  H  H28  1  0.83760000  0.82638000  0.32316000  1.0
  H  H29  1  0.82454000  0.90966000  0.38386000  1.0
  H  H30  1  0.23047000  0.51143000  0.59735000  1.0
  H  H31  1  0.08440000  0.52346000  0.38489000  1.0
  H  H32  1  0.14397000  0.72675000  0.57035000  1.0
  H  H33  1  0.02423000  0.63542000  0.37056000  1.0
  H  H34  1  0.10681000  0.74608000  0.40853000  1.0
  H  H35  1  0.99916000  0.67858000  0.46029000  1.0
  H  H36  1  0.72832000  0.22263000  0.09700000  1.0
  H  H37  1  0.71226000  0.31394000  0.05899000  1.0
  H  H38  1  0.56084000  0.76839000  0.57654000  1.0
  H  H39  1  0.43364000  0.70768000  0.58014000  1.0
  H  H40  1  0.64191000  0.69434000  0.51275000  1.0
  H  H41  1  0.64249000  0.57139000  0.42701000  1.0
  H  H42  1  0.35264000  0.50144000  0.35150000  1.0
  H  H43  1  0.35212000  0.62076000  0.44231000  1.0
  H  H44  1  0.63939000  0.87828000  0.45875000  1.0
  H  H45  1  0.63217000  0.99833000  0.37317000  1.0
  H  H46  1  0.33258000  0.89653000  0.43528000  1.0
  H  H47  1  0.33985000  0.77286000  0.51566000  1.0
  H  H48  1  0.34024000  0.35804000  0.33825000  1.0
  H  H49  1  0.64263000  0.49272000  0.30382000  1.0
  H  H50  1  0.62948000  0.12368000  0.33418000  1.0
  H  H51  1  0.32542000  0.98042000  0.33095000  1.0
  H  H52  1  0.28595000  0.00175000  0.98614000  1.0
  H  H53  1  0.49237000  0.01747000  0.81007000  1.0
  H  H54  1  0.58280000  0.19527000  0.01654000  1.0
  H  H55  1  0.70242000  0.20171000  0.92329000  1.0
  H  H56  1  0.66240000  0.17362000  0.82316000  1.0
  H  H57  1  0.67545000  0.09033000  0.88386000  1.0
  H  H58  1  0.26953000  0.48858000  0.09735000  1.0
  H  H59  1  0.41561000  0.47653000  0.88489000  1.0
  H  H60  1  0.35603000  0.27325000  0.07036000  1.0
  H  H61  1  0.47577000  0.36458000  0.87056000  1.0
  H  H62  1  0.39320000  0.25391000  0.90854000  1.0
  H  H63  1  0.50084000  0.32142000  0.96029000  1.0
  H  H64  1  0.22833000  0.22263000  0.40300000  1.0
  H  H65  1  0.21227000  0.31394000  0.44101000  1.0
  H  H66  1  0.06084000  0.76839000  0.92346000  1.0
  H  H67  1  0.93363000  0.70768000  0.91986000  1.0
  H  H68  1  0.14191000  0.69434000  0.98725000  1.0
  H  H69  1  0.14249000  0.57139000  0.07298000  1.0
  H  H70  1  0.85263000  0.50143000  0.14849000  1.0
  H  H71  1  0.85211000  0.62075000  0.05769000  1.0
  H  H72  1  0.13940000  0.87829000  0.04125000  1.0
  H  H73  1  0.13218000  0.99834000  0.12682000  1.0
  H  H74  1  0.83258000  0.89652000  0.06473000  1.0
  H  H75  1  0.83985000  0.77286000  0.98435000  1.0
  H  H76  1  0.84024000  0.35803000  0.16174000  1.0
  H  H77  1  0.14263000  0.49272000  0.19618000  1.0
  H  H78  1  0.12948000  0.12368000  0.16582000  1.0
  H  H79  1  0.82542000  0.98042000  0.16906000  1.0
  H  H80  1  0.78594000  0.00175000  0.51385000  1.0
  H  H81  1  0.99236000  0.01747000  0.68993000  1.0
  H  H82  1  0.08279000  0.19527000  0.48346000  1.0
  H  H83  1  0.20242000  0.20172000  0.57671000  1.0
  H  H84  1  0.16239000  0.17363000  0.67684000  1.0
  H  H85  1  0.17545000  0.09034000  0.61615000  1.0
  H  H86  1  0.76953000  0.48859000  0.40265000  1.0
  H  H87  1  0.91561000  0.47654000  0.61511000  1.0
  H  H88  1  0.85603000  0.27325000  0.42965000  1.0
  H  H89  1  0.97577000  0.36459000  0.62944000  1.0
  H  H90  1  0.89319000  0.25392000  0.59146000  1.0
  H  H91  1  0.00084000  0.32142000  0.53971000  1.0
  H  H92  1  0.27168000  0.77737000  0.90300000  1.0
  H  H93  1  0.28774000  0.68606000  0.94101000  1.0
  H  H94  1  0.43917000  0.23161000  0.42345000  1.0
  H  H95  1  0.56638000  0.29233000  0.41986000  1.0
  H  H96  1  0.35810000  0.30566000  0.48724000  1.0
  H  H97  1  0.35751000  0.42862000  0.57298000  1.0
  H  H98  1  0.64737000  0.49857000  0.64849000  1.0
  H  H99  1  0.64789000  0.37924000  0.55769000  1.0
  H  H100  1  0.36060000  0.12172000  0.54125000  1.0
  H  H101  1  0.36783000  0.00167000  0.62682000  1.0
  H  H102  1  0.66742000  0.10348000  0.56472000  1.0
  H  H103  1  0.66015000  0.22714000  0.48435000  1.0
  H  H104  1  0.65976000  0.64196000  0.66175000  1.0
  H  H105  1  0.35737000  0.50728000  0.69618000  1.0
  H  H106  1  0.37051000  0.87632000  0.66582000  1.0
  H  H107  1  0.67458000  0.01958000  0.66905000  1.0
  H  H108  1  0.71406000  0.99825000  0.01385000  1.0
  H  H109  1  0.50764000  0.98253000  0.18993000  1.0
  H  H110  1  0.41720000  0.80473000  0.98345000  1.0
  H  H111  1  0.29758000  0.79829000  0.07671000  1.0
  H  H112  1  0.33761000  0.82638000  0.17684000  1.0
  H  H113  1  0.32455000  0.90966000  0.11615000  1.0
  H  H114  1  0.73046000  0.51142000  0.90265000  1.0
  H  H115  1  0.58439000  0.52347000  0.11511000  1.0
  H  H116  1  0.64396000  0.72675000  0.92964000  1.0
  H  H117  1  0.52422000  0.63542000  0.12944000  1.0
  H  H118  1  0.60680000  0.74608000  0.09146000  1.0
  H  H119  1  0.49916000  0.67858000  0.03971000  1.0
  C  C120  1  0.00439000  0.26061000  0.03978000  1.0
  C  C121  1  0.00308000  0.33418000  0.98457000  1.0
  C  C122  1  0.92154000  0.34788000  0.97740000  1.0
  C  C123  1  0.92058000  0.41668000  0.92773000  1.0
  C  C124  1  0.00234000  0.47099000  0.88305000  1.0
  C  C125  1  0.08389000  0.45688000  0.88719000  1.0
  C  C126  1  0.08380000  0.38920000  0.93833000  1.0
  C  C127  1  0.00978000  0.18351000  0.99277000  1.0
  C  C128  1  0.92813000  0.11818000  0.95297000  1.0
  C  C129  1  0.93179000  0.04971000  0.90511000  1.0
  C  C130  1  0.01840000  0.04511000  0.89814000  1.0
  C  C131  1  0.10035000  0.10818000  0.93841000  1.0
  C  C132  1  0.09568000  0.17752000  0.98488000  1.0
  C  C133  1  0.08771000  0.62490000  0.81749000  1.0
  C  C134  1  0.93246000  0.55727000  0.80174000  1.0
  C  C135  1  0.94501000  0.89639000  0.82170000  1.0
  C  C136  1  0.10091000  0.96900000  0.82031000  1.0
  C  C137  1  0.06788000  0.89677000  0.50813000  1.0
  C  C138  1  0.14045000  0.96785000  0.46466000  1.0
  C  C139  1  0.11851000  0.99779000  0.39296000  1.0
  C  C140  1  0.02351000  0.95878000  0.36644000  1.0
  C  C141  1  0.94906000  0.89129000  0.41152000  1.0
  C  C142  1  0.97279000  0.85965000  0.48170000  1.0
  C  C143  1  0.09330000  0.86051000  0.58162000  1.0
  C  C144  1  0.19785000  0.06980000  0.34473000  1.0
  C  C145  1  0.84667000  0.85415000  0.38422000  1.0
  C  C146  1  0.19121000  0.62314000  0.59218000  1.0
  C  C147  1  0.19592000  0.54440000  0.56256000  1.0
  C  C148  1  0.15903000  0.51009000  0.48733000  1.0
  C  C149  1  0.11358000  0.55241000  0.44322000  1.0
  C  C150  1  0.10564000  0.62949000  0.47252000  1.0
  C  C151  1  0.14648000  0.66509000  0.54704000  1.0
  C  C152  1  0.24029000  0.66486000  0.66914000  1.0
  C  C153  1  0.17089000  0.43081000  0.45130000  1.0
  C  C154  1  0.05633000  0.67441000  0.42534000  1.0
  C  C155  1  0.49561000  0.73939000  0.53978000  1.0
  C  C156  1  0.49693000  0.66582000  0.48457000  1.0
  C  C157  1  0.57845000  0.65212000  0.47740000  1.0
  C  C158  1  0.57942000  0.58332000  0.42773000  1.0
  C  C159  1  0.49765000  0.52901000  0.38304000  1.0
  C  C160  1  0.41611000  0.54312000  0.38719000  1.0
  C  C161  1  0.41620000  0.61080000  0.43833000  1.0
  C  C162  1  0.49022000  0.81649000  0.49277000  1.0
  C  C163  1  0.57186000  0.88182000  0.45297000  1.0
  C  C164  1  0.56821000  0.95029000  0.40511000  1.0
  C  C165  1  0.48159000  0.95489000  0.39814000  1.0
  C  C166  1  0.39965000  0.89182000  0.43841000  1.0
  C  C167  1  0.40432000  0.82248000  0.48488000  1.0
  C  C168  1  0.41228000  0.37510000  0.31749000  1.0
  C  C169  1  0.56752000  0.44271000  0.30173000  1.0
  C  C170  1  0.55498000  0.10361000  0.32169000  1.0
  C  C171  1  0.39908000  0.03099000  0.32030000  1.0
  C  C172  1  0.43211000  0.10324000  0.00813000  1.0
  C  C173  1  0.35955000  0.03215000  0.96465000  1.0
  C  C174  1  0.38148000  0.00221000  0.89295000  1.0
  C  C175  1  0.47649000  0.04121000  0.86643000  1.0
  C  C176  1  0.55093000  0.10870000  0.91151000  1.0
  C  C177  1  0.52721000  0.14035000  0.98169000  1.0
  C  C178  1  0.40670000  0.13949000  0.08161000  1.0
  C  C179  1  0.30215000  0.93020000  0.84472000  1.0
  C  C180  1  0.65333000  0.14585000  0.88422000  1.0
  C  C181  1  0.30879000  0.37686000  0.09218000  1.0
  C  C182  1  0.30408000  0.45560000  0.06256000  1.0
  C  C183  1  0.34097000  0.48991000  0.98733000  1.0
  C  C184  1  0.38643000  0.44759000  0.94322000  1.0
  C  C185  1  0.39437000  0.37051000  0.97253000  1.0
  C  C186  1  0.35353000  0.33490000  0.04704000  1.0
  C  C187  1  0.25971000  0.33514000  0.16914000  1.0
  C  C188  1  0.32911000  0.56919000  0.95130000  1.0
  C  C189  1  0.44368000  0.32559000  0.92534000  1.0
  C  C190  1  0.99561000  0.73939000  0.96021000  1.0
  C  C191  1  0.99692000  0.66582000  0.01543000  1.0
  C  C192  1  0.07845000  0.65211000  0.02260000  1.0
  C  C193  1  0.07941000  0.58332000  0.07226000  1.0
  C  C194  1  0.99765000  0.52901000  0.11695000  1.0
  C  C195  1  0.91610000  0.54311000  0.11280000  1.0
  C  C196  1  0.91620000  0.61080000  0.06167000  1.0
  C  C197  1  0.99022000  0.81649000  0.00723000  1.0
  C  C198  1  0.07187000  0.88183000  0.04703000  1.0
  C  C199  1  0.06821000  0.95029000  0.09489000  1.0
  C  C200  1  0.98160000  0.95489000  0.10186000  1.0
  C  C201  1  0.89965000  0.89181000  0.06159000  1.0
  C  C202  1  0.90432000  0.82248000  0.01512000  1.0
  C  C203  1  0.91228000  0.37510000  0.18251000  1.0
  C  C204  1  0.06753000  0.44272000  0.19826000  1.0
  C  C205  1  0.05500000  0.10361000  0.17831000  1.0
  C  C206  1  0.89909000  0.03100000  0.17970000  1.0
  C  C207  1  0.93211000  0.10323000  0.49187000  1.0
  C  C208  1  0.85954000  0.03215000  0.53534000  1.0
  C  C209  1  0.88148000  0.00221000  0.60705000  1.0
  C  C210  1  0.97648000  0.04122000  0.63357000  1.0
  C  C211  1  0.05093000  0.10870000  0.58849000  1.0
  C  C212  1  0.02720000  0.14035000  0.51830000  1.0
  C  C213  1  0.90670000  0.13949000  0.41838000  1.0
  C  C214  1  0.80215000  0.93020000  0.65527000  1.0
  C  C215  1  0.15332000  0.14585000  0.61578000  1.0
  C  C216  1  0.80879000  0.37687000  0.40782000  1.0
  C  C217  1  0.80408000  0.45561000  0.43745000  1.0
  C  C218  1  0.84098000  0.48992000  0.51268000  1.0
  C  C219  1  0.88643000  0.44760000  0.55678000  1.0
  C  C220  1  0.89437000  0.37052000  0.52747000  1.0
  C  C221  1  0.85353000  0.33491000  0.45296000  1.0
  C  C222  1  0.75971000  0.33514000  0.33087000  1.0
  C  C223  1  0.82911000  0.56919000  0.54870000  1.0
  C  C224  1  0.94367000  0.32560000  0.57466000  1.0
  C  C225  1  0.50440000  0.26061000  0.46021000  1.0
  C  C226  1  0.50308000  0.33419000  0.51542000  1.0
  C  C227  1  0.42155000  0.34789000  0.52259000  1.0
  C  C228  1  0.42059000  0.41668000  0.57226000  1.0
  C  C229  1  0.50234000  0.47099000  0.61695000  1.0
  C  C230  1  0.58389000  0.45689000  0.61280000  1.0
  C  C231  1  0.58380000  0.38920000  0.56167000  1.0
  C  C232  1  0.50977000  0.18351000  0.50723000  1.0
  C  C233  1  0.42814000  0.11818000  0.54703000  1.0
  C  C234  1  0.43178000  0.04971000  0.59489000  1.0
  C  C235  1  0.51841000  0.04512000  0.60186000  1.0
  C  C236  1  0.60035000  0.10819000  0.56159000  1.0
  C  C237  1  0.59569000  0.17752000  0.51512000  1.0
  C  C238  1  0.58772000  0.62490000  0.68251000  1.0
  C  C239  1  0.43247000  0.55728000  0.69826000  1.0
  C  C240  1  0.44502000  0.89639000  0.67831000  1.0
  C  C241  1  0.60092000  0.96902000  0.67969000  1.0
  C  C242  1  0.56789000  0.89677000  0.99187000  1.0
  C  C243  1  0.64046000  0.96785000  0.03534000  1.0
  C  C244  1  0.61852000  0.99779000  0.10705000  1.0
  C  C245  1  0.52352000  0.95878000  0.13357000  1.0
  C  C246  1  0.44907000  0.89130000  0.08849000  1.0
  C  C247  1  0.47280000  0.85965000  0.01830000  1.0
  C  C248  1  0.59330000  0.86051000  0.91838000  1.0
  C  C249  1  0.69786000  0.06980000  0.15527000  1.0
  C  C250  1  0.34668000  0.85415000  0.11578000  1.0
  C  C251  1  0.69120000  0.62313000  0.90782000  1.0
  C  C252  1  0.69591000  0.54439000  0.93745000  1.0
  C  C253  1  0.65902000  0.51009000  0.01268000  1.0
  C  C254  1  0.61357000  0.55240000  0.05678000  1.0
  C  C255  1  0.60563000  0.62949000  0.02747000  1.0
  C  C256  1  0.64647000  0.66509000  0.95296000  1.0
  C  C257  1  0.74029000  0.66485000  0.83086000  1.0
  C  C258  1  0.67089000  0.43082000  0.04870000  1.0
  C  C259  1  0.55632000  0.67440000  0.07466000  1.0
  N  N260  1  0.06456000  0.68094000  0.77601000  1.0
  N  N261  1  0.96734000  0.63877000  0.76606000  1.0
  N  N262  1  0.00616000  0.54566000  0.83509000  1.0
  N  N263  1  0.97520000  0.84748000  0.77760000  1.0
  N  N264  1  0.07370000  0.89332000  0.77700000  1.0
  N  N265  1  0.02190000  0.97418000  0.84955000  1.0
  N  N266  1  0.43544000  0.31905000  0.27601000  1.0
  N  N267  1  0.53266000  0.36122000  0.26606000  1.0
  N  N268  1  0.49384000  0.45434000  0.33509000  1.0
  N  N269  1  0.52480000  0.15252000  0.27760000  1.0
  N  N270  1  0.42629000  0.10667000  0.27699000  1.0
  N  N271  1  0.47810000  0.02582000  0.34954000  1.0
  N  N272  1  0.93544000  0.31905000  0.22399000  1.0
  N  N273  1  0.03266000  0.36123000  0.23394000  1.0
  N  N274  1  0.99383000  0.45433000  0.16490000  1.0
  N  N275  1  0.02480000  0.15252000  0.22241000  1.0
  N  N276  1  0.92629000  0.10667000  0.22301000  1.0
  N  N277  1  0.97809000  0.02582000  0.15046000  1.0
  N  N278  1  0.56456000  0.68094000  0.72399000  1.0
  N  N279  1  0.46734000  0.63877000  0.73394000  1.0
  N  N280  1  0.50617000  0.54566000  0.66491000  1.0
  N  N281  1  0.47520000  0.84748000  0.72240000  1.0
  N  N282  1  0.57371000  0.89333000  0.72301000  1.0
  N  N283  1  0.52190000  0.97418000  0.65046000  1.0
  O  O284  1  0.02891000  0.79205000  0.61971000  1.0
  O  O285  1  0.18127000  0.89870000  0.60349000  1.0
  O  O286  1  0.26491000  0.13831000  0.38004000  1.0
  O  O287  1  0.19515000  0.05726000  0.26904000  1.0
  O  O288  1  0.25469000  0.74670000  0.68850000  1.0
  O  O289  1  0.27053000  0.61812000  0.71121000  1.0
  O  O290  1  0.19986000  0.38434000  0.49541000  1.0
  O  O291  1  0.15228000  0.41770000  0.37706000  1.0
  O  O292  1  0.78264000  0.72276000  0.60785000  1.0
  O  O293  1  0.47108000  0.20796000  0.11970000  1.0
  O  O294  1  0.31872000  0.10130000  0.10348000  1.0
  O  O295  1  0.23510000  0.86169000  0.88002000  1.0
  O  O296  1  0.30485000  0.94274000  0.76903000  1.0
  O  O297  1  0.24530000  0.25330000  0.18850000  1.0
  O  O298  1  0.22948000  0.38188000  0.21121000  1.0
  O  O299  1  0.30015000  0.61566000  0.99541000  1.0
  O  O300  1  0.34773000  0.58231000  0.87706000  1.0
  O  O301  1  0.71735000  0.27724000  0.10786000  1.0
  O  O302  1  0.97108000  0.20796000  0.38029000  1.0
  O  O303  1  0.81872000  0.10130000  0.39651000  1.0
  O  O304  1  0.73509000  0.86169000  0.61997000  1.0
  O  O305  1  0.80485000  0.94274000  0.73097000  1.0
  O  O306  1  0.74530000  0.25331000  0.31150000  1.0
  O  O307  1  0.72948000  0.38189000  0.28879000  1.0
  O  O308  1  0.80015000  0.61567000  0.50459000  1.0
  O  O309  1  0.84771000  0.58230000  0.62294000  1.0
  O  O310  1  0.21736000  0.27724000  0.39215000  1.0
  O  O311  1  0.52892000  0.79205000  0.88029000  1.0
  O  O312  1  0.68128000  0.89870000  0.89651000  1.0
  O  O313  1  0.76491000  0.13831000  0.11997000  1.0
  O  O314  1  0.69515000  0.05726000  0.23097000  1.0
  O  O315  1  0.75470000  0.74669000  0.81150000  1.0
  O  O316  1  0.77052000  0.61811000  0.78879000  1.0
  O  O317  1  0.69986000  0.38434000  0.00460000  1.0
  O  O318  1  0.65229000  0.41770000  0.12294000  1.0
  O  O319  1  0.28264000  0.72276000  0.89214000  1.0
