# generated using pymatgen
data_CdH7C11(N3O2)2
_symmetry_space_group_name_H-M   'P 1'
_cell_length_a   9.65490000
_cell_length_b   10.32980000
_cell_length_c   14.08380000
_cell_angle_alpha   97.42840000
_cell_angle_beta   90.00000000
_cell_angle_gamma   90.00000000
_symmetry_Int_Tables_number   1
_chemical_formula_structural   CdH7C11(N3O2)2
_chemical_formula_sum   'Cd4 H28 C44 N24 O16'
_cell_volume   1392.83353169
_cell_formula_units_Z   4
loop_
 _symmetry_equiv_pos_site_id
 _symmetry_equiv_pos_as_xyz
  1  'x, y, z'
loop_
 _atom_site_type_symbol
 _atom_site_label
 _atom_site_symmetry_multiplicity
 _atom_site_fract_x
 _atom_site_fract_y
 _atom_site_fract_z
 _atom_site_occupancy
  Cd  Cd0  1  0.39507000  0.71554000  0.30928000  1.0
  Cd  Cd1  1  0.89507000  0.28444000  0.19073000  1.0
  Cd  Cd2  1  0.60491000  0.28446000  0.69073000  1.0
  Cd  Cd3  1  0.10489000  0.71555000  0.80926000  1.0
  H  H4  1  0.59532000  0.47835000  0.15349000  1.0
  H  H5  1  0.09533000  0.52163000  0.34651000  1.0
  H  H6  1  0.40463000  0.52165000  0.84653000  1.0
  H  H7  1  0.90466000  0.47834000  0.65347000  1.0
  H  H8  1  0.76093000  0.85117000  0.31455000  1.0
  H  H9  1  0.26093000  0.14882000  0.18543000  1.0
  H  H10  1  0.23906000  0.14878000  0.68547000  1.0
  H  H11  1  0.73904000  0.85121000  0.81456000  1.0
  H  H12  1  0.79669000  0.10980000  0.40005000  1.0
  H  H13  1  0.29666000  0.89020000  0.09991000  1.0
  H  H14  1  0.20337000  0.89014000  0.60000000  1.0
  H  H15  1  0.70336000  0.10984000  0.90006000  1.0
  H  H16  1  0.04122000  0.86731000  0.37408000  1.0
  H  H17  1  0.54121000  0.13272000  0.12596000  1.0
  H  H18  1  0.95881000  0.13271000  0.62594000  1.0
  H  H19  1  0.45878000  0.86727000  0.87403000  1.0
  H  H20  1  0.03102000  0.14235000  0.41748000  1.0
  H  H21  1  0.53099000  0.85768000  0.08255000  1.0
  H  H22  1  0.96899000  0.85768000  0.58253000  1.0
  H  H23  1  0.46899000  0.14229000  0.91746000  1.0
  H  H24  1  0.28021000  0.21886000  0.41856000  1.0
  H  H25  1  0.78018000  0.78115000  0.08143000  1.0
  H  H26  1  0.71981000  0.78117000  0.58145000  1.0
  H  H27  1  0.21981000  0.21883000  0.91855000  1.0
  H  H28  1  0.55078000  0.19474000  0.44285000  1.0
  H  H29  1  0.05074000  0.80526000  0.05713000  1.0
  H  H30  1  0.44928000  0.80524000  0.55719000  1.0
  H  H31  1  0.94928000  0.19475000  0.94284000  1.0
  C  C32  1  0.62137000  0.48096000  0.22882000  1.0
  C  C33  1  0.12137000  0.51903000  0.27119000  1.0
  C  C34  1  0.37860000  0.51905000  0.77119000  1.0
  C  C35  1  0.87861000  0.48096000  0.72880000  1.0
  C  C36  1  0.63153000  0.54100000  0.38273000  1.0
  C  C37  1  0.13152000  0.45900000  0.11727000  1.0
  C  C38  1  0.36849000  0.45901000  0.61729000  1.0
  C  C39  1  0.86846000  0.54102000  0.88271000  1.0
  C  C40  1  0.72843000  0.43984000  0.35809000  1.0
  C  C41  1  0.22841000  0.56015000  0.14191000  1.0
  C  C42  1  0.27158000  0.56016000  0.64191000  1.0
  C  C43  1  0.77156000  0.43985000  0.85808000  1.0
  C  C44  1  0.59969000  0.62686000  0.47240000  1.0
  C  C45  1  0.09969000  0.37313000  0.02761000  1.0
  C  C46  1  0.40034000  0.37314000  0.52762000  1.0
  C  C47  1  0.90030000  0.62688000  0.97237000  1.0
  C  C48  1  0.82393000  0.36609000  0.41398000  1.0
  C  C49  1  0.32392000  0.63391000  0.08602000  1.0
  C  C50  1  0.17606000  0.63391000  0.58602000  1.0
  C  C51  1  0.67607000  0.36610000  0.91398000  1.0
  C  C52  1  0.48120000  0.01051000  0.36773000  1.0
  C  C53  1  0.98120000  0.98949000  0.13227000  1.0
  C  C54  1  0.51882000  0.98949000  0.63230000  1.0
  C  C55  1  0.01880000  0.01052000  0.86770000  1.0
  C  C56  1  0.68431000  0.92473000  0.33911000  1.0
  C  C57  1  0.18429000  0.07526000  0.16088000  1.0
  C  C58  1  0.31570000  0.07525000  0.66092000  1.0
  C  C59  1  0.81569000  0.92476000  0.83910000  1.0
  C  C60  1  0.70391000  0.05269000  0.38197000  1.0
  C  C61  1  0.20388000  0.94729000  0.11800000  1.0
  C  C62  1  0.29611000  0.94722000  0.61806000  1.0
  C  C63  1  0.79611000  0.05276000  0.88198000  1.0
  C  C64  1  0.33367000  0.01415000  0.37732000  1.0
  C  C65  1  0.83366000  0.98586000  0.12268000  1.0
  C  C66  1  0.66634000  0.98586000  0.62271000  1.0
  C  C67  1  0.16633000  0.01414000  0.87727000  1.0
  C  C68  1  0.12401000  0.93885000  0.37961000  1.0
  C  C69  1  0.62399000  0.06116000  0.12041000  1.0
  C  C70  1  0.87602000  0.06118000  0.62041000  1.0
  C  C71  1  0.37600000  0.93881000  0.87956000  1.0
  C  C72  1  0.11682000  0.07404000  0.40401000  1.0
  C  C73  1  0.61680000  0.92598000  0.09601000  1.0
  C  C74  1  0.88319000  0.92595000  0.59600000  1.0
  C  C75  1  0.38319000  0.07403000  0.90398000  1.0
  N  N76  1  0.56608000  0.56394000  0.30043000  1.0
  N  N77  1  0.06607000  0.43605000  0.19957000  1.0
  N  N78  1  0.43392000  0.43605000  0.69957000  1.0
  N  N79  1  0.93390000  0.56396000  0.80041000  1.0
  N  N80  1  0.71834000  0.40355000  0.26116000  1.0
  N  N81  1  0.21834000  0.59644000  0.23884000  1.0
  N  N82  1  0.28162000  0.59646000  0.73884000  1.0
  N  N83  1  0.78162000  0.40354000  0.76115000  1.0
  N  N84  1  0.25839000  0.90300000  0.36307000  1.0
  N  N85  1  0.75837000  0.09701000  0.13694000  1.0
  N  N86  1  0.74163000  0.09703000  0.63696000  1.0
  N  N87  1  0.24162000  0.90297000  0.86302000  1.0
  N  N88  1  0.24955000  0.11912000  0.40212000  1.0
  N  N89  1  0.74952000  0.88090000  0.09789000  1.0
  N  N90  1  0.75048000  0.88090000  0.59791000  1.0
  N  N91  1  0.25047000  0.11909000  0.90208000  1.0
  N  N92  1  0.54623000  0.89998000  0.33002000  1.0
  N  N93  1  0.04621000  0.10002000  0.16998000  1.0
  N  N94  1  0.45378000  0.10001000  0.67001000  1.0
  N  N95  1  0.95376000  0.89999000  0.82999000  1.0
  N  N96  1  0.57500000  0.10540000  0.39861000  1.0
  N  N97  1  0.07499000  0.89459000  0.10137000  1.0
  N  N98  1  0.42504000  0.89457000  0.60142000  1.0
  N  N99  1  0.92502000  0.10543000  0.89860000  1.0
  O  O100  1  0.48941000  0.69708000  0.47155000  1.0
  O  O101  1  0.98943000  0.30289000  0.02847000  1.0
  O  O102  1  0.51058000  0.30289000  0.52849000  1.0
  O  O103  1  0.01054000  0.69715000  0.97150000  1.0
  O  O104  1  0.68251000  0.63409000  0.54249000  1.0
  O  O105  1  0.18250000  0.36590000  0.95752000  1.0
  O  O106  1  0.31757000  0.36593000  0.45751000  1.0
  O  O107  1  0.81753000  0.63409000  0.04248000  1.0
  O  O108  1  0.81158000  0.36997000  0.50338000  1.0
  O  O109  1  0.31157000  0.63005000  0.99663000  1.0
  O  O110  1  0.18840000  0.63002000  0.49662000  1.0
  O  O111  1  0.68843000  0.36997000  0.00338000  1.0
  O  O112  1  0.91437000  0.29285000  0.36598000  1.0
  O  O113  1  0.41436000  0.70715000  0.13403000  1.0
  O  O114  1  0.08564000  0.70715000  0.63402000  1.0
  O  O115  1  0.58564000  0.29285000  0.86598000  1.0
