# generated using pymatgen
data_AlH9C21(NO3)4
_symmetry_space_group_name_H-M   'P 1'
_cell_length_a   4.18377000
_cell_length_b   23.40300000
_cell_length_c   23.40345374
_cell_angle_alpha   120.00007597
_cell_angle_beta   90.00179997
_cell_angle_gamma   89.99900000
_symmetry_Int_Tables_number   1
_chemical_formula_structural   AlH9C21(NO3)4
_chemical_formula_sum   'Al3 H27 C63 N12 O36'
_cell_volume   1984.49306592
_cell_formula_units_Z   3
loop_
 _symmetry_equiv_pos_site_id
 _symmetry_equiv_pos_as_xyz
  1  'x, y, z'
loop_
 _atom_site_type_symbol
 _atom_site_label
 _atom_site_symmetry_multiplicity
 _atom_site_fract_x
 _atom_site_fract_y
 _atom_site_fract_z
 _atom_site_occupancy
  Al  Al0  1  0.00603000  0.50027000  0.49949000  1.0
  Al  Al1  1  0.00603000  0.16589000  0.83307000  1.0
  Al  Al2  1  0.00603000  0.83383000  0.16745000  1.0
  H  H3  1  0.76783000  0.94628000  0.07862000  1.0
  H  H4  1  0.78051000  0.04947000  0.07534000  1.0
  H  H5  1  0.21744000  0.14347000  0.25415000  1.0
  H  H6  1  0.21740000  0.07918000  0.05600000  1.0
  H  H7  1  0.76786000  0.25471000  0.03434000  1.0
  H  H8  1  0.78053000  0.25799000  0.14081000  1.0
  H  H9  1  0.21738000  0.27732000  0.18985000  1.0
  H  H10  1  0.76786000  0.29901000  0.38705000  1.0
  H  H11  1  0.78053000  0.19253000  0.28387000  1.0
  H  H12  1  0.23730000  0.05443000  0.63296000  1.0
  H  H13  1  0.21969000  0.95121000  0.52649000  1.0
  H  H14  1  0.78006000  0.85594000  0.61041000  1.0
  H  H15  1  0.78001000  0.92115000  0.47741000  1.0
  H  H16  1  0.23729000  0.74520000  0.27893000  1.0
  H  H17  1  0.21964000  0.74195000  0.38215000  1.0
  H  H18  1  0.78007000  0.72295000  0.41222000  1.0
  H  H19  1  0.23729000  0.70039000  0.58814000  1.0
  H  H20  1  0.21967000  0.80687000  0.59140000  1.0
  H  H21  1  0.23867000  0.36581000  0.91883000  1.0
  H  H22  1  0.22907000  0.47282000  0.92315000  1.0
  H  H23  1  0.79330000  0.38906000  0.74462000  1.0
  H  H24  1  0.79336000  0.52222000  0.94426000  1.0
  H  H25  1  0.23869000  0.71969000  0.96753000  1.0
  H  H26  1  0.22912000  0.61702000  0.86052000  1.0
  H  H27  1  0.79339000  0.58870000  0.81110000  1.0
  H  H28  1  0.23865000  0.41451000  0.61364000  1.0
  H  H29  1  0.22906000  0.41018000  0.71632000  1.0
  C  C30  1  0.51312000  0.50324000  0.58852000  1.0
  C  C31  1  0.49787000  0.41348000  0.41223000  1.0
  C  C32  1  0.50965000  0.58581000  0.49739000  1.0
  C  C33  1  0.49789000  0.16543000  0.91987000  1.0
  C  C34  1  0.51311000  0.25195000  0.83010000  1.0
  C  C35  1  0.50968000  0.07825000  0.74754000  1.0
  C  C36  1  0.49787000  0.92109000  0.16791000  1.0
  C  C37  1  0.51312000  0.74479000  0.08138000  1.0
  C  C38  1  0.50970000  0.83594000  0.25509000  1.0
  C  C39  1  0.64694000  0.98976000  0.11727000  1.0
  C  C40  1  0.65712000  0.04844000  0.11579000  1.0
  C  C41  1  0.50678000  0.10562000  0.16549000  1.0
  C  C42  1  0.34135000  0.10134000  0.21498000  1.0
  C  C43  1  0.34074000  0.04286000  0.21643000  1.0
  C  C44  1  0.49280000  0.98575000  0.16837000  1.0
  C  C45  1  0.34132000  0.11836000  0.05305000  1.0
  C  C46  1  0.34073000  0.11691000  0.99312000  1.0
  C  C47  1  0.49282000  0.16495000  0.98406000  1.0
  C  C48  1  0.64696000  0.21607000  0.03918000  1.0
  C  C49  1  0.65714000  0.21753000  0.09933000  1.0
  C  C50  1  0.50678000  0.16784000  0.10681000  1.0
  C  C51  1  0.34130000  0.28029000  0.23199000  1.0
  C  C52  1  0.34072000  0.34022000  0.29046000  1.0
  C  C53  1  0.49282000  0.34928000  0.34757000  1.0
  C  C54  1  0.64696000  0.29417000  0.34357000  1.0
  C  C55  1  0.65713000  0.23401000  0.28489000  1.0
  C  C56  1  0.50677000  0.22653000  0.22772000  1.0
  C  C57  1  0.35488000  0.01059000  0.62806000  1.0
  C  C58  1  0.34272000  0.95188000  0.56784000  1.0
  C  C59  1  0.49094000  0.89434000  0.56001000  1.0
  C  C60  1  0.65691000  0.89824000  0.61357000  1.0
  C  C61  1  0.65910000  0.95665000  0.67357000  1.0
  C  C62  1  0.50878000  0.01404000  0.68295000  1.0
  C  C63  1  0.65686000  0.88201000  0.43511000  1.0
  C  C64  1  0.65908000  0.88358000  0.37669000  1.0
  C  C65  1  0.50878000  0.83557000  0.31931000  1.0
  C  C66  1  0.35486000  0.78414000  0.32277000  1.0
  C  C67  1  0.34267000  0.78264000  0.38148000  1.0
  C  C68  1  0.49090000  0.83234000  0.43901000  1.0
  C  C69  1  0.65690000  0.71978000  0.45135000  1.0
  C  C70  1  0.65909000  0.65978000  0.44976000  1.0
  C  C71  1  0.50877000  0.65041000  0.49777000  1.0
  C  C72  1  0.35486000  0.70529000  0.54920000  1.0
  C  C73  1  0.34270000  0.76551000  0.55072000  1.0
  C  C74  1  0.49092000  0.77334000  0.50101000  1.0
  C  C75  1  0.36040000  0.37097000  0.88045000  1.0
  C  C76  1  0.35217000  0.43142000  0.88252000  1.0
  C  C77  1  0.50433000  0.43945000  0.83331000  1.0
  C  C78  1  0.66853000  0.38566000  0.78345000  1.0
  C  C79  1  0.66858000  0.32537000  0.78150000  1.0
  C  C80  1  0.51533000  0.31602000  0.82928000  1.0
  C  C81  1  0.66859000  0.56445000  0.94766000  1.0
  C  C82  1  0.66862000  0.62277000  0.00794000  1.0
  C  C83  1  0.51533000  0.67991000  0.01731000  1.0
  C  C84  1  0.36042000  0.67614000  0.96236000  1.0
  C  C85  1  0.35221000  0.61777000  0.90191000  1.0
  C  C86  1  0.50436000  0.56054667  0.89388000  1.0
  C  C87  1  0.66860000  0.54987000  0.76887000  1.0
  C  C88  1  0.66864000  0.55182000  0.71054000  1.0
  C  C89  1  0.51536000  0.50405000  0.65340000  1.0
  C  C90  1  0.36041000  0.45288000  0.65718000  1.0
  C  C91  1  0.35218000  0.45081000  0.71556000  1.0
  C  C92  1  0.50436000  0.50001000  0.77279000  1.0
  N  N93  1  0.52185000  0.16666000  0.16667000  1.0
  N  N94  1  0.47414000  0.83334333  0.50001000  1.0
  N  N95  1  0.49227000  0.49998667  0.83332000  1.0
  N  N96  1  0.18063000  0.04391000  0.27301000  1.0
  N  N97  1  0.18061000  0.06032000  0.93758000  1.0
  N  N98  1  0.18061000  0.39576000  0.28941000  1.0
  N  N99  1  0.82021000  0.95549000  0.72891000  1.0
  N  N100  1  0.82021000  0.94008000  0.37785000  1.0
  N  N101  1  0.82021000  0.60444000  0.39326000  1.0
  N  N102  1  0.83602000  0.27039000  0.72558000  1.0
  N  N103  1  0.83611000  0.62183000  0.06292000  1.0
  N  N104  1  0.83610000  0.60775000  0.71148000  1.0
  O  O105  1  0.26706000  0.54917000  0.47296000  1.0
  O  O106  1  0.27056000  0.52796000  0.57680000  1.0
  O  O107  1  0.26715000  0.42317000  0.45174000  1.0
  O  O108  1  0.74355000  0.57604000  0.52615000  1.0
  O  O109  1  0.74242000  0.44925000  0.42371000  1.0
  O  O110  1  0.74534000  0.47317000  0.54987000  1.0
  O  O111  1  0.74355000  0.11679000  0.75732000  1.0
  O  O112  1  0.74243000  0.14114000  0.88410000  1.0
  O  O113  1  0.74532000  0.24337000  0.86017000  1.0
  O  O114  1  0.26707000  0.09046000  0.78418000  1.0
  O  O115  1  0.27054000  0.21551000  0.80539000  1.0
  O  O116  1  0.26716000  0.19525000  0.91018000  1.0
  O  O117  1  0.74358000  0.80718000  0.21656000  1.0
  O  O118  1  0.74242000  0.90961000  0.19220000  1.0
  O  O119  1  0.74533000  0.78345000  0.08997000  1.0
  O  O120  1  0.26709000  0.86036000  0.24287000  1.0
  O  O121  1  0.27055000  0.75652000  0.11782000  1.0
  O  O122  1  0.26715000  0.88158000  0.13809000  1.0
  O  O123  1  0.24883000  0.99908000  0.28393000  1.0
  O  O124  1  0.99344000  0.09019000  0.30620000  1.0
  O  O125  1  0.24884000  0.04939000  0.88183000  1.0
  O  O126  1  0.99339000  0.02714000  0.95067000  1.0
  O  O127  1  0.24881000  0.45150000  0.33422000  1.0
  O  O128  1  0.99339000  0.38266000  0.24313000  1.0
  O  O129  1  0.75245000  0.00027000  0.78482000  1.0
  O  O130  1  0.00813000  0.90936000  0.71575000  1.0
  O  O131  1  0.75246000  0.95121000  0.33307000  1.0
  O  O132  1  0.00816000  0.97305000  0.42397000  1.0
  O  O133  1  0.75243000  0.54854000  0.38213000  1.0
  O  O134  1  0.00819000  0.61760000  0.36030000  1.0
  O  O135  1  0.77585000  0.21400000  0.71420000  1.0
  O  O136  1  0.02522000  0.28433000  0.69338000  1.0
  O  O137  1  0.77594000  0.66683000  0.11931000  1.0
  O  O138  1  0.02535000  0.57569000  0.04897000  1.0
  O  O139  1  0.77591000  0.61913000  0.66648000  1.0
  O  O140  1  0.02533000  0.63994000  0.75762000  1.0
