# generated using pymatgen
data_AlC24(OF2)6
_symmetry_space_group_name_H-M   'P 1'
_cell_length_a   3.97094000
_cell_length_b   29.08928968
_cell_length_c   29.08860000
_cell_angle_alpha   60.00035288
_cell_angle_beta   89.99870000
_cell_angle_gamma   89.99950003
_symmetry_Int_Tables_number   1
_chemical_formula_structural   AlC24(OF2)6
_chemical_formula_sum   'Al2 C48 O12 F24'
_cell_volume   2909.92259708
_cell_formula_units_Z   2
loop_
 _symmetry_equiv_pos_site_id
 _symmetry_equiv_pos_as_xyz
  1  'x, y, z'
loop_
 _atom_site_type_symbol
 _atom_site_label
 _atom_site_symmetry_multiplicity
 _atom_site_fract_x
 _atom_site_fract_y
 _atom_site_fract_z
 _atom_site_occupancy
  Al  Al0  1  0.99997000  0.50000000  0.00000000  1.0
  Al  Al1  1  0.00041000  0.16666000  0.66668000  1.0
  C  C2  1  0.49999000  0.58129000  0.95935000  1.0
  C  C3  1  0.50000000  0.45936000  0.08129000  1.0
  C  C4  1  0.50000000  0.45936000  0.95935000  1.0
  C  C5  1  0.50043000  0.20729000  0.58539000  1.0
  C  C6  1  0.50042000  0.20731000  0.70731000  1.0
  C  C7  1  0.50037000  0.08537000  0.70732000  1.0
  C  C8  1  0.50038000  0.23699000  0.52600000  1.0
  C  C9  1  0.50761000  0.29257000  0.49750000  1.0
  C  C10  1  0.50365000  0.32030000  0.44229000  1.0
  C  C11  1  0.50019000  0.29337000  0.41326000  1.0
  C  C12  1  0.49684000  0.23741000  0.44227000  1.0
  C  C13  1  0.49294000  0.20992000  0.49749000  1.0
  C  C14  1  0.50014000  0.32125000  0.35750000  1.0
  C  C15  1  0.50010000  0.34541000  0.30919000  1.0
  C  C16  1  0.50004000  0.37329000  0.25343000  1.0
  C  C17  1  0.49675000  0.42925000  0.22441000  1.0
  C  C18  1  0.49279000  0.45674000  0.16919000  1.0
  C  C19  1  0.49997000  0.42966000  0.14069000  1.0
  C  C20  1  0.50720000  0.37408000  0.16919000  1.0
  C  C21  1  0.50332000  0.34636000  0.22440000  1.0
  C  C22  1  0.50035000  0.23701000  0.73700000  1.0
  C  C23  1  0.50761000  0.20993000  0.79259000  1.0
  C  C24  1  0.50366000  0.23742000  0.82031000  1.0
  C  C25  1  0.50017000  0.29339000  0.79337000  1.0
  C  C26  1  0.49681000  0.32032000  0.73741000  1.0
  C  C27  1  0.49293000  0.29258000  0.70994000  1.0
  C  C28  1  0.50014000  0.32126000  0.82125000  1.0
  C  C29  1  0.50008000  0.34542000  0.84540000  1.0
  C  C30  1  0.50004000  0.37329000  0.87329000  1.0
  C  C31  1  0.49672000  0.34636000  0.92925000  1.0
  C  C32  1  0.49278000  0.37409000  0.95673000  1.0
  C  C33  1  0.49997000  0.42966000  0.92967000  1.0
  C  C34  1  0.50721000  0.45674000  0.87408000  1.0
  C  C35  1  0.50332000  0.42926000  0.84635000  1.0
  C  C36  1  0.50032000  0.02598000  0.73701000  1.0
  C  C37  1  0.50756000  0.99748000  0.70993000  1.0
  C  C38  1  0.50363000  0.94227000  0.73741000  1.0
  C  C39  1  0.50019000  0.91323000  0.79338000  1.0
  C  C40  1  0.49680000  0.94226000  0.82032000  1.0
  C  C41  1  0.49293000  0.99747000  0.79260000  1.0
  C  C42  1  0.50013000  0.85748000  0.82125000  1.0
  C  C43  1  0.50009000  0.80917000  0.84540000  1.0
  C  C44  1  0.50003000  0.75342000  0.87328000  1.0
  C  C45  1  0.49671000  0.72439000  0.84634000  1.0
  C  C46  1  0.49278000  0.66918000  0.87407000  1.0
  C  C47  1  0.49997000  0.64068000  0.92965000  1.0
  C  C48  1  0.50720000  0.66918000  0.95673000  1.0
  C  C49  1  0.50333000  0.72439000  0.92925000  1.0
  O  O50  1  0.26346000  0.44915000  0.99247000  1.0
  O  O51  1  0.26345000  0.55838000  0.94915000  1.0
  O  O52  1  0.26344000  0.49247000  0.05839000  1.0
  O  O53  1  0.73650000  0.49247000  0.94915000  1.0
  O  O54  1  0.73649000  0.44915000  0.05839000  1.0
  O  O55  1  0.73649000  0.55839000  0.99246000  1.0
  O  O56  1  0.26390000  0.10828000  0.71753000  1.0
  O  O57  1  0.26391000  0.17418000  0.60830000  1.0
  O  O58  1  0.26390000  0.21751000  0.67420000  1.0
  O  O59  1  0.73695000  0.10826000  0.67423000  1.0
  O  O60  1  0.73693000  0.17421000  0.71752000  1.0
  O  O61  1  0.73694000  0.21750000  0.60829000  1.0
  F  F62  1  0.50802000  0.32006000  0.52347000  1.0
  F  F63  1  0.49265000  0.15646000  0.52345000  1.0
  F  F64  1  0.49825000  0.21022000  0.41610000  1.0
  F  F65  1  0.50214000  0.37367000  0.41611000  1.0
  F  F66  1  0.49835000  0.45644000  0.25059000  1.0
  F  F67  1  0.50175000  0.29299000  0.25058000  1.0
  F  F68  1  0.50744000  0.34659000  0.14322000  1.0
  F  F69  1  0.49252000  0.51020000  0.14322000  1.0
  F  F70  1  0.50803000  0.15648000  0.82008000  1.0
  F  F71  1  0.49264000  0.32008000  0.65647000  1.0
  F  F72  1  0.49821000  0.37368000  0.71022000  1.0
  F  F73  1  0.50219000  0.21023000  0.87368000  1.0
  F  F74  1  0.49830000  0.29299000  0.95645000  1.0
  F  F75  1  0.50177000  0.45645000  0.79298000  1.0
  F  F76  1  0.50745000  0.51020000  0.84658000  1.0
  F  F77  1  0.49251000  0.34659000  0.01020000  1.0
  F  F78  1  0.50797000  0.02345000  0.65647000  1.0
  F  F79  1  0.49263000  0.02343000  0.82010000  1.0
  F  F80  1  0.49824000  0.91608000  0.87369000  1.0
  F  F81  1  0.50216000  0.91610000  0.71021000  1.0
  F  F82  1  0.49831000  0.75057000  0.79297000  1.0
  F  F83  1  0.50177000  0.75057000  0.95643000  1.0
  F  F84  1  0.50745000  0.64321000  0.01019000  1.0
  F  F85  1  0.49249000  0.64321000  0.84658000  1.0
