# generated using pymatgen
data_Zn4H25C48N4ClO13
_symmetry_space_group_name_H-M   'P 1'
_cell_length_a   17.94200000
_cell_length_b   19.19660000
_cell_length_c   19.26460000
_cell_angle_alpha   94.59930000
_cell_angle_beta   99.12910000
_cell_angle_gamma   103.47300000
_symmetry_Int_Tables_number   1
_chemical_formula_structural   Zn4H25C48N4ClO13
_chemical_formula_sum   'Zn4 H25 C48 N4 Cl1 O13'
_cell_volume   6323.28196936
_cell_formula_units_Z   1
loop_
 _symmetry_equiv_pos_site_id
 _symmetry_equiv_pos_as_xyz
  1  'x, y, z'
loop_
 _atom_site_type_symbol
 _atom_site_label
 _atom_site_symmetry_multiplicity
 _atom_site_fract_x
 _atom_site_fract_y
 _atom_site_fract_z
 _atom_site_occupancy
  Zn  Zn0  1  0.56537000  0.45173000  0.45022000  1.0
  Zn  Zn1  1  0.42998000  0.42892000  0.54360000  1.0
  Zn  Zn2  1  0.44131000  0.54456000  0.43131000  1.0
  Zn  Zn3  1  0.56720000  0.57443000  0.57588000  1.0
  H  H4  1  0.07672000  0.65085000  0.63775000  1.0
  H  H5  1  0.04791000  0.33697000  0.32395000  1.0
  H  H6  1  0.60388000  0.57494000  0.79918000  1.0
  H  H7  1  0.59871000  0.56984000  0.92864000  1.0
  H  H8  1  0.63025000  0.46913000  0.11689000  1.0
  H  H9  1  0.62029000  0.46102000  0.24533000  1.0
  H  H10  1  0.36908000  0.44294000  0.74394000  1.0
  H  H11  1  0.41835000  0.53965000  0.08344000  1.0
  H  H12  1  0.36114000  0.44431000  0.87361000  1.0
  H  H13  1  0.41156000  0.53671000  0.21268000  1.0
  H  H14  1  0.43859000  0.21580000  0.57999000  1.0
  H  H15  1  0.20073000  0.52242000  0.52214000  1.0
  H  H16  1  0.44391000  0.08580000  0.57724000  1.0
  H  H17  1  0.56246000  0.92283000  0.63146000  1.0
  H  H18  1  0.56877000  0.79255000  0.62339000  1.0
  H  H19  1  0.53858000  0.23177000  0.39155000  1.0
  H  H20  1  0.44056000  0.88793000  0.41583000  1.0
  H  H21  1  0.53653000  0.09963000  0.38485000  1.0
  H  H22  1  0.44212000  0.75689000  0.40949000  1.0
  H  H23  1  0.92607000  0.36382000  0.34693000  1.0
  H  H24  1  0.95479000  0.67466000  0.66317000  1.0
  H  H25  1  0.80933000  0.64606000  0.63929000  1.0
  H  H26  1  0.80036000  0.47887000  0.47528000  1.0
  H  H27  1  0.14625000  0.58194000  0.57142000  1.0
  H  H28  1  0.85629000  0.43037000  0.41571000  1.0
  C  C29  1  0.49160000  0.50757000  0.68765000  1.0
  C  C30  1  0.84064000  0.61623000  0.60894000  1.0
  C  C31  1  0.83624000  0.52146000  0.51569000  1.0
  C  C32  1  0.91833000  0.53620000  0.52747000  1.0
  C  C33  1  0.96129000  0.59245000  0.58231000  1.0
  C  C34  1  0.95985000  0.49652000  0.48678000  1.0
  C  C35  1  0.04244000  0.51217000  0.50343000  1.0
  C  C36  1  0.08284000  0.56864000  0.55876000  1.0
  C  C37  1  0.04417000  0.60754000  0.59622000  1.0
  C  C38  1  0.91954000  0.44214000  0.42956000  1.0
  C  C39  1  0.95831000  0.40460000  0.39085000  1.0
  C  C40  1  0.51057000  0.49670000  0.31265000  1.0
  C  C41  1  0.04104000  0.41751000  0.40694000  1.0
  C  C42  1  0.08381000  0.47140000  0.46390000  1.0
  C  C43  1  0.08083000  0.37777000  0.36754000  1.0
  C  C44  1  0.16091000  0.39031000  0.38393000  1.0
  C  C45  1  0.16567000  0.48230000  0.47899000  1.0
  C  C46  1  0.51523000  0.49822000  0.23611000  1.0
  C  C47  1  0.45837000  0.52089000  0.19076000  1.0
  C  C48  1  0.46211000  0.52283000  0.11958000  1.0
  C  C49  1  0.52430000  0.50363000  0.09323000  1.0
  C  C50  1  0.58228000  0.48276000  0.13872000  1.0
  C  C51  1  0.49083000  0.30966000  0.49039000  1.0
  C  C52  1  0.57684000  0.47859000  0.20954000  1.0
  C  C53  1  0.54886000  0.54293000  0.88761000  1.0
  C  C54  1  0.55166000  0.54534000  0.81622000  1.0
  C  C55  1  0.47997000  0.50539000  0.90778000  1.0
  C  C56  1  0.48715000  0.50835000  0.76439000  1.0
  C  C57  1  0.41847000  0.47127000  0.78479000  1.0
  C  C58  1  0.41416000  0.47149000  0.85615000  1.0
  C  C59  1  0.50615000  0.76758000  0.51587000  1.0
  C  C60  1  0.46940000  0.79407000  0.45730000  1.0
  C  C61  1  0.46818000  0.86619000  0.46073000  1.0
  C  C62  1  0.50706000  0.68984000  0.51130000  1.0
  C  C63  1  0.50244000  0.91248000  0.52381000  1.0
  C  C64  1  0.53730000  0.88582000  0.58305000  1.0
  C  C65  1  0.54052000  0.81397000  0.57859000  1.0
  C  C66  1  0.46395000  0.11833000  0.53686000  1.0
  C  C67  1  0.46144000  0.19016000  0.53841000  1.0
  C  C68  1  0.49223000  0.08637000  0.48157000  1.0
  C  C69  1  0.48951000  0.23142000  0.48659000  1.0
  C  C70  1  0.51726000  0.19915000  0.43136000  1.0
  C  C71  1  0.51667000  0.12649000  0.42782000  1.0
  C  C72  1  0.29148000  0.45820000  0.45793000  1.0
  C  C73  1  0.71077000  0.54205000  0.54083000  1.0
  C  C74  1  0.79769000  0.56013000  0.55535000  1.0
  C  C75  1  0.20413000  0.44299000  0.44033000  1.0
  C  C76  1  0.92089000  0.63172000  0.62182000  1.0
  N  N77  1  0.53370000  0.50545000  0.02188000  1.0
  N  N78  1  0.47094000  0.49998000  0.97871000  1.0
  N  N79  1  0.50260000  0.98630000  0.53229000  1.0
  N  N80  1  0.49657000  0.01382000  0.47470000  1.0
  Cl  Cl81  1  0.20940000  0.34168000  0.33539000  1.0
  O  O82  1  0.50101000  0.49995000  0.50104000  1.0
  O  O83  1  0.53222000  0.34688000  0.45167000  1.0
  O  O84  1  0.54794000  0.66992000  0.56289000  1.0
  O  O85  1  0.43936000  0.45967000  0.64499000  1.0
  O  O86  1  0.46038000  0.52589000  0.33510000  1.0
  O  O87  1  0.54715000  0.55416000  0.67085000  1.0
  O  O88  1  0.55696000  0.46672000  0.34961000  1.0
  O  O89  1  0.45117000  0.33320000  0.53226000  1.0
  O  O90  1  0.46648000  0.64941000  0.45579000  1.0
  O  O91  1  0.31975000  0.42165000  0.50264000  1.0
  O  O92  1  0.67818000  0.58061000  0.57737000  1.0
  O  O93  1  0.32841000  0.50754000  0.42695000  1.0
  O  O94  1  0.67573000  0.48942000  0.49298000  1.0
