# generated using pymatgen
data_ZnH14C18NO5
_symmetry_space_group_name_H-M   'P 1'
_cell_length_a   19.18230000
_cell_length_b   19.18240000
_cell_length_c   29.15575102
_cell_angle_alpha   109.20872762
_cell_angle_beta   109.21451934
_cell_angle_gamma   89.98190000
_symmetry_Int_Tables_number   1
_chemical_formula_structural   ZnH14C18NO5
_chemical_formula_sum   'Zn8 H112 C144 N8 O40'
_cell_volume   9496.20403865
_cell_formula_units_Z   8
loop_
 _symmetry_equiv_pos_site_id
 _symmetry_equiv_pos_as_xyz
  1  'x, y, z'
loop_
 _atom_site_type_symbol
 _atom_site_label
 _atom_site_symmetry_multiplicity
 _atom_site_fract_x
 _atom_site_fract_y
 _atom_site_fract_z
 _atom_site_occupancy
  Zn  Zn0  1  0.87260000  0.19617000  0.74513000  1.0
  Zn  Zn1  1  0.87740000  0.05383000  0.75487000  1.0
  Zn  Zn2  1  0.87259000  0.54899000  0.74515000  1.0
  Zn  Zn3  1  0.87741000  0.70101000  0.75485000  1.0
  Zn  Zn4  1  0.94616000  0.12256000  0.24515000  1.0
  Zn  Zn5  1  0.80384000  0.12744000  0.25485000  1.0
  Zn  Zn6  1  0.45104000  0.12747000  0.25487000  1.0
  Zn  Zn7  1  0.29896000  0.12253000  0.24513000  1.0
  H  H8  1  0.88074000  0.27260000  0.66925000  1.0
  H  H9  1  0.96147000  0.97739000  0.83073000  1.0
  H  H10  1  0.86928000  0.97741000  0.83076000  1.0
  H  H11  1  0.78846000  0.39665000  0.66924000  1.0
  H  H12  1  0.86933000  0.85337000  0.83079000  1.0
  H  H13  1  0.96155000  0.85335000  0.83076000  1.0
  H  H14  1  0.78854000  0.27262000  0.66928000  1.0
  H  H15  1  0.88068000  0.39664000  0.66921000  1.0
  H  H16  1  0.02258000  0.03854000  0.16921000  1.0
  H  H17  1  0.72741000  0.11922000  0.33076000  1.0
  H  H18  1  0.60334000  0.21148000  0.33075000  1.0
  H  H19  1  0.60333000  0.11926000  0.33072000  1.0
  H  H20  1  0.72742000  0.21147000  0.33079000  1.0
  H  H21  1  0.14665000  0.03852000  0.16924000  1.0
  H  H22  1  0.14666000  0.13074000  0.16927000  1.0
  H  H23  1  0.02259000  0.13079000  0.16924000  1.0
  H  H24  1  0.76615000  0.31302000  0.74994000  1.0
  H  H25  1  0.76612000  0.93699000  0.75010000  1.0
  H  H26  1  0.98385000  0.93698000  0.75006000  1.0
  H  H27  1  0.98382000  0.43694000  0.74990000  1.0
  H  H28  1  0.98390000  0.81305000  0.75007000  1.0
  H  H29  1  0.76619000  0.81306000  0.75011000  1.0
  H  H30  1  0.98388000  0.31301000  0.74991000  1.0
  H  H31  1  0.76611000  0.43695000  0.74993000  1.0
  H  H32  1  0.06298000  0.23382000  0.24993000  1.0
  H  H33  1  0.68704000  0.23392000  0.25010000  1.0
  H  H34  1  0.56308000  0.01621000  0.25006000  1.0
  H  H35  1  0.56310000  0.23397000  0.25009000  1.0
  H  H36  1  0.68702000  0.01618000  0.25007000  1.0
  H  H37  1  0.18693000  0.23379000  0.24995000  1.0
  H  H38  1  0.18690000  0.01602000  0.24991000  1.0
  H  H39  1  0.06295000  0.01608000  0.24989000  1.0
  H  H40  1  0.84193000  0.34298000  0.80918000  1.0
  H  H41  1  0.78263000  0.90702000  0.69084000  1.0
  H  H42  1  0.90807000  0.90702000  0.69082000  1.0
  H  H43  1  0.96730000  0.46624000  0.80913000  1.0
  H  H44  1  0.90811000  0.78375000  0.69086000  1.0
  H  H45  1  0.78270000  0.78376000  0.69088000  1.0
  H  H46  1  0.96738000  0.34298000  0.80917000  1.0
  H  H47  1  0.84189000  0.46625000  0.80914000  1.0
  H  H48  1  0.09289000  0.21725000  0.30914000  1.0
  H  H49  1  0.65711000  0.15817000  0.19087000  1.0
  H  H50  1  0.53380000  0.03275000  0.19082000  1.0
  H  H51  1  0.53381000  0.15821000  0.19083000  1.0
  H  H52  1  0.65711000  0.03275000  0.19086000  1.0
  H  H53  1  0.21620000  0.21725000  0.30918000  1.0
  H  H54  1  0.21617000  0.09179000  0.30916000  1.0
  H  H55  1  0.09288000  0.09183000  0.30912000  1.0
  H  H56  1  0.77948000  0.30283000  0.86260000  1.0
  H  H57  1  0.66698000  0.94711000  0.63737000  1.0
  H  H58  1  0.97051000  0.94716000  0.63740000  1.0
  H  H59  1  0.08318000  0.55974000  0.86259000  1.0
  H  H60  1  0.97029000  0.69016000  0.63738000  1.0
  H  H61  1  0.66682000  0.69026000  0.63740000  1.0
  H  H62  1  0.08303000  0.30289000  0.86263000  1.0
  H  H63  1  0.77970000  0.55984000  0.86261000  1.0
  H  H64  1  0.05277000  0.33291000  0.36261000  1.0
  H  H65  1  0.69715000  0.22059000  0.13741000  1.0
  H  H66  1  0.44024000  0.91688000  0.13740000  1.0
  H  H67  1  0.44026000  0.22040000  0.13737000  1.0
  H  H68  1  0.69724000  0.91709000  0.13739000  1.0
  H  H69  1  0.30977000  0.33311000  0.36260000  1.0
  H  H70  1  0.30974000  0.02961000  0.36263000  1.0
  H  H71  1  0.05284000  0.02941000  0.36259000  1.0
  H  H72  1  0.73600000  0.35155000  0.93862000  1.0
  H  H73  1  0.54744000  0.89856000  0.56137000  1.0
  H  H74  1  0.01399000  0.89845000  0.56138000  1.0
  H  H75  1  0.20274000  0.58709000  0.93856000  1.0
  H  H76  1  0.01368000  0.66279000  0.56132000  1.0
  H  H77  1  0.54725000  0.66291000  0.56143000  1.0
  H  H78  1  0.20256000  0.35145000  0.93863000  1.0
  H  H79  1  0.73631000  0.58721000  0.93867000  1.0
  H  H80  1  0.10147000  0.45235000  0.43868000  1.0
  H  H81  1  0.64853000  0.26419000  0.06144000  1.0
  H  H82  1  0.41293000  0.79738000  0.06138000  1.0
  H  H83  1  0.41282000  0.26393000  0.06137000  1.0
  H  H84  1  0.64854000  0.79765000  0.06133000  1.0
  H  H85  1  0.33707000  0.45261000  0.43862000  1.0
  H  H86  1  0.33719000  0.98607000  0.43863000  1.0
  H  H87  1  0.10147000  0.98581000  0.43856000  1.0
  H  H88  1  0.75770000  0.14059000  0.96078000  1.0
  H  H89  1  0.54714000  0.10961000  0.53934000  1.0
  H  H90  1  0.99230000  0.10941000  0.53922000  1.0
  H  H91  1  0.20300000  0.82023000  0.96073000  1.0
  H  H92  1  0.99211000  0.42969000  0.53926000  1.0
  H  H93  1  0.54700000  0.42976000  0.53927000  1.0
  H  H94  1  0.20286000  0.14040000  0.96066000  1.0
  H  H95  1  0.75788000  0.82031000  0.96074000  1.0
  H  H96  1  0.89043000  0.45285000  0.46074000  1.0
  H  H97  1  0.85950000  0.24227000  0.03927000  1.0
  H  H98  1  0.17981000  0.79692000  0.03922000  1.0
  H  H99  1  0.17974000  0.24220000  0.03934000  1.0
  H  H100  1  0.85957000  0.79715000  0.03926000  1.0
  H  H101  1  0.57019000  0.45308000  0.46078000  1.0
  H  H102  1  0.57027000  0.00780000  0.46066000  1.0
  H  H103  1  0.89049000  0.00773000  0.46073000  1.0
  H  H104  1  0.79677000  0.09164000  0.88345000  1.0
  H  H105  1  0.66359000  0.15840000  0.61668000  1.0
  H  H106  1  0.95322000  0.15836000  0.61655000  1.0
  H  H107  1  0.08650000  0.79175000  0.88344000  1.0
  H  H108  1  0.95316000  0.45818000  0.61665000  1.0
  H  H109  1  0.66350000  0.45825000  0.61656000  1.0
  H  H110  1  0.08641000  0.09160000  0.88332000  1.0
  H  H111  1  0.79685000  0.79183000  0.88336000  1.0
  H  H112  1  0.84153000  0.33651000  0.38335000  1.0
  H  H113  1  0.90831000  0.20306000  0.11656000  1.0
  H  H114  1  0.20819000  0.91332000  0.11655000  1.0
  H  H115  1  0.20828000  0.20309000  0.11668000  1.0
  H  H116  1  0.90847000  0.91349000  0.11664000  1.0
  H  H117  1  0.54181000  0.33667000  0.38345000  1.0
  H  H118  1  0.54172000  0.04691000  0.38332000  1.0
  H  H119  1  0.84169000  0.04694000  0.38344000  1.0
  C  C120  1  0.84432000  0.30390000  0.68861000  1.0
  C  C121  1  0.90569000  0.94610000  0.81140000  1.0
  C  C122  1  0.84426000  0.38471000  0.68857000  1.0
  C  C123  1  0.90575000  0.86529000  0.81143000  1.0
  C  C124  1  0.05386000  0.09432000  0.18857000  1.0
  C  C125  1  0.69614000  0.15569000  0.31143000  1.0
  C  C126  1  0.61529000  0.15571000  0.31139000  1.0
  C  C127  1  0.13470000  0.09429000  0.18860000  1.0
  C  C128  1  0.82177000  0.34468000  0.76980000  1.0
  C  C129  1  0.80188000  0.90533000  0.73022000  1.0
  C  C130  1  0.92823000  0.90532000  0.73020000  1.0
  C  C131  1  0.94807000  0.42513000  0.76976000  1.0
  C  C132  1  0.92826000  0.82486000  0.73022000  1.0
  C  C133  1  0.80193000  0.82488000  0.73024000  1.0
  C  C134  1  0.94812000  0.34467000  0.76978000  1.0
  C  C135  1  0.82174000  0.42514000  0.76978000  1.0
  C  C136  1  0.09464000  0.19804000  0.26978000  1.0
  C  C137  1  0.65536000  0.17831000  0.23024000  1.0
  C  C138  1  0.57488000  0.05197000  0.23020000  1.0
  C  C139  1  0.57488000  0.17834000  0.23021000  1.0
  C  C140  1  0.65536000  0.05196000  0.23022000  1.0
  C  C141  1  0.17512000  0.19803000  0.26980000  1.0
  C  C142  1  0.17511000  0.07166000  0.26978000  1.0
  C  C143  1  0.09463000  0.07169000  0.26976000  1.0
  C  C144  1  0.81789000  0.16577000  0.82390000  1.0
  C  C145  1  0.74415000  0.08416000  0.67614000  1.0
  C  C146  1  0.93211000  0.08423000  0.67610000  1.0
  C  C147  1  0.00590000  0.65816000  0.82392000  1.0
  C  C148  1  0.93210000  0.59180000  0.67617000  1.0
  C  C149  1  0.74410000  0.59184000  0.67608000  1.0
  C  C150  1  0.00586000  0.16584000  0.82386000  1.0
  C  C151  1  0.81789000  0.65821000  0.82383000  1.0
  C  C152  1  0.91563000  0.25594000  0.32383000  1.0
  C  C153  1  0.83423000  0.18198000  0.17608000  1.0
  C  C154  1  0.34186000  0.99399000  0.17609000  1.0
  C  C155  1  0.34198000  0.18200000  0.17614000  1.0
  C  C156  1  0.83438000  0.99407000  0.17617000  1.0
  C  C157  1  0.40813000  0.25600000  0.32390000  1.0
  C  C158  1  0.40802000  0.06800000  0.32386000  1.0
  C  C159  1  0.91577000  0.06802000  0.32393000  1.0
  C  C160  1  0.79125000  0.19460000  0.86891000  1.0
  C  C161  1  0.67250000  0.05539000  0.63113000  1.0
  C  C162  1  0.95875000  0.05540000  0.63109000  1.0
  C  C163  1  0.07761000  0.67429000  0.86892000  1.0
  C  C164  1  0.95862000  0.57562000  0.63111000  1.0
  C  C165  1  0.67239000  0.57571000  0.63108000  1.0
  C  C166  1  0.07751000  0.19461000  0.86887000  1.0
  C  C167  1  0.79138000  0.67438000  0.86889000  1.0
  C  C168  1  0.94451000  0.32751000  0.36889000  1.0
  C  C169  1  0.80537000  0.20870000  0.13108000  1.0
  C  C170  1  0.32569000  0.92234000  0.13109000  1.0
  C  C171  1  0.32574000  0.20864000  0.13113000  1.0
  C  C172  1  0.80549000  0.92249000  0.13111000  1.0
  C  C173  1  0.42431000  0.32766000  0.36891000  1.0
  C  C174  1  0.42426000  0.04136000  0.36887000  1.0
  C  C175  1  0.94462000  0.04131000  0.36892000  1.0
  C  C176  1  0.77412000  0.26794000  0.88440000  1.0
  C  C177  1  0.63982000  0.98207000  0.61561000  1.0
  C  C178  1  0.97588000  0.98206000  0.61560000  1.0
  C  C179  1  0.11034000  0.61645000  0.88438000  1.0
  C  C180  1  0.97563000  0.63345000  0.61557000  1.0
  C  C181  1  0.63966000  0.63355000  0.61562000  1.0
  C  C182  1  0.11018000  0.26793000  0.88438000  1.0
  C  C183  1  0.77437000  0.61656000  0.88443000  1.0
  C  C184  1  0.01787000  0.36006000  0.38443000  1.0
  C  C185  1  0.73207000  0.22596000  0.11562000  1.0
  C  C186  1  0.38354000  0.88972000  0.11560000  1.0
  C  C187  1  0.38354000  0.22579000  0.11561000  1.0
  C  C188  1  0.73213000  0.88994000  0.11557000  1.0
  C  C189  1  0.36646000  0.36027000  0.38440000  1.0
  C  C190  1  0.36646000  0.02421000  0.38439000  1.0
  C  C191  1  0.01793000  0.02404000  0.38438000  1.0
  C  C192  1  0.75066000  0.29509000  0.92662000  1.0
  C  C193  1  0.57412000  0.95500000  0.57340000  1.0
  C  C194  1  0.99933000  0.95490000  0.57338000  1.0
  C  C195  1  0.17608000  0.63155000  0.92657000  1.0
  C  C196  1  0.99907000  0.61834000  0.57334000  1.0
  C  C197  1  0.57391000  0.61844000  0.57342000  1.0
  C  C198  1  0.17588000  0.29500000  0.92660000  1.0
  C  C199  1  0.75093000  0.63166000  0.92666000  1.0
  C  C200  1  0.04501000  0.42573000  0.42666000  1.0
  C  C201  1  0.70498000  0.24951000  0.07343000  1.0
  C  C202  1  0.36847000  0.82404000  0.07338000  1.0
  C  C203  1  0.36839000  0.24928000  0.07339000  1.0
  C  C204  1  0.70500000  0.82427000  0.07334000  1.0
  C  C205  1  0.38153000  0.42595000  0.42662000  1.0
  C  C206  1  0.38161000  0.00072000  0.42661000  1.0
  C  C207  1  0.04501000  0.00049000  0.42657000  1.0
  C  C208  1  0.74595000  0.24988000  0.95507000  1.0
  C  C209  1  0.54099000  0.00026000  0.54497000  1.0
  C  C210  1  0.00405000  0.00011000  0.54493000  1.0
  C  C211  1  0.20921000  0.70523000  0.95503000  1.0
  C  C212  1  0.00387000  0.54467000  0.54493000  1.0
  C  C213  1  0.54080000  0.54476000  0.54497000  1.0
  C  C214  1  0.20901000  0.24974000  0.95503000  1.0
  C  C215  1  0.74613000  0.70533000  0.95507000  1.0
  C  C216  1  0.99974000  0.45894000  0.45507000  1.0
  C  C217  1  0.75020000  0.25418000  0.04497000  1.0
  C  C218  1  0.29481000  0.79088000  0.04493000  1.0
  C  C219  1  0.29471000  0.25398000  0.04497000  1.0
  C  C220  1  0.75027000  0.79106000  0.04493000  1.0
  C  C221  1  0.45519000  0.45912000  0.45507000  1.0
  C  C222  1  0.45529000  0.99602000  0.45503000  1.0
  C  C223  1  0.99979000  0.99583000  0.45503000  1.0
  C  C224  1  0.76276000  0.17638000  0.93945000  1.0
  C  C225  1  0.57352000  0.07375000  0.56063000  1.0
  C  C226  1  0.98723000  0.07361000  0.56055000  1.0
  C  C227  1  0.17666000  0.76309000  0.93941000  1.0
  C  C228  1  0.98707000  0.48683000  0.56058000  1.0
  C  C229  1  0.57333000  0.48691000  0.56058000  1.0
  C  C230  1  0.17648000  0.17626000  0.93937000  1.0
  C  C231  1  0.76294000  0.76317000  0.93943000  1.0
  C  C232  1  0.92625000  0.42648000  0.43942000  1.0
  C  C233  1  0.82368000  0.23725000  0.06059000  1.0
  C  C234  1  0.23694000  0.82331000  0.06055000  1.0
  C  C235  1  0.23688000  0.23711000  0.06062000  1.0
  C  C236  1  0.82375000  0.82352000  0.06058000  1.0
  C  C237  1  0.51306000  0.42668000  0.43945000  1.0
  C  C238  1  0.51312000  0.01289000  0.43937000  1.0
  C  C239  1  0.92633000  0.01275000  0.43942000  1.0
  C  C240  1  0.78436000  0.14876000  0.89632000  1.0
  C  C241  1  0.63825000  0.10129000  0.60374000  1.0
  C  C242  1  0.96564000  0.10124000  0.60368000  1.0
  C  C243  1  0.11187000  0.74754000  0.89634000  1.0
  C  C244  1  0.96549000  0.50236000  0.60370000  1.0
  C  C245  1  0.63813000  0.50246000  0.60366000  1.0
  C  C246  1  0.11175000  0.14871000  0.89626000  1.0
  C  C247  1  0.78451000  0.74764000  0.89630000  1.0
  C  C248  1  0.89866000  0.36179000  0.39630000  1.0
  C  C249  1  0.85120000  0.21553000  0.10366000  1.0
  C  C250  1  0.25244000  0.88804000  0.10368000  1.0
  C  C251  1  0.25245000  0.21549000  0.10374000  1.0
  C  C252  1  0.85134000  0.88821000  0.10370000  1.0
  C  C253  1  0.49756000  0.36196000  0.39632000  1.0
  C  C254  1  0.49755000  0.03451000  0.39626000  1.0
  C  C255  1  0.89879000  0.03447000  0.39634000  1.0
  C  C256  1  0.71982000  0.28029000  0.00001000  1.0
  C  C257  1  0.46991000  0.96991000  0.50000000  1.0
  C  C258  1  0.03018000  0.96971000  0.49999000  1.0
  C  C259  1  0.28028000  0.71981000  0.99999000  1.0
  C  C260  1  0.03005000  0.53005000  0.50000000  1.0
  C  C261  1  0.46972000  0.53018000  0.50001000  1.0
  C  C262  1  0.28009000  0.28009000  0.00000000  1.0
  C  C263  1  0.71995000  0.71995000  1.00000000  1.0
  N  N264  1  0.87147000  0.30444000  0.74283000  1.0
  N  N265  1  0.87853000  0.94556000  0.75717000  1.0
  N  N266  1  0.87140000  0.43840000  0.74280000  1.0
  N  N267  1  0.87861000  0.81160000  0.75721000  1.0
  N  N268  1  0.05440000  0.12140000  0.24280000  1.0
  N  N269  1  0.69560000  0.12860000  0.25720000  1.0
  N  N270  1  0.56161000  0.12864000  0.25717000  1.0
  N  N271  1  0.18839000  0.12136000  0.24283000  1.0
  O  O272  1  0.82698000  0.21158000  0.80256000  1.0
  O  O273  1  0.77453000  0.03831000  0.69747000  1.0
  O  O274  1  0.92302000  0.03842000  0.69744000  1.0
  O  O275  1  0.97549000  0.59101000  0.80261000  1.0
  O  O276  1  0.92303000  0.65896000  0.69752000  1.0
  O  O277  1  0.77451000  0.65899000  0.69739000  1.0
  O  O278  1  0.97547000  0.21169000  0.80253000  1.0
  O  O279  1  0.82696000  0.59105000  0.80248000  1.0
  O  O280  1  0.96144000  0.22552000  0.30248000  1.0
  O  O281  1  0.78839000  0.17289000  0.19739000  1.0
  O  O282  1  0.40902000  0.02442000  0.19744000  1.0
  O  O283  1  0.40915000  0.17294000  0.19746000  1.0
  O  O284  1  0.78857000  0.02448000  0.19752000  1.0
  O  O285  1  0.34098000  0.22558000  0.30256000  1.0
  O  O286  1  0.34085000  0.07706000  0.30254000  1.0
  O  O287  1  0.96160000  0.07712000  0.30261000  1.0
  O  O288  1  0.83031000  0.09800000  0.81077000  1.0
  O  O289  1  0.76970000  0.15192000  0.68928000  1.0
  O  O290  1  0.91969000  0.15200000  0.68923000  1.0
  O  O291  1  0.98036000  0.71277000  0.81076000  1.0
  O  O292  1  0.91977000  0.53717000  0.68933000  1.0
  O  O293  1  0.76964000  0.53723000  0.68924000  1.0
  O  O294  1  0.98031000  0.09808000  0.81072000  1.0
  O  O295  1  0.83023000  0.71283000  0.81067000  1.0
  O  O296  1  0.84785000  0.23044000  0.31068000  1.0
  O  O297  1  0.90201000  0.16960000  0.18924000  1.0
  O  O298  1  0.28723000  0.01954000  0.18923000  1.0
  O  O299  1  0.28736000  0.16958000  0.18928000  1.0
  O  O300  1  0.90215000  0.01956000  0.18932000  1.0
  O  O301  1  0.46277000  0.23046000  0.31077000  1.0
  O  O302  1  0.46264000  0.08042000  0.31072000  1.0
  O  O303  1  0.84799000  0.08040000  0.31076000  1.0
  O  O304  1  0.67437000  0.32576000  0.00000000  1.0
  O  O305  1  0.42447000  0.92446000  0.50000000  1.0
  O  O306  1  0.07562000  0.92424000  0.50000000  1.0
  O  O307  1  0.32576000  0.67438000  0.00000000  1.0
  O  O308  1  0.07549000  0.57549000  0.50000000  1.0
  O  O309  1  0.42424000  0.57562000  0.50000000  1.0
  O  O310  1  0.32554000  0.32554000  0.00000000  1.0
  O  O311  1  0.67450000  0.67451000  0.00000000  1.0
