# generated using pymatgen
data_NiMo2H12C15N3O7
_symmetry_space_group_name_H-M   'P 1'
_cell_length_a   7.22182000
_cell_length_b   10.91790000
_cell_length_c   11.22650000
_cell_angle_alpha   81.34820000
_cell_angle_beta   87.77280000
_cell_angle_gamma   73.38200000
_symmetry_Int_Tables_number   1
_chemical_formula_structural   NiMo2H12C15N3O7
_chemical_formula_sum   'Ni2 Mo4 H24 C30 N6 O14'
_cell_volume   838.54567938
_cell_formula_units_Z   2
loop_
 _symmetry_equiv_pos_site_id
 _symmetry_equiv_pos_as_xyz
  1  'x, y, z'
loop_
 _atom_site_type_symbol
 _atom_site_label
 _atom_site_symmetry_multiplicity
 _atom_site_fract_x
 _atom_site_fract_y
 _atom_site_fract_z
 _atom_site_occupancy
  Ni  Ni0  1  0.50000000  0.00000000  0.50000000  1.0
  Ni  Ni1  1  0.50000000  0.00000000  0.00000000  1.0
  Mo  Mo2  1  0.74622000  0.09007000  0.72579000  1.0
  Mo  Mo3  1  0.25379000  0.90992000  0.27421000  1.0
  Mo  Mo4  1  0.23151000  0.89305000  0.77589000  1.0
  Mo  Mo5  1  0.76850000  0.10695000  0.22411000  1.0
  H  H6  1  0.28879000  0.17256000  0.73014000  1.0
  H  H7  1  0.71121000  0.82743000  0.26986000  1.0
  H  H8  1  0.00927000  0.36320000  0.68538000  1.0
  H  H9  1  0.99073000  0.63680000  0.31462000  1.0
  H  H10  1  0.41005000  0.59559000  0.62987000  1.0
  H  H11  1  0.58995000  0.40440000  0.37014000  1.0
  H  H12  1  0.67547000  0.38970000  0.67773000  1.0
  H  H13  1  0.32453000  0.61030000  0.32228000  1.0
  H  H14  1  0.53669000  0.74047000  0.64273000  1.0
  H  H15  1  0.46332000  0.25953000  0.35727000  1.0
  H  H16  1  0.80035000  0.54372000  0.71485000  1.0
  H  H17  1  0.19966000  0.45628000  0.28515000  1.0
  H  H18  1  0.19824000  0.73032000  0.51824000  1.0
  H  H19  1  0.80177000  0.26967000  0.48176000  1.0
  H  H20  1  0.91954000  0.92014000  0.46249000  1.0
  H  H21  1  0.08048000  0.07986000  0.53751000  1.0
  H  H22  1  0.45477000  0.73225000  0.02433000  1.0
  H  H23  1  0.54522000  0.26776000  0.97566000  1.0
  H  H24  1  0.66542000  0.50898000  0.02615000  1.0
  H  H25  1  0.33456000  0.49103000  0.97383000  1.0
  H  H26  1  0.15186000  0.66959000  0.98322000  1.0
  H  H27  1  0.84812000  0.33041000  0.01679000  1.0
  H  H28  1  0.92165000  0.88274000  0.99278000  1.0
  H  H29  1  0.07834000  0.11726000  0.00722000  1.0
  C  C30  1  0.30851000  0.26853000  0.70810000  1.0
  C  C31  1  0.69150000  0.73147000  0.29190000  1.0
  C  C32  1  0.15249000  0.37740000  0.68250000  1.0
  C  C33  1  0.84751000  0.62259000  0.31749000  1.0
  C  C34  1  0.18447000  0.49886000  0.65149000  1.0
  C  C35  1  0.81554000  0.50114000  0.34850000  1.0
  C  C36  1  0.37631000  0.50406000  0.64947000  1.0
  C  C37  1  0.62370000  0.49594000  0.35053000  1.0
  C  C38  1  0.52407000  0.39122000  0.67713000  1.0
  C  C39  1  0.47594000  0.60878000  0.32287000  1.0
  C  C40  1  0.68542000  0.73260000  0.61598000  1.0
  C  C41  1  0.31457000  0.26740000  0.38401000  1.0
  C  C42  1  0.83376000  0.62265000  0.65497000  1.0
  C  C43  1  0.16624000  0.37735000  0.34503000  1.0
  C  C44  1  0.02407000  0.61628000  0.61903000  1.0
  C  C45  1  0.97593000  0.38372000  0.38096000  1.0
  C  C46  1  0.05513000  0.72583000  0.54870000  1.0
  C  C47  1  0.94488000  0.27417000  0.45130000  1.0
  C  C48  1  0.89970000  0.83313000  0.51569000  1.0
  C  C49  1  0.10030000  0.16687000  0.48431000  1.0
  C  C50  1  0.61076000  0.71298000  0.01587000  1.0
  C  C51  1  0.38923000  0.28703000  0.98413000  1.0
  C  C52  1  0.73126000  0.58811000  0.01512000  1.0
  C  C53  1  0.26872000  0.41190000  0.98486000  1.0
  C  C54  1  0.93266000  0.56577000  0.00212000  1.0
  C  C55  1  0.06732000  0.43423000  0.99787000  1.0
  C  C56  1  0.99927000  0.67579000  0.99390000  1.0
  C  C57  1  0.00072000  0.32421000  0.00610000  1.0
  C  C58  1  0.87063000  0.79760000  0.99676000  1.0
  C  C59  1  0.12936000  0.20241000  0.00323000  1.0
  N  N60  1  0.49150000  0.27524000  0.70548000  1.0
  N  N61  1  0.50850000  0.72476000  0.29453000  1.0
  N  N62  1  0.71698000  0.83617000  0.54639000  1.0
  N  N63  1  0.28303000  0.16382000  0.45361000  1.0
  N  N64  1  0.67803000  0.81730000  0.00627000  1.0
  N  N65  1  0.32196000  0.18271000  0.99372000  1.0
  O  O66  1  0.60943000  0.03956000  0.84848000  1.0
  O  O67  1  0.39057000  0.96043000  0.15151000  1.0
  O  O68  1  0.67241000  0.09202000  0.57557000  1.0
  O  O69  1  0.32760000  0.90797000  0.42443000  1.0
  O  O70  1  0.96760000  0.93631000  0.73802000  1.0
  O  O71  1  0.03240000  0.06369000  0.26198000  1.0
  O  O72  1  0.35882000  0.96555000  0.66149000  1.0
  O  O73  1  0.64119000  0.03445000  0.33851000  1.0
  O  O74  1  0.25928000  0.94414000  0.91293000  1.0
  O  O75  1  0.74072000  0.05586000  0.08707000  1.0
  O  O76  1  0.87342000  0.19932000  0.74455000  1.0
  O  O77  1  0.12658000  0.80068000  0.25546000  1.0
  O  O78  1  0.32938000  0.72603000  0.79380000  1.0
  O  O79  1  0.67063000  0.27396000  0.20620000  1.0
