# generated using pymatgen
data_ZnH13C16N2O4F3
_symmetry_space_group_name_H-M   'P 1'
_cell_length_a   8.38183000
_cell_length_b   9.77714000
_cell_length_c   10.76990000
_cell_angle_alpha   98.99900000
_cell_angle_beta   98.72440000
_cell_angle_gamma   105.40600000
_symmetry_Int_Tables_number   1
_chemical_formula_structural   ZnH13C16N2O4F3
_chemical_formula_sum   'Zn2 H26 C32 N4 O8 F6'
_cell_volume   822.92241781
_cell_formula_units_Z   2
loop_
 _symmetry_equiv_pos_site_id
 _symmetry_equiv_pos_as_xyz
  1  'x, y, z'
loop_
 _atom_site_type_symbol
 _atom_site_label
 _atom_site_symmetry_multiplicity
 _atom_site_fract_x
 _atom_site_fract_y
 _atom_site_fract_z
 _atom_site_occupancy
  Zn  Zn0  1  0.67675000  0.43741000  0.60896000  1.0
  Zn  Zn1  1  0.32325000  0.56259000  0.39104000  1.0
  H  H2  1  0.45064000  0.42586000  0.80580000  1.0
  H  H3  1  0.54936000  0.57414000  0.19420000  1.0
  H  H4  1  0.37565000  0.60279000  0.96318000  1.0
  H  H5  1  0.62435000  0.39721000  0.03682000  1.0
  H  H6  1  0.79661000  0.93510000  0.90320000  1.0
  H  H7  1  0.20339000  0.06490000  0.09680000  1.0
  H  H8  1  0.85313000  0.74491000  0.75072000  1.0
  H  H9  1  0.14687000  0.25509000  0.24928000  1.0
  H  H10  1  0.89212000  0.43769000  0.41013000  1.0
  H  H11  1  0.10788000  0.56230000  0.58986000  1.0
  H  H12  1  0.87065000  0.29924000  0.19421000  1.0
  H  H13  1  0.12935000  0.70076000  0.80579000  1.0
  H  H14  1  0.46651000  0.95986000  0.26919000  1.0
  H  H15  1  0.53349000  0.04014000  0.73081000  1.0
  H  H16  1  0.50496000  0.11660000  0.48297000  1.0
  H  H17  1  0.49504000  0.88340000  0.51703000  1.0
  H  H18  1  0.45046000  0.84563000  0.09201000  1.0
  H  H19  1  0.54954000  0.15437000  0.90799000  1.0
  H  H20  1  0.74192000  0.07523000  0.03292000  1.0
  H  H21  1  0.25807000  0.92476000  0.96708000  1.0
  H  H22  1  0.87627000  0.91215000  0.54345000  1.0
  H  H23  1  0.12373000  0.08785000  0.45655000  1.0
  H  H24  1  0.81602000  0.86758000  0.37334000  1.0
  H  H25  1  0.18398000  0.13242000  0.62666000  1.0
  H  H26  1  0.98107000  0.80740000  0.45531000  1.0
  H  H27  1  0.01893000  0.19260000  0.54469000  1.0
  C  C28  1  0.52404000  0.53990000  0.83160000  1.0
  C  C29  1  0.47596000  0.46010000  0.16840000  1.0
  C  C30  1  0.48357000  0.63908000  0.91884000  1.0
  C  C31  1  0.51643000  0.36092000  0.08116000  1.0
  C  C32  1  0.57666000  0.78612000  0.94496000  1.0
  C  C33  1  0.42333000  0.21388000  0.05504000  1.0
  C  C34  1  0.71592000  0.82381000  0.88666000  1.0
  C  C35  1  0.28408000  0.17619000  0.11334000  1.0
  C  C36  1  0.74902000  0.71816000  0.80080000  1.0
  C  C37  1  0.25098000  0.28184000  0.19920000  1.0
  C  C38  1  0.80086000  0.33080000  0.37641000  1.0
  C  C39  1  0.19914000  0.66920000  0.62359000  1.0
  C  C40  1  0.78765000  0.25141000  0.25463000  1.0
  C  C41  1  0.21235000  0.74859000  0.74537000  1.0
  C  C42  1  0.66164000  0.11815000  0.20877000  1.0
  C  C43  1  0.33835000  0.88185000  0.79123000  1.0
  C  C44  1  0.56369000  0.06471000  0.29522000  1.0
  C  C45  1  0.43630000  0.93528000  0.70478000  1.0
  C  C46  1  0.58481000  0.15078000  0.41578000  1.0
  C  C47  1  0.41519000  0.84922000  0.58422000  1.0
  C  C48  1  0.51041000  0.89370000  0.01891000  1.0
  C  C49  1  0.48959000  0.10630000  0.98109000  1.0
  C  C50  1  0.62382000  0.05165000  0.06845000  1.0
  C  C51  1  0.37618000  0.94835000  0.93155000  1.0
  C  C52  1  0.85812000  0.33037000  0.77743000  1.0
  C  C53  1  0.14188000  0.66963000  0.22257000  1.0
  C  C54  1  0.99077000  0.29001000  0.87048000  1.0
  C  C55  1  0.00923000  0.70999000  0.12952000  1.0
  C  C56  1  0.72869000  0.69219000  0.47030000  1.0
  C  C57  1  0.27131000  0.30781000  0.52970000  1.0
  C  C58  1  0.85900000  0.82750000  0.45790000  1.0
  C  C59  1  0.14101000  0.17251000  0.54210000  1.0
  N  N60  1  0.65207000  0.57904000  0.77023000  1.0
  N  N61  1  0.34793000  0.42096000  0.22977000  1.0
  N  N62  1  0.69672000  0.28410000  0.45473000  1.0
  N  N63  1  0.30328000  0.71589000  0.54527000  1.0
  O  O64  1  0.91451000  0.42848000  0.71764000  1.0
  O  O65  1  0.08549000  0.57151000  0.28236000  1.0
  O  O66  1  0.70719000  0.26162000  0.77197000  1.0
  O  O67  1  0.29281000  0.73837000  0.22803000  1.0
  O  O68  1  0.78387000  0.60813000  0.53280000  1.0
  O  O69  1  0.21614000  0.39187000  0.46720000  1.0
  O  O70  1  0.57593000  0.67532000  0.42064000  1.0
  O  O71  1  0.42408000  0.32468000  0.57936000  1.0
  F  F72  1  0.97540000  0.14468000  0.83951000  1.0
  F  F73  1  0.02461000  0.85532000  0.16049000  1.0
  F  F74  1  0.96597000  0.31777000  0.99370000  1.0
  F  F75  1  0.03403000  0.68224000  0.00631000  1.0
  F  F76  1  0.15369000  0.36264000  0.87220000  1.0
  F  F77  1  0.84631000  0.63736000  0.12780000  1.0
