# generated using pymatgen
data_KCd2H8C11(NO2)5
_symmetry_space_group_name_H-M   'P 1'
_cell_length_a   9.16663000
_cell_length_b   9.98718000
_cell_length_c   9.98722000
_cell_angle_alpha   111.67800000
_cell_angle_beta   96.20070000
_cell_angle_gamma   96.20040000
_symmetry_Int_Tables_number   1
_chemical_formula_structural   KCd2H8C11(NO2)5
_chemical_formula_sum   'K2 Cd4 H16 C22 N10 O20'
_cell_volume   833.78601762
_cell_formula_units_Z   2
loop_
 _symmetry_equiv_pos_site_id
 _symmetry_equiv_pos_as_xyz
  1  'x, y, z'
loop_
 _atom_site_type_symbol
 _atom_site_label
 _atom_site_symmetry_multiplicity
 _atom_site_fract_x
 _atom_site_fract_y
 _atom_site_fract_z
 _atom_site_occupancy
  K  K0  1  0.75001000  0.46936000  0.53063000  1.0
  K  K1  1  0.25000000  0.53063000  0.46937000  1.0
  Cd  Cd2  1  0.89785000  0.38995000  0.18077000  1.0
  Cd  Cd3  1  0.60215000  0.81923000  0.61005000  1.0
  Cd  Cd4  1  0.10216000  0.61005000  0.81923000  1.0
  Cd  Cd5  1  0.39785000  0.18077000  0.38995000  1.0
  H  H6  1  0.95267000  0.89376000  0.22942000  1.0
  H  H7  1  0.54733000  0.77058000  0.10624000  1.0
  H  H8  1  0.04732000  0.10624000  0.77057000  1.0
  H  H9  1  0.45267000  0.22942000  0.89376000  1.0
  H  H10  1  0.79549000  0.06392000  0.09129000  1.0
  H  H11  1  0.70451000  0.90871000  0.93608000  1.0
  H  H12  1  0.20451000  0.93608000  0.90871000  1.0
  H  H13  1  0.29549000  0.09129000  0.06392000  1.0
  H  H14  1  0.22311000  0.37961000  0.14549000  1.0
  H  H15  1  0.27688000  0.85451000  0.62040000  1.0
  H  H16  1  0.77689000  0.62039000  0.85451000  1.0
  H  H17  1  0.72312000  0.14548000  0.37961000  1.0
  H  H18  1  0.18248000  0.53752000  0.15452000  1.0
  H  H19  1  0.31751000  0.84548000  0.46248000  1.0
  H  H20  1  0.81752000  0.46248000  0.84547000  1.0
  H  H21  1  0.68248000  0.15452000  0.53752000  1.0
  C  C22  1  0.93205000  0.68541000  0.33609000  1.0
  C  C23  1  0.56795000  0.66391000  0.31459000  1.0
  C  C24  1  0.06795000  0.31459000  0.66390000  1.0
  C  C25  1  0.43205000  0.33609000  0.68541000  1.0
  C  C26  1  0.75000000  0.09755000  0.90245000  1.0
  C  C27  1  0.25000000  0.90245000  0.09755000  1.0
  C  C28  1  0.98963000  0.90766000  0.57625000  1.0
  C  C29  1  0.51036000  0.42375000  0.09234000  1.0
  C  C30  1  0.01036000  0.09234000  0.42375000  1.0
  C  C31  1  0.48964000  0.57625000  0.90766000  1.0
  C  C32  1  0.97272000  0.94153000  0.34839000  1.0
  C  C33  1  0.52728000  0.65161000  0.05847000  1.0
  C  C34  1  0.02727000  0.05847000  0.65161000  1.0
  C  C35  1  0.47273000  0.34839000  0.94153000  1.0
  C  C36  1  0.96286000  0.84730000  0.42248000  1.0
  C  C37  1  0.53714000  0.57752000  0.15270000  1.0
  C  C38  1  0.03714000  0.15270000  0.57752000  1.0
  C  C39  1  0.46286000  0.42248000  0.84730000  1.0
  C  C40  1  0.97335000  0.81363000  0.66298000  1.0
  C  C41  1  0.52665000  0.33702000  0.18637000  1.0
  C  C42  1  0.02665000  0.18637000  0.33702000  1.0
  C  C43  1  0.47335000  0.66298000  0.81363000  1.0
  N  N44  1  0.78352000  0.27915000  0.83385000  1.0
  N  N45  1  0.71648000  0.16615000  0.72085000  1.0
  N  N46  1  0.21648000  0.72085000  0.16615000  1.0
  N  N47  1  0.28352000  0.83385000  0.27915000  1.0
  N  N48  1  0.80758000  0.24081000  0.95008000  1.0
  N  N49  1  0.69241000  0.04992000  0.75919000  1.0
  N  N50  1  0.19241000  0.75919000  0.04992000  1.0
  N  N51  1  0.30759000  0.95008000  0.24081000  1.0
  N  N52  1  0.75000000  0.01643000  0.98357000  1.0
  N  N53  1  0.25000000  0.98357000  0.01643000  1.0
  O  O54  1  0.95850000  0.60009000  0.40322000  1.0
  O  O55  1  0.54150000  0.59678000  0.39991000  1.0
  O  O56  1  0.04150000  0.39991000  0.59678000  1.0
  O  O57  1  0.45850000  0.40322000  0.60009000  1.0
  O  O58  1  0.88504000  0.63670000  0.20023000  1.0
  O  O59  1  0.61496000  0.79977000  0.36331000  1.0
  O  O60  1  0.11495000  0.36330000  0.79977000  1.0
  O  O61  1  0.38504000  0.20023000  0.63670000  1.0
  O  O62  1  0.84497000  0.76262000  0.67304000  1.0
  O  O63  1  0.65503000  0.32696000  0.23738000  1.0
  O  O64  1  0.15504000  0.23738000  0.32696000  1.0
  O  O65  1  0.34497000  0.67303000  0.76261000  1.0
  O  O66  1  0.09468000  0.79551000  0.72669000  1.0
  O  O67  1  0.40532000  0.27331000  0.20450000  1.0
  O  O68  1  0.90533000  0.20450000  0.27331000  1.0
  O  O69  1  0.59468000  0.72669000  0.79551000  1.0
  O  O70  1  0.15271000  0.44813000  0.17454000  1.0
  O  O71  1  0.34729000  0.82546000  0.55188000  1.0
  O  O72  1  0.84729000  0.55187000  0.82546000  1.0
  O  O73  1  0.65271000  0.17454000  0.44813000  1.0
