# generated using pymatgen
data_CuH2C8N4(OF)2
_symmetry_space_group_name_H-M   'P 1'
_cell_length_a   6.33568000
_cell_length_b   7.41121000
_cell_length_c   12.06985914
_cell_angle_alpha   107.71616045
_cell_angle_beta   105.18875367
_cell_angle_gamma   90.08320000
_symmetry_Int_Tables_number   1
_chemical_formula_structural   CuH2C8N4(OF)2
_chemical_formula_sum   'Cu2 H4 C16 N8 O4 F4'
_cell_volume   518.96972588
_cell_formula_units_Z   2
loop_
 _symmetry_equiv_pos_site_id
 _symmetry_equiv_pos_as_xyz
  1  'x, y, z'
loop_
 _atom_site_type_symbol
 _atom_site_label
 _atom_site_symmetry_multiplicity
 _atom_site_fract_x
 _atom_site_fract_y
 _atom_site_fract_z
 _atom_site_occupancy
  Cu  Cu0  1  0.89952000  0.90189000  0.80274000  1.0
  Cu  Cu1  1  0.90568000  0.40195000  0.80296000  1.0
  H  H2  1  0.43816000  0.13707000  0.35951000  1.0
  H  H3  1  0.92408000  0.22157000  0.35833000  1.0
  H  H4  1  0.91983000  0.63797000  0.35910000  1.0
  H  H5  1  0.43364000  0.72086000  0.35927000  1.0
  C  C6  1  0.33730000  0.18356000  0.18719000  1.0
  C  C7  1  0.40605000  0.24242000  0.31244000  1.0
  C  C8  1  0.85061000  0.00340000  0.18613000  1.0
  C  C9  1  0.90716000  0.06936000  0.31142000  1.0
  C  C10  1  0.84861000  0.68400000  0.18665000  1.0
  C  C11  1  0.90488000  0.74315000  0.31190000  1.0
  C  C12  1  0.33474000  0.50303000  0.18693000  1.0
  C  C13  1  0.40349000  0.56872000  0.31222000  1.0
  C  C14  1  0.29341000  0.30876000  0.11782000  1.0
  C  C15  1  0.53405000  0.50272000  0.50687000  1.0
  C  C16  1  0.18493000  0.24194000  0.98440000  1.0
  C  C17  1  0.43915000  0.43732000  0.37608000  1.0
  C  C18  1  0.82332000  0.80909000  0.11719000  1.0
  C  C19  1  0.97221000  0.00347000  0.50627000  1.0
  C  C20  1  0.79990000  0.74218000  0.98391000  1.0
  C  C21  1  0.93542000  0.93813000  0.37540000  1.0
  N  N22  1  0.71152000  0.68088000  0.67992000  1.0
  N  N23  1  0.59884000  0.68648000  0.57281000  1.0
  N  N24  1  0.96973000  0.99918000  0.68008000  1.0
  N  N25  1  0.97312000  0.88610000  0.57279000  1.0
  N  N26  1  0.97068000  0.18143000  0.67986000  1.0
  N  N27  1  0.97474000  0.18722000  0.57251000  1.0
  N  N28  1  0.71247000  0.49877000  0.68034000  1.0
  N  N29  1  0.60038000  0.38551000  0.57337000  1.0
  O  O30  1  0.14622000  0.36937000  0.93265000  1.0
  O  O31  1  0.80348000  0.56417000  0.93521000  1.0
  O  O32  1  0.78661000  0.86940000  0.93197000  1.0
  O  O33  1  0.13397000  0.06375000  0.93523000  1.0
  F  F34  1  0.31349000  0.99385000  0.13156000  1.0
  F  F35  1  0.82155000  0.13749000  0.13019000  1.0
  F  F36  1  0.81671000  0.49427000  0.13117000  1.0
  F  F37  1  0.30812000  0.63738000  0.13121000  1.0
