# generated using pymatgen
data_CdH20C26(BrN3)2
_symmetry_space_group_name_H-M   'P 1'
_cell_length_a   9.35307000
_cell_length_b   12.12320000
_cell_length_c   12.57630000
_cell_angle_alpha   108.35200000
_cell_angle_beta   98.62090000
_cell_angle_gamma   108.33200000
_symmetry_Int_Tables_number   1
_chemical_formula_structural   CdH20C26(BrN3)2
_chemical_formula_sum   'Cd2 H40 C52 Br4 N12'
_cell_volume   1234.78941246
_cell_formula_units_Z   2
loop_
 _symmetry_equiv_pos_site_id
 _symmetry_equiv_pos_as_xyz
  1  'x, y, z'
loop_
 _atom_site_type_symbol
 _atom_site_label
 _atom_site_symmetry_multiplicity
 _atom_site_fract_x
 _atom_site_fract_y
 _atom_site_fract_z
 _atom_site_occupancy
  Cd  Cd0  1  0.36508000  0.73322000  0.77027000  1.0
  Cd  Cd1  1  0.63492000  0.26678000  0.22973000  1.0
  H  H2  1  0.28033000  0.96304000  0.88673000  1.0
  H  H3  1  0.71967000  0.03696000  0.11327000  1.0
  H  H4  1  0.10873000  0.07119000  0.84087000  1.0
  H  H5  1  0.89126000  0.92881000  0.15913000  1.0
  H  H6  1  0.86901000  0.74745000  0.51462000  1.0
  H  H7  1  0.13099000  0.25255000  0.48538000  1.0
  H  H8  1  0.05176000  0.65614000  0.57220000  1.0
  H  H9  1  0.94824000  0.34386000  0.42781000  1.0
  H  H10  1  0.78024000  0.07640000  0.49208000  1.0
  H  H11  1  0.21975000  0.92360000  0.50792000  1.0
  H  H12  1  0.53346000  0.96289000  0.33114000  1.0
  H  H13  1  0.46654000  0.03711000  0.66886000  1.0
  H  H14  1  0.41478000  0.65419000  0.42536000  1.0
  H  H15  1  0.58522000  0.34581000  0.57464000  1.0
  H  H16  1  0.65216000  0.75373000  0.58975000  1.0
  H  H17  1  0.34783000  0.24627000  0.41025000  1.0
  H  H18  1  0.74756000  0.12224000  0.76449000  1.0
  H  H19  1  0.25244000  0.87776000  0.23551000  1.0
  H  H20  1  0.84643000  0.35503000  0.84857000  1.0
  H  H21  1  0.15357000  0.64497000  0.15143000  1.0
  H  H22  1  0.25008000  0.37603000  0.71763000  1.0
  H  H23  1  0.74992000  0.62397000  0.28237000  1.0
  H  H24  1  0.15077000  0.14048000  0.63412000  1.0
  H  H25  1  0.84923000  0.85952000  0.36588000  1.0
  H  H26  1  0.20000000  0.43793000  0.01069000  1.0
  H  H27  1  0.80000000  0.56207000  0.98931000  1.0
  H  H28  1  0.44862000  0.55302000  0.17277000  1.0
  H  H29  1  0.55138000  0.44698000  0.82723000  1.0
  H  H30  1  0.64443000  0.75400000  0.17698000  1.0
  H  H31  1  0.35557000  0.24600000  0.82302000  1.0
  H  H32  1  0.58623000  0.82277000  0.01250000  1.0
  H  H33  1  0.41377000  0.17723000  0.98750000  1.0
  H  H34  1  0.85956000  0.44859000  0.66981000  1.0
  H  H35  1  0.14044000  0.55141000  0.33019000  1.0
  H  H36  1  0.69010000  0.57252000  0.67580000  1.0
  H  H37  1  0.30990000  0.42748000  0.32420000  1.0
  H  H38  1  0.76736000  0.77696000  0.84791000  1.0
  H  H39  1  0.23264000  0.22304000  0.15209000  1.0
  H  H40  1  0.01226000  0.84512000  0.00725000  1.0
  H  H41  1  0.98774000  0.15488000  0.99274000  1.0
  C  C42  1  0.18914000  0.91988000  0.80406000  1.0
  C  C43  1  0.81086000  0.08012000  0.19594000  1.0
  C  C44  1  0.09284000  0.97955000  0.77843000  1.0
  C  C45  1  0.90716000  0.02045000  0.22157000  1.0
  C  C46  1  0.97408000  0.92087000  0.67172000  1.0
  C  C47  1  0.02592000  0.07913000  0.32828000  1.0
  C  C48  1  0.95827000  0.80039000  0.59768000  1.0
  C  C49  1  0.04173000  0.19961000  0.40232000  1.0
  C  C50  1  0.06099000  0.74830000  0.62983000  1.0
  C  C51  1  0.93901000  0.25170000  0.37017000  1.0
  C  C52  1  0.74097000  0.92246000  0.55229000  1.0
  C  C53  1  0.25902000  0.07754000  0.44771000  1.0
  C  C54  1  0.70264000  0.98215000  0.47938000  1.0
  C  C55  1  0.29736000  0.01785000  0.52062000  1.0
  C  C56  1  0.56394000  0.91810000  0.38944000  1.0
  C  C57  1  0.43606000  0.08190000  0.61056000  1.0
  C  C58  1  0.49861000  0.74744000  0.44041000  1.0
  C  C59  1  0.50139000  0.25256000  0.55959000  1.0
  C  C60  1  0.63345000  0.80290000  0.53333000  1.0
  C  C61  1  0.36655000  0.19710000  0.46667000  1.0
  C  C62  1  0.94328000  0.11811000  0.69428000  1.0
  C  C63  1  0.05672000  0.88189000  0.30572000  1.0
  C  C64  1  0.85678000  0.17793000  0.75358000  1.0
  C  C65  1  0.14322000  0.82207000  0.24642000  1.0
  C  C66  1  0.91303000  0.30869000  0.80111000  1.0
  C  C67  1  0.08697000  0.69131000  0.19889000  1.0
  C  C68  1  0.05551000  0.37970000  0.78951000  1.0
  C  C69  1  0.94449000  0.62030000  0.21049000  1.0
  C  C70  1  0.14202000  0.31949000  0.72959000  1.0
  C  C71  1  0.85798000  0.68051000  0.27041000  1.0
  C  C72  1  0.08575000  0.18871000  0.68212000  1.0
  C  C73  1  0.91425000  0.81129000  0.31788000  1.0
  C  C74  1  0.26271000  0.57220000  0.92970000  1.0
  C  C75  1  0.73729000  0.42780000  0.07030000  1.0
  C  C76  1  0.28934000  0.52343000  0.01460000  1.0
  C  C77  1  0.71066000  0.47657000  0.98540000  1.0
  C  C78  1  0.42766000  0.58804000  0.10443000  1.0
  C  C79  1  0.57234000  0.41196000  0.89557000  1.0
  C  C80  1  0.53623000  0.69921000  0.10711000  1.0
  C  C81  1  0.46377000  0.30080000  0.89289000  1.0
  C  C82  1  0.50435000  0.73871000  0.01730000  1.0
  C  C83  1  0.49564000  0.26129000  0.98270000  1.0
  C  C84  1  0.02024000  0.58123000  0.83907000  1.0
  C  C85  1  0.97975000  0.41877000  0.16093000  1.0
  C  C86  1  0.88753000  0.53551000  0.74412000  1.0
  C  C87  1  0.11247000  0.46449000  0.25588000  1.0
  C  C88  1  0.79410000  0.60521000  0.74795000  1.0
  C  C89  1  0.20590000  0.39479000  0.25205000  1.0
  C  C90  1  0.83599000  0.71841000  0.84349000  1.0
  C  C91  1  0.16401000  0.28159000  0.15651000  1.0
  C  C92  1  0.97175000  0.75635000  0.93165000  1.0
  C  C93  1  0.02825000  0.24365000  0.06835000  1.0
  Br  Br94  1  0.32711000  0.53739000  0.59325000  1.0
  Br  Br95  1  0.67289000  0.46261000  0.40675000  1.0
  Br  Br96  1  0.61315000  0.94112000  0.85430000  1.0
  Br  Br97  1  0.38685000  0.05888000  0.14570000  1.0
  N  N98  1  0.17641000  0.80631000  0.73066000  1.0
  N  N99  1  0.82359000  0.19369000  0.26935000  1.0
  N  N100  1  0.88313000  0.98325000  0.64181000  1.0
  N  N101  1  0.11688000  0.01675000  0.35819000  1.0
  N  N102  1  0.46259000  0.80154000  0.36771000  1.0
  N  N103  1  0.53741000  0.19846000  0.63229000  1.0
  N  N104  1  0.37152000  0.67571000  0.92921000  1.0
  N  N105  1  0.62848000  0.32429000  0.07079000  1.0
  N  N106  1  0.11867000  0.51394000  0.84174000  1.0
  N  N107  1  0.88133000  0.48606000  0.15827000  1.0
  N  N108  1  0.06128000  0.68896000  0.93119000  1.0
  N  N109  1  0.93872000  0.31104000  0.06881000  1.0
