# generated using pymatgen
data_CuH8(CO)7
_symmetry_space_group_name_H-M   'P 1'
_cell_length_a   6.71789000
_cell_length_b   7.84346000
_cell_length_c   11.00623680
_cell_angle_alpha   96.39020455
_cell_angle_beta   106.74085330
_cell_angle_gamma   112.69100000
_symmetry_Int_Tables_number   1
_chemical_formula_structural   CuH8(CO)7
_chemical_formula_sum   'Cu2 H16 C14 O14'
_cell_volume   495.86919737
_cell_formula_units_Z   2
loop_
 _symmetry_equiv_pos_site_id
 _symmetry_equiv_pos_as_xyz
  1  'x, y, z'
loop_
 _atom_site_type_symbol
 _atom_site_label
 _atom_site_symmetry_multiplicity
 _atom_site_fract_x
 _atom_site_fract_y
 _atom_site_fract_z
 _atom_site_occupancy
  Cu  Cu0  1  0.08722000  0.23543000  0.55336000  1.0
  Cu  Cu1  1  0.91278000  0.76456000  0.44664000  1.0
  H  H2  1  0.94949000  0.87568000  0.17060000  1.0
  H  H3  1  0.05053000  0.12434000  0.82941000  1.0
  H  H4  1  0.81993000  0.74860000  0.92985000  1.0
  H  H5  1  0.18008000  0.25141000  0.07016000  1.0
  H  H6  1  0.14812000  0.51168000  0.71808000  1.0
  H  H7  1  0.85189000  0.48833000  0.28192000  1.0
  H  H8  1  0.38350000  0.51039000  0.73483000  1.0
  H  H9  1  0.61651000  0.48963000  0.26515000  1.0
  H  H10  1  0.65699000  0.13265000  0.46755000  1.0
  H  H11  1  0.34301000  0.86736000  0.53245000  1.0
  H  H12  1  0.71977000  0.11030000  0.61290000  1.0
  H  H13  1  0.28022000  0.88970000  0.38710000  1.0
  H  H14  1  0.39826000  0.29640000  0.44985000  1.0
  H  H15  1  0.60173000  0.70358000  0.55014000  1.0
  H  H16  1  0.52240000  0.41592000  0.60101000  1.0
  H  H17  1  0.47761000  0.58402000  0.39899000  1.0
  C  C18  1  0.86643000  0.13623000  0.29147000  1.0
  C  C19  1  0.13356000  0.86378000  0.70853000  1.0
  C  C20  1  0.72896000  0.01573000  0.15402000  1.0
  C  C21  1  0.27104000  0.98428000  0.84599000  1.0
  C  C22  1  0.81236000  0.89875000  0.10443000  1.0
  C  C23  1  0.18764000  0.10126000  0.89558000  1.0
  C  C24  1  0.73748000  0.82515000  0.96873000  1.0
  C  C25  1  0.26251000  0.17486000  0.03127000  1.0
  C  C26  1  0.57951000  0.86848000  0.88207000  1.0
  C  C27  1  0.42048000  0.13152000  0.11793000  1.0
  C  C28  1  0.53814000  0.03759000  0.06969000  1.0
  C  C29  1  0.46186000  0.96241000  0.93032000  1.0
  C  C30  1  0.56928000  0.84077000  0.74298000  1.0
  C  C31  1  0.43071000  0.15923000  0.25702000  1.0
  O  O32  1  0.94339000  0.05527000  0.37807000  1.0
  O  O33  1  0.05659000  0.94473000  0.62193000  1.0
  O  O34  1  0.91532000  0.31086000  0.31966000  1.0
  O  O35  1  0.08468000  0.68915000  0.68034000  1.0
  O  O36  1  0.55350000  0.96875000  0.68463000  1.0
  O  O37  1  0.44650000  0.03126000  0.31538000  1.0
  O  O38  1  0.58834000  0.69498000  0.69243000  1.0
  O  O39  1  0.41165000  0.30503000  0.30757000  1.0
  O  O40  1  0.22375000  0.42303000  0.72630000  1.0
  O  O41  1  0.77625000  0.57698000  0.27369000  1.0
  O  O42  1  0.78034000  0.19332000  0.55697000  1.0
  O  O43  1  0.21966000  0.80669000  0.44303000  1.0
  O  O44  1  0.39392000  0.29741000  0.54199000  1.0
  O  O45  1  0.60607000  0.70256000  0.45800000  1.0
