# generated using pymatgen
data_CuH8C4(N4Cl)2
_symmetry_space_group_name_H-M   'P 1'
_cell_length_a   8.65812000
_cell_length_b   9.68474000
_cell_length_c   13.02860000
_cell_angle_alpha   89.99620000
_cell_angle_beta   89.99550000
_cell_angle_gamma   68.31200000
_symmetry_Int_Tables_number   1
_chemical_formula_structural   CuH8C4(N4Cl)2
_chemical_formula_sum   'Cu4 H32 C16 N32 Cl8'
_cell_volume   1015.13356174
_cell_formula_units_Z   4
loop_
 _symmetry_equiv_pos_site_id
 _symmetry_equiv_pos_as_xyz
  1  'x, y, z'
loop_
 _atom_site_type_symbol
 _atom_site_label
 _atom_site_symmetry_multiplicity
 _atom_site_fract_x
 _atom_site_fract_y
 _atom_site_fract_z
 _atom_site_occupancy
  Cu  Cu0  1  0.38578000  0.13300000  0.61116000  1.0
  Cu  Cu1  1  0.11421000  0.36701000  0.11116000  1.0
  Cu  Cu2  1  0.61426000  0.86701000  0.38885000  1.0
  Cu  Cu3  1  0.88577000  0.63298000  0.88885000  1.0
  H  H4  1  0.15884000  0.28523000  0.40684000  1.0
  H  H5  1  0.34120000  0.21480000  0.90685000  1.0
  H  H6  1  0.84118000  0.71477000  0.59318000  1.0
  H  H7  1  0.65885000  0.78519000  0.09317000  1.0
  H  H8  1  0.28031000  0.72323000  0.57157000  1.0
  H  H9  1  0.21967000  0.77680000  0.07157000  1.0
  H  H10  1  0.71969000  0.27681000  0.42844000  1.0
  H  H11  1  0.78032000  0.22322000  0.92844000  1.0
  H  H12  1  0.09612000  0.77934000  0.49478000  1.0
  H  H13  1  0.40387000  0.72072000  0.99478000  1.0
  H  H14  1  0.90387000  0.22068000  0.50522000  1.0
  H  H15  1  0.59610000  0.27931000  0.00523000  1.0
  H  H16  1  0.29709000  0.72887000  0.43433000  1.0
  H  H17  1  0.20293000  0.77116000  0.93434000  1.0
  H  H18  1  0.70293000  0.27115000  0.56567000  1.0
  H  H19  1  0.79705000  0.22886000  0.06567000  1.0
  H  H20  1  0.20454000  0.44071000  0.75381000  1.0
  H  H21  1  0.29550000  0.05920000  0.25384000  1.0
  H  H22  1  0.79550000  0.55920000  0.24623000  1.0
  H  H23  1  0.70453000  0.94076000  0.74619000  1.0
  H  H24  1  0.84252000  0.12052000  0.71919000  1.0
  H  H25  1  0.65742000  0.37950000  0.21913000  1.0
  H  H26  1  0.15750000  0.87943000  0.28081000  1.0
  H  H27  1  0.34252000  0.62053000  0.78084000  1.0
  H  H28  1  0.04129000  0.04963000  0.65361000  1.0
  H  H29  1  0.45864000  0.45039000  0.15359000  1.0
  H  H30  1  0.95871000  0.95036000  0.34638000  1.0
  H  H31  1  0.54133000  0.54960000  0.84636000  1.0
  H  H32  1  0.02817000  0.01262000  0.78724000  1.0
  H  H33  1  0.47177000  0.48738000  0.28721000  1.0
  H  H34  1  0.97187000  0.98735000  0.21274000  1.0
  H  H35  1  0.52813000  0.51265000  0.71273000  1.0
  C  C36  1  0.20220000  0.36234000  0.44665000  1.0
  C  C37  1  0.29783000  0.13770000  0.94666000  1.0
  C  C38  1  0.79781000  0.63768000  0.55337000  1.0
  C  C39  1  0.70221000  0.86231000  0.05337000  1.0
  C  C40  1  0.22762000  0.70656000  0.49863000  1.0
  C  C41  1  0.27237000  0.79348000  0.99862000  1.0
  C  C42  1  0.77238000  0.29346000  0.50138000  1.0
  C  C43  1  0.72763000  0.20652000  0.00137000  1.0
  C  C44  1  0.11779000  0.38482000  0.76079000  1.0
  C  C45  1  0.38223000  0.11515000  0.26081000  1.0
  C  C46  1  0.88226000  0.61516000  0.23922000  1.0
  C  C47  1  0.61779000  0.88483000  0.73920000  1.0
  C  C48  1  0.97666000  0.09383000  0.72564000  1.0
  C  C49  1  0.52327000  0.40617000  0.22561000  1.0
  C  C50  1  0.02334000  0.90614000  0.27435000  1.0
  C  C51  1  0.47667000  0.59383000  0.77435000  1.0
  N  N52  1  0.15838000  0.50541000  0.42270000  1.0
  N  N53  1  0.34165000  0.99462000  0.92270000  1.0
  N  N54  1  0.84164000  0.49460000  0.57732000  1.0
  N  N55  1  0.65840000  0.00536000  0.07732000  1.0
  N  N56  1  0.23871000  0.55312000  0.49337000  1.0
  N  N57  1  0.26127000  0.94690000  0.99336000  1.0
  N  N58  1  0.76130000  0.44689000  0.50665000  1.0
  N  N59  1  0.73873000  0.05308000  0.00664000  1.0
  N  N60  1  0.32894000  0.44934000  0.55765000  1.0
  N  N61  1  0.17105000  0.05069000  0.05764000  1.0
  N  N62  1  0.67108000  0.55068000  0.44237000  1.0
  N  N63  1  0.82896000  0.94933000  0.94234000  1.0
  N  N64  1  0.30650000  0.32630000  0.52854000  1.0
  N  N65  1  0.19351000  0.17372000  0.02854000  1.0
  N  N66  1  0.69352000  0.67372000  0.47148000  1.0
  N  N67  1  0.80650000  0.82627000  0.97146000  1.0
  N  N68  1  0.14071000  0.25254000  0.72084000  1.0
  N  N69  1  0.35925000  0.24744000  0.22083000  1.0
  N  N70  1  0.85928000  0.74745000  0.27918000  1.0
  N  N71  1  0.64074000  0.75253000  0.77915000  1.0
  N  N72  1  0.00335000  0.23044000  0.74872000  1.0
  N  N73  1  0.49660000  0.26957000  0.24869000  1.0
  N  N74  1  0.99663000  0.76957000  0.25128000  1.0
  N  N75  1  0.50338000  0.73043000  0.75128000  1.0
  N  N76  1  0.89930000  0.34015000  0.80375000  1.0
  N  N77  1  0.60066000  0.15986000  0.30373000  1.0
  N  N78  1  0.10066000  0.65984000  0.19624000  1.0
  N  N79  1  0.39933000  0.84017000  0.69626000  1.0
  N  N80  1  0.97178000  0.43898000  0.81168000  1.0
  N  N81  1  0.52823000  0.06102000  0.31168000  1.0
  N  N82  1  0.02823000  0.56102000  0.18833000  1.0
  N  N83  1  0.47178000  0.93900000  0.68834000  1.0
  Cl  Cl84  1  0.52949000  0.22612000  0.72419000  1.0
  Cl  Cl85  1  0.97054000  0.27392000  0.22417000  1.0
  Cl  Cl86  1  0.47058000  0.77387000  0.27580000  1.0
  Cl  Cl87  1  0.02946000  0.72613000  0.77575000  1.0
  Cl  Cl88  1  0.25598000  0.03289000  0.49625000  1.0
  Cl  Cl89  1  0.24396000  0.46712000  0.99622000  1.0
  Cl  Cl90  1  0.74400000  0.96713000  0.50378000  1.0
  Cl  Cl91  1  0.75597000  0.53285000  0.00380000  1.0
