# generated using pymatgen
data_Zn3H9C25S5O27F7
_symmetry_space_group_name_H-M   'P 1'
_cell_length_a   18.39530000
_cell_length_b   18.68860000
_cell_length_c   18.74893928
_cell_angle_alpha   109.74093145
_cell_angle_beta   108.82148701
_cell_angle_gamma   108.96600000
_symmetry_Int_Tables_number   1
_chemical_formula_structural   Zn3H9C25S5O27F7
_chemical_formula_sum   'Zn6 H18 C50 S10 O54 F14'
_cell_volume   5014.98464525
_cell_formula_units_Z   2
loop_
 _symmetry_equiv_pos_site_id
 _symmetry_equiv_pos_as_xyz
  1  'x, y, z'
loop_
 _atom_site_type_symbol
 _atom_site_label
 _atom_site_symmetry_multiplicity
 _atom_site_fract_x
 _atom_site_fract_y
 _atom_site_fract_z
 _atom_site_occupancy
  Zn  Zn0  1  0.93458000  0.44209000  0.00202000  1.0
  Zn  Zn1  1  0.05934000  0.56048000  0.99294000  1.0
  Zn  Zn2  1  0.49867000  0.44081000  0.44179000  1.0
  Zn  Zn3  1  0.49141000  0.56845000  0.56425000  1.0
  Zn  Zn4  1  0.07096000  0.99912000  0.57365000  1.0
  Zn  Zn5  1  0.94401000  0.99490000  0.44317000  1.0
  H  H6  1  0.09610000  0.37530000  0.84720000  1.0
  H  H7  1  0.89963000  0.79578000  0.91387000  1.0
  H  H8  1  0.92536000  0.98791000  0.72500000  1.0
  H  H9  1  0.81508000  0.29643000  0.81304000  1.0
  H  H10  1  0.36872000  0.75444000  0.41397000  1.0
  H  H11  1  0.02631000  0.25681000  0.07821000  1.0
  H  H12  1  0.01275000  0.50492000  0.19559000  1.0
  H  H13  1  0.36698000  0.14470000  0.61813000  1.0
  H  H14  1  0.70084000  0.57108000  0.90494000  1.0
  H  H15  1  0.71451000  0.27202000  0.67051000  1.0
  H  H16  1  0.11993000  0.26384000  0.75385000  1.0
  H  H17  1  0.25971000  0.35825000  0.19871000  1.0
  H  H18  1  0.72028000  0.39372000  0.77040000  1.0
  H  H19  1  0.03926000  0.73965000  0.41430000  1.0
  H  H20  1  0.22379000  0.39976000  0.52780000  1.0
  H  H21  1  0.10383000  0.26931000  0.50685000  1.0
  H  H22  1  0.37122000  0.26310000  0.50587000  1.0
  H  H23  1  0.90334000  0.51620000  0.62185000  1.0
  C  C24  1  0.96465000  0.35830000  0.87361000  1.0
  C  C25  1  0.96453000  0.28562000  0.80734000  1.0
  C  C26  1  0.27316000  0.58339000  0.24860000  1.0
  C  C27  1  0.89391000  0.52184000  0.88630000  1.0
  C  C28  1  0.33399000  0.57468000  0.30813000  1.0
  C  C29  1  0.32954000  0.49441000  0.29269000  1.0
  C  C30  1  0.26352000  0.42133000  0.21325000  1.0
  C  C31  1  0.20252000  0.42845000  0.15290000  1.0
  C  C32  1  0.20648000  0.50938000  0.16863000  1.0
  C  C33  1  0.02813000  0.75140000  0.20984000  1.0
  C  C34  1  0.03867000  0.82171000  0.27860000  1.0
  C  C35  1  0.69260000  0.49829000  0.67664000  1.0
  C  C36  1  0.04211000  0.81834000  0.35267000  1.0
  C  C37  1  0.03387000  0.74239000  0.35582000  1.0
  C  C38  1  0.01620000  0.66960000  0.28465000  1.0
  C  C39  1  0.99319000  0.59838000  0.12871000  1.0
  C  C40  1  0.01211000  0.67212000  0.20875000  1.0
  C  C41  1  0.37509000  0.41158000  0.52241000  1.0
  C  C42  1  0.61688000  0.49229000  0.60288000  1.0
  C  C43  1  0.60688000  0.64372000  0.52221000  1.0
  C  C44  1  0.38862000  0.48513000  0.36121000  1.0
  C  C45  1  0.86653000  0.87329000  0.47497000  1.0
  C  C46  1  0.76210000  0.60065000  0.74956000  1.0
  C  C47  1  0.00822000  0.09701000  0.64352000  1.0
  C  C48  1  0.10283000  0.12383000  0.49855000  1.0
  C  C49  1  0.04510000  0.89026000  0.42250000  1.0
  C  C50  1  0.23058000  0.34226000  0.52048000  1.0
  C  C51  1  0.13772000  0.51432000  0.10237000  1.0
  C  C52  1  0.16409000  0.26979000  0.50960000  1.0
  C  C53  1  0.17342000  0.19666000  0.50287000  1.0
  C  C54  1  0.25061000  0.19654000  0.50468000  1.0
  C  C55  1  0.31436000  0.26617000  0.50964000  1.0
  C  C56  1  0.30523000  0.33979000  0.51896000  1.0
  C  C57  1  0.74027000  0.44734000  0.64491000  1.0
  C  C58  1  0.76185000  0.74818000  0.56993000  1.0
  C  C59  1  0.82426000  0.79563000  0.55390000  1.0
  C  C60  1  0.79929000  0.81037000  0.48294000  1.0
  C  C61  1  0.70847000  0.76994000  0.42631000  1.0
  C  C62  1  0.64686000  0.71892000  0.44083000  1.0
  C  C63  1  0.72825000  0.45934000  0.79552000  1.0
  C  C64  1  0.67237000  0.70818000  0.51325000  1.0
  C  C65  1  0.65411000  0.45857000  0.72524000  1.0
  C  C66  1  0.83224000  0.61514000  0.83526000  1.0
  C  C67  1  0.82468000  0.47884000  0.72911000  1.0
  C  C68  1  0.04426000  0.30777000  0.80571000  1.0
  C  C69  1  0.82154000  0.52344000  0.81635000  1.0
  C  C70  1  0.05785000  0.24554000  0.75495000  1.0
  C  C71  1  0.99244000  0.15828000  0.70559000  1.0
  C  C72  1  0.91220000  0.13434000  0.70722000  1.0
  C  C73  1  0.89637000  0.19824000  0.75487000  1.0
  S  S74  1  0.76493000  0.46343000  0.55296000  1.0
  S  S75  1  0.67454000  0.31611000  0.57879000  1.0
  S  S76  1  0.95098000  0.71407000  0.87501000  1.0
  S  S77  1  0.83437000  0.01940000  0.65476000  1.0
  S  S78  1  0.78449000  0.16626000  0.73720000  1.0
  S  S79  1  0.28166000  0.68961000  0.27777000  1.0
  S  S80  1  0.12236000  0.32901000  0.05397000  1.0
  S  S81  1  0.99773000  0.57622000  0.29972000  1.0
  S  S82  1  0.27113000  0.10692000  0.49335000  1.0
  S  S83  1  0.82465000  0.66810000  0.93969000  1.0
  O  O84  1  0.91286000  0.33819000  0.90563000  1.0
  O  O85  1  0.84014000  0.89878000  0.42078000  1.0
  O  O86  1  0.06863000  0.07880000  0.67360000  1.0
  O  O87  1  0.01717000  0.43510000  0.89717000  1.0
  O  O88  1  0.96189000  0.07397000  0.56523000  1.0
  O  O89  1  0.12799000  0.10000000  0.55325000  1.0
  O  O90  1  0.02315000  0.09430000  0.44241000  1.0
  O  O91  1  0.09341000  0.91395000  0.50186000  1.0
  O  O92  1  0.99542000  0.91959000  0.39574000  1.0
  O  O93  1  0.86730000  0.46858000  0.91125000  1.0
  O  O94  1  0.97276000  0.57023000  0.90741000  1.0
  O  O95  1  0.39513000  0.49061000  0.56993000  1.0
  O  O96  1  0.93863000  0.51981000  0.10590000  1.0
  O  O97  1  0.03018000  0.61575000  0.08605000  1.0
  O  O98  1  0.05977000  0.47041000  0.08566000  1.0
  O  O99  1  0.16235000  0.56005000  0.06873000  1.0
  O  O100  1  0.41042000  0.38820000  0.47735000  1.0
  O  O101  1  0.70111000  0.38740000  0.47124000  1.0
  O  O102  1  0.78144000  0.54869000  0.56719000  1.0
  O  O103  1  0.85416000  0.45892000  0.57440000  1.0
  O  O104  1  0.00377000  0.73953000  0.96358000  1.0
  O  O105  1  0.98181000  0.69726000  0.81375000  1.0
  O  O106  1  0.59587000  0.44133000  0.52584000  1.0
  O  O107  1  0.91997000  0.78264000  0.86972000  1.0
  O  O108  1  0.79544000  0.00710000  0.70785000  1.0
  O  O109  1  0.78467000  0.98294000  0.56328000  1.0
  O  O110  1  0.90295000  0.98259000  0.66741000  1.0
  O  O111  1  0.72619000  0.10648000  0.64658000  1.0
  O  O112  1  0.77442000  0.15108000  0.80413000  1.0
  O  O113  1  0.78029000  0.25490000  0.74934000  1.0
  O  O114  1  0.35434000  0.74023000  0.27136000  1.0
  O  O115  1  0.19500000  0.67675000  0.23416000  1.0
  O  O116  1  0.30504000  0.72786000  0.37738000  1.0
  O  O117  1  0.58134000  0.53637000  0.62566000  1.0
  O  O118  1  0.10597000  0.34861000  0.98467000  1.0
  O  O119  1  0.14740000  0.26348000  0.05294000  1.0
  O  O120  1  0.03417000  0.30276000  0.06260000  1.0
  O  O121  1  0.04605000  0.60832000  0.39099000  1.0
  O  O122  1  0.90503000  0.51560000  0.25060000  1.0
  O  O123  1  0.04865000  0.53514000  0.25931000  1.0
  O  O124  1  0.18962000  0.02731000  0.43616000  1.0
  O  O125  1  0.34573000  0.12242000  0.47899000  1.0
  O  O126  1  0.30274000  0.11785000  0.58955000  1.0
  O  O127  1  0.86690000  0.64000000  0.99448000  1.0
  O  O128  1  0.58416000  0.56550000  0.47416000  1.0
  O  O129  1  0.85367000  0.75905000  0.96700000  1.0
  O  O130  1  0.72521000  0.63200000  0.91713000  1.0
  O  O131  1  0.58694000  0.28848000  0.51884000  1.0
  O  O132  1  0.73381000  0.29378000  0.55474000  1.0
  O  O133  1  0.66752000  0.28661000  0.64796000  1.0
  O  O134  1  0.58010000  0.67103000  0.57551000  1.0
  O  O135  1  0.41343000  0.42874000  0.33681000  1.0
  O  O136  1  0.40692000  0.53239000  0.43783000  1.0
  O  O137  1  0.94642000  0.89997000  0.52496000  1.0
  F  F138  1  0.71526000  0.47580000  0.86797000  1.0
  F  F139  1  0.56033000  0.67806000  0.38251000  1.0
  F  F140  1  0.61882000  0.50400000  0.76249000  1.0
  F  F141  1  0.71942000  0.64515000  0.77067000  1.0
  F  F142  1  0.89828000  0.53710000  0.73596000  1.0
  F  F143  1  0.84020000  0.41113000  0.72872000  1.0
  F  F144  1  0.80321000  0.63657000  0.71219000  1.0
  F  F145  1  0.40007000  0.64702000  0.38283000  1.0
  F  F146  1  0.03055000  0.76298000  0.14375000  1.0
  F  F147  1  0.04603000  0.89160000  0.26986000  1.0
  F  F148  1  0.78918000  0.73876000  0.64052000  1.0
  F  F149  1  0.58470000  0.37567000  0.66930000  1.0
  F  F150  1  0.90877000  0.82775000  0.61116000  1.0
  F  F151  1  0.67756000  0.77779000  0.35557000  1.0
