# generated using pymatgen
data_CoH22C24(NO)4
_symmetry_space_group_name_H-M   'P 1'
_cell_length_a   6.92009000
_cell_length_b   8.48606000
_cell_length_c   18.95070000
_cell_angle_alpha   96.35100000
_cell_angle_beta   98.03120000
_cell_angle_gamma   103.46000000
_symmetry_Int_Tables_number   1
_chemical_formula_structural   CoH22C24(NO)4
_chemical_formula_sum   'Co2 H44 C48 N8 O8'
_cell_volume   1059.77912487
_cell_formula_units_Z   2
loop_
 _symmetry_equiv_pos_site_id
 _symmetry_equiv_pos_as_xyz
  1  'x, y, z'
loop_
 _atom_site_type_symbol
 _atom_site_label
 _atom_site_symmetry_multiplicity
 _atom_site_fract_x
 _atom_site_fract_y
 _atom_site_fract_z
 _atom_site_occupancy
  Co  Co0  1  0.95380000  0.50407000  0.24796000  1.0
  Co  Co1  1  0.04619000  0.49593000  0.75204000  1.0
  H  H2  1  0.91029000  0.20794000  0.11948000  1.0
  H  H3  1  0.08970000  0.79206000  0.88052000  1.0
  H  H4  1  0.17369000  0.14774000  0.17880000  1.0
  H  H5  1  0.82630000  0.85225000  0.82120000  1.0
  H  H6  1  0.21807000  0.94846000  0.16793000  1.0
  H  H7  1  0.78192000  0.05154000  0.83207000  1.0
  H  H8  1  0.28450000  0.24964000  0.03517000  1.0
  H  H9  1  0.71550000  0.75036000  0.96483000  1.0
  H  H10  1  0.17732000  0.57758000  0.96891000  1.0
  H  H11  1  0.82268000  0.42242000  0.03109000  1.0
  H  H12  1  0.92313000  0.80440000  0.08636000  1.0
  H  H13  1  0.07687000  0.19559000  0.91364000  1.0
  H  H14  1  0.47498000  0.34919000  0.23004000  1.0
  H  H15  1  0.52501000  0.65080000  0.76996000  1.0
  H  H16  1  0.96640000  0.87796000  0.23831000  1.0
  H  H17  1  0.03359000  0.12204000  0.76169000  1.0
  H  H18  1  0.53993000  0.98178000  0.07172000  1.0
  H  H19  1  0.46007000  0.01821000  0.92828000  1.0
  H  H20  1  0.25861000  0.75791000  0.08504000  1.0
  H  H21  1  0.74140000  0.24209000  0.91495000  1.0
  H  H22  1  0.47140000  0.76239000  0.14944000  1.0
  H  H23  1  0.52861000  0.23760000  0.85056000  1.0
  H  H24  1  0.69344000  0.57715000  0.12437000  1.0
  H  H25  1  0.30656000  0.42284000  0.87563000  1.0
  H  H26  1  0.53028000  0.28583000  0.40481000  1.0
  H  H27  1  0.46972000  0.71417000  0.59519000  1.0
  H  H28  1  0.78596000  0.98423000  0.43601000  1.0
  H  H29  1  0.21405000  0.01576000  0.56399000  1.0
  H  H30  1  0.59257000  0.54345000  0.34176000  1.0
  H  H31  1  0.40742000  0.45655000  0.65824000  1.0
  H  H32  1  0.15008000  0.85342000  0.44258000  1.0
  H  H33  1  0.84992000  0.14658000  0.55743000  1.0
  H  H34  1  0.16588000  0.52140000  0.52663000  1.0
  H  H35  1  0.83413000  0.47860000  0.47337000  1.0
  H  H36  1  0.68469000  0.02651000  0.29083000  1.0
  H  H37  1  0.31532000  0.97350000  0.70917000  1.0
  H  H38  1  0.02398000  0.23364000  0.45168000  1.0
  H  H39  1  0.97602000  0.76636000  0.54832000  1.0
  H  H40  1  0.16864000  0.16391000  0.39070000  1.0
  H  H41  1  0.83136000  0.83609000  0.60930000  1.0
  H  H42  1  0.32519000  0.68228000  0.35932000  1.0
  H  H43  1  0.67482000  0.31772000  0.64068000  1.0
  H  H44  1  0.31873000  0.85899000  0.31911000  1.0
  H  H45  1  0.68128000  0.14102000  0.68089000  1.0
  C  C46  1  0.76629000  0.20080000  0.13650000  1.0
  C  C47  1  0.23370000  0.79919000  0.86350000  1.0
  C  C48  1  0.11868000  0.02998000  0.06898000  1.0
  C  C49  1  0.88132000  0.97002000  0.93101000  1.0
  C  C50  1  0.23414000  0.06349000  0.14501000  1.0
  C  C51  1  0.76586000  0.93651000  0.85499000  1.0
  C  C52  1  0.21167000  0.57527000  0.15352000  1.0
  C  C53  1  0.78833000  0.42473000  0.84648000  1.0
  C  C54  1  0.16153000  0.13923000  0.01974000  1.0
  C  C55  1  0.83847000  0.86076000  0.98026000  1.0
  C  C56  1  0.31917000  0.54365000  0.98280000  1.0
  C  C57  1  0.68083000  0.45635000  0.01719000  1.0
  C  C58  1  0.95685000  0.89083000  0.04851000  1.0
  C  C59  1  0.04315000  0.10916000  0.95149000  1.0
  C  C60  1  0.54858000  0.28103000  0.19535000  1.0
  C  C61  1  0.45142000  0.71897000  0.80465000  1.0
  C  C62  1  0.84746000  0.83113000  0.26775000  1.0
  C  C63  1  0.15253000  0.16887000  0.73225000  1.0
  C  C64  1  0.58404000  0.08943000  0.11240000  1.0
  C  C65  1  0.41596000  0.91057000  0.88760000  1.0
  C  C66  1  0.34662000  0.68014000  0.10999000  1.0
  C  C67  1  0.65338000  0.31986000  0.89001000  1.0
  C  C68  1  0.42625000  0.58792000  0.05344000  1.0
  C  C69  1  0.57375000  0.41208000  0.94656000  1.0
  C  C70  1  0.60784000  0.54323000  0.06978000  1.0
  C  C71  1  0.39217000  0.45677000  0.93022000  1.0
  C  C72  1  0.51441000  0.37940000  0.44635000  1.0
  C  C73  1  0.48559000  0.62060000  0.55365000  1.0
  C  C74  1  0.65983000  0.99004000  0.46394000  1.0
  C  C75  1  0.34017000  0.00996000  0.53607000  1.0
  C  C76  1  0.46339000  0.90830000  0.43069000  1.0
  C  C77  1  0.53661000  0.09170000  0.56931000  1.0
  C  C78  1  0.65767000  0.65228000  0.31965000  1.0
  C  C79  1  0.34233000  0.34772000  0.68035000  1.0
  C  C80  1  0.30412000  0.91903000  0.46754000  1.0
  C  C81  1  0.69588000  0.08096000  0.53247000  1.0
  C  C82  1  0.31193000  0.51113000  0.51409000  1.0
  C  C83  1  0.68807000  0.48886000  0.48591000  1.0
  C  C84  1  0.70661000  0.90421000  0.29194000  1.0
  C  C85  1  0.29339000  0.09579000  0.70806000  1.0
  C  C86  1  0.13391000  0.27419000  0.41677000  1.0
  C  C87  1  0.86609000  0.72581000  0.58323000  1.0
  C  C88  1  0.32348000  0.38895000  0.45985000  1.0
  C  C89  1  0.67653000  0.61106000  0.54015000  1.0
  C  C90  1  0.41346000  0.80676000  0.35684000  1.0
  C  C91  1  0.58654000  0.19325000  0.64316000  1.0
  C  C92  1  0.02875000  0.34880000  0.35761000  1.0
  C  C93  1  0.97126000  0.65121000  0.64239000  1.0
  N  N94  1  0.81534000  0.67344000  0.28519000  1.0
  N  N95  1  0.18465000  0.32657000  0.71481000  1.0
  N  N96  1  0.58747000  0.78893000  0.32440000  1.0
  N  N97  1  0.41253000  0.21108000  0.67559000  1.0
  N  N98  1  0.74253000  0.31952000  0.18842000  1.0
  N  N99  1  0.25747000  0.68048000  0.81158000  1.0
  N  N100  1  0.44796000  0.14209000  0.15037000  1.0
  N  N101  1  0.55203000  0.85791000  0.84963000  1.0
  O  O102  1  0.11747000  0.65621000  0.19343000  1.0
  O  O103  1  0.88253000  0.34380000  0.80656000  1.0
  O  O104  1  0.19567000  0.42538000  0.15127000  1.0
  O  O105  1  0.80434000  0.57462000  0.84873000  1.0
  O  O106  1  0.14231000  0.43319000  0.31871000  1.0
  O  O107  1  0.85769000  0.56682000  0.68129000  1.0
  O  O108  1  0.84094000  0.32707000  0.34705000  1.0
  O  O109  1  0.15906000  0.67294000  0.65296000  1.0
