# generated using pymatgen
data_K4NiSn9H72(C2O)18
_symmetry_space_group_name_H-M   'P 1'
_cell_length_a   10.24640000
_cell_length_b   19.30880000
_cell_length_c   20.13350000
_cell_angle_alpha   73.22360000
_cell_angle_beta   79.84090000
_cell_angle_gamma   84.35810000
_symmetry_Int_Tables_number   1
_chemical_formula_structural   K4NiSn9H72(C2O)18
_chemical_formula_sum   'K8 Ni2 Sn18 H144 C72 O36'
_cell_volume   3749.24502323
_cell_formula_units_Z   2
loop_
 _symmetry_equiv_pos_site_id
 _symmetry_equiv_pos_as_xyz
  1  'x, y, z'
loop_
 _atom_site_type_symbol
 _atom_site_label
 _atom_site_symmetry_multiplicity
 _atom_site_fract_x
 _atom_site_fract_y
 _atom_site_fract_z
 _atom_site_occupancy
  K  K0  1  0.01695000  0.79300000  0.30831000  1.0
  K  K1  1  0.98333000  0.20687000  0.69168000  1.0
  K  K2  1  0.72067000  0.06339000  0.29496000  1.0
  K  K3  1  0.27931000  0.93660000  0.70505000  1.0
  K  K4  1  0.20424000  0.66911000  0.54079000  1.0
  K  K5  1  0.79577000  0.33090000  0.45921000  1.0
  K  K6  1  0.33401000  0.79646000  0.06285000  1.0
  K  K7  1  0.66603000  0.20354000  0.93717000  1.0
  Ni  Ni8  1  0.51527000  0.81996000  0.29211000  1.0
  Ni  Ni9  1  0.48485000  0.17997000  0.70786000  1.0
  Sn  Sn10  1  0.72645000  0.89356000  0.22399000  1.0
  Sn  Sn11  1  0.27370000  0.10640000  0.77615000  1.0
  Sn  Sn12  1  0.63910000  0.85394000  0.38009000  1.0
  Sn  Sn13  1  0.36070000  0.14599000  0.61999000  1.0
  Sn  Sn14  1  0.71393000  0.72386000  0.29121000  1.0
  Sn  Sn15  1  0.28616000  0.27610000  0.70875000  1.0
  Sn  Sn16  1  0.32442000  0.87396000  0.21679000  1.0
  Sn  Sn17  1  0.67571000  0.12590000  0.78317000  1.0
  Sn  Sn18  1  0.29927000  0.83372000  0.37887000  1.0
  Sn  Sn19  1  0.70087000  0.16614000  0.62106000  1.0
  Sn  Sn20  1  0.38915000  0.70972000  0.28853000  1.0
  Sn  Sn21  1  0.61136000  0.29009000  0.71126000  1.0
  Sn  Sn22  1  0.58241000  0.79927000  0.16472000  1.0
  Sn  Sn23  1  0.41790000  0.20093000  0.83515000  1.0
  Sn  Sn24  1  0.46248000  0.95989000  0.28556000  1.0
  Sn  Sn25  1  0.53747000  0.04007000  0.71444000  1.0
  Sn  Sn26  1  0.50434000  0.71284000  0.41827000  1.0
  Sn  Sn27  1  0.49578000  0.28705000  0.58166000  1.0
  H  H28  1  0.90651000  0.89071000  0.10393000  1.0
  H  H29  1  0.09346000  0.10929000  0.89608000  1.0
  H  H30  1  0.96619000  0.89114000  0.01449000  1.0
  H  H31  1  0.03379000  0.10887000  0.98552000  1.0
  H  H32  1  0.75291000  0.82186000  0.91109000  1.0
  H  H33  1  0.24708000  0.17814000  0.08890000  1.0
  H  H34  1  0.69129000  0.83449000  0.99666000  1.0
  H  H35  1  0.30872000  0.16551000  0.00333000  1.0
  H  H36  1  0.04226000  0.99334000  0.05047000  1.0
  H  H37  1  0.95773000  0.00667000  0.94954000  1.0
  H  H38  1  0.13179000  0.92862000  0.11173000  1.0
  H  H39  1  0.86817000  0.07138000  0.88830000  1.0
  H  H40  1  0.94209000  0.76400000  0.04131000  1.0
  H  H41  1  0.05793000  0.23602000  0.95866000  1.0
  H  H42  1  0.87425000  0.76477000  0.12947000  1.0
  H  H43  1  0.12574000  0.23524000  0.87050000  1.0
  H  H44  1  0.65096000  0.70466000  0.05250000  1.0
  H  H45  1  0.34904000  0.29534000  0.94751000  1.0
  H  H46  1  0.73957000  0.69436000  0.97010000  1.0
  H  H47  1  0.26044000  0.30564000  0.02990000  1.0
  H  H48  1  0.38259000  0.54503000  0.05953000  1.0
  H  H49  1  0.61740000  0.45497000  0.94047000  1.0
  H  H50  1  0.31016000  0.61080000  0.99123000  1.0
  H  H51  1  0.68985000  0.38921000  0.00877000  1.0
  H  H52  1  0.53911000  0.64508000  0.94838000  1.0
  H  H53  1  0.46089000  0.35492000  0.05163000  1.0
  H  H54  1  0.60264000  0.59043000  0.02543000  1.0
  H  H55  1  0.39736000  0.40957000  0.97458000  1.0
  H  H56  1  0.33267000  0.98351000  0.04450000  1.0
  H  H57  1  0.66731000  0.01649000  0.95552000  1.0
  H  H58  1  0.24935000  0.04436000  0.97727000  1.0
  H  H59  1  0.75064000  0.95564000  0.02274000  1.0
  H  H60  1  0.14939000  0.56244000  0.10237000  1.0
  H  H61  1  0.85060000  0.43757000  0.89763000  1.0
  H  H62  1  0.24403000  0.60070000  0.14879000  1.0
  H  H63  1  0.75595000  0.39932000  0.85121000  1.0
  H  H64  1  0.65206000  0.94402000  0.89373000  1.0
  H  H65  1  0.34791000  0.05598000  0.10626000  1.0
  H  H66  1  0.54576000  0.89254000  0.86822000  1.0
  H  H67  1  0.45420000  0.10745000  0.13178000  1.0
  H  H68  1  0.06156000  0.68082000  0.17366000  1.0
  H  H69  1  0.93841000  0.31919000  0.82634000  1.0
  H  H70  1  0.96140000  0.64332000  0.12961000  1.0
  H  H71  1  0.03858000  0.35670000  0.87038000  1.0
  H  H72  1  0.36877000  0.97877000  0.89078000  1.0
  H  H73  1  0.63120000  0.02121000  0.10924000  1.0
  H  H74  1  0.47174000  0.02558000  0.92309000  1.0
  H  H75  1  0.52824000  0.97441000  0.07691000  1.0
  H  H76  1  0.32337000  0.21430000  0.27008000  1.0
  H  H77  1  0.67661000  0.78570000  0.72992000  1.0
  H  H78  1  0.38966000  0.12892000  0.25580000  1.0
  H  H79  1  0.61034000  0.87108000  0.74421000  1.0
  H  H80  1  0.38153000  0.08253000  0.38059000  1.0
  H  H81  1  0.61846000  0.91747000  0.61942000  1.0
  H  H82  1  0.32689000  0.16945000  0.39452000  1.0
  H  H83  1  0.67308000  0.83055000  0.60548000  1.0
  H  H84  1  0.54287000  0.17300000  0.43802000  1.0
  H  H85  1  0.45710000  0.82701000  0.56199000  1.0
  H  H86  1  0.43966000  0.10337000  0.49141000  1.0
  H  H87  1  0.56031000  0.89664000  0.50860000  1.0
  H  H88  1  0.11623000  0.05999000  0.33988000  1.0
  H  H89  1  0.88379000  0.94001000  0.66012000  1.0
  H  H90  1  0.15288000  0.97554000  0.31919000  1.0
  H  H91  1  0.84711000  0.02446000  0.68082000  1.0
  H  H92  1  0.77730000  0.11274000  0.09930000  1.0
  H  H93  1  0.22270000  0.88728000  0.90070000  1.0
  H  H94  1  0.88031000  0.18685000  0.05526000  1.0
  H  H95  1  0.11968000  0.81317000  0.94474000  1.0
  H  H96  1  0.93232000  0.93197000  0.38623000  1.0
  H  H97  1  0.06765000  0.06805000  0.61376000  1.0
  H  H98  1  0.03925000  0.95167000  0.43911000  1.0
  H  H99  1  0.96074000  0.04833000  0.56089000  1.0
  H  H100  1  0.74654000  0.26026000  0.13185000  1.0
  H  H101  1  0.25344000  0.73975000  0.86816000  1.0
  H  H102  1  0.65499000  0.23530000  0.07500000  1.0
  H  H103  1  0.34499000  0.76471000  0.92500000  1.0
  H  H104  1  0.83582000  0.97472000  0.52227000  1.0
  H  H105  1  0.16415000  0.02530000  0.47774000  1.0
  H  H106  1  0.74550000  0.94820000  0.46546000  1.0
  H  H107  1  0.25451000  0.05181000  0.53454000  1.0
  H  H108  1  0.44408000  0.23494000  0.14957000  1.0
  H  H109  1  0.55589000  0.76507000  0.85044000  1.0
  H  H110  1  0.52955000  0.27339000  0.19992000  1.0
  H  H111  1  0.47043000  0.72662000  0.80008000  1.0
  H  H112  1  0.61216000  0.02856000  0.53697000  1.0
  H  H113  1  0.38782000  0.97144000  0.46304000  1.0
  H  H114  1  0.72027000  0.09903000  0.49160000  1.0
  H  H115  1  0.27971000  0.90099000  0.50840000  1.0
  H  H116  1  0.08891000  0.84412000  0.66596000  1.0
  H  H117  1  0.91109000  0.15590000  0.33404000  1.0
  H  H118  1  0.99936000  0.76269000  0.69384000  1.0
  H  H119  1  0.00064000  0.23733000  0.30616000  1.0
  H  H120  1  0.48190000  0.46697000  0.63702000  1.0
  H  H121  1  0.51807000  0.53303000  0.36298000  1.0
  H  H122  1  0.31762000  0.48275000  0.67757000  1.0
  H  H123  1  0.68235000  0.51725000  0.32244000  1.0
  H  H124  1  0.82590000  0.67340000  0.54069000  1.0
  H  H125  1  0.17411000  0.32661000  0.45932000  1.0
  H  H126  1  0.79405000  0.72769000  0.45619000  1.0
  H  H127  1  0.20593000  0.27231000  0.54382000  1.0
  H  H128  1  0.96834000  0.81314000  0.46340000  1.0
  H  H129  1  0.03165000  0.18687000  0.53659000  1.0
  H  H130  1  0.81016000  0.81305000  0.51752000  1.0
  H  H131  1  0.18985000  0.18696000  0.48247000  1.0
  H  H132  1  0.90412000  0.63060000  0.40120000  1.0
  H  H133  1  0.09585000  0.36940000  0.59881000  1.0
  H  H134  1  0.90525000  0.58186000  0.49129000  1.0
  H  H135  1  0.09474000  0.41814000  0.50872000  1.0
  H  H136  1  0.35061000  0.55768000  0.43869000  1.0
  H  H137  1  0.64937000  0.44233000  0.56132000  1.0
  H  H138  1  0.27464000  0.47501000  0.44737000  1.0
  H  H139  1  0.72534000  0.52500000  0.55263000  1.0
  H  H140  1  0.49222000  0.54955000  0.70674000  1.0
  H  H141  1  0.50777000  0.45045000  0.29326000  1.0
  H  H142  1  0.52304000  0.59981000  0.61559000  1.0
  H  H143  1  0.47694000  0.40019000  0.38440000  1.0
  H  H144  1  0.92321000  0.85873000  0.59145000  1.0
  H  H145  1  0.07678000  0.14128000  0.40855000  1.0
  H  H146  1  0.08168000  0.84965000  0.54018000  1.0
  H  H147  1  0.91833000  0.15036000  0.45982000  1.0
  H  H148  1  0.07369000  0.53365000  0.40617000  1.0
  H  H149  1  0.92629000  0.46636000  0.59383000  1.0
  H  H150  1  0.15988000  0.61593000  0.38402000  1.0
  H  H151  1  0.84011000  0.38407000  0.61598000  1.0
  H  H152  1  0.25756000  0.44649000  0.57985000  1.0
  H  H153  1  0.74241000  0.55350000  0.42015000  1.0
  H  H154  1  0.42163000  0.44733000  0.53323000  1.0
  H  H155  1  0.57835000  0.55267000  0.46677000  1.0
  H  H156  1  0.44135000  0.71331000  0.63874000  1.0
  H  H157  1  0.55865000  0.28668000  0.36127000  1.0
  H  H158  1  0.42667000  0.66550000  0.72976000  1.0
  H  H159  1  0.57332000  0.33450000  0.27025000  1.0
  H  H160  1  0.18018000  0.69397000  0.74310000  1.0
  H  H161  1  0.81981000  0.30604000  0.25690000  1.0
  H  H162  1  0.27872000  0.77195000  0.71753000  1.0
  H  H163  1  0.72127000  0.22805000  0.28247000  1.0
  H  H164  1  0.05777000  0.10276000  0.10059000  1.0
  H  H165  1  0.94221000  0.89726000  0.89941000  1.0
  H  H166  1  0.94504000  0.03563000  0.15357000  1.0
  H  H167  1  0.05495000  0.96438000  0.84643000  1.0
  H  H168  1  0.15900000  0.02825000  0.20025000  1.0
  H  H169  1  0.84099000  0.97176000  0.79974000  1.0
  H  H170  1  0.12274000  0.11786000  0.21032000  1.0
  H  H171  1  0.87726000  0.88216000  0.78967000  1.0
  C  C172  1  0.99633000  0.88389000  0.06634000  1.0
  C  C173  1  0.00365000  0.11612000  0.93367000  1.0
  C  C174  1  0.66231000  0.83029000  0.94760000  1.0
  C  C175  1  0.33769000  0.16971000  0.05240000  1.0
  C  C176  1  0.09357000  0.93916000  0.06135000  1.0
  C  C177  1  0.90642000  0.06084000  0.93866000  1.0
  C  C178  1  0.96756000  0.75866000  0.09393000  1.0
  C  C179  1  0.03244000  0.24135000  0.90606000  1.0
  C  C180  1  0.63992000  0.70354000  0.99907000  1.0
  C  C181  1  0.36008000  0.29646000  0.00094000  1.0
  C  C182  1  0.33724000  0.60072000  0.04425000  1.0
  C  C183  1  0.66275000  0.39929000  0.95575000  1.0
  C  C184  1  0.55353000  0.64343000  0.00208000  1.0
  C  C185  1  0.44647000  0.35657000  0.99793000  1.0
  C  C186  1  0.29544000  0.98930000  0.99483000  1.0
  C  C187  1  0.70454000  0.01069000  0.00520000  1.0
  C  C188  1  0.21512000  0.60671000  0.09690000  1.0
  C  C189  1  0.78487000  0.39331000  0.90310000  1.0
  C  C190  1  0.58569000  0.89821000  0.91383000  1.0
  C  C191  1  0.41430000  0.10179000  0.08616000  1.0
  C  C192  1  0.03284000  0.68536000  0.12203000  1.0
  C  C193  1  0.96715000  0.31465000  0.87795000  1.0
  C  C194  1  0.40716000  0.97916000  0.93865000  1.0
  C  C195  1  0.59283000  0.02083000  0.06137000  1.0
  C  C196  1  0.41613000  0.18147000  0.26043000  1.0
  C  C197  1  0.58386000  0.81853000  0.73957000  1.0
  C  C198  1  0.41514000  0.13446000  0.38286000  1.0
  C  C199  1  0.58483000  0.86555000  0.61714000  1.0
  C  C200  1  0.50066000  0.12204000  0.43913000  1.0
  C  C201  1  0.49932000  0.87797000  0.56088000  1.0
  C  C202  1  0.07113000  0.01394000  0.33147000  1.0
  C  C203  1  0.92888000  0.98606000  0.66853000  1.0
  C  C204  1  0.81776000  0.16104000  0.10549000  1.0
  C  C205  1  0.18223000  0.83898000  0.89452000  1.0
  C  C206  1  0.98030000  0.97615000  0.39632000  1.0
  C  C207  1  0.01969000  0.02386000  0.60368000  1.0
  C  C208  1  0.70666000  0.21395000  0.12109000  1.0
  C  C209  1  0.29332000  0.78606000  0.87892000  1.0
  C  C210  1  0.78692000  0.99471000  0.47497000  1.0
  C  C211  1  0.21307000  0.00531000  0.52504000  1.0
  C  C212  1  0.50042000  0.22198000  0.19399000  1.0
  C  C213  1  0.49956000  0.77803000  0.80601000  1.0
  C  C214  1  0.67846000  0.05023000  0.48692000  1.0
  C  C215  1  0.32152000  0.94979000  0.51308000  1.0
  C  C216  1  0.06929000  0.79599000  0.65081000  1.0
  C  C217  1  0.93071000  0.20401000  0.34919000  1.0
  C  C218  1  0.40076000  0.50894000  0.63829000  1.0
  C  C219  1  0.59922000  0.49105000  0.36171000  1.0
  C  C220  1  0.86898000  0.71326000  0.49201000  1.0
  C  C221  1  0.13101000  0.28675000  0.50799000  1.0
  C  C222  1  0.90226000  0.77991000  0.50848000  1.0
  C  C223  1  0.09774000  0.22010000  0.49152000  1.0
  C  C224  1  0.96318000  0.61747000  0.44472000  1.0
  C  C225  1  0.03679000  0.38254000  0.55528000  1.0
  C  C226  1  0.28173000  0.51713000  0.47386000  1.0
  C  C227  1  0.71824000  0.48288000  0.52615000  1.0
  C  C228  1  0.44729000  0.57071000  0.65820000  1.0
  C  C229  1  0.55269000  0.42929000  0.34180000  1.0
  C  C230  1  0.00890000  0.82059000  0.58431000  1.0
  C  C231  1  0.99110000  0.17942000  0.41569000  1.0
  C  C232  1  0.09313000  0.57906000  0.42573000  1.0
  C  C233  1  0.90684000  0.42095000  0.57428000  1.0
  C  C234  1  0.33174000  0.48205000  0.54232000  1.0
  C  C235  1  0.66824000  0.51795000  0.45768000  1.0
  C  C236  1  0.37359000  0.68153000  0.68381000  1.0
  C  C237  1  0.62640000  0.31847000  0.31619000  1.0
  C  C238  1  0.25051000  0.72702000  0.70012000  1.0
  C  C239  1  0.74949000  0.27298000  0.29988000  1.0
  C  C240  1  0.99364000  0.08490000  0.15216000  1.0
  C  C241  1  0.00635000  0.91512000  0.84784000  1.0
  C  C242  1  0.07766000  0.06821000  0.20960000  1.0
  C  C243  1  0.92233000  0.93181000  0.79040000  1.0
  O  O244  1  0.57907000  0.77034000  0.96331000  1.0
  O  O245  1  0.42093000  0.22965000  0.03669000  1.0
  O  O246  1  0.42838000  0.65212000  0.04356000  1.0
  O  O247  1  0.57163000  0.34788000  0.95645000  1.0
  O  O248  1  0.48000000  0.91239000  0.96532000  1.0
  O  O249  1  0.51999000  0.08760000  0.03468000  1.0
  O  O250  1  0.20049000  0.93568000  0.00599000  1.0
  O  O251  1  0.79949000  0.06431000  0.99404000  1.0
  O  O252  1  0.05672000  0.81285000  0.08922000  1.0
  O  O253  1  0.94326000  0.18716000  0.91078000  1.0
  O  O254  1  0.14825000  0.67533000  0.07315000  1.0
  O  O255  1  0.85175000  0.32469000  0.92684000  1.0
  O  O256  1  0.61631000  0.17758000  0.18058000  1.0
  O  O257  1  0.38367000  0.82243000  0.81943000  1.0
  O  O258  1  0.49032000  0.16935000  0.31669000  1.0
  O  O259  1  0.50966000  0.83066000  0.68332000  1.0
  O  O260  1  0.60473000  0.06929000  0.42954000  1.0
  O  O261  1  0.39523000  0.93072000  0.57047000  1.0
  O  O262  1  0.89510000  0.14065000  0.16138000  1.0
  O  O263  1  0.10488000  0.85937000  0.83862000  1.0
  O  O264  1  0.88083000  0.02747000  0.41516000  1.0
  O  O265  1  0.11916000  0.97255000  0.58485000  1.0
  O  O266  1  0.99566000  0.03934000  0.27503000  1.0
  O  O267  1  0.00434000  0.96068000  0.72497000  1.0
  O  O268  1  0.33584000  0.61912000  0.66910000  1.0
  O  O269  1  0.66415000  0.38089000  0.33091000  1.0
  O  O270  1  0.96731000  0.75897000  0.56923000  1.0
  O  O271  1  0.03269000  0.24104000  0.43076000  1.0
  O  O272  1  0.98832000  0.68248000  0.46013000  1.0
  O  O273  1  0.01167000  0.31753000  0.53986000  1.0
  O  O274  1  0.35994000  0.53764000  0.57097000  1.0
  O  O275  1  0.64003000  0.46236000  0.42904000  1.0
  O  O276  1  0.15388000  0.55190000  0.48764000  1.0
  O  O277  1  0.84609000  0.44811000  0.51236000  1.0
  O  O278  1  0.18961000  0.75427000  0.63854000  1.0
  O  O279  1  0.81039000  0.24574000  0.36146000  1.0
