# generated using pymatgen
data_Ni3H18C30N3O13
_symmetry_space_group_name_H-M   'P 1'
_cell_length_a   18.47980940
_cell_length_b   18.47910000
_cell_length_c   18.47910000
_cell_angle_alpha   109.47100000
_cell_angle_beta   109.47221306
_cell_angle_gamma   109.47221306
_symmetry_Int_Tables_number   1
_chemical_formula_structural   Ni3H18C30N3O13
_chemical_formula_sum   'Ni12 H72 C120 N12 O52'
_cell_volume   4857.66735765
_cell_formula_units_Z   4
loop_
 _symmetry_equiv_pos_site_id
 _symmetry_equiv_pos_as_xyz
  1  'x, y, z'
loop_
 _atom_site_type_symbol
 _atom_site_label
 _atom_site_symmetry_multiplicity
 _atom_site_fract_x
 _atom_site_fract_y
 _atom_site_fract_z
 _atom_site_occupancy
  Ni  Ni0  1  0.64271000  0.10753000  1.00000000  1.0
  Ni  Ni1  1  0.89247000  0.89247000  0.53519000  1.0
  Ni  Ni2  1  0.10755000  0.64271000  0.00000000  1.0
  Ni  Ni3  1  0.35729000  0.35730000  0.46484000  1.0
  Ni  Ni4  1  0.89247000  0.53517000  0.89246000  1.0
  Ni  Ni5  1  0.10754000  0.99999000  0.64271000  1.0
  Ni  Ni6  1  0.35729000  0.46483000  0.35729000  1.0
  Ni  Ni7  1  0.64271000  0.99998000  0.10753000  1.0
  Ni  Ni8  1  0.46483000  0.35730000  0.35729000  1.0
  Ni  Ni9  1  0.00001000  0.10755000  0.64272000  1.0
  Ni  Ni10  1  0.53517000  0.89246000  0.89245000  1.0
  Ni  Ni11  1  0.00001000  0.64272000  0.10753000  1.0
  H  H12  1  0.29533000  0.85735000  0.71109000  1.0
  H  H13  1  0.85374000  0.14262000  0.43798000  1.0
  H  H14  1  0.14624000  0.58421000  0.28889000  1.0
  H  H15  1  0.70467000  0.41579000  0.56203000  1.0
  H  H16  1  0.14262000  0.43797000  0.85373000  1.0
  H  H17  1  0.85734000  0.71108000  0.29532000  1.0
  H  H18  1  0.41579000  0.56205000  0.70467000  1.0
  H  H19  1  0.58424000  0.28890000  0.14626000  1.0
  H  H20  1  0.56204000  0.70467000  0.41579000  1.0
  H  H21  1  0.28887000  0.14626000  0.58422000  1.0
  H  H22  1  0.43797000  0.85375000  0.14263000  1.0
  H  H23  1  0.71111000  0.29534000  0.85737000  1.0
  H  H24  1  0.43796000  0.14263000  0.85374000  1.0
  H  H25  1  0.71110000  0.85734000  0.29532000  1.0
  H  H26  1  0.56203000  0.41579000  0.70465000  1.0
  H  H27  1  0.28887000  0.58424000  0.14626000  1.0
  H  H28  1  0.70465000  0.56202000  0.41578000  1.0
  H  H29  1  0.14624000  0.28888000  0.58422000  1.0
  H  H30  1  0.85374000  0.43799000  0.14265000  1.0
  H  H31  1  0.29533000  0.71112000  0.85737000  1.0
  H  H32  1  0.85736000  0.29533000  0.71111000  1.0
  H  H33  1  0.14261000  0.85372000  0.43797000  1.0
  H  H34  1  0.58424000  0.14626000  0.28890000  1.0
  H  H35  1  0.41579000  0.70467000  0.56203000  1.0
  H  H36  1  0.91665000  0.12939000  0.27171000  1.0
  H  H37  1  0.14231000  0.87058000  0.78725000  1.0
  H  H38  1  0.85768000  0.64493000  0.72828000  1.0
  H  H39  1  0.08335000  0.35506000  0.21274000  1.0
  H  H40  1  0.87059000  0.78724000  0.14230000  1.0
  H  H41  1  0.12939000  0.27170000  0.91663000  1.0
  H  H42  1  0.35507000  0.21275000  0.08334000  1.0
  H  H43  1  0.64493000  0.72827000  0.85767000  1.0
  H  H44  1  0.21275000  0.08335000  0.35506000  1.0
  H  H45  1  0.72829000  0.85770000  0.64494000  1.0
  H  H46  1  0.78725000  0.14232000  0.87060000  1.0
  H  H47  1  0.27174000  0.91667000  0.12942000  1.0
  H  H48  1  0.78724000  0.87058000  0.14231000  1.0
  H  H49  1  0.27172000  0.12940000  0.91663000  1.0
  H  H50  1  0.21275000  0.35505000  0.08334000  1.0
  H  H51  1  0.72828000  0.64493000  0.85767000  1.0
  H  H52  1  0.08335000  0.21275000  0.35507000  1.0
  H  H53  1  0.85769000  0.72828000  0.64494000  1.0
  H  H54  1  0.14231000  0.78723000  0.87061000  1.0
  H  H55  1  0.91665000  0.27171000  0.12939000  1.0
  H  H56  1  0.12941000  0.91665000  0.27171000  1.0
  H  H57  1  0.87061000  0.14233000  0.78727000  1.0
  H  H58  1  0.64493000  0.85768000  0.72827000  1.0
  H  H59  1  0.35507000  0.08337000  0.21275000  1.0
  H  H60  1  0.16171000  0.86323000  0.62298000  1.0
  H  H61  1  0.75976000  0.13673000  0.29847000  1.0
  H  H62  1  0.24025000  0.53872000  0.37701000  1.0
  H  H63  1  0.83828000  0.46127000  0.70153000  1.0
  H  H64  1  0.13674000  0.29847000  0.75975000  1.0
  H  H65  1  0.86323000  0.62298000  0.16171000  1.0
  H  H66  1  0.46129000  0.70155000  0.83830000  1.0
  H  H67  1  0.53874000  0.37702000  0.24026000  1.0
  H  H68  1  0.70154000  0.83829000  0.46128000  1.0
  H  H69  1  0.37700000  0.24025000  0.53873000  1.0
  H  H70  1  0.29848000  0.75976000  0.13676000  1.0
  H  H71  1  0.62300000  0.16171000  0.86325000  1.0
  H  H72  1  0.29845000  0.13674000  0.75975000  1.0
  H  H73  1  0.62298000  0.86322000  0.16169000  1.0
  H  H74  1  0.70153000  0.46127000  0.83828000  1.0
  H  H75  1  0.37700000  0.53874000  0.24025000  1.0
  H  H76  1  0.83828000  0.70153000  0.46129000  1.0
  H  H77  1  0.24026000  0.37701000  0.53874000  1.0
  H  H78  1  0.75975000  0.29848000  0.13676000  1.0
  H  H79  1  0.16171000  0.62300000  0.86324000  1.0
  H  H80  1  0.86323000  0.16170000  0.62299000  1.0
  H  H81  1  0.13673000  0.75974000  0.29846000  1.0
  H  H82  1  0.53874000  0.24027000  0.37701000  1.0
  H  H83  1  0.46129000  0.83830000  0.70153000  1.0
  C  C84  1  0.45637000  0.00000000  0.84819000  1.0
  C  C85  1  0.84820000  0.99998000  0.45637000  1.0
  C  C86  1  0.15179000  0.60818000  0.15181000  1.0
  C  C87  1  0.54365000  0.39184000  0.54363000  1.0
  C  C88  1  0.99998000  0.45636000  0.84819000  1.0
  C  C89  1  0.99999000  0.84819000  0.45636000  1.0
  C  C90  1  0.39185000  0.54364000  0.54364000  1.0
  C  C91  1  0.60819000  0.15182000  0.15181000  1.0
  C  C92  1  0.54363000  0.54363000  0.39184000  1.0
  C  C93  1  0.15180000  0.15181000  0.60818000  1.0
  C  C94  1  0.45638000  0.84821000  0.00000000  1.0
  C  C95  1  0.84818000  0.45636000  0.99999000  1.0
  C  C96  1  0.37632000  1.00000000  0.79002000  1.0
  C  C97  1  0.79000000  0.99996000  0.37630000  1.0
  C  C98  1  0.20997000  0.58631000  0.20998000  1.0
  C  C99  1  0.62369000  0.41372000  0.62368000  1.0
  C  C100  1  0.99999000  0.37632000  0.79001000  1.0
  C  C101  1  0.99998000  0.79000000  0.37631000  1.0
  C  C102  1  0.41371000  0.62368000  0.62368000  1.0
  C  C103  1  0.58631000  0.20999000  0.20998000  1.0
  C  C104  1  0.62368000  0.62369000  0.41372000  1.0
  C  C105  1  0.20998000  0.20998000  0.58631000  1.0
  C  C106  1  0.37632000  0.79003000  0.99999000  1.0
  C  C107  1  0.79001000  0.37632000  1.00000000  1.0
  C  C108  1  0.29836000  0.92040000  0.72306000  1.0
  C  C109  1  0.80266000  0.07957000  0.37795000  1.0
  C  C110  1  0.19733000  0.57529000  0.27693000  1.0
  C  C111  1  0.70164000  0.42473000  0.62204000  1.0
  C  C112  1  0.07957000  0.37796000  0.80266000  1.0
  C  C113  1  0.92038000  0.72305000  0.29835000  1.0
  C  C114  1  0.42473000  0.62206000  0.70164000  1.0
  C  C115  1  0.57529000  0.27693000  0.19732000  1.0
  C  C116  1  0.62205000  0.70165000  0.42473000  1.0
  C  C117  1  0.27691000  0.19733000  0.57529000  1.0
  C  C118  1  0.37796000  0.80267000  0.07959000  1.0
  C  C119  1  0.72307000  0.29835000  0.92040000  1.0
  C  C120  1  0.37795000  0.07958000  0.80266000  1.0
  C  C121  1  0.72307000  0.92039000  0.29836000  1.0
  C  C122  1  0.62205000  0.42473000  0.70164000  1.0
  C  C123  1  0.27691000  0.57530000  0.19733000  1.0
  C  C124  1  0.70163000  0.62204000  0.42473000  1.0
  C  C125  1  0.19733000  0.27693000  0.57529000  1.0
  C  C126  1  0.80266000  0.37797000  0.07960000  1.0
  C  C127  1  0.29836000  0.72308000  0.92041000  1.0
  C  C128  1  0.92039000  0.29835000  0.72307000  1.0
  C  C129  1  0.07957000  0.80265000  0.37796000  1.0
  C  C130  1  0.57531000  0.19735000  0.27694000  1.0
  C  C131  1  0.42472000  0.70164000  0.62205000  1.0
  C  C132  1  0.95393000  0.17951000  0.26000000  1.0
  C  C133  1  0.08049000  0.82047000  0.77442000  1.0
  C  C134  1  0.91951000  0.69392000  0.74001000  1.0
  C  C135  1  0.04607000  0.30607000  0.22558000  1.0
  C  C136  1  0.82048000  0.77441000  0.08048000  1.0
  C  C137  1  0.17951000  0.25999000  0.95392000  1.0
  C  C138  1  0.30607000  0.22557000  0.04605000  1.0
  C  C139  1  0.69392000  0.73998000  0.91949000  1.0
  C  C140  1  0.22558000  0.04607000  0.30607000  1.0
  C  C141  1  0.74000000  0.91952000  0.69394000  1.0
  C  C142  1  0.77442000  0.08050000  0.82049000  1.0
  C  C143  1  0.26002000  0.95394000  0.17952000  1.0
  C  C144  1  0.77441000  0.82048000  0.08048000  1.0
  C  C145  1  0.26001000  0.17950000  0.95391000  1.0
  C  C146  1  0.22558000  0.30606000  0.04605000  1.0
  C  C147  1  0.73998000  0.69391000  0.91949000  1.0
  C  C148  1  0.04607000  0.22558000  0.30608000  1.0
  C  C149  1  0.91951000  0.73999000  0.69394000  1.0
  C  C150  1  0.08050000  0.77442000  0.82050000  1.0
  C  C151  1  0.95393000  0.26000000  0.17950000  1.0
  C  C152  1  0.17952000  0.95394000  0.26000000  1.0
  C  C153  1  0.82050000  0.08051000  0.77443000  1.0
  C  C154  1  0.69393000  0.91951000  0.73999000  1.0
  C  C155  1  0.30608000  0.04608000  0.22559000  1.0
  C  C156  1  0.90756000  0.19627000  0.19628000  1.0
  C  C157  1  0.00000000  0.80372000  0.71129000  1.0
  C  C158  1  0.99999000  0.71126000  0.80372000  1.0
  C  C159  1  0.09245000  0.28872000  0.28873000  1.0
  C  C160  1  0.80372000  0.71127000  0.99999000  1.0
  C  C161  1  0.19629000  0.19628000  0.90755000  1.0
  C  C162  1  0.28872000  0.28871000  0.09243000  1.0
  C  C163  1  0.71127000  0.80371000  0.99999000  1.0
  C  C164  1  0.28873000  0.09246000  0.28873000  1.0
  C  C165  1  0.80374000  0.00002000  0.71130000  1.0
  C  C166  1  0.71127000  0.00000000  0.80372000  1.0
  C  C167  1  0.19629000  0.90756000  0.19627000  1.0
  C  C168  1  0.22457000  0.92322000  0.67426000  1.0
  C  C169  1  0.75104000  0.07675000  0.30134000  1.0
  C  C170  1  0.24895000  0.55029000  0.32573000  1.0
  C  C171  1  0.77543000  0.44970000  0.69866000  1.0
  C  C172  1  0.07675000  0.30133000  0.75103000  1.0
  C  C173  1  0.92321000  0.67425000  0.22456000  1.0
  C  C174  1  0.44971000  0.69867000  0.77543000  1.0
  C  C175  1  0.55031000  0.32574000  0.24896000  1.0
  C  C176  1  0.69867000  0.77543000  0.44971000  1.0
  C  C177  1  0.32572000  0.24897000  0.55031000  1.0
  C  C178  1  0.30134000  0.75104000  0.07677000  1.0
  C  C179  1  0.67428000  0.22457000  0.92324000  1.0
  C  C180  1  0.30133000  0.07677000  0.75104000  1.0
  C  C181  1  0.67426000  0.92321000  0.22456000  1.0
  C  C182  1  0.69866000  0.44970000  0.77542000  1.0
  C  C183  1  0.32571000  0.55031000  0.24896000  1.0
  C  C184  1  0.77543000  0.69867000  0.44971000  1.0
  C  C185  1  0.24896000  0.32574000  0.55031000  1.0
  C  C186  1  0.75103000  0.30134000  0.07678000  1.0
  C  C187  1  0.22457000  0.67428000  0.92323000  1.0
  C  C188  1  0.92322000  0.22456000  0.67427000  1.0
  C  C189  1  0.07674000  0.75102000  0.30133000  1.0
  C  C190  1  0.55032000  0.24898000  0.32574000  1.0
  C  C191  1  0.44970000  0.77543000  0.69866000  1.0
  C  C192  1  0.80828000  0.14498000  0.14498000  1.0
  C  C193  1  0.00000000  0.85502000  0.66331000  1.0
  C  C194  1  0.99999000  0.66329000  0.85502000  1.0
  C  C195  1  0.19173000  0.33670000  0.33670000  1.0
  C  C196  1  0.85502000  0.66330000  0.99999000  1.0
  C  C197  1  0.14499000  0.14497000  0.80826000  1.0
  C  C198  1  0.33671000  0.33669000  0.19171000  1.0
  C  C199  1  0.66330000  0.85502000  0.99999000  1.0
  C  C200  1  0.33672000  0.19174000  0.33672000  1.0
  C  C201  1  0.85504000  0.00002000  0.66332000  1.0
  C  C202  1  0.66331000  0.00002000  0.85504000  1.0
  C  C203  1  0.14498000  0.80828000  0.14498000  1.0
  N  N204  1  0.22561000  0.00000000  0.68943000  1.0
  N  N205  1  0.68943000  0.99998000  0.22560000  1.0
  N  N206  1  0.31055000  0.53618000  0.31057000  1.0
  N  N207  1  0.77439000  0.46382000  0.77439000  1.0
  N  N208  1  0.99999000  0.22560000  0.68943000  1.0
  N  N209  1  0.99998000  0.68942000  0.22559000  1.0
  N  N210  1  0.46383000  0.77440000  0.77439000  1.0
  N  N211  1  0.53619000  0.31059000  0.31058000  1.0
  N  N212  1  0.77440000  0.77439000  0.46383000  1.0
  N  N213  1  0.31057000  0.31058000  0.53619000  1.0
  N  N214  1  0.22561000  0.68943000  1.00000000  1.0
  N  N215  1  0.68944000  0.22561000  0.00002000  1.0
  O  O216  1  0.59989000  0.00000000  0.99999000  1.0
  O  O217  1  0.00001000  0.00001000  0.59989000  1.0
  O  O218  1  0.00001000  0.59988000  0.99999000  1.0
  O  O219  1  0.40011000  0.40010000  0.40012000  1.0
  O  O220  1  0.52347000  0.07574000  0.90719000  1.0
  O  O221  1  0.83150000  0.92424000  0.44771000  1.0
  O  O222  1  0.16850000  0.61624000  0.09279000  1.0
  O  O223  1  0.47655000  0.38375000  0.55227000  1.0
  O  O224  1  0.92425000  0.44771000  0.83148000  1.0
  O  O225  1  0.07573000  0.90722000  0.52343000  1.0
  O  O226  1  0.38376000  0.55227000  0.47654000  1.0
  O  O227  1  0.61628000  0.09281000  0.16854000  1.0
  O  O228  1  0.55227000  0.47654000  0.38375000  1.0
  O  O229  1  0.09276000  0.16851000  0.61621000  1.0
  O  O230  1  0.44774000  0.83148000  0.92427000  1.0
  O  O231  1  0.90721000  0.52346000  0.07573000  1.0
  O  O232  1  0.44772000  0.92427000  0.83150000  1.0
  O  O233  1  0.90720000  0.07572000  0.52346000  1.0
  O  O234  1  0.55229000  0.38378000  0.47654000  1.0
  O  O235  1  0.09277000  0.61625000  0.16852000  1.0
  O  O236  1  0.47655000  0.55228000  0.38378000  1.0
  O  O237  1  0.16853000  0.09281000  0.61628000  1.0
  O  O238  1  0.83147000  0.44772000  0.92427000  1.0
  O  O239  1  0.52346000  0.90724000  0.07574000  1.0
  O  O240  1  0.07572000  0.52346000  0.90721000  1.0
  O  O241  1  0.92427000  0.83147000  0.44774000  1.0
  O  O242  1  0.61623000  0.16852000  0.09277000  1.0
  O  O243  1  0.38380000  0.47656000  0.55230000  1.0
  O  O244  1  0.77065000  0.16337000  0.08815000  1.0
  O  O245  1  0.92479000  0.83670000  0.60736000  1.0
  O  O246  1  0.07521000  0.68250000  0.91186000  1.0
  O  O247  1  0.22936000  0.31751000  0.39273000  1.0
  O  O248  1  0.83664000  0.60729000  0.92478000  1.0
  O  O249  1  0.16334000  0.08811000  0.77066000  1.0
  O  O250  1  0.31753000  0.39272000  0.22935000  1.0
  O  O251  1  0.68251000  0.91184000  0.07521000  1.0
  O  O252  1  0.39274000  0.22937000  0.31754000  1.0
  O  O253  1  0.91192000  0.07522000  0.68258000  1.0
  O  O254  1  0.60729000  0.92480000  0.83664000  1.0
  O  O255  1  0.08814000  0.77066000  0.16335000  1.0
  O  O256  1  0.60732000  0.83666000  0.92479000  1.0
  O  O257  1  0.08819000  0.16338000  0.77064000  1.0
  O  O258  1  0.39268000  0.31746000  0.22933000  1.0
  O  O259  1  0.91187000  0.68252000  0.07521000  1.0
  O  O260  1  0.22935000  0.39266000  0.31745000  1.0
  O  O261  1  0.07521000  0.91181000  0.68248000  1.0
  O  O262  1  0.92478000  0.60729000  0.83665000  1.0
  O  O263  1  0.77065000  0.08812000  0.16333000  1.0
  O  O264  1  0.16335000  0.77065000  0.08814000  1.0
  O  O265  1  0.83663000  0.92481000  0.60729000  1.0
  O  O266  1  0.68254000  0.07523000  0.91189000  1.0
  O  O267  1  0.31749000  0.22936000  0.39270000  1.0
