# generated using pymatgen
data_NiH34C20(N3O2)2
_symmetry_space_group_name_H-M   'P 1'
_cell_length_a   7.49735000
_cell_length_b   8.15199000
_cell_length_c   9.91063000
_cell_angle_alpha   105.37300000
_cell_angle_beta   98.58960000
_cell_angle_gamma   105.11600000
_symmetry_Int_Tables_number   1
_chemical_formula_structural   NiH34C20(N3O2)2
_chemical_formula_sum   'Ni1 H34 C20 N6 O4'
_cell_volume   548.08898491
_cell_formula_units_Z   1
loop_
 _symmetry_equiv_pos_site_id
 _symmetry_equiv_pos_as_xyz
  1  'x, y, z'
loop_
 _atom_site_type_symbol
 _atom_site_label
 _atom_site_symmetry_multiplicity
 _atom_site_fract_x
 _atom_site_fract_y
 _atom_site_fract_z
 _atom_site_occupancy
  Ni  Ni0  1  0.50000000  0.50000000  0.50000000  1.0
  H  H1  1  0.20782000  0.49759000  0.55342000  1.0
  H  H2  1  0.79217000  0.50241000  0.44658000  1.0
  H  H3  1  0.52581000  0.21306000  0.49001000  1.0
  H  H4  1  0.47420000  0.78694000  0.50999000  1.0
  H  H5  1  0.50929000  0.43115000  0.17704000  1.0
  H  H6  1  0.49070000  0.56885000  0.82296000  1.0
  H  H7  1  0.75158000  0.43904000  0.18412000  1.0
  H  H8  1  0.24841000  0.56096000  0.81588000  1.0
  H  H9  1  0.38230000  0.01005000  0.25130000  1.0
  H  H10  1  0.61770000  0.98994000  0.74871000  1.0
  H  H11  1  0.29429000  0.17859000  0.20628000  1.0
  H  H12  1  0.70570000  0.82140000  0.79372000  1.0
  H  H13  1  0.20998000  0.02476000  0.44702000  1.0
  H  H14  1  0.79003000  0.97524000  0.55299000  1.0
  H  H15  1  0.12420000  0.18188000  0.38117000  1.0
  H  H16  1  0.87580000  0.81811000  0.61884000  1.0
  H  H17  1  0.35119000  0.25725000  0.68680000  1.0
  H  H18  1  0.64881000  0.74275000  0.31320000  1.0
  H  H19  1  0.10856000  0.24814000  0.63756000  1.0
  H  H20  1  0.89145000  0.75186000  0.36244000  1.0
  H  H21  1  0.73814000  0.12555000  0.36761000  1.0
  H  H22  1  0.26187000  0.87446000  0.63239000  1.0
  H  H23  1  0.87389000  0.26080000  0.28414000  1.0
  H  H24  1  0.12611000  0.73920000  0.71585000  1.0
  H  H25  1  0.59658000  0.87864000  0.12322000  1.0
  H  H26  1  0.40342000  0.12136000  0.87678000  1.0
  H  H27  1  0.84761000  0.93411000  0.17696000  1.0
  H  H28  1  0.15239000  0.06589000  0.82304000  1.0
  H  H29  1  0.74344000  0.01645000  0.04570000  1.0
  H  H30  1  0.25655000  0.98355000  0.95430000  1.0
  H  H31  1  0.93093000  0.70977000  0.87407000  1.0
  H  H32  1  0.06908000  0.29025000  0.12593000  1.0
  H  H33  1  0.90455000  0.17489000  0.86512000  1.0
  H  H34  1  0.09545000  0.82512000  0.13487000  1.0
  C  C35  1  0.36828000  0.59416000  0.76550000  1.0
  C  C36  1  0.63171000  0.40584000  0.23450000  1.0
  C  C37  1  0.58648000  0.84509000  0.73067000  1.0
  C  C38  1  0.41352000  0.15491000  0.26934000  1.0
  C  C39  1  0.23634000  0.16752000  0.45815000  1.0
  C  C40  1  0.76366000  0.83248000  0.54185000  1.0
  C  C41  1  0.24689000  0.27941000  0.60883000  1.0
  C  C42  1  0.75311000  0.72059000  0.39117000  1.0
  C  C43  1  0.73994000  0.15302000  0.26446000  1.0
  C  C44  1  0.26006000  0.84698000  0.73554000  1.0
  C  C45  1  0.73175000  0.98597000  0.14603000  1.0
  C  C46  1  0.26825000  0.01403000  0.85398000  1.0
  C  C47  1  0.81801000  0.36930000  0.69311000  1.0
  C  C48  1  0.18198000  0.63069000  0.30688000  1.0
  C  C49  1  0.90666000  0.43509000  0.85275000  1.0
  C  C50  1  0.09335000  0.56491000  0.14725000  1.0
  C  C51  1  0.96088000  0.61824000  0.93027000  1.0
  C  C52  1  0.03912000  0.38177000  0.06972000  1.0
  C  C53  1  0.94651000  0.31747000  0.92459000  1.0
  C  C54  1  0.05351000  0.68256000  0.07541000  1.0
  N  N55  1  0.31454000  0.46924000  0.61450000  1.0
  N  N56  1  0.68545000  0.53076000  0.38550000  1.0
  N  N57  1  0.41681000  0.77835000  0.77437000  1.0
  N  N58  1  0.58319000  0.22165000  0.22563000  1.0
  N  N59  1  0.57871000  0.75849000  0.57521000  1.0
  N  N60  1  0.42129000  0.24151000  0.42479000  1.0
  O  O61  1  0.87863000  0.47419000  0.62379000  1.0
  O  O62  1  0.12136000  0.52580000  0.37620000  1.0
  O  O63  1  0.69306000  0.21468000  0.64067000  1.0
  O  O64  1  0.30694000  0.78533000  0.35933000  1.0
