# generated using pymatgen
data_TlH16AuC20(NCl5)2
_symmetry_space_group_name_H-M   'P 1'
_cell_length_a   11.30820000
_cell_length_b   11.78770000
_cell_length_c   12.83520000
_cell_angle_alpha   64.20710000
_cell_angle_beta   72.56220000
_cell_angle_gamma   73.65670000
_symmetry_Int_Tables_number   1
_chemical_formula_structural   TlH16AuC20(NCl5)2
_chemical_formula_sum   'Tl2 H32 Au2 C40 N4 Cl20'
_cell_volume   1446.76995407
_cell_formula_units_Z   2
loop_
 _symmetry_equiv_pos_site_id
 _symmetry_equiv_pos_as_xyz
  1  'x, y, z'
loop_
 _atom_site_type_symbol
 _atom_site_label
 _atom_site_symmetry_multiplicity
 _atom_site_fract_x
 _atom_site_fract_y
 _atom_site_fract_z
 _atom_site_occupancy
  Tl  Tl0  1  0.42423000  0.24631000  0.05592000  1.0
  Tl  Tl1  1  0.57577000  0.75369000  0.94408000  1.0
  H  H2  1  0.15275000  0.30999000  0.18308000  1.0
  H  H3  1  0.84726000  0.69001000  0.81692000  1.0
  H  H4  1  0.06741000  0.39189000  0.28003000  1.0
  H  H5  1  0.93260000  0.60810000  0.71997000  1.0
  H  H6  1  0.04362000  0.23724000  0.31328000  1.0
  H  H7  1  0.95638000  0.76276000  0.68672000  1.0
  H  H8  1  0.10618000  0.17866000  0.52372000  1.0
  H  H9  1  0.89383000  0.82133000  0.47628000  1.0
  H  H10  1  0.12686000  0.33853000  0.46292000  1.0
  H  H11  1  0.87315000  0.66146000  0.53709000  1.0
  H  H12  1  0.25266000  0.21484000  0.51493000  1.0
  H  H13  1  0.74735000  0.78515000  0.48507000  1.0
  H  H14  1  0.80142000  0.98284000  0.06875000  1.0
  H  H15  1  0.19858000  0.01716000  0.93125000  1.0
  H  H16  1  0.84983000  0.13309000  0.00250000  1.0
  H  H17  1  0.15017000  0.86691000  0.99750000  1.0
  H  H18  1  0.69657000  0.12201000  0.99879000  1.0
  H  H19  1  0.30343000  0.87799000  0.00121000  1.0
  H  H20  1  0.84414000  0.14582000  0.23672000  1.0
  H  H21  1  0.15587000  0.85418000  0.76328000  1.0
  H  H22  1  0.89867000  0.00005000  0.21422000  1.0
  H  H23  1  0.10134000  0.99995000  0.78578000  1.0
  H  H24  1  0.77704000  0.00919000  0.33744000  1.0
  H  H25  1  0.22296000  0.99080000  0.66256000  1.0
  H  H26  1  0.40114000  0.12320000  0.45706000  1.0
  H  H27  1  0.59887000  0.87680000  0.54294000  1.0
  H  H28  1  0.44002000  0.01954000  0.38013000  1.0
  H  H29  1  0.55998000  0.98047000  0.61987000  1.0
  H  H30  1  0.61347000  0.12673000  0.36632000  1.0
  H  H31  1  0.38654000  0.87328000  0.63367000  1.0
  H  H32  1  0.53168000  0.27429000  0.28123000  1.0
  H  H33  1  0.46832000  0.72572000  0.71876000  1.0
  Au  Au34  1  0.50001000  0.50000000  0.00000000  1.0
  Au  Au35  1  0.49999000  0.00000000  0.00000000  1.0
  C  C36  1  0.32334000  0.56057000  0.08381000  1.0
  C  C37  1  0.67666000  0.43944000  0.91619000  1.0
  C  C38  1  0.30489000  0.57157000  0.19248000  1.0
  C  C39  1  0.69511000  0.42843000  0.80753000  1.0
  C  C40  1  0.18544000  0.60678000  0.25551000  1.0
  C  C41  1  0.81455000  0.39322000  0.74449000  1.0
  C  C42  1  0.07958000  0.63841000  0.20588000  1.0
  C  C43  1  0.92042000  0.36159000  0.79412000  1.0
  C  C44  1  0.09424000  0.63102000  0.09604000  1.0
  C  C45  1  0.90576000  0.36898000  0.90395000  1.0
  C  C46  1  0.21499000  0.59052000  0.03839000  1.0
  C  C47  1  0.78501000  0.40948000  0.96161000  1.0
  C  C48  1  0.42618000  0.91251000  0.17804000  1.0
  C  C49  1  0.57380000  0.08749000  0.82196000  1.0
  C  C50  1  0.29997000  0.94220000  0.23185000  1.0
  C  C51  1  0.70002000  0.05780000  0.76814000  1.0
  C  C52  1  0.25368000  0.88607000  0.35415000  1.0
  C  C53  1  0.74630000  0.11393000  0.64586000  1.0
  C  C54  1  0.33436000  0.79269000  0.42719000  1.0
  C  C55  1  0.66563000  0.20731000  0.57281000  1.0
  C  C56  1  0.46149000  0.76032000  0.37714000  1.0
  C  C57  1  0.53848000  0.23968000  0.62287000  1.0
  C  C58  1  0.50417000  0.82037000  0.25465000  1.0
  C  C59  1  0.49582000  0.17963000  0.74534000  1.0
  C  C60  1  0.21677000  0.23898000  0.34688000  1.0
  C  C61  1  0.78324000  0.76101000  0.65312000  1.0
  C  C62  1  0.11558000  0.29880000  0.27555000  1.0
  C  C63  1  0.88443000  0.70120000  0.72445000  1.0
  C  C64  1  0.17574000  0.24180000  0.46882000  1.0
  C  C65  1  0.82427000  0.75819000  0.53118000  1.0
  C  C66  1  0.71875000  0.10140000  0.16812000  1.0
  C  C67  1  0.28125000  0.89860000  0.83188000  1.0
  C  C68  1  0.76824000  0.08493000  0.05269000  1.0
  C  C69  1  0.23177000  0.91507000  0.94731000  1.0
  C  C70  1  0.81457000  0.06107000  0.24367000  1.0
  C  C71  1  0.18543000  0.93893000  0.75633000  1.0
  C  C72  1  0.42490000  0.12070000  0.36818000  1.0
  C  C73  1  0.57511000  0.87930000  0.63182000  1.0
  C  C74  1  0.54928000  0.17025000  0.30395000  1.0
  C  C75  1  0.45073000  0.82975000  0.69605000  1.0
  N  N76  1  0.32550000  0.18935000  0.30156000  1.0
  N  N77  1  0.67451000  0.81065000  0.69844000  1.0
  N  N78  1  0.60200000  0.14851000  0.19494000  1.0
  N  N79  1  0.39801000  0.85149000  0.80506000  1.0
  Cl  Cl80  1  0.43463000  0.54030000  0.25223000  1.0
  Cl  Cl81  1  0.56536000  0.45970000  0.74777000  1.0
  Cl  Cl82  1  0.16647000  0.60812000  0.39300000  1.0
  Cl  Cl83  1  0.83353000  0.39187000  0.60700000  1.0
  Cl  Cl84  1  0.93294000  0.68273000  0.28023000  1.0
  Cl  Cl85  1  0.06706000  0.31727000  0.71976000  1.0
  Cl  Cl86  1  0.96447000  0.66896000  0.03602000  1.0
  Cl  Cl87  1  0.03554000  0.33104000  0.96398000  1.0
  Cl  Cl88  1  0.22948000  0.57561000  0.90618000  1.0
  Cl  Cl89  1  0.77053000  0.42439000  0.09382000  1.0
  Cl  Cl90  1  0.19433000  0.05301000  0.14554000  1.0
  Cl  Cl91  1  0.80566000  0.94699000  0.85446000  1.0
  Cl  Cl92  1  0.09980000  0.93106000  0.41582000  1.0
  Cl  Cl93  1  0.90019000  0.06895000  0.58418000  1.0
  Cl  Cl94  1  0.27718000  0.71558000  0.57537000  1.0
  Cl  Cl95  1  0.72280000  0.28443000  0.42463000  1.0
  Cl  Cl96  1  0.56180000  0.64852000  0.46582000  1.0
  Cl  Cl97  1  0.43819000  0.35148000  0.53418000  1.0
  Cl  Cl98  1  0.66066000  0.77500000  0.19681000  1.0
  Cl  Cl99  1  0.33932000  0.22500000  0.80319000  1.0
