# generated using pymatgen
data_CdH8C9N3ClO3
_symmetry_space_group_name_H-M   'P 1'
_cell_length_a   6.70732000
_cell_length_b   9.83054000
_cell_length_c   9.85536000
_cell_angle_alpha   118.49800000
_cell_angle_beta   96.96070000
_cell_angle_gamma   102.19500000
_symmetry_Int_Tables_number   1
_chemical_formula_structural   CdH8C9N3ClO3
_chemical_formula_sum   'Cd2 H16 C18 N6 Cl2 O6'
_cell_volume   539.24477849
_cell_formula_units_Z   2
loop_
 _symmetry_equiv_pos_site_id
 _symmetry_equiv_pos_as_xyz
  1  'x, y, z'
loop_
 _atom_site_type_symbol
 _atom_site_label
 _atom_site_symmetry_multiplicity
 _atom_site_fract_x
 _atom_site_fract_y
 _atom_site_fract_z
 _atom_site_occupancy
  Cd  Cd0  1  0.19363000  0.18464000  0.00756000  1.0
  Cd  Cd1  1  0.80637000  0.81536000  0.99244000  1.0
  H  H2  1  0.62494000  0.40790000  0.16643000  1.0
  H  H3  1  0.37506000  0.59210000  0.83357000  1.0
  H  H4  1  0.64684000  0.22774000  0.04789000  1.0
  H  H5  1  0.35316000  0.77226000  0.95210000  1.0
  H  H6  1  0.25948000  0.30806000  0.39662000  1.0
  H  H7  1  0.74052000  0.69194000  0.60338000  1.0
  H  H8  1  0.31343000  0.62349000  0.63329000  1.0
  H  H9  1  0.68657000  0.37651000  0.36672000  1.0
  H  H10  1  0.10738000  0.56307000  0.17600000  1.0
  H  H11  1  0.89262000  0.43693000  0.82400000  1.0
  H  H12  1  0.24799000  0.84211000  0.30452000  1.0
  H  H13  1  0.75201000  0.15789000  0.69548000  1.0
  H  H14  1  0.27658000  0.13431000  0.45973000  1.0
  H  H15  1  0.72342000  0.86569000  0.54027000  1.0
  H  H16  1  0.20201000  0.82606000  0.73230000  1.0
  H  H17  1  0.79800000  0.17394000  0.26770000  1.0
  C  C18  1  0.23230000  0.40745000  0.38597000  1.0
  C  C19  1  0.76771000  0.59255000  0.61403000  1.0
  C  C20  1  0.25825000  0.56264000  0.50450000  1.0
  C  C21  1  0.74175000  0.43736000  0.49550000  1.0
  C  C22  1  0.15722000  0.53513000  0.26613000  1.0
  C  C23  1  0.84278000  0.46487000  0.73387000  1.0
  C  C24  1  0.22185000  0.80920000  0.50573000  1.0
  C  C25  1  0.77815000  0.19079000  0.49427000  1.0
  C  C26  1  0.24208000  0.89792000  0.42904000  1.0
  C  C27  1  0.75792000  0.10207000  0.57096000  1.0
  C  C28  1  0.25894000  0.06204000  0.51585000  1.0
  C  C29  1  0.74106000  0.93796000  0.48414000  1.0
  C  C30  1  0.25189000  0.13414000  0.67549000  1.0
  C  C31  1  0.74810000  0.86586000  0.32450000  1.0
  C  C32  1  0.25894000  0.31119000  0.77310000  1.0
  C  C33  1  0.74106000  0.68881000  0.22690000  1.0
  C  C34  1  0.21738000  0.88931000  0.66666667  1.0
  C  C35  1  0.78262000  0.11069000  0.33333333  1.0
  N  N36  1  0.16866000  0.39161000  0.23888000  1.0
  N  N37  1  0.83134000  0.60839000  0.76113000  1.0
  N  N38  1  0.21118000  0.64382000  0.42764000  1.0
  N  N39  1  0.78882000  0.35618000  0.57236000  1.0
  N  N40  1  0.23043000  0.04642000  0.74698000  1.0
  N  N41  1  0.76957000  0.95357000  0.25302000  1.0
  Cl  Cl42  1  0.22229000  0.97257000  0.10083000  1.0
  Cl  Cl43  1  0.77771000  0.02743000  0.89916000  1.0
  O  O44  1  0.31429000  0.39760000  0.71361000  1.0
  O  O45  1  0.68571000  0.60240000  0.28639000  1.0
  O  O46  1  0.20377000  0.35790000  0.90332000  1.0
  O  O47  1  0.79623000  0.64209000  0.09668000  1.0
  O  O48  1  0.56337000  0.28596000  0.11747000  1.0
  O  O49  1  0.43663000  0.71404000  0.88253000  1.0
