# generated using pymatgen
data_FeH22Au2(C6N)6
_symmetry_space_group_name_H-M   'P 1'
_cell_length_a   13.12330000
_cell_length_b   15.06460000
_cell_length_c   17.79768330
_cell_angle_alpha   68.48302719
_cell_angle_beta   68.36819396
_cell_angle_gamma   89.99960000
_symmetry_Int_Tables_number   1
_chemical_formula_structural   FeH22Au2(C6N)6
_chemical_formula_sum   'Fe4 H88 Au8 C144 N24'
_cell_volume   3005.38983351
_cell_formula_units_Z   4
loop_
 _symmetry_equiv_pos_site_id
 _symmetry_equiv_pos_as_xyz
  1  'x, y, z'
loop_
 _atom_site_type_symbol
 _atom_site_label
 _atom_site_symmetry_multiplicity
 _atom_site_fract_x
 _atom_site_fract_y
 _atom_site_fract_z
 _atom_site_occupancy
  Fe  Fe0  1  0.29866000  0.46579000  0.90158000  1.0
  Fe  Fe1  1  0.79979000  0.96577000  0.90161000  1.0
  Fe  Fe2  1  0.20015000  0.91406000  0.10262000  1.0
  Fe  Fe3  1  0.69719000  0.41405000  0.10261000  1.0
  H  H4  1  0.88318000  0.16736000  0.77394000  1.0
  H  H5  1  0.34303000  0.66743000  0.77389000  1.0
  H  H6  1  0.99356000  0.25357000  0.61720000  1.0
  H  H7  1  0.38937000  0.75363000  0.61716000  1.0
  H  H8  1  0.04433000  0.97606000  0.60137000  1.0
  H  H9  1  0.35426000  0.47611000  0.60138000  1.0
  H  H10  1  0.93014000  0.90095000  0.75975000  1.0
  H  H11  1  0.31011000  0.40103000  0.75973000  1.0
  H  H12  1  0.05475000  0.31606000  0.48802000  1.0
  H  H13  1  0.45730000  0.81606000  0.48800000  1.0
  H  H14  1  0.13399000  0.39352000  0.32915000  1.0
  H  H15  1  0.53690000  0.89353000  0.32911000  1.0
  H  H16  1  0.22101000  0.12311000  0.31324000  1.0
  H  H17  1  0.46566000  0.62312000  0.31324000  1.0
  H  H18  1  0.13849000  0.04449000  0.47298000  1.0
  H  H19  1  0.38856000  0.54449000  0.47297000  1.0
  H  H20  1  0.25793000  0.45838000  0.19776000  1.0
  H  H21  1  0.54432000  0.95845000  0.19772000  1.0
  H  H22  1  0.29739000  0.53152000  0.03965000  1.0
  H  H23  1  0.66304000  0.03154000  0.03963000  1.0
  H  H24  1  0.24085000  0.26393000  0.03311000  1.0
  H  H25  1  0.72598000  0.76389000  0.03317000  1.0
  H  H26  1  0.19497000  0.17977000  0.19130000  1.0
  H  H27  1  0.61356000  0.67979000  0.19133000  1.0
  H  H28  1  0.40910000  0.99110000  0.94847000  1.0
  H  H29  1  0.64243000  0.49113000  0.94846000  1.0
  H  H30  1  0.46974000  0.08431000  0.78887000  1.0
  H  H31  1  0.74143000  0.58437000  0.78885000  1.0
  H  H32  1  0.12434000  0.05737000  0.82628000  1.0
  H  H33  1  0.04937000  0.55735000  0.82633000  1.0
  H  H34  1  0.07782000  0.96591000  0.98458000  1.0
  H  H35  1  0.93757000  0.46592000  0.98461000  1.0
  H  H36  1  0.47401000  0.22877000  0.69122000  1.0
  H  H37  1  0.83484000  0.72880000  0.69120000  1.0
  H  H38  1  0.55444000  0.30967000  0.53003000  1.0
  H  H39  1  0.91561000  0.80967000  0.53000000  1.0
  H  H40  1  0.29109000  0.15157000  0.51823000  1.0
  H  H41  1  0.19074000  0.65156000  0.51824000  1.0
  H  H42  1  0.21114000  0.06922000  0.67941000  1.0
  H  H43  1  0.10951000  0.56925000  0.67942000  1.0
  H  H44  1  0.65379000  0.28746000  0.41673000  1.0
  H  H45  1  0.92947000  0.78741000  0.41677000  1.0
  H  H46  1  0.75162000  0.35589000  0.25602000  1.0
  H  H47  1  0.99238000  0.85588000  0.25604000  1.0
  H  H48  1  0.45743000  0.34520000  0.22068000  1.0
  H  H49  1  0.32190000  0.84522000  0.22070000  1.0
  H  H50  1  0.34591000  0.27463000  0.38121000  1.0
  H  H51  1  0.27292000  0.77465000  0.38123000  1.0
  H  H52  1  0.54369000  0.11937000  0.20698000  1.0
  H  H53  1  0.24934000  0.61940000  0.20703000  1.0
  H  H54  1  0.66095000  0.13831000  0.28342000  1.0
  H  H55  1  0.05565000  0.63833000  0.28341000  1.0
  H  H56  1  0.35653000  0.02068000  0.29100000  1.0
  H  H57  1  0.35246000  0.52070000  0.29102000  1.0
  H  H58  1  0.68416000  0.10929000  0.42223000  1.0
  H  H59  1  0.89358000  0.60929000  0.42222000  1.0
  H  H60  1  0.61038000  0.03479000  0.58472000  1.0
  H  H61  1  0.80487000  0.53477000  0.58473000  1.0
  H  H62  1  0.13665000  0.83593000  0.59692000  1.0
  H  H63  1  0.26645000  0.33592000  0.59694000  1.0
  H  H64  1  0.20853000  0.91322000  0.43487000  1.0
  H  H65  1  0.35661000  0.41320000  0.43487000  1.0
  H  H66  1  0.27469000  0.83207000  0.81285000  1.0
  H  H67  1  0.91256000  0.33207000  0.81281000  1.0
  H  H68  1  0.15807000  0.81157000  0.73672000  1.0
  H  H69  1  0.10531000  0.31155000  0.73667000  1.0
  H  H70  1  0.46469000  0.92789000  0.72714000  1.0
  H  H71  1  0.80823000  0.42784000  0.72715000  1.0
  H  H72  1  0.97784000  0.44798000  0.19957000  1.0
  H  H73  1  0.82245000  0.94804000  0.19956000  1.0
  H  H74  1  0.89306000  0.46906000  0.34050000  1.0
  H  H75  1  0.76640000  0.96909000  0.34051000  1.0
  H  H76  1  0.99106000  0.28397000  0.19879000  1.0
  H  H77  1  0.81009000  0.78402000  0.19879000  1.0
  H  H78  1  0.80313000  0.39770000  0.50390000  1.0
  H  H79  1  0.69293000  0.89772000  0.50390000  1.0
  H  H80  1  0.72573000  0.25430000  0.64419000  1.0
  H  H81  1  0.63006000  0.75431000  0.64420000  1.0
  H  H82  1  0.90613000  0.96424000  0.42016000  1.0
  H  H83  1  0.67375000  0.46426000  0.42013000  1.0
  H  H84  1  0.96790000  0.10670000  0.27980000  1.0
  H  H85  1  0.75232000  0.60673000  0.27978000  1.0
  H  H86  1  0.68851000  0.07553000  0.72495000  1.0
  H  H87  1  0.58655000  0.57555000  0.72495000  1.0
  H  H88  1  0.71079000  0.91270000  0.72376000  1.0
  H  H89  1  0.56551000  0.41272000  0.72374000  1.0
  H  H90  1  0.80926000  0.89272000  0.58426000  1.0
  H  H91  1  0.60654000  0.39274000  0.58425000  1.0
  Au  Au92  1  0.54829000  0.21643000  0.87594000  1.0
  Au  Au93  1  0.57571000  0.71637000  0.87612000  1.0
  Au  Au94  1  0.05148000  0.71616000  0.92743000  1.0
  Au  Au95  1  0.02114000  0.21616000  0.92746000  1.0
  Au  Au96  1  0.46107000  0.67527000  0.07569000  1.0
  Au  Au97  1  0.46325000  0.17526000  0.07559000  1.0
  Au  Au98  1  0.93948000  0.65393000  0.12361000  1.0
  Au  Au99  1  0.93687000  0.15394000  0.12363000  1.0
  C  C100  1  0.92022000  0.12725000  0.73353000  1.0
  C  C101  1  0.34640000  0.62730000  0.73349000  1.0
  C  C102  1  0.98328000  0.17523000  0.64438000  1.0
  C  C103  1  0.37248000  0.67528000  0.64435000  1.0
  C  C104  1  0.02967000  0.12385000  0.59130000  1.0
  C  C105  1  0.37907000  0.62390000  0.59128000  1.0
  C  C106  1  0.01144000  0.02279000  0.63596000  1.0
  C  C107  1  0.35260000  0.52285000  0.63593000  1.0
  C  C108  1  0.94701000  0.97918000  0.72550000  1.0
  C  C109  1  0.32751000  0.47926000  0.72547000  1.0
  C  C110  1  0.08820000  0.17286000  0.49486000  1.0
  C  C111  1  0.41691000  0.67289000  0.49485000  1.0
  C  C112  1  0.09224000  0.27255000  0.45107000  1.0
  C  C113  1  0.45668000  0.77257000  0.45106000  1.0
  C  C114  1  0.13840000  0.31736000  0.35989000  1.0
  C  C115  1  0.50168000  0.81738000  0.35988000  1.0
  C  C116  1  0.18351000  0.26489000  0.30753000  1.0
  C  C117  1  0.50878000  0.76492000  0.30753000  1.0
  C  C118  1  0.18389000  0.16598000  0.35115000  1.0
  C  C119  1  0.46482000  0.66601000  0.35113000  1.0
  C  C120  1  0.13710000  0.12128000  0.44236000  1.0
  C  C121  1  0.42049000  0.62131000  0.44234000  1.0
  C  C122  1  0.22057000  0.31109000  0.21126000  1.0
  C  C123  1  0.56799000  0.81112000  0.21125000  1.0
  C  C124  1  0.25190000  0.41157000  0.16483000  1.0
  C  C125  1  0.58323000  0.91161000  0.16481000  1.0
  C  C126  1  0.27463000  0.45368000  0.07569000  1.0
  C  C127  1  0.64969000  0.95369000  0.07568000  1.0
  C  C128  1  0.24370000  0.30463000  0.07185000  1.0
  C  C129  1  0.68438000  0.80463000  0.07186000  1.0
  C  C130  1  0.21924000  0.25790000  0.16111000  1.0
  C  C131  1  0.61950000  0.75792000  0.16111000  1.0
  C  C132  1  0.64370000  0.11496000  0.87781000  1.0
  C  C133  1  0.47849000  0.61490000  0.87797000  1.0
  C  C134  1  0.45380000  0.31845000  0.87635000  1.0
  C  C135  1  0.66975000  0.81845000  0.87651000  1.0
  C  C136  1  0.14427000  0.61319000  0.92769000  1.0
  C  C137  1  0.92812000  0.11318000  0.92772000  1.0
  C  C138  1  0.12079000  0.32018000  0.91949000  1.0
  C  C139  1  0.95981000  0.82017000  0.91948000  1.0
  C  C140  1  0.34858000  0.00831000  0.91896000  1.0
  C  C141  1  0.73246000  0.50838000  0.91894000  1.0
  C  C142  1  0.38141000  0.06113000  0.82960000  1.0
  C  C143  1  0.78903000  0.56120000  0.82957000  1.0
  C  C144  1  0.30217000  0.08274000  0.79236000  1.0
  C  C145  1  0.90549000  0.58277000  0.79236000  1.0
  C  C146  1  0.19107000  0.04508000  0.84962000  1.0
  C  C147  1  0.95930000  0.54509000  0.84966000  1.0
  C  C148  1  0.16379000  0.99351000  0.93890000  1.0
  C  C149  1  0.89728000  0.49352000  0.93893000  1.0
  C  C150  1  0.33853000  0.14034000  0.69741000  1.0
  C  C151  1  0.96414000  0.64037000  0.69740000  1.0
  C  C152  1  0.43436000  0.21062000  0.65342000  1.0
  C  C153  1  0.91231000  0.71068000  0.65340000  1.0
  C  C154  1  0.47943000  0.25650000  0.56252000  1.0
  C  C155  1  0.95814000  0.75654000  0.56251000  1.0
  C  C156  1  0.43113000  0.23459000  0.51154000  1.0
  C  C157  1  0.05740000  0.73458000  0.51156000  1.0
  C  C158  1  0.33094000  0.16975000  0.55577000  1.0
  C  C159  1  0.11338000  0.66976000  0.55578000  1.0
  C  C160  1  0.28531000  0.12352000  0.64718000  1.0
  C  C161  1  0.06758000  0.62354000  0.64720000  1.0
  C  C162  1  0.48922000  0.27629000  0.41515000  1.0
  C  C163  1  0.09566000  0.77623000  0.41517000  1.0
  C  C164  1  0.60538000  0.30087000  0.37659000  1.0
  C  C165  1  0.01801000  0.80080000  0.37664000  1.0
  C  C166  1  0.66168000  0.33854000  0.28619000  1.0
  C  C167  1  0.05214000  0.83851000  0.28623000  1.0
  C  C168  1  0.49735000  0.33148000  0.26681000  1.0
  C  C169  1  0.23584000  0.83145000  0.26683000  1.0
  C  C170  1  0.43573000  0.29180000  0.35710000  1.0
  C  C171  1  0.20721000  0.79178000  0.35711000  1.0
  C  C172  1  0.36818000  0.77752000  0.07626000  1.0
  C  C173  1  0.55572000  0.27744000  0.07616000  1.0
  C  C174  1  0.03671000  0.75577000  0.12087000  1.0
  C  C175  1  0.84231000  0.25572000  0.12091000  1.0
  C  C176  1  0.36515000  0.06835000  0.08705000  1.0
  C  C177  1  0.54762000  0.56828000  0.08710000  1.0
  C  C178  1  0.84184000  0.55439000  0.12376000  1.0
  C  C179  1  0.03439000  0.05441000  0.12374000  1.0
  C  C180  1  0.51217000  0.08460000  0.27848000  1.0
  C  C181  1  0.20931000  0.58461000  0.27852000  1.0
  C  C182  1  0.57820000  0.09555000  0.32134000  1.0
  C  C183  1  0.10043000  0.59555000  0.32137000  1.0
  C  C184  1  0.53836000  0.05321000  0.41360000  1.0
  C  C185  1  0.04803000  0.55322000  0.41362000  1.0
  C  C186  1  0.42973000  0.99751000  0.46289000  1.0
  C  C187  1  0.10737000  0.49749000  0.46288000  1.0
  C  C188  1  0.36346000  0.98519000  0.41819000  1.0
  C  C189  1  0.21834000  0.48516000  0.41820000  1.0
  C  C190  1  0.40620000  0.03016000  0.32587000  1.0
  C  C191  1  0.26791000  0.53016000  0.32589000  1.0
  C  C192  1  0.60217000  0.06532000  0.46025000  1.0
  C  C193  1  0.93754000  0.56531000  0.46025000  1.0
  C  C194  1  0.56180000  0.02388000  0.54993000  1.0
  C  C195  1  0.88825000  0.52386000  0.54993000  1.0
  C  C196  1  0.45498000  0.96490000  0.60100000  1.0
  C  C197  1  0.94403000  0.46486000  0.60098000  1.0
  C  C198  1  0.38830000  0.95302000  0.55645000  1.0
  C  C199  1  0.05527000  0.45298000  0.55643000  1.0
  C  C200  1  0.28012000  0.89651000  0.60600000  1.0
  C  C201  1  0.11393000  0.39648000  0.60597000  1.0
  C  C202  1  0.21717000  0.88255000  0.55925000  1.0
  C  C203  1  0.22364000  0.38255000  0.55924000  1.0
  C  C204  1  0.25715000  0.92508000  0.46948000  1.0
  C  C205  1  0.27338000  0.42505000  0.46948000  1.0
  C  C206  1  0.30690000  0.86589000  0.74116000  1.0
  C  C207  1  0.95202000  0.36586000  0.74112000  1.0
  C  C208  1  0.24072000  0.85472000  0.69832000  1.0
  C  C209  1  0.06103000  0.35471000  0.69829000  1.0
  C  C210  1  0.41323000  0.91955000  0.69327000  1.0
  C  C211  1  0.89354000  0.41951000  0.69326000  1.0
  C  C212  1  0.94624000  0.38470000  0.26153000  1.0
  C  C213  1  0.79212000  0.88477000  0.26152000  1.0
  C  C214  1  0.89825000  0.39673000  0.34067000  1.0
  C  C215  1  0.76099000  0.89677000  0.34067000  1.0
  C  C216  1  0.85608000  0.31612000  0.42137000  1.0
  C  C217  1  0.72251000  0.81615000  0.42138000  1.0
  C  C218  1  0.86483000  0.22153000  0.42140000  1.0
  C  C219  1  0.71367000  0.72156000  0.42139000  1.0
  C  C220  1  0.91557000  0.21011000  0.34001000  1.0
  C  C221  1  0.74429000  0.71015000  0.34001000  1.0
  C  C222  1  0.95388000  0.29272000  0.26093000  1.0
  C  C223  1  0.78509000  0.79279000  0.26093000  1.0
  C  C224  1  0.80594000  0.32534000  0.50412000  1.0
  C  C225  1  0.68990000  0.82535000  0.50414000  1.0
  C  C226  1  0.76380000  0.24599000  0.58171000  1.0
  C  C227  1  0.65448000  0.74599000  0.58172000  1.0
  C  C228  1  0.77108000  0.15024000  0.58372000  1.0
  C  C229  1  0.64517000  0.65026000  0.58372000  1.0
  C  C230  1  0.82504000  0.13903000  0.50242000  1.0
  C  C231  1  0.67244000  0.63906000  0.50242000  1.0
  C  C232  1  0.83989000  0.04489000  0.50259000  1.0
  C  C233  1  0.65748000  0.54491000  0.50256000  1.0
  C  C234  1  0.89392000  0.03594000  0.42008000  1.0
  C  C235  1  0.68599000  0.53597000  0.42004000  1.0
  C  C236  1  0.92863000  0.11482000  0.34225000  1.0
  C  C237  1  0.72906000  0.61487000  0.34222000  1.0
  C  C238  1  0.72949000  0.06745000  0.66272000  1.0
  C  C239  1  0.60778000  0.56748000  0.66273000  1.0
  C  C240  1  0.74315000  0.97595000  0.66205000  1.0
  C  C241  1  0.59484000  0.47598000  0.66203000  1.0
  C  C242  1  0.79886000  0.96473000  0.58345000  1.0
  C  C243  1  0.61772000  0.46476000  0.58343000  1.0
  N  N244  1  0.89937000  0.02985000  0.77467000  1.0
  N  N245  1  0.32604000  0.52991000  0.77464000  1.0
  N  N246  1  0.26960000  0.40176000  0.02885000  1.0
  N  N247  1  0.70154000  0.90175000  0.02885000  1.0
  N  N248  1  0.39734000  0.37817000  0.88112000  1.0
  N  N249  1  0.72155000  0.87818000  0.88117000  1.0
  N  N250  1  0.19956000  0.55269000  0.92337000  1.0
  N  N251  1  0.87713000  0.05267000  0.92342000  1.0
  N  N252  1  0.70066000  0.05502000  0.88508000  1.0
  N  N253  1  0.41429000  0.55500000  0.88513000  1.0
  N  N254  1  0.18399000  0.37810000  0.91590000  1.0
  N  N255  1  0.90012000  0.87805000  0.91594000  1.0
  N  N256  1  0.24078000  0.97627000  0.97406000  1.0
  N  N257  1  0.78513000  0.47631000  0.97406000  1.0
  N  N258  1  0.60911000  0.35507000  0.23096000  1.0
  N  N259  1  0.15993000  0.85506000  0.23099000  1.0
  N  N260  1  0.30668000  0.83278000  0.08498000  1.0
  N  N261  1  0.60839000  0.33272000  0.08493000  1.0
  N  N262  1  0.09606000  0.81898000  0.11395000  1.0
  N  N263  1  0.78993000  0.31897000  0.11396000  1.0
  N  N264  1  0.78733000  0.49765000  0.11793000  1.0
  N  N265  1  0.09469000  0.99765000  0.11792000  1.0
  N  N266  1  0.30396000  0.00710000  0.09312000  1.0
  N  N267  1  0.60279000  0.50707000  0.09314000  1.0
