# generated using pymatgen
data_CuH6C9SN3
_symmetry_space_group_name_H-M   'P 1'
_cell_length_a   3.68802000
_cell_length_b   10.90106529
_cell_length_c   11.23010000
_cell_angle_alpha   78.28955354
_cell_angle_beta   89.99550000
_cell_angle_gamma   80.57861581
_symmetry_Int_Tables_number   1
_chemical_formula_structural   CuH6C9SN3
_chemical_formula_sum   'Cu2 H12 C18 S2 N6'
_cell_volume   435.87014300
_cell_formula_units_Z   2
loop_
 _symmetry_equiv_pos_site_id
 _symmetry_equiv_pos_as_xyz
  1  'x, y, z'
loop_
 _atom_site_type_symbol
 _atom_site_label
 _atom_site_symmetry_multiplicity
 _atom_site_fract_x
 _atom_site_fract_y
 _atom_site_fract_z
 _atom_site_occupancy
  Cu  Cu0  1  0.62263000  0.28174000  0.36205000  1.0
  Cu  Cu1  1  0.09160000  0.28202000  0.86201000  1.0
  H  H2  1  0.86436000  0.12936000  0.17395000  1.0
  H  H3  1  0.00349000  0.12858000  0.67393000  1.0
  H  H4  1  0.10296000  0.68703000  0.24985000  1.0
  H  H5  1  0.21265000  0.68612000  0.75032000  1.0
  H  H6  1  0.03934000  0.51972000  0.43164000  1.0
  H  H7  1  0.44720000  0.51981000  0.93182000  1.0
  H  H8  1  0.80275000  0.57651000  0.62316000  1.0
  H  H9  1  0.62556000  0.57796000  0.12303000  1.0
  H  H10  1  0.63421000  0.80502000  0.63658000  1.0
  H  H11  1  0.56150000  0.80688000  0.13622000  1.0
  H  H12  1  0.59032000  0.03495000  0.53611000  1.0
  H  H13  1  0.36862000  0.03632000  0.03605000  1.0
  C  C14  1  0.56780000  0.33870000  0.61999000  1.0
  C  C15  1  0.09212000  0.33916000  0.11987000  1.0
  C  C16  1  0.84433000  0.05382000  0.25290000  1.0
  C  C17  1  0.09922000  0.05343000  0.75292000  1.0
  C  C18  1  0.90592000  0.84176000  0.34013000  1.0
  C  C19  1  0.25263000  0.84168000  0.84025000  1.0
  C  C20  1  0.00155000  0.71214000  0.33430000  1.0
  C  C21  1  0.28875000  0.71185000  0.83455000  1.0
  C  C22  1  0.96434000  0.61966000  0.43552000  1.0
  C  C23  1  0.42014000  0.61992000  0.93565000  1.0
  C  C24  1  0.83068000  0.65192000  0.54519000  1.0
  C  C25  1  0.52096000  0.65294000  0.04512000  1.0
  C  C26  1  0.73581000  0.77740000  0.55334000  1.0
  C  C27  1  0.48773000  0.77863000  0.05320000  1.0
  C  C28  1  0.77324000  0.87406000  0.45136000  1.0
  C  C29  1  0.35197000  0.87472000  0.95133000  1.0
  C  C30  1  0.68765000  0.00438000  0.45330000  1.0
  C  C31  1  0.30401000  0.00516000  0.95326000  1.0
  S  S32  1  0.54339000  0.37819000  0.75412000  1.0
  S  S33  1  0.07827000  0.37834000  0.25413000  1.0
  N  N34  1  0.58873000  0.31398000  0.52210000  1.0
  N  N35  1  0.09496000  0.31452000  0.02196000  1.0
  N  N36  1  0.72287000  0.09430000  0.35632000  1.0
  N  N37  1  0.17772000  0.09455000  0.85633000  1.0
  N  N38  1  0.93666000  0.93557000  0.24066000  1.0
  N  N39  1  0.12749000  0.93496000  0.74074000  1.0
