# generated using pymatgen
data_MgH10C12SO5
_symmetry_space_group_name_H-M   'P 1'
_cell_length_a   5.96272000
_cell_length_b   11.21710000
_cell_length_c   11.21670000
_cell_angle_alpha   108.99300000
_cell_angle_beta   105.03200000
_cell_angle_gamma   105.03100000
_symmetry_Int_Tables_number   1
_chemical_formula_structural   MgH10C12SO5
_chemical_formula_sum   'Mg2 H20 C24 S2 O10'
_cell_volume   634.71408017
_cell_formula_units_Z   2
loop_
 _symmetry_equiv_pos_site_id
 _symmetry_equiv_pos_as_xyz
  1  'x, y, z'
loop_
 _atom_site_type_symbol
 _atom_site_label
 _atom_site_symmetry_multiplicity
 _atom_site_fract_x
 _atom_site_fract_y
 _atom_site_fract_z
 _atom_site_occupancy
  Mg  Mg0  1  0.24999000  0.52704000  0.97295000  1.0
  Mg  Mg1  1  0.74999000  0.47296000  0.02705000  1.0
  H  H2  1  0.14041000  0.68742000  0.84688000  1.0
  H  H3  1  0.35956000  0.65310000  0.81256000  1.0
  H  H4  1  0.85959000  0.31258000  0.15311000  1.0
  H  H5  1  0.64044000  0.34690000  0.18743000  1.0
  H  H6  1  0.49326000  0.82469000  0.24549000  1.0
  H  H7  1  0.00675000  0.25450000  0.67529000  1.0
  H  H8  1  0.50672000  0.17530000  0.75451000  1.0
  H  H9  1  0.99326000  0.74550000  0.32470000  1.0
  H  H10  1  0.56980000  0.07151000  0.33701000  1.0
  H  H11  1  0.93020000  0.16298000  0.42846000  1.0
  H  H12  1  0.43020000  0.92848000  0.66300000  1.0
  H  H13  1  0.06982000  0.83702000  0.57153000  1.0
  H  H14  1  0.80344000  0.98131000  0.09737000  1.0
  H  H15  1  0.69654000  0.40263000  0.51867000  1.0
  H  H16  1  0.19656000  0.01870000  0.90264000  1.0
  H  H17  1  0.30347000  0.59737000  0.48134000  1.0
  H  H18  1  0.72755000  0.73482000  0.00465000  1.0
  H  H19  1  0.77244000  0.49535000  0.76516000  1.0
  H  H20  1  0.27245000  0.26519000  0.99535000  1.0
  H  H21  1  0.22756000  0.50466000  0.23484000  1.0
  C  C22  1  0.10368000  0.76201000  0.11856000  1.0
  C  C23  1  0.39632000  0.38144000  0.73798000  1.0
  C  C24  1  0.89631000  0.23799000  0.88144000  1.0
  C  C25  1  0.60368000  0.61856000  0.26202000  1.0
  C  C26  1  0.34308000  0.85917000  0.21281000  1.0
  C  C27  1  0.15692000  0.28718000  0.64082000  1.0
  C  C28  1  0.65690000  0.14082000  0.78719000  1.0
  C  C29  1  0.84308000  0.71282000  0.35918000  1.0
  C  C30  1  0.38554000  0.99691000  0.26441000  1.0
  C  C31  1  0.11448000  0.23559000  0.50307000  1.0
  C  C32  1  0.61446000  0.00308000  0.73559000  1.0
  C  C33  1  0.88553000  0.76441000  0.49693000  1.0
  C  C34  1  0.19106000  0.04051000  0.22296000  1.0
  C  C35  1  0.30891000  0.27702000  0.45946000  1.0
  C  C36  1  0.80894000  0.95949000  0.77705000  1.0
  C  C37  1  0.69110000  0.72298000  0.54054000  1.0
  C  C38  1  0.95254000  0.94622000  0.13014000  1.0
  C  C39  1  0.54745000  0.36985000  0.55376000  1.0
  C  C40  1  0.04747000  0.05378000  0.86986000  1.0
  C  C41  1  0.45255000  0.63015000  0.44624000  1.0
  C  C42  1  0.91092000  0.80865000  0.07865000  1.0
  C  C43  1  0.58907000  0.42135000  0.69133000  1.0
  C  C44  1  0.08908000  0.19135000  0.92135000  1.0
  C  C45  1  0.41094000  0.57866000  0.30868000  1.0
  S  S46  1  0.25002000  0.21550000  0.28449000  1.0
  S  S47  1  0.75002000  0.78450000  0.71551000  1.0
  O  O48  1  0.05950000  0.62881000  0.06830000  1.0
  O  O49  1  0.44049000  0.43170000  0.87118000  1.0
  O  O50  1  0.94049000  0.37119000  0.93169000  1.0
  O  O51  1  0.55949000  0.56830000  0.12882000  1.0
  O  O52  1  0.24996000  0.63688000  0.86308000  1.0
  O  O53  1  0.75003000  0.36311000  0.13692000  1.0
  O  O54  1  0.48119000  0.28548000  0.27306000  1.0
  O  O55  1  0.01872000  0.22689000  0.21448000  1.0
  O  O56  1  0.51880000  0.71451000  0.72694000  1.0
  O  O57  1  0.98128000  0.77311000  0.78552000  1.0
