# generated using pymatgen
data_PrH7C14(NO4)2
_symmetry_space_group_name_H-M   'P 1'
_cell_length_a   8.39704000
_cell_length_b   12.41680000
_cell_length_c   13.79700000
_cell_angle_alpha   102.34600000
_cell_angle_beta   90.00000000
_cell_angle_gamma   89.99990000
_symmetry_Int_Tables_number   1
_chemical_formula_structural   PrH7C14(NO4)2
_chemical_formula_sum   'Pr4 H28 C56 N8 O32'
_cell_volume   1405.26821808
_cell_formula_units_Z   4
loop_
 _symmetry_equiv_pos_site_id
 _symmetry_equiv_pos_as_xyz
  1  'x, y, z'
loop_
 _atom_site_type_symbol
 _atom_site_label
 _atom_site_symmetry_multiplicity
 _atom_site_fract_x
 _atom_site_fract_y
 _atom_site_fract_z
 _atom_site_occupancy
  Pr  Pr0  1  0.22735000  0.29618000  0.68262000  1.0
  Pr  Pr1  1  0.72735000  0.70382000  0.81738000  1.0
  Pr  Pr2  1  0.77265000  0.70382000  0.31738000  1.0
  Pr  Pr3  1  0.27265000  0.29619000  0.18262000  1.0
  H  H4  1  0.69809000  0.96859000  0.62128000  1.0
  H  H5  1  0.19807000  0.03140000  0.87872000  1.0
  H  H6  1  0.30192000  0.03140000  0.37872000  1.0
  H  H7  1  0.80193000  0.96860000  0.12128000  1.0
  H  H8  1  0.52358000  0.80201000  0.58857000  1.0
  H  H9  1  0.02356000  0.19798000  0.91143000  1.0
  H  H10  1  0.47643000  0.19799000  0.41143000  1.0
  H  H11  1  0.97644000  0.80202000  0.08857000  1.0
  H  H12  1  0.22383000  0.82848000  0.59206000  1.0
  H  H13  1  0.72382000  0.17151000  0.90794000  1.0
  H  H14  1  0.77617000  0.17152000  0.40794000  1.0
  H  H15  1  0.27618000  0.82849000  0.09206000  1.0
  H  H16  1  0.89666000  0.35074000  0.34174000  1.0
  H  H17  1  0.39666000  0.64928000  0.15827000  1.0
  H  H18  1  0.10333000  0.64926000  0.65826000  1.0
  H  H19  1  0.60333000  0.35073000  0.84173000  1.0
  H  H20  1  0.64660000  0.43124000  0.42681000  1.0
  H  H21  1  0.14660000  0.56877000  0.07319000  1.0
  H  H22  1  0.35339000  0.56876000  0.57319000  1.0
  H  H23  1  0.85340000  0.43123000  0.92681000  1.0
  H  H24  1  0.63833000  0.47824000  0.61423000  1.0
  H  H25  1  0.13832000  0.52176000  0.88577000  1.0
  H  H26  1  0.36167000  0.52176000  0.38577000  1.0
  H  H27  1  0.86168000  0.47824000  0.11423000  1.0
  H  H28  1  0.90506000  0.14197000  0.65635000  1.0
  H  H29  1  0.40504000  0.85803000  0.84364000  1.0
  H  H30  1  0.09495000  0.85803000  0.34365000  1.0
  H  H31  1  0.59496000  0.14198000  0.15636000  1.0
  C  C32  1  0.49840000  0.08119000  0.64139000  1.0
  C  C33  1  0.99838000  0.91880000  0.85861000  1.0
  C  C34  1  0.50161000  0.91881000  0.35861000  1.0
  C  C35  1  0.00162000  0.08120000  0.14139000  1.0
  C  C36  1  0.56866000  0.97665000  0.62256000  1.0
  C  C37  1  0.06864000  0.02334000  0.87744000  1.0
  C  C38  1  0.43135000  0.02335000  0.37744000  1.0
  C  C39  1  0.93135000  0.97666000  0.12256000  1.0
  C  C40  1  0.47026000  0.88381000  0.60483000  1.0
  C  C41  1  0.97024000  0.11618000  0.89517000  1.0
  C  C42  1  0.52975000  0.11618000  0.39517000  1.0
  C  C43  1  0.02976000  0.88382000  0.10483000  1.0
  C  C44  1  0.30572000  0.89789000  0.60587000  1.0
  C  C45  1  0.80570000  0.10210000  0.89413000  1.0
  C  C46  1  0.69429000  0.10210000  0.39414000  1.0
  C  C47  1  0.19430000  0.89790000  0.10587000  1.0
  C  C48  1  0.24503000  0.00491000  0.62547000  1.0
  C  C49  1  0.74502000  0.99508000  0.87453000  1.0
  C  C50  1  0.75497000  0.99508000  0.37453000  1.0
  C  C51  1  0.25498000  0.00492000  0.12547000  1.0
  C  C52  1  0.59489000  0.18729000  0.66131000  1.0
  C  C53  1  0.09487000  0.81270000  0.83869000  1.0
  C  C54  1  0.40512000  0.81270000  0.33870000  1.0
  C  C55  1  0.90513000  0.18730000  0.16131000  1.0
  C  C56  1  0.06881000  0.02315000  0.62727000  1.0
  C  C57  1  0.56881000  0.97683000  0.87272000  1.0
  C  C58  1  0.93119000  0.97684000  0.37273000  1.0
  C  C59  1  0.43119000  0.02317000  0.12727000  1.0
  C  C60  1  0.01177000  0.34240000  0.47992000  1.0
  C  C61  1  0.51176000  0.65760000  0.02009000  1.0
  C  C62  1  0.98823000  0.65759000  0.52008000  1.0
  C  C63  1  0.48823000  0.34241000  0.97991000  1.0
  C  C64  1  0.88604000  0.36753000  0.42234000  1.0
  C  C65  1  0.38604000  0.63248000  0.07766000  1.0
  C  C66  1  0.11395000  0.63246000  0.57766000  1.0
  C  C67  1  0.61396000  0.36753000  0.92234000  1.0
  C  C68  1  0.74762000  0.41394000  0.47056000  1.0
  C  C69  1  0.24761000  0.58607000  0.02944000  1.0
  C  C70  1  0.25238000  0.58606000  0.52944000  1.0
  C  C71  1  0.75238000  0.41393000  0.97056000  1.0
  C  C72  1  0.74169000  0.43891000  0.57388000  1.0
  C  C73  1  0.24169000  0.56109000  0.92612000  1.0
  C  C74  1  0.25831000  0.56109000  0.42612000  1.0
  C  C75  1  0.75831000  0.43891000  0.07388000  1.0
  C  C76  1  0.87335000  0.41178000  0.62574000  1.0
  C  C77  1  0.37334000  0.58822000  0.87426000  1.0
  C  C78  1  0.12665000  0.58823000  0.37426000  1.0
  C  C79  1  0.62666000  0.41178000  0.12574000  1.0
  C  C80  1  0.16907000  0.29273000  0.43937000  1.0
  C  C81  1  0.66907000  0.70727000  0.06062000  1.0
  C  C82  1  0.83092000  0.70727000  0.56063000  1.0
  C  C83  1  0.33092000  0.29273000  0.93938000  1.0
  C  C84  1  0.88678000  0.43821000  0.73722000  1.0
  C  C85  1  0.38678000  0.56179000  0.76278000  1.0
  C  C86  1  0.11322000  0.56179000  0.26278000  1.0
  C  C87  1  0.61322000  0.43821000  0.23722000  1.0
  N  N88  1  0.33925000  0.09441000  0.64308000  1.0
  N  N89  1  0.83924000  0.90558000  0.85692000  1.0
  N  N90  1  0.66075000  0.90559000  0.35692000  1.0
  N  N91  1  0.16076000  0.09442000  0.14308000  1.0
  N  N92  1  0.00227000  0.36218000  0.57937000  1.0
  N  N93  1  0.50226000  0.63782000  0.92063000  1.0
  N  N94  1  0.99773000  0.63782000  0.42062000  1.0
  N  N95  1  0.49773000  0.36219000  0.07937000  1.0
  O  O96  1  0.51674000  0.27668000  0.66976000  1.0
  O  O97  1  0.01673000  0.72332000  0.83025000  1.0
  O  O98  1  0.48326000  0.72332000  0.33025000  1.0
  O  O99  1  0.98327000  0.27669000  0.16975000  1.0
  O  O100  1  0.74386000  0.18265000  0.67023000  1.0
  O  O101  1  0.24385000  0.81734000  0.82976000  1.0
  O  O102  1  0.25615000  0.81735000  0.32977000  1.0
  O  O103  1  0.75615000  0.18266000  0.17024000  1.0
  O  O104  1  0.97178000  0.94808000  0.60812000  1.0
  O  O105  1  0.47177000  0.05191000  0.89187000  1.0
  O  O106  1  0.02823000  0.05192000  0.39188000  1.0
  O  O107  1  0.52823000  0.94809000  0.10812000  1.0
  O  O108  1  0.26454000  0.26654000  0.50212000  1.0
  O  O109  1  0.76454000  0.73346000  0.99788000  1.0
  O  O110  1  0.73545000  0.73346000  0.49788000  1.0
  O  O111  1  0.23546000  0.26654000  0.00212000  1.0
  O  O112  1  0.19827000  0.28193000  0.34790000  1.0
  O  O113  1  0.69827000  0.71807000  0.15211000  1.0
  O  O114  1  0.80172000  0.71807000  0.65210000  1.0
  O  O115  1  0.30172000  0.28193000  0.84789000  1.0
  O  O116  1  0.98922000  0.38551000  0.77626000  1.0
  O  O117  1  0.48921000  0.61448000  0.72374000  1.0
  O  O118  1  0.01078000  0.61448000  0.22374000  1.0
  O  O119  1  0.51079000  0.38552000  0.27626000  1.0
  O  O120  1  0.79833000  0.51427000  0.78518000  1.0
  O  O121  1  0.29832000  0.48573000  0.71482000  1.0
  O  O122  1  0.20167000  0.48573000  0.21482000  1.0
  O  O123  1  0.70168000  0.51427000  0.28518000  1.0
  O  O124  1  0.02875000  0.13077000  0.65269000  1.0
  O  O125  1  0.52873000  0.86921000  0.84731000  1.0
  O  O126  1  0.97126000  0.86923000  0.34732000  1.0
  O  O127  1  0.47127000  0.13079000  0.15269000  1.0
