# generated using pymatgen
data_ZnPH7C4N2O3
_symmetry_space_group_name_H-M   'P 1'
_cell_length_a   5.21213000
_cell_length_b   9.57040000
_cell_length_c   14.72460000
_cell_angle_alpha   89.99880000
_cell_angle_beta   89.99950000
_cell_angle_gamma   89.99900000
_symmetry_Int_Tables_number   1
_chemical_formula_structural   ZnPH7C4N2O3
_chemical_formula_sum   'Zn4 P4 H28 C16 N8 O12'
_cell_volume   734.49498465
_cell_formula_units_Z   4
loop_
 _symmetry_equiv_pos_site_id
 _symmetry_equiv_pos_as_xyz
  1  'x, y, z'
loop_
 _atom_site_type_symbol
 _atom_site_label
 _atom_site_symmetry_multiplicity
 _atom_site_fract_x
 _atom_site_fract_y
 _atom_site_fract_z
 _atom_site_occupancy
  Zn  Zn0  1  0.56472000  0.60862000  0.07311000  1.0
  Zn  Zn1  1  0.93524000  0.39138000  0.57312000  1.0
  Zn  Zn2  1  0.43522000  0.10864000  0.42688000  1.0
  Zn  Zn3  1  0.06477000  0.89136000  0.92687000  1.0
  P  P4  1  0.56025000  0.73360000  0.87204000  1.0
  P  P5  1  0.93974000  0.26639000  0.37205000  1.0
  P  P6  1  0.43974000  0.23360000  0.62795000  1.0
  P  P7  1  0.06021000  0.76640000  0.12794000  1.0
  H  H8  1  0.65051000  0.67842000  0.78902000  1.0
  H  H9  1  0.84950000  0.32158000  0.28903000  1.0
  H  H10  1  0.34951000  0.17844000  0.71098000  1.0
  H  H11  1  0.15041000  0.82155000  0.21097000  1.0
  H  H12  1  0.36983000  0.08688000  0.22558000  1.0
  H  H13  1  0.13021000  0.91312000  0.72555000  1.0
  H  H14  1  0.63018000  0.58688000  0.27443000  1.0
  H  H15  1  0.86979000  0.41313000  0.77445000  1.0
  H  H16  1  0.68646000  0.01685000  0.22902000  1.0
  H  H17  1  0.81360000  0.98314000  0.72902000  1.0
  H  H18  1  0.31355000  0.51685000  0.27098000  1.0
  H  H19  1  0.18645000  0.48316000  0.77097000  1.0
  H  H20  1  0.48764000  0.98505000  0.13199000  1.0
  H  H21  1  0.01238000  0.01495000  0.63199000  1.0
  H  H22  1  0.51238000  0.48506000  0.36801000  1.0
  H  H23  1  0.98766000  0.51496000  0.86802000  1.0
  H  H24  1  0.33246000  0.33184000  0.17666000  1.0
  H  H25  1  0.16760000  0.66817000  0.67665000  1.0
  H  H26  1  0.66757000  0.83184000  0.32335000  1.0
  H  H27  1  0.83241000  0.16818000  0.82334000  1.0
  H  H28  1  0.03004000  0.39700000  0.03731000  1.0
  H  H29  1  0.47001000  0.60300000  0.53730000  1.0
  H  H30  1  0.96998000  0.89699000  0.46270000  1.0
  H  H31  1  0.52998000  0.10298000  0.96269000  1.0
  H  H32  1  0.99299000  0.11457000  0.08885000  1.0
  H  H33  1  0.50703000  0.88544000  0.58884000  1.0
  H  H34  1  0.00702000  0.61457000  0.41116000  1.0
  H  H35  1  0.49297000  0.38542000  0.91116000  1.0
  C  C36  1  0.53862000  0.06079000  0.18472000  1.0
  C  C37  1  0.96141000  0.93920000  0.68471000  1.0
  C  C38  1  0.46138000  0.56080000  0.31529000  1.0
  C  C39  1  0.03861000  0.43922000  0.81528000  1.0
  C  C40  1  0.51712000  0.31424000  0.14490000  1.0
  C  C41  1  0.98294000  0.68574000  0.64488000  1.0
  C  C42  1  0.48292000  0.81426000  0.35512000  1.0
  C  C43  1  0.01708000  0.18574000  0.85512000  1.0
  C  C44  1  0.87957000  0.34124000  0.07277000  1.0
  C  C45  1  0.62046000  0.65878000  0.57277000  1.0
  C  C46  1  0.12044000  0.84123000  0.42723000  1.0
  C  C47  1  0.37953000  0.15877000  0.92723000  1.0
  C  C48  1  0.86625000  0.20337000  0.09879000  1.0
  C  C49  1  0.63379000  0.79664000  0.59878000  1.0
  C  C50  1  0.13376000  0.70336000  0.40122000  1.0
  C  C51  1  0.36623000  0.29664000  0.90122000  1.0
  N  N52  1  0.66041000  0.40925000  0.10189000  1.0
  N  N53  1  0.83961000  0.59074000  0.60188000  1.0
  N  N54  1  0.33959000  0.90926000  0.39813000  1.0
  N  N55  1  0.16040000  0.09074000  0.89812000  1.0
  N  N56  1  0.63589000  0.18887000  0.14420000  1.0
  N  N57  1  0.86416000  0.81112000  0.64420000  1.0
  N  N58  1  0.36415000  0.68888000  0.35580000  1.0
  N  N59  1  0.13582000  0.31113000  0.85580000  1.0
  O  O60  1  0.61784000  0.61742000  0.94142000  1.0
  O  O61  1  0.88209000  0.38256000  0.44142000  1.0
  O  O62  1  0.38214000  0.11740000  0.55858000  1.0
  O  O63  1  0.11787000  0.88258000  0.05857000  1.0
  O  O64  1  0.70514000  0.87082000  0.89081000  1.0
  O  O65  1  0.79485000  0.12917000  0.39082000  1.0
  O  O66  1  0.29491000  0.37085000  0.60918000  1.0
  O  O67  1  0.20507000  0.62915000  0.10918000  1.0
  O  O68  1  0.27258000  0.75995000  0.85609000  1.0
  O  O69  1  0.22743000  0.24005000  0.35611000  1.0
  O  O70  1  0.72741000  0.25994000  0.64391000  1.0
  O  O71  1  0.77253000  0.74007000  0.14388000  1.0
