# generated using pymatgen
data_AgH7C12O7
_symmetry_space_group_name_H-M   'P 1'
_cell_length_a   5.33654000
_cell_length_b   15.23540000
_cell_length_c   16.97400000
_cell_angle_alpha   65.84010000
_cell_angle_beta   82.66480000
_cell_angle_gamma   86.33770000
_symmetry_Int_Tables_number   1
_chemical_formula_structural   AgH7C12O7
_chemical_formula_sum   'Ag4 H28 C48 O28'
_cell_volume   1248.76787883
_cell_formula_units_Z   4
loop_
 _symmetry_equiv_pos_site_id
 _symmetry_equiv_pos_as_xyz
  1  'x, y, z'
loop_
 _atom_site_type_symbol
 _atom_site_label
 _atom_site_symmetry_multiplicity
 _atom_site_fract_x
 _atom_site_fract_y
 _atom_site_fract_z
 _atom_site_occupancy
  Ag  Ag0  1  0.53373000  0.69990000  0.52057000  1.0
  Ag  Ag1  1  0.46627000  0.30009000  0.47943000  1.0
  Ag  Ag2  1  0.92379000  0.80615000  0.52606000  1.0
  Ag  Ag3  1  0.07622000  0.19384000  0.47392000  1.0
  H  H4  1  0.36131000  0.69873000  0.84265000  1.0
  H  H5  1  0.63870000  0.30127000  0.15735000  1.0
  H  H6  1  0.39361000  0.85993000  0.98355000  1.0
  H  H7  1  0.60639000  0.14007000  0.01644000  1.0
  H  H8  1  0.70451000  0.99515000  0.92376000  1.0
  H  H9  1  0.29549000  0.00485000  0.07624000  1.0
  H  H10  1  0.08830000  0.07300000  0.81828000  1.0
  H  H11  1  0.91170000  0.92701000  0.18172000  1.0
  H  H12  1  0.43388000  0.06637000  0.71034000  1.0
  H  H13  1  0.56612000  0.93363000  0.28966000  1.0
  H  H14  1  0.82159000  0.96902000  0.57428000  1.0
  H  H15  1  0.17841000  0.03097000  0.42572000  1.0
  H  H16  1  0.77630000  0.02014000  0.65234000  1.0
  H  H17  1  0.22371000  0.97986000  0.34765000  1.0
  H  H18  1  0.00908000  0.25353000  0.67786000  1.0
  H  H19  1  0.99090000  0.74647000  0.32214000  1.0
  H  H20  1  0.88253000  0.28031000  0.98549000  1.0
  H  H21  1  0.11747000  0.71968000  0.01451000  1.0
  H  H22  1  0.18091000  0.41550000  0.94192000  1.0
  H  H23  1  0.81908000  0.58451000  0.05808000  1.0
  H  H24  1  0.55791000  0.50635000  0.84525000  1.0
  H  H25  1  0.44209000  0.49365000  0.15474000  1.0
  H  H26  1  0.91123000  0.52211000  0.73243000  1.0
  H  H27  1  0.08876000  0.47789000  0.26757000  1.0
  H  H28  1  0.27414000  0.47487000  0.55905000  1.0
  H  H29  1  0.72586000  0.52512000  0.44095000  1.0
  H  H30  1  0.25629000  0.49447000  0.65641000  1.0
  H  H31  1  0.74369000  0.50552000  0.34360000  1.0
  C  C32  1  0.18412000  0.76121000  0.73910000  1.0
  C  C33  1  0.81590000  0.23880000  0.26090000  1.0
  C  C34  1  0.16102000  0.84910000  0.75950000  1.0
  C  C35  1  0.83899000  0.15090000  0.24050000  1.0
  C  C36  1  0.96133000  0.85759000  0.81737000  1.0
  C  C37  1  0.03868000  0.14241000  0.18263000  1.0
  C  C38  1  0.57997000  0.78577000  0.90727000  1.0
  C  C39  1  0.42004000  0.21424000  0.09273000  1.0
  C  C40  1  0.55558000  0.86182000  0.93672000  1.0
  C  C41  1  0.44442000  0.13818000  0.06328000  1.0
  C  C42  1  0.72493000  0.93540000  0.90352000  1.0
  C  C43  1  0.27508000  0.06460000  0.09648000  1.0
  C  C44  1  0.93126000  0.93669000  0.84094000  1.0
  C  C45  1  0.06874000  0.06331000  0.15907000  1.0
  C  C46  1  0.10869000  0.01124000  0.80100000  1.0
  C  C47  1  0.89131000  0.98876000  0.19900000  1.0
  C  C48  1  0.30465000  0.00632000  0.74131000  1.0
  C  C49  1  0.69536000  0.99368000  0.25869000  1.0
  C  C50  1  0.33390000  0.92493000  0.72083000  1.0
  C  C51  1  0.66611000  0.07507000  0.27917000  1.0
  C  C52  1  0.67843000  0.99441000  0.61270000  1.0
  C  C53  1  0.32158000  0.00558000  0.38730000  1.0
  C  C54  1  0.52648000  0.07771000  0.55240000  1.0
  C  C55  1  0.47353000  0.92229000  0.44760000  1.0
  C  C56  1  0.63928000  0.25828000  0.68920000  1.0
  C  C57  1  0.36070000  0.74172000  0.31081000  1.0
  C  C58  1  0.63138000  0.32213000  0.73685000  1.0
  C  C59  1  0.36863000  0.67787000  0.26315000  1.0
  C  C60  1  0.43568000  0.31366000  0.80345000  1.0
  C  C61  1  0.56431000  0.68634000  0.19655000  1.0
  C  C62  1  0.06952000  0.22400000  0.89475000  1.0
  C  C63  1  0.93048000  0.77600000  0.10526000  1.0
  C  C64  1  0.04093000  0.29105000  0.93529000  1.0
  C  C65  1  0.95907000  0.70896000  0.06471000  1.0
  C  C66  1  0.20378000  0.36508000  0.91065000  1.0
  C  C67  1  0.79620000  0.63493000  0.08935000  1.0
  C  C68  1  0.40804000  0.37890000  0.84382000  1.0
  C  C69  1  0.59194000  0.62109000  0.15618000  1.0
  C  C70  1  0.58183000  0.45423000  0.81598000  1.0
  C  C71  1  0.41817000  0.54576000  0.18402000  1.0
  C  C72  1  0.77937000  0.46333000  0.75225000  1.0
  C  C73  1  0.22062000  0.53666000  0.24774000  1.0
  C  C74  1  0.80562000  0.39722000  0.71305000  1.0
  C  C75  1  0.19437000  0.60278000  0.28696000  1.0
  C  C76  1  0.14473000  0.48629000  0.60973000  1.0
  C  C77  1  0.85526000  0.51370000  0.39027000  1.0
  C  C78  1  0.98705000  0.57759000  0.56860000  1.0
  C  C79  1  0.01294000  0.42241000  0.43140000  1.0
  O  O80  1  0.30427000  0.68524000  0.79417000  1.0
  O  O81  1  0.69574000  0.31477000  0.20583000  1.0
  O  O82  1  0.09547000  0.75721000  0.67774000  1.0
  O  O83  1  0.90457000  0.24281000  0.32224000  1.0
  O  O84  1  0.78982000  0.78447000  0.85103000  1.0
  O  O85  1  0.21019000  0.21554000  0.14897000  1.0
  O  O86  1  0.42937000  0.71897000  0.92646000  1.0
  O  O87  1  0.57064000  0.28104000  0.07354000  1.0
  O  O88  1  0.52617000  0.91253000  0.66575000  1.0
  O  O89  1  0.47383000  0.08747000  0.33425000  1.0
  O  O90  1  0.64371000  0.15711000  0.51517000  1.0
  O  O91  1  0.35630000  0.84289000  0.48483000  1.0
  O  O92  1  0.30132000  0.06376000  0.54587000  1.0
  O  O93  1  0.69870000  0.93624000  0.45413000  1.0
  O  O94  1  0.44654000  0.23537000  0.66984000  1.0
  O  O95  1  0.55344000  0.76463000  0.33016000  1.0
  O  O96  1  0.86407000  0.22430000  0.66743000  1.0
  O  O97  1  0.13591000  0.77569000  0.33258000  1.0
  O  O98  1  0.27235000  0.23917000  0.82901000  1.0
  O  O99  1  0.72765000  0.76083000  0.17099000  1.0
  O  O100  1  0.93637000  0.15462000  0.91079000  1.0
  O  O101  1  0.06364000  0.84538000  0.08921000  1.0
  O  O102  1  0.99441000  0.40122000  0.64989000  1.0
  O  O103  1  0.00558000  0.59877000  0.35011000  1.0
  O  O104  1  0.76143000  0.56818000  0.55748000  1.0
  O  O105  1  0.23856000  0.43181000  0.44252000  1.0
  O  O106  1  0.09701000  0.65571000  0.55091000  1.0
  O  O107  1  0.90299000  0.34428000  0.44910000  1.0
