# generated using pymatgen
data_NiH32C34S2(NO)6
_symmetry_space_group_name_H-M   'P 1'
_cell_length_a   6.96215000
_cell_length_b   9.45930000
_cell_length_c   12.78130000
_cell_angle_alpha   73.97960000
_cell_angle_beta   86.07700000
_cell_angle_gamma   83.46470000
_symmetry_Int_Tables_number   1
_chemical_formula_structural   NiH32C34S2(NO)6
_chemical_formula_sum   'Ni1 H32 C34 S2 N6 O6'
_cell_volume   803.18768880
_cell_formula_units_Z   1
loop_
 _symmetry_equiv_pos_site_id
 _symmetry_equiv_pos_as_xyz
  1  'x, y, z'
loop_
 _atom_site_type_symbol
 _atom_site_label
 _atom_site_symmetry_multiplicity
 _atom_site_fract_x
 _atom_site_fract_y
 _atom_site_fract_z
 _atom_site_occupancy
  Ni  Ni0  1  0.50000000  0.50000000  0.00000000  1.0
  H  H1  1  0.87385000  0.41606000  0.93761000  1.0
  H  H2  1  0.12615000  0.58394000  0.06239000  1.0
  H  H3  1  0.84602000  0.42038000  0.06069000  1.0
  H  H4  1  0.15397000  0.57962000  0.93931000  1.0
  H  H5  1  0.56165000  0.88113000  0.05307000  1.0
  H  H6  1  0.43835000  0.11886000  0.94693000  1.0
  H  H7  1  0.64728000  0.13726000  0.05455000  1.0
  H  H8  1  0.35272000  0.86273000  0.94545000  1.0
  H  H9  1  0.92639000  0.14688000  0.16049000  1.0
  H  H10  1  0.07360000  0.85311000  0.83951000  1.0
  H  H11  1  0.37175000  0.78491000  0.27171000  1.0
  H  H12  1  0.62826000  0.21508000  0.72829000  1.0
  H  H13  1  0.18664000  0.80163000  0.37190000  1.0
  H  H14  1  0.81337000  0.19836000  0.62810000  1.0
  H  H15  1  0.15684000  0.57548000  0.54314000  1.0
  H  H16  1  0.84318000  0.42452000  0.45685000  1.0
  H  H17  1  0.65101000  0.61065000  0.31931000  1.0
  H  H18  1  0.34901000  0.38934000  0.68069000  1.0
  H  H19  1  0.18337000  0.27238000  0.06586000  1.0
  H  H20  1  0.81663000  0.72762000  0.93414000  1.0
  H  H21  1  0.19032000  0.05777000  0.26255000  1.0
  H  H22  1  0.80968000  0.94223000  0.73745000  1.0
  H  H23  1  0.62792000  0.34159000  0.24987000  1.0
  H  H24  1  0.37207000  0.65841000  0.75013000  1.0
  H  H25  1  0.02959000  0.16431000  0.44157000  1.0
  H  H26  1  0.97040000  0.83570000  0.55844000  1.0
  H  H27  1  0.17670000  0.31232000  0.40266000  1.0
  H  H28  1  0.82330000  0.68768000  0.59735000  1.0
  H  H29  1  0.10832000  0.24036000  0.54219000  1.0
  H  H30  1  0.89169000  0.75965000  0.45782000  1.0
  H  H31  1  0.27337000  0.01525000  0.65536000  1.0
  H  H32  1  0.72662000  0.98475000  0.34464000  1.0
  C  C33  1  0.75758000  0.62471000  0.13107000  1.0
  C  C34  1  0.24242000  0.37529000  0.86892000  1.0
  C  C35  1  0.80277000  0.76891000  0.14599000  1.0
  C  C36  1  0.19723000  0.23109000  0.85401000  1.0
  C  C37  1  0.68566000  0.89606000  0.09488000  1.0
  C  C38  1  0.31434000  0.10394000  0.90512000  1.0
  C  C39  1  0.72939000  0.03501000  0.09678000  1.0
  C  C40  1  0.27061000  0.96499000  0.90322000  1.0
  C  C41  1  0.88808000  0.04033000  0.15539000  1.0
  C  C42  1  0.11192000  0.95967000  0.84461000  1.0
  C  C43  1  0.96245000  0.78645000  0.20337000  1.0
  C  C44  1  0.03755000  0.21354000  0.79663000  1.0
  C  C45  1  0.27664000  0.72293000  0.33589000  1.0
  C  C46  1  0.72337000  0.27706000  0.66411000  1.0
  C  C47  1  0.39065000  0.60758000  0.42047000  1.0
  C  C48  1  0.60936000  0.39241000  0.57953000  1.0
  C  C49  1  0.30766000  0.54388000  0.52338000  1.0
  C  C50  1  0.69235000  0.45611000  0.47661000  1.0
  C  C51  1  0.58405000  0.56162000  0.39853000  1.0
  C  C52  1  0.41596000  0.43837000  0.60146000  1.0
  C  C53  1  0.27693000  0.25604000  0.13308000  1.0
  C  C54  1  0.72307000  0.74396000  0.86692000  1.0
  C  C55  1  0.27474000  0.15131000  0.23140000  1.0
  C  C56  1  0.72525000  0.84869000  0.76861000  1.0
  C  C57  1  0.50840000  0.29567000  0.22515000  1.0
  C  C58  1  0.49159000  0.70433000  0.77485000  1.0
  C  C59  1  0.46355000  0.09116000  0.39745000  1.0
  C  C60  1  0.53644000  0.90884000  0.60255000  1.0
  C  C61  1  0.32947000  0.10222000  0.48280000  1.0
  C  C62  1  0.67053000  0.89779000  0.51720000  1.0
  C  C63  1  0.15184000  0.21061000  0.46630000  1.0
  C  C64  1  0.84816000  0.78940000  0.53370000  1.0
  C  C65  1  0.37038000  0.00833000  0.58597000  1.0
  C  C66  1  0.62961000  0.99168000  0.41403000  1.0
  S  S67  1  0.11584000  0.63267000  0.27268000  1.0
  S  S68  1  0.88416000  0.36733000  0.72732000  1.0
  N  N69  1  0.42297000  0.34456000  0.12980000  1.0
  N  N70  1  0.57703000  0.65544000  0.87020000  1.0
  N  N71  1  0.42162000  0.17743000  0.28903000  1.0
  N  N72  1  0.57837000  0.82258000  0.71097000  1.0
  N  N73  1  0.99949000  0.92055000  0.20903000  1.0
  N  N74  1  0.00052000  0.07945000  0.79097000  1.0
  O  O75  1  0.58783000  0.62155000  0.10086000  1.0
  O  O76  1  0.41216000  0.37845000  0.89914000  1.0
  O  O77  1  0.79579000  0.37859000  0.00493000  1.0
  O  O78  1  0.20420000  0.62141000  0.99507000  1.0
  O  O79  1  0.89270000  0.51839000  0.14508000  1.0
  O  O80  1  0.10730000  0.48161000  0.85492000  1.0
