# generated using pymatgen
data_Cd2H18C10O13
_symmetry_space_group_name_H-M   'P 1'
_cell_length_a   8.70342000
_cell_length_b   9.35281000
_cell_length_c   10.89720000
_cell_angle_alpha   88.43180000
_cell_angle_beta   83.46280000
_cell_angle_gamma   67.74310000
_symmetry_Int_Tables_number   1
_chemical_formula_structural   Cd2H18C10O13
_chemical_formula_sum   'Cd4 H36 C20 O26'
_cell_volume   815.50064235
_cell_formula_units_Z   2
loop_
 _symmetry_equiv_pos_site_id
 _symmetry_equiv_pos_as_xyz
  1  'x, y, z'
loop_
 _atom_site_type_symbol
 _atom_site_label
 _atom_site_symmetry_multiplicity
 _atom_site_fract_x
 _atom_site_fract_y
 _atom_site_fract_z
 _atom_site_occupancy
  Cd  Cd0  1  0.32134000  0.94968000  0.01145000  1.0
  Cd  Cd1  1  0.67866000  0.05031000  0.98855000  1.0
  Cd  Cd2  1  0.69736000  0.20645000  0.51601000  1.0
  Cd  Cd3  1  0.30264000  0.79356000  0.48399000  1.0
  H  H4  1  0.16174000  0.87066000  0.83798000  1.0
  H  H5  1  0.83826000  0.12934000  0.16202000  1.0
  H  H6  1  0.34852000  0.80615000  0.77507000  1.0
  H  H7  1  0.65148000  0.19385000  0.22493000  1.0
  H  H8  1  0.30036000  0.68610000  0.08649000  1.0
  H  H9  1  0.69964000  0.31389000  0.91352000  1.0
  H  H10  1  0.11609000  0.78181000  0.04462000  1.0
  H  H11  1  0.88391000  0.21819000  0.95538000  1.0
  H  H12  1  0.70896000  0.89403000  0.46933000  1.0
  H  H13  1  0.29103000  0.10598000  0.53067000  1.0
  H  H14  1  0.88711000  0.90961000  0.42432000  1.0
  H  H15  1  0.11289000  0.09040000  0.57569000  1.0
  H  H16  1  0.87221000  0.14886000  0.74282000  1.0
  H  H17  1  0.12779000  0.85114000  0.25718000  1.0
  H  H18  1  0.93867000  0.99217000  0.66318000  1.0
  H  H19  1  0.06132000  0.00784000  0.33682000  1.0
  H  H20  1  0.52189000  0.45397000  0.33018000  1.0
  H  H21  1  0.47811000  0.54604000  0.66982000  1.0
  H  H22  1  0.42148000  0.35147000  0.38176000  1.0
  H  H23  1  0.57852000  0.64853000  0.61824000  1.0
  H  H24  1  0.09042000  0.43439000  0.12155000  1.0
  H  H25  1  0.90959000  0.56560000  0.87845000  1.0
  H  H26  1  0.12380000  0.36152000  0.33440000  1.0
  H  H27  1  0.87621000  0.63849000  0.66560000  1.0
  H  H28  1  0.04014000  0.62799000  0.28476000  1.0
  H  H29  1  0.95986000  0.37201000  0.71524000  1.0
  H  H30  1  0.92457000  0.61979000  0.42629000  1.0
  H  H31  1  0.07543000  0.38021000  0.57371000  1.0
  H  H32  1  0.77503000  0.81037000  0.26474000  1.0
  H  H33  1  0.22497000  0.18963000  0.73525000  1.0
  H  H34  1  0.87696000  0.67104000  0.08396000  1.0
  H  H35  1  0.12303000  0.32896000  0.91604000  1.0
  H  H36  1  0.83876000  0.43683000  0.02541000  1.0
  H  H37  1  0.16125000  0.56317000  0.97459000  1.0
  H  H38  1  0.74018000  0.42511000  0.17287000  1.0
  H  H39  1  0.25983000  0.57488000  0.82713000  1.0
  C  C40  1  0.00424000  0.38351000  0.16889000  1.0
  C  C41  1  0.99576000  0.61648000  0.83111000  1.0
  C  C42  1  0.99662000  0.41833000  0.30697000  1.0
  C  C43  1  0.00339000  0.58167000  0.69303000  1.0
  C  C44  1  0.93939000  0.59302000  0.32751000  1.0
  C  C45  1  0.06061000  0.40698000  0.67249000  1.0
  C  C46  1  0.77794000  0.69168000  0.27080000  1.0
  C  C47  1  0.22206000  0.30832000  0.72920000  1.0
  C  C48  1  0.78076000  0.63774000  0.13797000  1.0
  C  C49  1  0.21925000  0.36225000  0.86203000  1.0
  C  C50  1  0.83390000  0.46416000  0.12324000  1.0
  C  C51  1  0.16611000  0.53584000  0.87676000  1.0
  C  C52  1  0.08973000  0.21423000  0.13242000  1.0
  C  C53  1  0.91027000  0.78576000  0.86759000  1.0
  C  C54  1  0.89155000  0.34392000  0.38538000  1.0
  C  C55  1  0.10845000  0.65608000  0.61463000  1.0
  C  C56  1  0.61917000  0.71056000  0.35500000  1.0
  C  C57  1  0.38083000  0.28944000  0.64500000  1.0
  C  C58  1  0.61945000  0.72816000  0.08329000  1.0
  C  C59  1  0.38055000  0.27184000  0.91671000  1.0
  O  O60  1  0.26423000  0.89305000  0.82588000  1.0
  O  O61  1  0.73577000  0.10695000  0.17412000  1.0
  O  O62  1  0.19510000  0.77488000  0.10726000  1.0
  O  O63  1  0.80490000  0.22511000  0.89274000  1.0
  O  O64  1  0.78604000  0.94716000  0.48459000  1.0
  O  O65  1  0.21395000  0.05285000  0.51541000  1.0
  O  O66  1  0.90794000  0.10542000  0.65741000  1.0
  O  O67  1  0.09206000  0.89458000  0.34259000  1.0
  O  O68  1  0.52768000  0.34612000  0.33737000  1.0
  O  O69  1  0.47232000  0.65388000  0.66263000  1.0
  O  O70  1  0.02524000  0.15440000  0.05656000  1.0
  O  O71  1  0.97477000  0.84559000  0.94345000  1.0
  O  O72  1  0.23154000  0.13891000  0.16702000  1.0
  O  O73  1  0.76847000  0.86109000  0.83298000  1.0
  O  O74  1  0.90563000  0.20789000  0.35370000  1.0
  O  O75  1  0.09437000  0.79211000  0.64630000  1.0
  O  O76  1  0.79388000  0.41547000  0.47860000  1.0
  O  O77  1  0.20612000  0.58453000  0.52140000  1.0
  O  O78  1  0.51565000  0.65251000  0.32730000  1.0
  O  O79  1  0.48435000  0.34750000  0.67270000  1.0
  O  O80  1  0.58705000  0.79644000  0.45142000  1.0
  O  O81  1  0.41295000  0.20356000  0.54858000  1.0
  O  O82  1  0.56756000  0.87773000  0.09391000  1.0
  O  O83  1  0.43244000  0.12226000  0.90609000  1.0
  O  O84  1  0.54221000  0.66264000  0.03078000  1.0
  O  O85  1  0.45780000  0.33735000  0.96921000  1.0
