# generated using pymatgen
data_LaCrH26C42N12O
_symmetry_space_group_name_H-M   'P 1'
_cell_length_a   10.96740000
_cell_length_b   13.14260000
_cell_length_c   16.42490000
_cell_angle_alpha   73.36450000
_cell_angle_beta   82.66380000
_cell_angle_gamma   70.76830000
_symmetry_Int_Tables_number   1
_chemical_formula_structural   LaCrH26C42N12O
_chemical_formula_sum   'La2 Cr2 H52 C84 N24 O2'
_cell_volume   2140.34814804
_cell_formula_units_Z   2
loop_
 _symmetry_equiv_pos_site_id
 _symmetry_equiv_pos_as_xyz
  1  'x, y, z'
loop_
 _atom_site_type_symbol
 _atom_site_label
 _atom_site_symmetry_multiplicity
 _atom_site_fract_x
 _atom_site_fract_y
 _atom_site_fract_z
 _atom_site_occupancy
  La  La0  1  0.99251000  0.30633000  0.25940000  1.0
  La  La1  1  0.00749000  0.69366000  0.74060000  1.0
  Cr  Cr2  1  0.52434000  0.23493000  0.22803000  1.0
  Cr  Cr3  1  0.47567000  0.76509000  0.77194000  1.0
  H  H4  1  0.20717000  0.47658000  0.22374000  1.0
  H  H5  1  0.79286000  0.52339000  0.77627000  1.0
  H  H6  1  0.20633000  0.67291000  0.17203000  1.0
  H  H7  1  0.79374000  0.32705000  0.82797000  1.0
  H  H8  1  0.02269000  0.81379000  0.08269000  1.0
  H  H9  1  0.97739000  0.18618000  0.91731000  1.0
  H  H10  1  0.81750000  0.85173000  0.01034000  1.0
  H  H11  1  0.18258000  0.14826000  0.98968000  1.0
  H  H12  1  0.66852000  0.77695000  0.95886000  1.0
  H  H13  1  0.33152000  0.22309000  0.04116000  1.0
  H  H14  1  0.61059000  0.61505000  0.94659000  1.0
  H  H15  1  0.38943000  0.38498000  0.05341000  1.0
  H  H16  1  0.65378000  0.40712000  0.98698000  1.0
  H  H17  1  0.34626000  0.59291000  0.01296000  1.0
  H  H18  1  0.82220000  0.28857000  0.08943000  1.0
  H  H19  1  0.17785000  0.71145000  0.91052000  1.0
  H  H20  1  0.22035000  0.29633000  0.39394000  1.0
  H  H21  1  0.77965000  0.70368000  0.60606000  1.0
  H  H22  1  0.29669000  0.41075000  0.45724000  1.0
  H  H23  1  0.70330000  0.58927000  0.54275000  1.0
  H  H24  1  0.15105000  0.60600000  0.45824000  1.0
  H  H25  1  0.84891000  0.39400000  0.54177000  1.0
  H  H26  1  0.94056000  0.75252000  0.42200000  1.0
  H  H27  1  0.05937000  0.24746000  0.57803000  1.0
  H  H28  1  0.72954000  0.82236000  0.35119000  1.0
  H  H29  1  0.27038000  0.17760000  0.64886000  1.0
  H  H30  1  0.58047000  0.79424000  0.26752000  1.0
  H  H31  1  0.41946000  0.20570000  0.73253000  1.0
  H  H32  1  0.52212000  0.66211000  0.20131000  1.0
  H  H33  1  0.47787000  0.33783000  0.79870000  1.0
  H  H34  1  0.67304000  0.47389000  0.21324000  1.0
  H  H35  1  0.32699000  0.52608000  0.78674000  1.0
  H  H36  1  0.29292000  0.08844000  0.31412000  1.0
  H  H37  1  0.70709000  0.91158000  0.68589000  1.0
  H  H38  1  0.43212000  0.96200000  0.43217000  1.0
  H  H39  1  0.56789000  0.03803000  0.56784000  1.0
  H  H40  1  0.33797000  0.93687000  0.58183000  1.0
  H  H41  1  0.66202000  0.06313000  0.41818000  1.0
  H  H42  1  0.14568000  0.97455000  0.67727000  1.0
  H  H43  1  0.85427000  0.02541000  0.32273000  1.0
  H  H44  1  0.91018000  0.06514000  0.69876000  1.0
  H  H45  1  0.08979000  0.93483000  0.30124000  1.0
  H  H46  1  0.70099000  0.19369000  0.63908000  1.0
  H  H47  1  0.29899000  0.80634000  0.36091000  1.0
  H  H48  1  0.57518000  0.32006000  0.51036000  1.0
  H  H49  1  0.42481000  0.67999000  0.48963000  1.0
  H  H50  1  0.69114000  0.35146000  0.37058000  1.0
  H  H51  1  0.30885000  0.64855000  0.62941000  1.0
  H  H52  1  0.99627000  0.13784000  0.15562000  1.0
  H  H53  1  0.00378000  0.86217000  0.84437000  1.0
  H  H54  1  0.12531000  0.16808000  0.12869000  1.0
  H  H55  1  0.87471000  0.83198000  0.87127000  1.0
  C  C56  1  0.33769000  0.25587000  0.21235000  1.0
  C  C57  1  0.66230000  0.74415000  0.78765000  1.0
  C  C58  1  0.70646000  0.22655000  0.24418000  1.0
  C  C59  1  0.29356000  0.77342000  0.75579000  1.0
  C  C60  1  0.58392000  0.21715000  0.10901000  1.0
  C  C61  1  0.41603000  0.78289000  0.89095000  1.0
  C  C62  1  0.55336000  0.06776000  0.26846000  1.0
  C  C63  1  0.44663000  0.93226000  0.73152000  1.0
  C  C64  1  0.48102000  0.24277000  0.35081000  1.0
  C  C65  1  0.51901000  0.75727000  0.64916000  1.0
  C  C66  1  0.47755000  0.40459000  0.19191000  1.0
  C  C67  1  0.52249000  0.59543000  0.80805000  1.0
  C  C68  1  0.13092000  0.53738000  0.18277000  1.0
  C  C69  1  0.86911000  0.46259000  0.81724000  1.0
  C  C70  1  0.12885000  0.64947000  0.15454000  1.0
  C  C71  1  0.87120000  0.35050000  0.84546000  1.0
  C  C72  1  0.02958000  0.72550000  0.10427000  1.0
  C  C73  1  0.97048000  0.27447000  0.89573000  1.0
  C  C74  1  0.93772000  0.68812000  0.07815000  1.0
  C  C75  1  0.06232000  0.31187000  0.92186000  1.0
  C  C76  1  0.83256000  0.76196000  0.02548000  1.0
  C  C77  1  0.16749000  0.23804000  0.97454000  1.0
  C  C78  1  0.75022000  0.72144000  0.99763000  1.0
  C  C79  1  0.24981000  0.27858000  0.00239000  1.0
  C  C80  1  0.76774000  0.60393000  0.01983000  1.0
  C  C81  1  0.23227000  0.39609000  0.98018000  1.0
  C  C82  1  0.68811000  0.55937000  0.98858000  1.0
  C  C83  1  0.31190000  0.44066000  0.01142000  1.0
  C  C84  1  0.71052000  0.44549000  0.01127000  1.0
  C  C85  1  0.28951000  0.55454000  0.98870000  1.0
  C  C86  1  0.80792000  0.37803000  0.06858000  1.0
  C  C87  1  0.19211000  0.62199000  0.93138000  1.0
  C  C88  1  0.86627000  0.52881000  0.07592000  1.0
  C  C89  1  0.13375000  0.47120000  0.92408000  1.0
  C  C90  1  0.95173000  0.57196000  0.10641000  1.0
  C  C91  1  0.04830000  0.42803000  0.89361000  1.0
  C  C92  1  0.15764000  0.37992000  0.39461000  1.0
  C  C93  1  0.84235000  0.62008000  0.60540000  1.0
  C  C94  1  0.20116000  0.44612000  0.43063000  1.0
  C  C95  1  0.79882000  0.55389000  0.56937000  1.0
  C  C96  1  0.12144000  0.55210000  0.43049000  1.0
  C  C97  1  0.87853000  0.44790000  0.56952000  1.0
  C  C98  1  0.99916000  0.59193000  0.39382000  1.0
  C  C99  1  0.00081000  0.40806000  0.60620000  1.0
  C  C100  1  0.91206000  0.70063000  0.39191000  1.0
  C  C101  1  0.08789000  0.29935000  0.60812000  1.0
  C  C102  1  0.79628000  0.73899000  0.35371000  1.0
  C  C103  1  0.20366000  0.26097000  0.64633000  1.0
  C  C104  1  0.75909000  0.66997000  0.31453000  1.0
  C  C105  1  0.24086000  0.32998000  0.68551000  1.0
  C  C106  1  0.64193000  0.70864000  0.27144000  1.0
  C  C107  1  0.35801000  0.29130000  0.72861000  1.0
  C  C108  1  0.61057000  0.63799000  0.23531000  1.0
  C  C109  1  0.38940000  0.36196000  0.76472000  1.0
  C  C110  1  0.69718000  0.53018000  0.24152000  1.0
  C  C111  1  0.30283000  0.46978000  0.75848000  1.0
  C  C112  1  0.84150000  0.55991000  0.31711000  1.0
  C  C113  1  0.15847000  0.44005000  0.68291000  1.0
  C  C114  1  0.96360000  0.51989000  0.35784000  1.0
  C  C115  1  0.03638000  0.48010000  0.64218000  1.0
  C  C116  1  0.25268000  0.07731000  0.37892000  1.0
  C  C117  1  0.74732000  0.92270000  0.62109000  1.0
  C  C118  1  0.33179000  0.00537000  0.44622000  1.0
  C  C119  1  0.66821000  0.99465000  0.55380000  1.0
  C  C120  1  0.27953000  0.99161000  0.52800000  1.0
  C  C121  1  0.72046000  0.00839000  0.47201000  1.0
  C  C122  1  0.14747000  0.04739000  0.54133000  1.0
  C  C123  1  0.85251000  0.95260000  0.45867000  1.0
  C  C124  1  0.08641000  0.03034000  0.62426000  1.0
  C  C125  1  0.91356000  0.96964000  0.37573000  1.0
  C  C126  1  0.95752000  0.08066000  0.63588000  1.0
  C  C127  1  0.04245000  0.91932000  0.36411000  1.0
  C  C128  1  0.88133000  0.15538000  0.56588000  1.0
  C  C129  1  0.11864000  0.84462000  0.43411000  1.0
  C  C130  1  0.74806000  0.20987000  0.57614000  1.0
  C  C131  1  0.25192000  0.79014000  0.42385000  1.0
  C  C132  1  0.67905000  0.28063000  0.50629000  1.0
  C  C133  1  0.32094000  0.71940000  0.49371000  1.0
  C  C134  1  0.74458000  0.29768000  0.42670000  1.0
  C  C135  1  0.25541000  0.70233000  0.57329000  1.0
  C  C136  1  0.93973000  0.17756000  0.48261000  1.0
  C  C137  1  0.06025000  0.82243000  0.51739000  1.0
  C  C138  1  0.07489000  0.12025000  0.46963000  1.0
  C  C139  1  0.92509000  0.87974000  0.53037000  1.0
  N  N140  1  0.22734000  0.26785000  0.20850000  1.0
  N  N141  1  0.77266000  0.73218000  0.79153000  1.0
  N  N142  1  0.81116000  0.22907000  0.25000000  1.0
  N  N143  1  0.18888000  0.77088000  0.74996000  1.0
  N  N144  1  0.62474000  0.20521000  0.04136000  1.0
  N  N145  1  0.37510000  0.79489000  0.95858000  1.0
  N  N146  1  0.56144000  0.97252000  0.29294000  1.0
  N  N147  1  0.43857000  0.02748000  0.70704000  1.0
  N  N148  1  0.45793000  0.24609000  0.42214000  1.0
  N  N149  1  0.54211000  0.75396000  0.57783000  1.0
  N  N150  1  0.44619000  0.50275000  0.17397000  1.0
  N  N151  1  0.55385000  0.49727000  0.82599000  1.0
  N  N152  1  0.04392000  0.49953000  0.16147000  1.0
  N  N153  1  0.95610000  0.50045000  0.83854000  1.0
  N  N154  1  0.88264000  0.41684000  0.10220000  1.0
  N  N155  1  0.11738000  0.58317000  0.89778000  1.0
  N  N156  1  0.04317000  0.41479000  0.35908000  1.0
  N  N157  1  0.95682000  0.58520000  0.64093000  1.0
  N  N158  1  0.80976000  0.49197000  0.28000000  1.0
  N  N159  1  0.19024000  0.50800000  0.72000000  1.0
  N  N160  1  0.12883000  0.13585000  0.38910000  1.0
  N  N161  1  0.87117000  0.86415000  0.61090000  1.0
  N  N162  1  0.87083000  0.24988000  0.41462000  1.0
  N  N163  1  0.12916000  0.75011000  0.58537000  1.0
  O  O164  1  0.06894000  0.14758000  0.17757000  1.0
  O  O165  1  0.93111000  0.85245000  0.82240000  1.0
