# generated using pymatgen
data_CdH16C18S3(NO)4
_symmetry_space_group_name_H-M   'P 1'
_cell_length_a   9.04964000
_cell_length_b   10.68300000
_cell_length_c   11.53180000
_cell_angle_alpha   78.18940000
_cell_angle_beta   86.59150000
_cell_angle_gamma   77.31360000
_symmetry_Int_Tables_number   1
_chemical_formula_structural   CdH16C18S3(NO)4
_chemical_formula_sum   'Cd2 H32 C36 S6 N8 O8'
_cell_volume   1064.49706702
_cell_formula_units_Z   2
loop_
 _symmetry_equiv_pos_site_id
 _symmetry_equiv_pos_as_xyz
  1  'x, y, z'
loop_
 _atom_site_type_symbol
 _atom_site_label
 _atom_site_symmetry_multiplicity
 _atom_site_fract_x
 _atom_site_fract_y
 _atom_site_fract_z
 _atom_site_occupancy
  Cd  Cd0  1  0.62321000  0.90852000  0.88957000  1.0
  Cd  Cd1  1  0.37680000  0.09148000  0.11043000  1.0
  H  H2  1  0.95509000  0.52835000  0.78972000  1.0
  H  H3  1  0.04492000  0.47165000  0.21028000  1.0
  H  H4  1  0.03830000  0.65636000  0.71364000  1.0
  H  H5  1  0.96170000  0.34364000  0.28636000  1.0
  H  H6  1  0.91117000  0.16526000  0.08241000  1.0
  H  H7  1  0.08884000  0.83474000  0.91759000  1.0
  H  H8  1  0.98991000  0.99694000  0.11283000  1.0
  H  H9  1  0.01009000  0.00305000  0.88718000  1.0
  H  H10  1  0.75023000  0.77448000  0.14390000  1.0
  H  H11  1  0.24977000  0.22552000  0.85610000  1.0
  H  H12  1  0.73457000  0.59453000  0.30899000  1.0
  H  H13  1  0.26543000  0.40547000  0.69100000  1.0
  H  H14  1  0.37091000  0.51345000  0.12758000  1.0
  H  H15  1  0.62909000  0.48655000  0.87242000  1.0
  H  H16  1  0.40284000  0.70123000  0.96600000  1.0
  H  H17  1  0.59716000  0.29877000  0.03400000  1.0
  H  H18  1  0.42917000  0.46416000  0.38911000  1.0
  H  H19  1  0.57082000  0.53583000  0.61089000  1.0
  H  H20  1  0.49232000  0.35052000  0.29899000  1.0
  H  H21  1  0.50768000  0.64948000  0.70101000  1.0
  H  H22  1  0.70547000  0.44758000  0.44453000  1.0
  H  H23  1  0.29453000  0.55242000  0.55547000  1.0
  H  H24  1  0.75963000  0.32509000  0.36017000  1.0
  H  H25  1  0.24037000  0.67491000  0.63983000  1.0
  H  H26  1  0.47051000  0.19142000  0.45424000  1.0
  H  H27  1  0.52949000  0.80858000  0.54576000  1.0
  H  H28  1  0.46242000  0.02260000  0.63905000  1.0
  H  H29  1  0.53758000  0.97740000  0.36095000  1.0
  H  H30  1  0.79185000  0.14159000  0.79717000  1.0
  H  H31  1  0.20814000  0.85842000  0.20283000  1.0
  H  H32  1  0.81562000  0.31494000  0.62000000  1.0
  H  H33  1  0.18438000  0.68506000  0.38000000  1.0
  C  C34  1  0.81495000  0.72041000  0.78446000  1.0
  C  C35  1  0.18505000  0.27960000  0.21554000  1.0
  C  C36  1  0.93110000  0.62301000  0.72727000  1.0
  C  C37  1  0.06890000  0.37699000  0.27273000  1.0
  C  C38  1  0.88253000  0.72162000  0.48569000  1.0
  C  C39  1  0.11748000  0.27838000  0.51432000  1.0
  C  C40  1  0.88159000  0.92620000  0.35232000  1.0
  C  C41  1  0.11841000  0.07380000  0.64768000  1.0
  C  C42  1  0.89074000  0.07045000  0.13099000  1.0
  C  C43  1  0.10926000  0.92954000  0.86901000  1.0
  C  C44  1  0.74649000  0.04311000  0.08769000  1.0
  C  C45  1  0.25351000  0.95689000  0.91231000  1.0
  C  C46  1  0.66666667  0.71513000  0.14268000  1.0
  C  C47  1  0.33333333  0.28487000  0.85732000  1.0
  C  C48  1  0.65642000  0.61212000  0.23637000  1.0
  C  C49  1  0.34358000  0.38788000  0.76363000  1.0
  C  C50  1  0.54826000  0.53678000  0.23495000  1.0
  C  C51  1  0.45173000  0.46322000  0.76505000  1.0
  C  C52  1  0.45542000  0.56999000  0.13515000  1.0
  C  C53  1  0.54458000  0.43001000  0.86484000  1.0
  C  C54  1  0.47254000  0.67429000  0.04491000  1.0
  C  C55  1  0.52746000  0.32572000  0.95509000  1.0
  C  C56  1  0.52756000  0.42684000  0.33517000  1.0
  C  C57  1  0.47243000  0.57316000  0.66482000  1.0
  C  C58  1  0.66551000  0.37005000  0.41380000  1.0
  C  C59  1  0.33448000  0.62995000  0.58620000  1.0
  C  C60  1  0.64582000  0.26778000  0.52107000  1.0
  C  C61  1  0.35418000  0.73222000  0.47893000  1.0
  C  C62  1  0.54474000  0.18399000  0.52766000  1.0
  C  C63  1  0.45526000  0.81601000  0.47234000  1.0
  C  C64  1  0.53968000  0.08936000  0.63004000  1.0
  C  C65  1  0.46031000  0.91064000  0.36996000  1.0
  C  C66  1  0.72406000  0.15546000  0.71872000  1.0
  C  C67  1  0.27593000  0.84454000  0.28128000  1.0
  C  C68  1  0.73581000  0.25197000  0.61995000  1.0
  C  C69  1  0.26419000  0.74803000  0.38005000  1.0
  S  S70  1  0.87882000  0.58267000  0.59326000  1.0
  S  S71  1  0.12118000  0.41733000  0.40674000  1.0
  S  S72  1  0.86537000  0.88216000  0.50616000  1.0
  S  S73  1  0.13463000  0.11784000  0.49384000  1.0
  S  S74  1  0.88709000  0.08521000  0.28398000  1.0
  S  S75  1  0.11291000  0.91478000  0.71603000  1.0
  N  N76  1  0.89479000  0.71171000  0.37328000  1.0
  N  N77  1  0.10521000  0.28829000  0.62672000  1.0
  N  N78  1  0.89273000  0.82794000  0.29706000  1.0
  N  N79  1  0.10726000  0.17206000  0.70294000  1.0
  N  N80  1  0.57604000  0.74682000  0.04829000  1.0
  N  N81  1  0.42395000  0.25318000  0.95171000  1.0
  N  N82  1  0.62772000  0.07484000  0.72405000  1.0
  N  N83  1  0.37228000  0.92516000  0.27595000  1.0
  O  O84  1  0.86393000  0.75612000  0.87070000  1.0
  O  O85  1  0.13607000  0.24388000  0.12930000  1.0
  O  O86  1  0.68134000  0.76005000  0.74498000  1.0
  O  O87  1  0.31866000  0.23995000  0.25501000  1.0
  O  O88  1  0.75999000  0.01315000  0.98577000  1.0
  O  O89  1  0.24001000  0.98685000  0.01422000  1.0
  O  O90  1  0.62914000  0.05434000  0.15282000  1.0
  O  O91  1  0.37087000  0.94566000  0.84718000  1.0
