# generated using pymatgen
data_GdH12C10NO11
_symmetry_space_group_name_H-M   'P 1'
_cell_length_a   6.07306000
_cell_length_b   15.33750000
_cell_length_c   16.55270000
_cell_angle_alpha   115.08000000
_cell_angle_beta   90.00000000
_cell_angle_gamma   90.00000000
_symmetry_Int_Tables_number   1
_chemical_formula_structural   GdH12C10NO11
_chemical_formula_sum   'Gd4 H48 C40 N4 O44'
_cell_volume   1396.44367529
_cell_formula_units_Z   4
loop_
 _symmetry_equiv_pos_site_id
 _symmetry_equiv_pos_as_xyz
  1  'x, y, z'
loop_
 _atom_site_type_symbol
 _atom_site_label
 _atom_site_symmetry_multiplicity
 _atom_site_fract_x
 _atom_site_fract_y
 _atom_site_fract_z
 _atom_site_occupancy
  Gd  Gd0  1  0.04886000  0.85038000  0.59467000  1.0
  Gd  Gd1  1  0.54885000  0.14961000  0.90532000  1.0
  Gd  Gd2  1  0.95115000  0.14962000  0.40533000  1.0
  Gd  Gd3  1  0.45114000  0.85039000  0.09468000  1.0
  H  H4  1  0.82966000  0.82201000  0.83890000  1.0
  H  H5  1  0.32966000  0.17799000  0.66110000  1.0
  H  H6  1  0.17034000  0.17799000  0.16110000  1.0
  H  H7  1  0.67034000  0.82201000  0.33890000  1.0
  H  H8  1  0.59315000  0.78840000  0.76731000  1.0
  H  H9  1  0.09315000  0.21160000  0.73269000  1.0
  H  H10  1  0.40685000  0.21160000  0.23269000  1.0
  H  H11  1  0.90685000  0.78839000  0.26731000  1.0
  H  H12  1  0.68896000  0.64724000  0.76407000  1.0
  H  H13  1  0.18896000  0.35276000  0.73593000  1.0
  H  H14  1  0.31104000  0.35276000  0.23593000  1.0
  H  H15  1  0.81104000  0.64724000  0.26407000  1.0
  H  H16  1  0.77944000  0.47422000  0.71284000  1.0
  H  H17  1  0.27944000  0.52579000  0.78715000  1.0
  H  H18  1  0.22055000  0.52578000  0.28716000  1.0
  H  H19  1  0.72056000  0.47421000  0.21284000  1.0
  H  H20  1  0.07558000  0.39945000  0.59944000  1.0
  H  H21  1  0.57558000  0.60056000  0.90056000  1.0
  H  H22  1  0.92442000  0.60055000  0.40056000  1.0
  H  H23  1  0.42442000  0.39944000  0.09944000  1.0
  H  H24  1  0.27479000  0.49689000  0.53665000  1.0
  H  H25  1  0.77479000  0.50312000  0.96334000  1.0
  H  H26  1  0.72521000  0.50311000  0.46335000  1.0
  H  H27  1  0.22521000  0.49689000  0.03666000  1.0
  H  H28  1  0.39984000  0.60526000  0.47445000  1.0
  H  H29  1  0.89984000  0.39474000  0.02555000  1.0
  H  H30  1  0.60016000  0.39474000  0.52555000  1.0
  H  H31  1  0.10016000  0.60526000  0.97445000  1.0
  H  H32  1  0.50930000  0.62587000  0.58206000  1.0
  H  H33  1  0.00929000  0.37413000  0.91794000  1.0
  H  H34  1  0.49071000  0.37413000  0.41794000  1.0
  H  H35  1  0.99070000  0.62587000  0.08206000  1.0
  H  H36  1  0.62353000  0.90276000  0.54717000  1.0
  H  H37  1  0.12353000  0.09724000  0.95283000  1.0
  H  H38  1  0.37647000  0.09724000  0.45283000  1.0
  H  H39  1  0.87647000  0.90276000  0.04717000  1.0
  H  H40  1  0.28045000  0.95371000  0.76217000  1.0
  H  H41  1  0.78045000  0.04629000  0.73783000  1.0
  H  H42  1  0.71955000  0.04629000  0.23783000  1.0
  H  H43  1  0.21955000  0.95371000  0.26217000  1.0
  H  H44  1  0.77223000  0.98895000  0.54298000  1.0
  H  H45  1  0.27223000  0.01105000  0.95702000  1.0
  H  H46  1  0.22777000  0.01105000  0.45702000  1.0
  H  H47  1  0.72776000  0.98895000  0.04298000  1.0
  H  H48  1  0.23608000  0.85404000  0.77124000  1.0
  H  H49  1  0.73608000  0.14596000  0.72876000  1.0
  H  H50  1  0.76392000  0.14596000  0.22876000  1.0
  H  H51  1  0.26391000  0.85404000  0.27124000  1.0
  C  C52  1  0.73891000  0.92041000  0.78168000  1.0
  C  C53  1  0.23891000  0.07959000  0.71831000  1.0
  C  C54  1  0.26109000  0.07959000  0.21831000  1.0
  C  C55  1  0.76109000  0.92041000  0.28169000  1.0
  C  C56  1  0.75964000  0.81958000  0.77665000  1.0
  C  C57  1  0.25964000  0.18043000  0.72335000  1.0
  C  C58  1  0.24036000  0.18043000  0.22335000  1.0
  C  C59  1  0.74036000  0.81957000  0.27665000  1.0
  C  C60  1  0.93124000  0.66964000  0.67913000  1.0
  C  C61  1  0.43124000  0.33036000  0.82087000  1.0
  C  C62  1  0.06876000  0.33036000  0.32087000  1.0
  C  C63  1  0.56876000  0.66964000  0.17913000  1.0
  C  C64  1  0.81669000  0.61458000  0.71399000  1.0
  C  C65  1  0.31669000  0.38542000  0.78601000  1.0
  C  C66  1  0.18331000  0.38542000  0.28601000  1.0
  C  C67  1  0.68331000  0.61458000  0.21399000  1.0
  C  C68  1  0.86917000  0.51693000  0.68523000  1.0
  C  C69  1  0.36917000  0.48307000  0.81477000  1.0
  C  C70  1  0.13083000  0.48307000  0.31477000  1.0
  C  C71  1  0.63084000  0.51693000  0.18523000  1.0
  C  C72  1  0.03537000  0.47531000  0.62267000  1.0
  C  C73  1  0.53537000  0.52469000  0.87733000  1.0
  C  C74  1  0.96463000  0.52469000  0.37733000  1.0
  C  C75  1  0.46464000  0.47531000  0.12267000  1.0
  C  C76  1  0.14966000  0.53058000  0.58742000  1.0
  C  C77  1  0.64965000  0.46942000  0.91258000  1.0
  C  C78  1  0.85034000  0.46942000  0.41258000  1.0
  C  C79  1  0.35034000  0.53058000  0.08742000  1.0
  C  C80  1  0.09811000  0.62719000  0.61513000  1.0
  C  C81  1  0.59811000  0.37281000  0.88487000  1.0
  C  C82  1  0.90189000  0.37281000  0.38487000  1.0
  C  C83  1  0.40189000  0.62719000  0.11513000  1.0
  C  C84  1  0.41654000  0.65815000  0.54455000  1.0
  C  C85  1  0.91654000  0.34185000  0.95545000  1.0
  C  C86  1  0.58346000  0.34185000  0.45545000  1.0
  C  C87  1  0.08346000  0.65815000  0.04455000  1.0
  C  C88  1  0.54218000  0.74558000  0.54760000  1.0
  C  C89  1  0.04216000  0.25442000  0.95240000  1.0
  C  C90  1  0.45783000  0.25442000  0.45241000  1.0
  C  C91  1  0.95783000  0.74558000  0.04760000  1.0
  N  N92  1  0.18082000  0.80626000  0.40612000  1.0
  N  N93  1  0.68082000  0.19374000  0.09388000  1.0
  N  N94  1  0.81918000  0.19374000  0.59388000  1.0
  N  N95  1  0.31918000  0.80626000  0.90612000  1.0
  O  O96  1  0.79977000  0.93274000  0.71347000  1.0
  O  O97  1  0.29976000  0.06725000  0.78652000  1.0
  O  O98  1  0.20023000  0.06726000  0.28653000  1.0
  O  O99  1  0.70023000  0.93274000  0.21348000  1.0
  O  O100  1  0.65945000  0.98478000  0.85203000  1.0
  O  O101  1  0.15944000  0.01522000  0.64796000  1.0
  O  O102  1  0.34055000  0.01522000  0.14796000  1.0
  O  O103  1  0.84056000  0.98478000  0.35204000  1.0
  O  O104  1  0.89723000  0.76549000  0.70210000  1.0
  O  O105  1  0.39722000  0.23451000  0.79790000  1.0
  O  O106  1  0.10277000  0.23452000  0.29790000  1.0
  O  O107  1  0.60277000  0.76549000  0.20210000  1.0
  O  O108  1  0.20224000  0.68751000  0.58392000  1.0
  O  O109  1  0.70224000  0.31250000  0.91608000  1.0
  O  O110  1  0.79776000  0.31249000  0.41608000  1.0
  O  O111  1  0.29776000  0.68751000  0.08392000  1.0
  O  O112  1  0.43379000  0.82100000  0.55959000  1.0
  O  O113  1  0.93379000  0.17901000  0.94041000  1.0
  O  O114  1  0.56621000  0.17900000  0.44041000  1.0
  O  O115  1  0.06621000  0.82100000  0.05959000  1.0
  O  O116  1  0.74795000  0.73613000  0.53703000  1.0
  O  O117  1  0.24795000  0.26388000  0.96298000  1.0
  O  O118  1  0.25205000  0.26388000  0.46297000  1.0
  O  O119  1  0.75204000  0.73612000  0.03703000  1.0
  O  O120  1  0.09518000  0.74626000  0.43150000  1.0
  O  O121  1  0.59518000  0.25374000  0.06850000  1.0
  O  O122  1  0.90482000  0.25374000  0.56850000  1.0
  O  O123  1  0.40482000  0.74626000  0.93150000  1.0
  O  O124  1  0.20006000  0.89301000  0.46396000  1.0
  O  O125  1  0.70005000  0.10699000  0.03604000  1.0
  O  O126  1  0.79994000  0.10699000  0.53604000  1.0
  O  O127  1  0.29995000  0.89301000  0.96396000  1.0
  O  O128  1  0.24394000  0.77919000  0.32709000  1.0
  O  O129  1  0.74393000  0.22081000  0.17291000  1.0
  O  O130  1  0.75607000  0.22081000  0.67291000  1.0
  O  O131  1  0.25607000  0.77919000  0.82709000  1.0
  O  O132  1  0.77294000  0.92236000  0.53697000  1.0
  O  O133  1  0.27294000  0.07763000  0.96302000  1.0
  O  O134  1  0.22706000  0.07764000  0.46303000  1.0
  O  O135  1  0.72706000  0.92236000  0.03698000  1.0
  O  O136  1  0.25696000  0.88272000  0.72863000  1.0
  O  O137  1  0.75695000  0.11728000  0.77137000  1.0
  O  O138  1  0.74305000  0.11728000  0.27137000  1.0
  O  O139  1  0.24304000  0.88272000  0.22863000  1.0
