# generated using pymatgen
data_CdH28C32S2(NO)6
_symmetry_space_group_name_H-M   'P 1'
_cell_length_a   8.71542000
_cell_length_b   8.90723000
_cell_length_c   10.94152368
_cell_angle_alpha   67.51245382
_cell_angle_beta   82.62501248
_cell_angle_gamma   74.54210000
_symmetry_Int_Tables_number   1
_chemical_formula_structural   CdH28C32S2(NO)6
_chemical_formula_sum   'Cd1 H28 C32 S2 N6 O6'
_cell_volume   756.08551002
_cell_formula_units_Z   1
loop_
 _symmetry_equiv_pos_site_id
 _symmetry_equiv_pos_as_xyz
  1  'x, y, z'
loop_
 _atom_site_type_symbol
 _atom_site_label
 _atom_site_symmetry_multiplicity
 _atom_site_fract_x
 _atom_site_fract_y
 _atom_site_fract_z
 _atom_site_occupancy
  Cd  Cd0  1  0.50000000  0.00000000  0.00000000  1.0
  H  H1  1  0.55172000  0.06941000  0.68866000  1.0
  H  H2  1  0.44829000  0.93059000  0.31133000  1.0
  H  H3  1  0.74644000  0.96950000  0.52718000  1.0
  H  H4  1  0.25357000  0.03050000  0.47282000  1.0
  H  H5  1  0.00552000  0.77191000  0.61126000  1.0
  H  H6  1  0.99448000  0.22809000  0.38874000  1.0
  H  H7  1  0.87558000  0.82317000  0.98916000  1.0
  H  H8  1  0.12442000  0.17683000  0.01084000  1.0
  H  H9  1  0.10119000  0.61989000  0.97719000  1.0
  H  H10  1  0.89881000  0.38010000  0.02282000  1.0
  H  H11  1  0.09429000  0.52643000  0.86167000  1.0
  H  H12  1  0.90571000  0.47357000  0.13833000  1.0
  H  H13  1  0.54151000  0.73450000  0.71743000  1.0
  H  H14  1  0.45849000  0.26550000  0.28257000  1.0
  H  H15  1  0.79215000  0.50907000  0.76469000  1.0
  H  H16  1  0.20785000  0.49093000  0.23531000  1.0
  H  H17  1  0.78001000  0.21330000  0.90028000  1.0
  H  H18  1  0.22000000  0.78669000  0.09972000  1.0
  H  H19  1  0.29128000  0.35649000  0.95713000  1.0
  H  H20  1  0.70872000  0.64350000  0.04287000  1.0
  H  H21  1  0.37109000  0.38614000  0.66261000  1.0
  H  H22  1  0.62890000  0.61386000  0.33740000  1.0
  H  H23  1  0.90164000  0.20700000  0.65080000  1.0
  H  H24  1  0.09836000  0.79299000  0.34920000  1.0
  H  H25  1  0.66179000  0.33089000  0.51520000  1.0
  H  H26  1  0.33821000  0.66910000  0.48481000  1.0
  H  H27  1  0.25178000  0.80740000  0.76348000  1.0
  H  H28  1  0.74822000  0.19260000  0.23652000  1.0
  C  C29  1  0.67005000  0.99000000  0.71784000  1.0
  C  C30  1  0.32996000  0.01000000  0.28216000  1.0
  C  C31  1  0.77681000  0.93296000  0.62987000  1.0
  C  C32  1  0.22320000  0.06705000  0.37013000  1.0
  C  C33  1  0.92173000  0.82270000  0.67671000  1.0
  C  C34  1  0.07827000  0.17731000  0.32328000  1.0
  C  C35  1  0.95797000  0.77590000  0.80897000  1.0
  C  C36  1  0.04203000  0.22410000  0.19103000  1.0
  C  C37  1  0.84804000  0.84717000  0.88778000  1.0
  C  C38  1  0.15196000  0.15284000  0.11221000  1.0
  C  C39  1  0.10356000  0.64345000  0.87009000  1.0
  C  C40  1  0.89644000  0.35654000  0.12992000  1.0
  C  C41  1  0.39232000  0.56565000  0.83242000  1.0
  C  C42  1  0.60768000  0.43434000  0.16758000  1.0
  C  C43  1  0.53910000  0.60573000  0.77912000  1.0
  C  C44  1  0.46089000  0.39427000  0.22088000  1.0
  C  C45  1  0.67820000  0.48011000  0.80545000  1.0
  C  C46  1  0.32180000  0.51989000  0.19455000  1.0
  C  C47  1  0.67286000  0.31461000  0.88166000  1.0
  C  C48  1  0.32714000  0.68539000  0.11833000  1.0
  C  C49  1  0.39902000  0.39634000  0.91146000  1.0
  C  C50  1  0.60098000  0.60366000  0.08854000  1.0
  C  C51  1  0.26595000  0.44031000  0.60231000  1.0
  C  C52  1  0.73405000  0.55969000  0.39769000  1.0
  C  C53  1  0.15078000  0.35106000  0.62634000  1.0
  C  C54  1  0.84921000  0.64894000  0.37366000  1.0
  C  C55  1  0.00918000  0.41810000  0.55119000  1.0
  C  C56  1  0.99081000  0.58190000  0.44882000  1.0
  C  C57  1  0.88775000  0.33019000  0.57317000  1.0
  C  C58  1  0.11224000  0.66981000  0.42683000  1.0
  C  C59  1  0.75379000  0.39968000  0.49783000  1.0
  C  C60  1  0.24621000  0.60032000  0.50217000  1.0
  S  S61  1  0.18631000  0.14577000  0.75189000  1.0
  S  S62  1  0.81369000  0.85423000  0.24811000  1.0
  N  N63  1  0.70527000  0.94858000  0.84465000  1.0
  N  N64  1  0.29474000  0.05141000  0.15535000  1.0
  N  N65  1  0.25098000  0.68275000  0.80552000  1.0
  N  N66  1  0.74902000  0.31726000  0.19448000  1.0
  N  N67  1  0.53371000  0.27539000  0.93248000  1.0
  N  N68  1  0.46630000  0.72460000  0.06752000  1.0
  O  O69  1  0.33029000  0.13248000  0.81720000  1.0
  O  O70  1  0.66971000  0.86753000  0.18280000  1.0
  O  O71  1  0.21659000  0.03131000  0.67905000  1.0
  O  O72  1  0.78340000  0.96870000  0.32094000  1.0
  O  O73  1  0.04625000  0.13671000  0.84088000  1.0
  O  O74  1  0.95375000  0.86328000  0.15912000  1.0
