# generated using pymatgen
data_EuH24C24(NO2)6
_symmetry_space_group_name_H-M   'P 1'
_cell_length_a   15.93140000
_cell_length_b   15.93140000
_cell_length_c   16.42230000
_cell_angle_alpha   90.00010000
_cell_angle_beta   90.00000000
_cell_angle_gamma   60.00000000
_symmetry_Int_Tables_number   1
_chemical_formula_structural   EuH24C24(NO2)6
_chemical_formula_sum   'Eu4 H96 C96 N24 O48'
_cell_volume   3609.71153228
_cell_formula_units_Z   4
loop_
 _symmetry_equiv_pos_site_id
 _symmetry_equiv_pos_as_xyz
  1  'x, y, z'
loop_
 _atom_site_type_symbol
 _atom_site_label
 _atom_site_symmetry_multiplicity
 _atom_site_fract_x
 _atom_site_fract_y
 _atom_site_fract_z
 _atom_site_occupancy
  Eu  Eu0  1  0.33333333  0.33333333  0.66604000  1.0
  Eu  Eu1  1  0.66666667  0.66666667  0.83396000  1.0
  Eu  Eu2  1  0.66666667  0.66666667  0.33396000  1.0
  Eu  Eu3  1  0.33333333  0.33333333  0.16604000  1.0
  H  H4  1  0.66052000  0.43125000  0.69656000  1.0
  H  H5  1  0.43125000  0.90823000  0.69656000  1.0
  H  H6  1  0.90823000  0.66051000  0.69656000  1.0
  H  H7  1  0.09177000  0.56875000  0.80344000  1.0
  H  H8  1  0.33948000  0.09177000  0.80344000  1.0
  H  H9  1  0.56874000  0.33949000  0.80344000  1.0
  H  H10  1  0.33948000  0.56875000  0.30344000  1.0
  H  H11  1  0.56875000  0.09177000  0.30344000  1.0
  H  H12  1  0.09177000  0.33949000  0.30344000  1.0
  H  H13  1  0.90823000  0.43125000  0.19656000  1.0
  H  H14  1  0.66052000  0.90823000  0.19656000  1.0
  H  H15  1  0.43126000  0.66051000  0.19656000  1.0
  H  H16  1  0.67575000  0.31442000  0.67934000  1.0
  H  H17  1  0.31442000  0.00983000  0.67934000  1.0
  H  H18  1  0.00983000  0.67575000  0.67934000  1.0
  H  H19  1  0.99017000  0.68558000  0.82066000  1.0
  H  H20  1  0.32425000  0.99017000  0.82066000  1.0
  H  H21  1  0.68558000  0.32425000  0.82066000  1.0
  H  H22  1  0.32425000  0.68558000  0.32066000  1.0
  H  H23  1  0.68558000  0.99017000  0.32066000  1.0
  H  H24  1  0.99017000  0.32425000  0.32066000  1.0
  H  H25  1  0.00983000  0.31442000  0.17934000  1.0
  H  H26  1  0.67575000  0.00983000  0.17934000  1.0
  H  H27  1  0.31442000  0.67575000  0.17934000  1.0
  H  H28  1  0.25177000  0.49344000  0.48541000  1.0
  H  H29  1  0.49344000  0.25479000  0.48541000  1.0
  H  H30  1  0.25479000  0.25177000  0.48541000  1.0
  H  H31  1  0.74521000  0.50656000  0.01459000  1.0
  H  H32  1  0.74823000  0.74521000  0.01459000  1.0
  H  H33  1  0.50656000  0.74823000  0.01459000  1.0
  H  H34  1  0.74823000  0.50656000  0.51459000  1.0
  H  H35  1  0.50656000  0.74521000  0.51459000  1.0
  H  H36  1  0.74521000  0.74823000  0.51459000  1.0
  H  H37  1  0.25479000  0.49344000  0.98541000  1.0
  H  H38  1  0.25177000  0.25479000  0.98541000  1.0
  H  H39  1  0.49344000  0.25177000  0.98541000  1.0
  H  H40  1  0.40852000  0.68598000  0.56029000  1.0
  H  H41  1  0.68598000  0.90550000  0.56029000  1.0
  H  H42  1  0.90550000  0.40852000  0.56029000  1.0
  H  H43  1  0.09450000  0.31402000  0.93971000  1.0
  H  H44  1  0.59148000  0.09450000  0.93971000  1.0
  H  H45  1  0.31402000  0.59148000  0.93971000  1.0
  H  H46  1  0.59148000  0.31402000  0.43971000  1.0
  H  H47  1  0.31402000  0.09450000  0.43971000  1.0
  H  H48  1  0.09450000  0.59148000  0.43971000  1.0
  H  H49  1  0.90550000  0.68598000  0.06029000  1.0
  H  H50  1  0.40852000  0.90550000  0.06029000  1.0
  H  H51  1  0.68598000  0.40852000  0.06029000  1.0
  H  H52  1  0.18858000  0.65942000  0.42970000  1.0
  H  H53  1  0.65941000  0.15201000  0.42970000  1.0
  H  H54  1  0.15200000  0.18859000  0.42970000  1.0
  H  H55  1  0.84800000  0.34058000  0.07030000  1.0
  H  H56  1  0.81142000  0.84799000  0.07030000  1.0
  H  H57  1  0.34059000  0.81141000  0.07030000  1.0
  H  H58  1  0.81142000  0.34058000  0.57030000  1.0
  H  H59  1  0.34059000  0.84799000  0.57030000  1.0
  H  H60  1  0.84800000  0.81141000  0.57030000  1.0
  H  H61  1  0.15200000  0.65942000  0.92970000  1.0
  H  H62  1  0.18858000  0.15201000  0.92970000  1.0
  H  H63  1  0.65941000  0.18859000  0.92970000  1.0
  H  H64  1  0.26443000  0.75850000  0.46843000  1.0
  H  H65  1  0.75850000  0.97707000  0.46843000  1.0
  H  H66  1  0.97707000  0.26443000  0.46843000  1.0
  H  H67  1  0.02293000  0.24150000  0.03157000  1.0
  H  H68  1  0.73557000  0.02293000  0.03157000  1.0
  H  H69  1  0.24150000  0.73557000  0.03157000  1.0
  H  H70  1  0.73557000  0.24150000  0.53157000  1.0
  H  H71  1  0.24150000  0.02293000  0.53157000  1.0
  H  H72  1  0.02293000  0.73557000  0.53157000  1.0
  H  H73  1  0.97707000  0.75850000  0.96843000  1.0
  H  H74  1  0.26443000  0.97707000  0.96843000  1.0
  H  H75  1  0.75850000  0.26443000  0.96843000  1.0
  H  H76  1  0.52686000  0.55996000  0.63655000  1.0
  H  H77  1  0.55996000  0.91318000  0.63655000  1.0
  H  H78  1  0.91318000  0.52686000  0.63655000  1.0
  H  H79  1  0.08682000  0.44004000  0.86345000  1.0
  H  H80  1  0.47314000  0.08682000  0.86345000  1.0
  H  H81  1  0.44004000  0.47314000  0.86345000  1.0
  H  H82  1  0.47314000  0.44004000  0.36345000  1.0
  H  H83  1  0.44004000  0.08682000  0.36345000  1.0
  H  H84  1  0.08682000  0.47314000  0.36345000  1.0
  H  H85  1  0.91318000  0.55996000  0.13655000  1.0
  H  H86  1  0.52686000  0.91318000  0.13655000  1.0
  H  H87  1  0.55996000  0.52686000  0.13655000  1.0
  H  H88  1  0.50504000  0.38702000  0.64604000  1.0
  H  H89  1  0.38703000  0.10793000  0.64604000  1.0
  H  H90  1  0.10794000  0.50503000  0.64604000  1.0
  H  H91  1  0.89206000  0.61298000  0.85396000  1.0
  H  H92  1  0.49496000  0.89207000  0.85396000  1.0
  H  H93  1  0.61297000  0.49497000  0.85396000  1.0
  H  H94  1  0.49496000  0.61298000  0.35396000  1.0
  H  H95  1  0.61297000  0.89207000  0.35396000  1.0
  H  H96  1  0.89206000  0.49497000  0.35396000  1.0
  H  H97  1  0.10794000  0.38702000  0.14604000  1.0
  H  H98  1  0.50504000  0.10793000  0.14604000  1.0
  H  H99  1  0.38703000  0.50503000  0.14604000  1.0
  C  C100  1  0.62666000  0.38654000  0.70468000  1.0
  C  C101  1  0.38654000  0.98680000  0.70468000  1.0
  C  C102  1  0.98680000  0.62666000  0.70468000  1.0
  C  C103  1  0.01320000  0.61346000  0.79532000  1.0
  C  C104  1  0.37334000  0.01320000  0.79532000  1.0
  C  C105  1  0.61346000  0.37334000  0.79532000  1.0
  C  C106  1  0.37334000  0.61346000  0.29532000  1.0
  C  C107  1  0.61346000  0.01320000  0.29532000  1.0
  C  C108  1  0.01320000  0.37334000  0.29532000  1.0
  C  C109  1  0.98680000  0.38654000  0.20468000  1.0
  C  C110  1  0.62666000  0.98680000  0.20468000  1.0
  C  C111  1  0.38654000  0.62666000  0.20468000  1.0
  C  C112  1  0.41069000  0.55085000  0.57506000  1.0
  C  C113  1  0.55085000  0.03846000  0.57506000  1.0
  C  C114  1  0.03846000  0.41069000  0.57506000  1.0
  C  C115  1  0.96154000  0.44915000  0.92493000  1.0
  C  C116  1  0.58931000  0.96154000  0.92494000  1.0
  C  C117  1  0.44915000  0.58931000  0.92494000  1.0
  C  C118  1  0.58931000  0.44915000  0.42494000  1.0
  C  C119  1  0.44915000  0.96154000  0.42494000  1.0
  C  C120  1  0.96154000  0.58931000  0.42494000  1.0
  C  C121  1  0.03846000  0.55085000  0.07507000  1.0
  C  C122  1  0.41069000  0.03846000  0.07506000  1.0
  C  C123  1  0.55085000  0.41069000  0.07507000  1.0
  C  C124  1  0.36549000  0.49438000  0.55530000  1.0
  C  C125  1  0.49437000  0.14014000  0.55530000  1.0
  C  C126  1  0.14013000  0.36550000  0.55530000  1.0
  C  C127  1  0.85987000  0.50562000  0.94470000  1.0
  C  C128  1  0.63451000  0.85986000  0.94470000  1.0
  C  C129  1  0.50563000  0.63450000  0.94470000  1.0
  C  C130  1  0.63451000  0.50562000  0.44470000  1.0
  C  C131  1  0.50563000  0.85986000  0.44470000  1.0
  C  C132  1  0.85987000  0.63450000  0.44470000  1.0
  C  C133  1  0.14013000  0.49438000  0.05530000  1.0
  C  C134  1  0.36549000  0.14014000  0.05530000  1.0
  C  C135  1  0.49437000  0.36550000  0.05530000  1.0
  C  C136  1  0.28539000  0.53645000  0.50115000  1.0
  C  C137  1  0.53644000  0.17817000  0.50115000  1.0
  C  C138  1  0.17816000  0.28540000  0.50115000  1.0
  C  C139  1  0.82184000  0.46355000  0.99885000  1.0
  C  C140  1  0.71461000  0.82183000  0.99885000  1.0
  C  C141  1  0.46356000  0.71460000  0.99885000  1.0
  C  C142  1  0.71461000  0.46355000  0.49885000  1.0
  C  C143  1  0.46356000  0.82183000  0.49885000  1.0
  C  C144  1  0.82184000  0.71460000  0.49885000  1.0
  C  C145  1  0.17816000  0.53645000  0.00115000  1.0
  C  C146  1  0.28539000  0.17817000  0.00115000  1.0
  C  C147  1  0.53644000  0.28540000  0.00115000  1.0
  C  C148  1  0.37286000  0.64557000  0.54298000  1.0
  C  C149  1  0.64557000  0.98156000  0.54298000  1.0
  C  C150  1  0.98157000  0.37286000  0.54298000  1.0
  C  C151  1  0.01843000  0.35444000  0.95702000  1.0
  C  C152  1  0.62714000  0.01843000  0.95702000  1.0
  C  C153  1  0.35443000  0.62714000  0.95702000  1.0
  C  C154  1  0.62714000  0.35442000  0.45702000  1.0
  C  C155  1  0.35443000  0.01843000  0.45702000  1.0
  C  C156  1  0.01843000  0.62714000  0.45702000  1.0
  C  C157  1  0.98157000  0.64556000  0.04298000  1.0
  C  C158  1  0.37286000  0.98157000  0.04298000  1.0
  C  C159  1  0.64557000  0.37286000  0.04298000  1.0
  C  C160  1  0.25018000  0.62945000  0.47130000  1.0
  C  C161  1  0.62945000  0.12037000  0.47130000  1.0
  C  C162  1  0.12037000  0.25018000  0.47130000  1.0
  C  C163  1  0.87963000  0.37055000  0.02870000  1.0
  C  C164  1  0.74982000  0.87963000  0.02870000  1.0
  C  C165  1  0.37055000  0.74982000  0.02870000  1.0
  C  C166  1  0.74982000  0.37055000  0.52870000  1.0
  C  C167  1  0.37055000  0.87963000  0.52870000  1.0
  C  C168  1  0.87963000  0.74982000  0.52870000  1.0
  C  C169  1  0.12037000  0.62945000  0.97130000  1.0
  C  C170  1  0.25018000  0.12037000  0.97130000  1.0
  C  C171  1  0.62945000  0.25018000  0.97130000  1.0
  C  C172  1  0.29312000  0.68540000  0.49237000  1.0
  C  C173  1  0.68539000  0.02149000  0.49237000  1.0
  C  C174  1  0.02148000  0.29313000  0.49237000  1.0
  C  C175  1  0.97852000  0.31460000  0.00763000  1.0
  C  C176  1  0.70688000  0.97851000  0.00763000  1.0
  C  C177  1  0.31461000  0.70687000  0.00763000  1.0
  C  C178  1  0.70688000  0.31460000  0.50763000  1.0
  C  C179  1  0.31461000  0.97851000  0.50763000  1.0
  C  C180  1  0.97852000  0.70687000  0.50763000  1.0
  C  C181  1  0.02148000  0.68540000  0.99237000  1.0
  C  C182  1  0.29312000  0.02149000  0.99237000  1.0
  C  C183  1  0.68539000  0.29313000  0.99237000  1.0
  C  C184  1  0.49456000  0.51453000  0.62486000  1.0
  C  C185  1  0.51453000  0.99091000  0.62486000  1.0
  C  C186  1  0.99091000  0.49456000  0.62486000  1.0
  C  C187  1  0.00909000  0.48547000  0.87514000  1.0
  C  C188  1  0.50544000  0.00909000  0.87514000  1.0
  C  C189  1  0.48547000  0.50544000  0.87514000  1.0
  C  C190  1  0.50544000  0.48547000  0.37514000  1.0
  C  C191  1  0.48547000  0.00909000  0.37514000  1.0
  C  C192  1  0.00909000  0.50544000  0.37514000  1.0
  C  C193  1  0.99091000  0.51453000  0.12486000  1.0
  C  C194  1  0.49456000  0.99091000  0.12486000  1.0
  C  C195  1  0.51453000  0.49456000  0.12486000  1.0
  N  N196  1  0.53723000  0.42822000  0.65825000  1.0
  N  N197  1  0.42822000  0.03455000  0.65825000  1.0
  N  N198  1  0.03455000  0.53723000  0.65825000  1.0
  N  N199  1  0.96545000  0.57178000  0.84175000  1.0
  N  N200  1  0.46277000  0.96545000  0.84175000  1.0
  N  N201  1  0.57178000  0.46277000  0.84175000  1.0
  N  N202  1  0.46277000  0.57178000  0.34175000  1.0
  N  N203  1  0.57178000  0.96545000  0.34175000  1.0
  N  N204  1  0.96545000  0.46277000  0.34175000  1.0
  N  N205  1  0.03455000  0.42822000  0.15825000  1.0
  N  N206  1  0.53723000  0.03455000  0.15825000  1.0
  N  N207  1  0.42822000  0.53723000  0.15825000  1.0
  N  N208  1  0.51189000  0.20944000  0.76029000  1.0
  N  N209  1  0.20944000  0.27867000  0.76029000  1.0
  N  N210  1  0.27867000  0.51189000  0.76029000  1.0
  N  N211  1  0.72133000  0.79056000  0.73971000  1.0
  N  N212  1  0.48811000  0.72133000  0.73971000  1.0
  N  N213  1  0.79056000  0.48811000  0.73971000  1.0
  N  N214  1  0.48811000  0.79056000  0.23971000  1.0
  N  N215  1  0.79056000  0.72133000  0.23971000  1.0
  N  N216  1  0.72133000  0.48811000  0.23971000  1.0
  N  N217  1  0.27867000  0.20944000  0.26029000  1.0
  N  N218  1  0.51189000  0.27867000  0.26029000  1.0
  N  N219  1  0.20944000  0.51189000  0.26029000  1.0
  O  O220  1  0.39784000  0.40770000  0.58607000  1.0
  O  O221  1  0.40770000  0.19446000  0.58607000  1.0
  O  O222  1  0.19446000  0.39784000  0.58607000  1.0
  O  O223  1  0.80554000  0.59230000  0.91393000  1.0
  O  O224  1  0.60216000  0.80554000  0.91393000  1.0
  O  O225  1  0.59230000  0.60216000  0.91393000  1.0
  O  O226  1  0.60216000  0.59230000  0.41393000  1.0
  O  O227  1  0.59230000  0.80554000  0.41393000  1.0
  O  O228  1  0.80554000  0.60216000  0.41393000  1.0
  O  O229  1  0.19446000  0.40770000  0.08607000  1.0
  O  O230  1  0.39784000  0.19446000  0.08607000  1.0
  O  O231  1  0.40770000  0.39784000  0.08607000  1.0
  O  O232  1  0.51246000  0.25780000  0.69798000  1.0
  O  O233  1  0.25780000  0.22974000  0.69798000  1.0
  O  O234  1  0.22974000  0.51246000  0.69798000  1.0
  O  O235  1  0.77026000  0.74220000  0.80202000  1.0
  O  O236  1  0.48754000  0.77026000  0.80202000  1.0
  O  O237  1  0.74220000  0.48754000  0.80202000  1.0
  O  O238  1  0.48754000  0.74220000  0.30202000  1.0
  O  O239  1  0.74220000  0.77026000  0.30202000  1.0
  O  O240  1  0.77026000  0.48754000  0.30202000  1.0
  O  O241  1  0.22974000  0.25780000  0.19798000  1.0
  O  O242  1  0.51246000  0.22974000  0.19798000  1.0
  O  O243  1  0.25780000  0.51246000  0.19798000  1.0
  O  O244  1  0.43049000  0.21400000  0.77646000  1.0
  O  O245  1  0.21400000  0.35551000  0.77646000  1.0
  O  O246  1  0.35551000  0.43048000  0.77646000  1.0
  O  O247  1  0.64449000  0.78600000  0.72354000  1.0
  O  O248  1  0.56951000  0.64449000  0.72354000  1.0
  O  O249  1  0.78599000  0.56952000  0.72354000  1.0
  O  O250  1  0.56951000  0.78600000  0.22354000  1.0
  O  O251  1  0.78600000  0.64449000  0.22354000  1.0
  O  O252  1  0.64449000  0.56952000  0.22354000  1.0
  O  O253  1  0.35551000  0.21400000  0.27646000  1.0
  O  O254  1  0.43049000  0.35551000  0.27646000  1.0
  O  O255  1  0.21401000  0.43048000  0.27646000  1.0
  O  O256  1  0.58485000  0.16163000  0.80250000  1.0
  O  O257  1  0.16164000  0.25351000  0.80250000  1.0
  O  O258  1  0.25352000  0.58484000  0.80250000  1.0
  O  O259  1  0.74648000  0.83837000  0.69750000  1.0
  O  O260  1  0.41515000  0.74649000  0.69750000  1.0
  O  O261  1  0.83836000  0.41516000  0.69750000  1.0
  O  O262  1  0.41515000  0.83837000  0.19750000  1.0
  O  O263  1  0.83836000  0.74649000  0.19750000  1.0
  O  O264  1  0.74648000  0.41516000  0.19750000  1.0
  O  O265  1  0.25352000  0.16163000  0.30250000  1.0
  O  O266  1  0.58485000  0.25351000  0.30250000  1.0
  O  O267  1  0.16164000  0.58484000  0.30250000  1.0
