# generated using pymatgen
data_Zn4H44C51(N4O9)2
_symmetry_space_group_name_H-M   'P 1'
_cell_length_a   16.02040000
_cell_length_b   21.41000000
_cell_length_c   29.92910000
_cell_angle_alpha   90.00000000
_cell_angle_beta   90.00020000
_cell_angle_gamma   97.81540000
_symmetry_Int_Tables_number   1
_chemical_formula_structural   Zn4H44C51(N4O9)2
_chemical_formula_sum   'Zn16 H176 C204 N32 O72'
_cell_volume   10170.23079183
_cell_formula_units_Z   4
loop_
 _symmetry_equiv_pos_site_id
 _symmetry_equiv_pos_as_xyz
  1  'x, y, z'
loop_
 _atom_site_type_symbol
 _atom_site_label
 _atom_site_symmetry_multiplicity
 _atom_site_fract_x
 _atom_site_fract_y
 _atom_site_fract_z
 _atom_site_occupancy
  Zn  Zn0  1  0.32984000  0.56333000  0.22721000  1.0
  Zn  Zn1  1  0.67015000  0.93667000  0.72721000  1.0
  Zn  Zn2  1  0.67016000  0.43667000  0.77279000  1.0
  Zn  Zn3  1  0.32984000  0.06333000  0.27279000  1.0
  Zn  Zn4  1  0.34738000  0.41382000  0.21789000  1.0
  Zn  Zn5  1  0.65263000  0.08618000  0.71789000  1.0
  Zn  Zn6  1  0.65262000  0.58618000  0.78211000  1.0
  Zn  Zn7  1  0.34738000  0.91382000  0.28211000  1.0
  Zn  Zn8  1  0.37687000  0.48183000  0.31080000  1.0
  Zn  Zn9  1  0.62313000  0.01817000  0.81080000  1.0
  Zn  Zn10  1  0.62313000  0.51817000  0.68920000  1.0
  Zn  Zn11  1  0.37687000  0.98183000  0.18920000  1.0
  Zn  Zn12  1  0.19164000  0.45418000  0.27391000  1.0
  Zn  Zn13  1  0.80836000  0.04582000  0.77391000  1.0
  Zn  Zn14  1  0.80836000  0.54582000  0.72609000  1.0
  Zn  Zn15  1  0.19164000  0.95418000  0.22609000  1.0
  H  H16  1  0.40173000  0.86839000  0.41867000  1.0
  H  H17  1  0.59827000  0.63161000  0.91868000  1.0
  H  H18  1  0.59827000  0.13161000  0.58133000  1.0
  H  H19  1  0.40173000  0.36839000  0.08132000  1.0
  H  H20  1  0.80200000  0.78950000  0.15655000  1.0
  H  H21  1  0.19800000  0.71050000  0.65655000  1.0
  H  H22  1  0.19800000  0.21050000  0.84345000  1.0
  H  H23  1  0.80200000  0.28950000  0.34345000  1.0
  H  H24  1  0.17778000  0.37268000  0.56757000  1.0
  H  H25  1  0.82221000  0.12733000  0.06757000  1.0
  H  H26  1  0.82222000  0.62733000  0.43243000  1.0
  H  H27  1  0.17778000  0.87268000  0.93243000  1.0
  H  H28  1  0.91351000  0.75377000  0.16617000  1.0
  H  H29  1  0.08649000  0.74623000  0.66617000  1.0
  H  H30  1  0.08649000  0.24623000  0.83383000  1.0
  H  H31  1  0.91352000  0.25377000  0.33383000  1.0
  H  H32  1  0.40565000  0.92574000  0.47739000  1.0
  H  H33  1  0.59435000  0.57425000  0.97739000  1.0
  H  H34  1  0.59435000  0.07426000  0.52261000  1.0
  H  H35  1  0.40565000  0.42575000  0.02261000  1.0
  H  H36  1  0.11600000  0.32741000  0.62206000  1.0
  H  H37  1  0.88400000  0.17259000  0.12206000  1.0
  H  H38  1  0.88400000  0.67259000  0.37794000  1.0
  H  H39  1  0.11600000  0.82742000  0.87794000  1.0
  H  H40  1  0.62270000  0.89855000  0.61215000  1.0
  H  H41  1  0.37730000  0.60145000  0.11215000  1.0
  H  H42  1  0.37730000  0.10145000  0.38785000  1.0
  H  H43  1  0.62269000  0.39855000  0.88785000  1.0
  H  H44  1  0.48045000  0.05346000  0.59879000  1.0
  H  H45  1  0.51955000  0.44654000  0.09879000  1.0
  H  H46  1  0.51955000  0.94654000  0.40121000  1.0
  H  H47  1  0.48045000  0.55346000  0.90121000  1.0
  H  H48  1  0.52991000  0.78753000  0.26513000  1.0
  H  H49  1  0.47008000  0.71246000  0.76513000  1.0
  H  H50  1  0.47009000  0.21247000  0.73487000  1.0
  H  H51  1  0.52991000  0.28753000  0.23487000  1.0
  H  H52  1  0.28048000  0.40655000  0.51993000  1.0
  H  H53  1  0.71952000  0.09345000  0.01993000  1.0
  H  H54  1  0.71952000  0.59345000  0.48007000  1.0
  H  H55  1  0.28048000  0.90655000  0.98007000  1.0
  H  H56  1  0.36478000  0.82606000  0.35287000  1.0
  H  H57  1  0.63522000  0.67393000  0.85287000  1.0
  H  H58  1  0.63522000  0.17394000  0.64713000  1.0
  H  H59  1  0.36478000  0.32606000  0.14713000  1.0
  H  H60  1  0.07444000  0.38363000  0.39521000  1.0
  H  H61  1  0.92555000  0.11637000  0.89521000  1.0
  H  H62  1  0.92556000  0.61637000  0.60479000  1.0
  H  H63  1  0.07444000  0.88363000  0.10479000  1.0
  H  H64  1  0.09198000  0.26566000  0.68234000  1.0
  H  H65  1  0.90802000  0.23434000  0.18234000  1.0
  H  H66  1  0.90802000  0.73434000  0.31766000  1.0
  H  H67  1  0.09198000  0.76566000  0.81766000  1.0
  H  H68  1  0.27090000  0.68660000  0.22959000  1.0
  H  H69  1  0.72910000  0.81339000  0.72959000  1.0
  H  H70  1  0.72910000  0.31339000  0.77041000  1.0
  H  H71  1  0.27090000  0.18660000  0.27041000  1.0
  H  H72  1  0.32754000  0.43304000  0.44217000  1.0
  H  H73  1  0.67246000  0.06696000  0.94217000  1.0
  H  H74  1  0.67246000  0.56696000  0.55783000  1.0
  H  H75  1  0.32754000  0.93304000  0.05783000  1.0
  H  H76  1  0.58888000  0.90762000  0.15150000  1.0
  H  H77  1  0.41112000  0.59238000  0.65150000  1.0
  H  H78  1  0.41113000  0.09239000  0.84850000  1.0
  H  H79  1  0.58888000  0.40762000  0.34850000  1.0
  H  H80  1  0.34618000  0.73375000  0.30222000  1.0
  H  H81  1  0.65382000  0.76624000  0.80222000  1.0
  H  H82  1  0.65382000  0.26625000  0.69778000  1.0
  H  H83  1  0.34618000  0.23376000  0.19778000  1.0
  H  H84  1  0.87608000  0.63494000  0.25710000  1.0
  H  H85  1  0.12392000  0.86506000  0.75710000  1.0
  H  H86  1  0.12391000  0.36506000  0.74290000  1.0
  H  H87  1  0.87609000  0.13494000  0.24290000  1.0
  H  H88  1  0.65915000  0.73647000  0.25153000  1.0
  H  H89  1  0.34085000  0.76353000  0.75154000  1.0
  H  H90  1  0.34085000  0.26353000  0.74846000  1.0
  H  H91  1  0.65914000  0.23647000  0.24847000  1.0
  H  H92  1  0.42588000  0.61827000  0.40702000  1.0
  H  H93  1  0.57411000  0.88173000  0.90702000  1.0
  H  H94  1  0.57412000  0.38173000  0.59298000  1.0
  H  H95  1  0.42588000  0.11827000  0.09298000  1.0
  H  H96  1  0.54507000  0.84393000  0.54778000  1.0
  H  H97  1  0.45493000  0.65606000  0.04778000  1.0
  H  H98  1  0.45493000  0.15607000  0.45222000  1.0
  H  H99  1  0.54507000  0.34393000  0.95222000  1.0
  H  H100  1  0.99235000  0.19266000  0.72793000  1.0
  H  H101  1  0.00765000  0.30734000  0.22793000  1.0
  H  H102  1  0.00765000  0.80733000  0.27207000  1.0
  H  H103  1  0.99235000  0.69266000  0.77207000  1.0
  H  H104  1  0.02605000  0.35436000  0.47295000  1.0
  H  H105  1  0.97395000  0.14564000  0.97295000  1.0
  H  H106  1  0.97395000  0.64564000  0.52705000  1.0
  H  H107  1  0.02605000  0.85436000  0.02705000  1.0
  H  H108  1  0.44211000  0.71037000  0.45892000  1.0
  H  H109  1  0.55789000  0.78962000  0.95892000  1.0
  H  H110  1  0.55789000  0.28963000  0.54108000  1.0
  H  H111  1  0.44211000  0.21038000  0.04108000  1.0
  H  H112  1  0.41838000  0.73389000  0.14011000  1.0
  H  H113  1  0.58162000  0.76611000  0.64011000  1.0
  H  H114  1  0.58162000  0.26611000  0.85989000  1.0
  H  H115  1  0.41838000  0.23389000  0.35989000  1.0
  H  H116  1  0.39613000  0.81376000  0.14370000  1.0
  H  H117  1  0.60387000  0.68624000  0.64370000  1.0
  H  H118  1  0.60387000  0.18624000  0.85630000  1.0
  H  H119  1  0.39613000  0.31375000  0.35630000  1.0
  H  H120  1  0.33296000  0.75838000  0.10908000  1.0
  H  H121  1  0.66704000  0.74162000  0.60908000  1.0
  H  H122  1  0.66704000  0.24162000  0.89092000  1.0
  H  H123  1  0.33296000  0.25837000  0.39092000  1.0
  H  H124  1  0.51013000  0.63605000  0.19673000  1.0
  H  H125  1  0.48988000  0.86395000  0.69673000  1.0
  H  H126  1  0.48988000  0.36395000  0.80327000  1.0
  H  H127  1  0.51012000  0.13605000  0.30327000  1.0
  H  H128  1  0.71725000  0.85702000  0.13703000  1.0
  H  H129  1  0.28275000  0.64299000  0.63703000  1.0
  H  H130  1  0.28275000  0.14299000  0.86297000  1.0
  H  H131  1  0.71725000  0.35701000  0.36297000  1.0
  H  H132  1  0.40544000  0.00141000  0.53312000  1.0
  H  H133  1  0.59456000  0.49859000  0.03312000  1.0
  H  H134  1  0.59456000  0.99859000  0.46688000  1.0
  H  H135  1  0.40544000  0.50141000  0.96688000  1.0
  H  H136  1  0.79139000  0.21908000  0.63796000  1.0
  H  H137  1  0.20861000  0.28092000  0.13796000  1.0
  H  H138  1  0.20862000  0.78092000  0.36204000  1.0
  H  H139  1  0.79139000  0.71909000  0.86204000  1.0
  H  H140  1  0.14427000  0.65231000  0.17153000  1.0
  H  H141  1  0.85572000  0.84769000  0.67153000  1.0
  H  H142  1  0.85572000  0.34769000  0.82847000  1.0
  H  H143  1  0.14427000  0.15231000  0.32847000  1.0
  H  H144  1  0.98393000  0.56416000  0.27450000  1.0
  H  H145  1  0.01607000  0.93584000  0.77450000  1.0
  H  H146  1  0.01607000  0.43584000  0.72550000  1.0
  H  H147  1  0.98393000  0.06416000  0.22550000  1.0
  H  H148  1  0.03826000  0.72368000  0.15374000  1.0
  H  H149  1  0.96173000  0.77632000  0.65374000  1.0
  H  H150  1  0.96173000  0.27632000  0.84626000  1.0
  H  H151  1  0.03827000  0.22368000  0.34626000  1.0
  H  H152  1  0.63110000  0.65385000  0.16325000  1.0
  H  H153  1  0.36890000  0.84615000  0.66325000  1.0
  H  H154  1  0.36890000  0.34616000  0.83675000  1.0
  H  H155  1  0.63110000  0.15385000  0.33675000  1.0
  H  H156  1  0.65326000  0.58402000  0.13555000  1.0
  H  H157  1  0.34674000  0.91598000  0.63555000  1.0
  H  H158  1  0.34674000  0.41598000  0.86445000  1.0
  H  H159  1  0.65325000  0.08402000  0.36445000  1.0
  H  H160  1  0.71493000  0.61411000  0.18289000  1.0
  H  H161  1  0.28507000  0.88589000  0.68289000  1.0
  H  H162  1  0.28508000  0.38589000  0.81711000  1.0
  H  H163  1  0.71492000  0.11411000  0.31711000  1.0
  H  H164  1  0.57924000  0.49441000  0.24289000  1.0
  H  H165  1  0.42077000  0.00559000  0.74289000  1.0
  H  H166  1  0.42077000  0.50559000  0.75710000  1.0
  H  H167  1  0.57923000  0.99441000  0.25711000  1.0
  H  H168  1  0.67930000  0.50910000  0.21522000  1.0
  H  H169  1  0.32070000  0.99091000  0.71522000  1.0
  H  H170  1  0.32070000  0.49091000  0.78478000  1.0
  H  H171  1  0.67930000  0.00910000  0.28478000  1.0
  H  H172  1  0.58803000  0.47236000  0.18583000  1.0
  H  H173  1  0.41197000  0.02764000  0.68583000  1.0
  H  H174  1  0.41197000  0.52764000  0.81417000  1.0
  H  H175  1  0.58803000  0.97236000  0.31417000  1.0
  H  H176  1  0.21278000  0.79613000  0.16113000  1.0
  H  H177  1  0.78721000  0.70387000  0.66114000  1.0
  H  H178  1  0.78722000  0.20387000  0.83886000  1.0
  H  H179  1  0.21278000  0.29613000  0.33886000  1.0
  H  H180  1  0.28542000  0.83508000  0.20055000  1.0
  H  H181  1  0.71458000  0.66492000  0.70056000  1.0
  H  H182  1  0.71458000  0.16492000  0.79945000  1.0
  H  H183  1  0.28542000  0.33508000  0.29944000  1.0
  H  H184  1  0.21240000  0.76867000  0.21741000  1.0
  H  H185  1  0.78760000  0.73133000  0.71741000  1.0
  H  H186  1  0.78760000  0.23133000  0.78259000  1.0
  H  H187  1  0.21240000  0.26867000  0.28259000  1.0
  H  H188  1  0.89048000  0.29028000  0.59082000  1.0
  H  H189  1  0.10952000  0.20971000  0.09083000  1.0
  H  H190  1  0.10952000  0.70971000  0.40917000  1.0
  H  H191  1  0.89048000  0.79029000  0.90917000  1.0
  C  C192  1  0.57508000  0.92052000  0.59429000  1.0
  C  C193  1  0.42492000  0.57948000  0.09429000  1.0
  C  C194  1  0.42493000  0.07948000  0.40571000  1.0
  C  C195  1  0.57507000  0.42052000  0.90571000  1.0
  C  C196  1  0.49569000  0.00816000  0.58695000  1.0
  C  C197  1  0.50431000  0.49184000  0.08695000  1.0
  C  C198  1  0.50431000  0.99184000  0.41306000  1.0
  C  C199  1  0.49568000  0.50816000  0.91305000  1.0
  C  C200  1  0.99782000  0.28159000  0.63302000  1.0
  C  C201  1  0.00218000  0.21840000  0.13302000  1.0
  C  C202  1  0.00218000  0.71840000  0.36698000  1.0
  C  C203  1  0.99782000  0.78160000  0.86698000  1.0
  C  C204  1  0.57159000  0.80249000  0.23718000  1.0
  C  C205  1  0.42840000  0.69751000  0.73718000  1.0
  C  C206  1  0.42841000  0.19752000  0.76282000  1.0
  C  C207  1  0.57159000  0.30248000  0.26282000  1.0
  C  C208  1  0.23513000  0.40105000  0.49246000  1.0
  C  C209  1  0.76486000  0.09896000  0.99246000  1.0
  C  C210  1  0.76487000  0.59896000  0.50754000  1.0
  C  C211  1  0.23514000  0.90105000  0.00754000  1.0
  C  C212  1  0.37803000  0.78033000  0.36471000  1.0
  C  C213  1  0.62197000  0.71967000  0.86471000  1.0
  C  C214  1  0.62197000  0.21967000  0.63529000  1.0
  C  C215  1  0.37804000  0.28033000  0.13529000  1.0
  C  C216  1  0.47156000  0.91971000  0.53546000  1.0
  C  C217  1  0.52843000  0.58029000  0.03545000  1.0
  C  C218  1  0.52844000  0.08029000  0.46454000  1.0
  C  C219  1  0.47156000  0.41971000  0.96454000  1.0
  C  C220  1  0.11913000  0.38771000  0.42287000  1.0
  C  C221  1  0.88087000  0.11229000  0.92287000  1.0
  C  C222  1  0.88087000  0.61229000  0.57714000  1.0
  C  C223  1  0.11913000  0.88771000  0.07713000  1.0
  C  C224  1  0.02600000  0.25495000  0.67228000  1.0
  C  C225  1  0.97400000  0.24504000  0.17228000  1.0
  C  C226  1  0.97401000  0.74504000  0.32772000  1.0
  C  C227  1  0.02600000  0.75496000  0.82771000  1.0
  C  C228  1  0.15001000  0.37854000  0.50138000  1.0
  C  C229  1  0.84999000  0.12146000  0.00138000  1.0
  C  C230  1  0.84999000  0.62146000  0.49863000  1.0
  C  C231  1  0.15001000  0.87854000  0.99862000  1.0
  C  C232  1  0.43484000  0.83415000  0.47990000  1.0
  C  C233  1  0.56517000  0.66585000  0.97990000  1.0
  C  C234  1  0.56517000  0.16585000  0.52010000  1.0
  C  C235  1  0.43483000  0.33415000  0.02010000  1.0
  C  C236  1  0.95015000  0.68367000  0.20443000  1.0
  C  C237  1  0.04984000  0.81633000  0.70443000  1.0
  C  C238  1  0.04984000  0.31633000  0.79557000  1.0
  C  C239  1  0.95016000  0.18367000  0.29557000  1.0
  C  C240  1  0.55209000  0.85132000  0.20955000  1.0
  C  C241  1  0.44791000  0.64868000  0.70955000  1.0
  C  C242  1  0.44792000  0.14868000  0.79045000  1.0
  C  C243  1  0.55209000  0.35132000  0.29046000  1.0
  C  C244  1  0.47851000  0.88516000  0.21857000  1.0
  C  C245  1  0.52149000  0.61484000  0.71857000  1.0
  C  C246  1  0.52149000  0.11484000  0.78143000  1.0
  C  C247  1  0.47851000  0.38516000  0.28143000  1.0
  C  C248  1  0.31545000  0.69332000  0.20142000  1.0
  C  C249  1  0.68454000  0.80668000  0.70142000  1.0
  C  C250  1  0.68455000  0.30668000  0.79858000  1.0
  C  C251  1  0.31545000  0.19332000  0.29858000  1.0
  C  C252  1  0.13637000  0.56258000  0.23463000  1.0
  C  C253  1  0.86363000  0.93742000  0.73463000  1.0
  C  C254  1  0.86363000  0.43742000  0.76537000  1.0
  C  C255  1  0.13637000  0.06258000  0.26537000  1.0
  C  C256  1  0.26171000  0.41586000  0.44923000  1.0
  C  C257  1  0.73828000  0.08414000  0.94923000  1.0
  C  C258  1  0.73829000  0.58414000  0.55077000  1.0
  C  C259  1  0.26172000  0.91586000  0.05077000  1.0
  C  C260  1  0.60477000  0.87004000  0.17310000  1.0
  C  C261  1  0.39522000  0.62996000  0.67310000  1.0
  C  C262  1  0.39523000  0.12996000  0.82690000  1.0
  C  C263  1  0.60477000  0.37004000  0.32691000  1.0
  C  C264  1  0.05296000  0.33351000  0.56237000  1.0
  C  C265  1  0.94705000  0.16648000  0.06237000  1.0
  C  C266  1  0.94705000  0.66648000  0.43763000  1.0
  C  C267  1  0.05295000  0.83351000  0.93763000  1.0
  C  C268  1  0.36797000  0.72868000  0.33632000  1.0
  C  C269  1  0.63203000  0.77132000  0.83632000  1.0
  C  C270  1  0.63203000  0.27132000  0.66368000  1.0
  C  C271  1  0.36797000  0.22868000  0.16367000  1.0
  C  C272  1  0.93471000  0.63846000  0.23851000  1.0
  C  C273  1  0.06529000  0.86155000  0.73851000  1.0
  C  C274  1  0.06529000  0.36154000  0.76149000  1.0
  C  C275  1  0.93471000  0.13846000  0.26150000  1.0
  C  C276  1  0.64338000  0.77371000  0.22975000  1.0
  C  C277  1  0.35661000  0.72629000  0.72975000  1.0
  C  C278  1  0.35662000  0.22629000  0.77025000  1.0
  C  C279  1  0.64339000  0.27371000  0.27025000  1.0
  C  C280  1  0.41260000  0.66420000  0.39557000  1.0
  C  C281  1  0.58740000  0.83579000  0.89557000  1.0
  C  C282  1  0.58740000  0.33580000  0.60443000  1.0
  C  C283  1  0.41260000  0.16421000  0.10443000  1.0
  C  C284  1  0.07101000  0.60416000  0.22442000  1.0
  C  C285  1  0.92899000  0.89585000  0.72442000  1.0
  C  C286  1  0.92899000  0.39585000  0.77558000  1.0
  C  C287  1  0.07101000  0.10415000  0.27558000  1.0
  C  C288  1  0.81449000  0.73011000  0.20964000  1.0
  C  C289  1  0.18551000  0.76989000  0.70963000  1.0
  C  C290  1  0.18551000  0.26989000  0.79037000  1.0
  C  C291  1  0.81449000  0.23011000  0.29036000  1.0
  C  C292  1  0.40446000  0.77410000  0.40908000  1.0
  C  C293  1  0.59555000  0.72590000  0.90909000  1.0
  C  C294  1  0.59554000  0.22590000  0.59092000  1.0
  C  C295  1  0.40446000  0.27410000  0.09091000  1.0
  C  C296  1  0.53216000  0.89011000  0.55850000  1.0
  C  C297  1  0.46784000  0.60988000  0.05849000  1.0
  C  C298  1  0.46785000  0.10989000  0.44150000  1.0
  C  C299  1  0.53215000  0.39011000  0.94150000  1.0
  C  C300  1  0.97057000  0.21455000  0.69803000  1.0
  C  C301  1  0.02942000  0.28545000  0.19803000  1.0
  C  C302  1  0.02943000  0.78544000  0.30197000  1.0
  C  C303  1  0.97057000  0.71456000  0.80196000  1.0
  C  C304  1  0.69718000  0.79419000  0.19396000  1.0
  C  C305  1  0.30282000  0.70581000  0.69396000  1.0
  C  C306  1  0.30282000  0.20581000  0.80604000  1.0
  C  C307  1  0.69718000  0.29419000  0.30605000  1.0
  C  C308  1  0.09160000  0.37177000  0.46598000  1.0
  C  C309  1  0.90840000  0.12824000  0.96598000  1.0
  C  C310  1  0.90840000  0.62824000  0.53402000  1.0
  C  C311  1  0.09160000  0.87176000  0.03402000  1.0
  C  C312  1  0.55855000  0.97995000  0.60879000  1.0
  C  C313  1  0.44145000  0.52004000  0.10878000  1.0
  C  C314  1  0.44145000  0.02004000  0.39122000  1.0
  C  C315  1  0.55855000  0.47996000  0.89121000  1.0
  C  C316  1  0.23266000  0.42714000  0.36764000  1.0
  C  C317  1  0.76733000  0.07286000  0.86764000  1.0
  C  C318  1  0.76733000  0.57287000  0.63236000  1.0
  C  C319  1  0.23267000  0.92714000  0.13236000  1.0
  C  C320  1  0.42181000  0.71527000  0.42467000  1.0
  C  C321  1  0.57819000  0.78473000  0.92467000  1.0
  C  C322  1  0.57819000  0.28473000  0.57533000  1.0
  C  C323  1  0.42181000  0.21527000  0.07533000  1.0
  C  C324  1  0.37423000  0.61367000  0.32165000  1.0
  C  C325  1  0.62577000  0.88632000  0.82165000  1.0
  C  C326  1  0.62577000  0.38633000  0.67835000  1.0
  C  C327  1  0.37423000  0.11367000  0.17835000  1.0
  C  C328  1  0.36852000  0.76412000  0.14064000  1.0
  C  C329  1  0.63148000  0.73588000  0.64064000  1.0
  C  C330  1  0.63148000  0.23588000  0.85936000  1.0
  C  C331  1  0.36852000  0.26411000  0.35936000  1.0
  C  C332  1  0.88575000  0.20058000  0.68549000  1.0
  C  C333  1  0.11425000  0.29942000  0.18549000  1.0
  C  C334  1  0.11425000  0.79942000  0.31451000  1.0
  C  C335  1  0.88575000  0.70058000  0.81451000  1.0
  C  C336  1  0.51934000  0.58896000  0.20917000  1.0
  C  C337  1  0.48066000  0.91104000  0.70917000  1.0
  C  C338  1  0.48066000  0.41104000  0.79083000  1.0
  C  C339  1  0.51933000  0.08896000  0.29083000  1.0
  C  C340  1  0.60790000  0.01028000  0.64697000  1.0
  C  C341  1  0.39210000  0.48972000  0.14697000  1.0
  C  C342  1  0.39210000  0.98972000  0.35303000  1.0
  C  C343  1  0.60790000  0.51028000  0.85303000  1.0
  C  C344  1  0.82708000  0.15433000  0.71131000  1.0
  C  C345  1  0.17292000  0.34566000  0.21131000  1.0
  C  C346  1  0.17292000  0.84566000  0.28869000  1.0
  C  C347  1  0.82708000  0.65434000  0.78869000  1.0
  C  C348  1  0.38549000  0.66986000  0.35142000  1.0
  C  C349  1  0.61450000  0.83014000  0.85142000  1.0
  C  C350  1  0.61451000  0.33014000  0.64858000  1.0
  C  C351  1  0.38550000  0.16986000  0.14858000  1.0
  C  C352  1  0.67613000  0.84179000  0.16526000  1.0
  C  C353  1  0.32387000  0.65821000  0.66526000  1.0
  C  C354  1  0.32388000  0.15821000  0.83474000  1.0
  C  C355  1  0.67613000  0.34179000  0.33475000  1.0
  C  C356  1  0.45296000  0.97860000  0.55059000  1.0
  C  C357  1  0.54704000  0.52139000  0.05059000  1.0
  C  C358  1  0.54704000  0.02140000  0.44942000  1.0
  C  C359  1  0.45296000  0.47861000  0.94941000  1.0
  C  C360  1  0.85755000  0.22916000  0.64722000  1.0
  C  C361  1  0.14244000  0.27084000  0.14723000  1.0
  C  C362  1  0.14245000  0.77084000  0.35278000  1.0
  C  C363  1  0.85756000  0.72917000  0.85277000  1.0
  C  C364  1  0.08568000  0.64934000  0.19035000  1.0
  C  C365  1  0.91432000  0.85066000  0.69035000  1.0
  C  C366  1  0.91432000  0.35066000  0.80965000  1.0
  C  C367  1  0.08568000  0.14934000  0.30965000  1.0
  C  C368  1  0.20384000  0.40954000  0.41378000  1.0
  C  C369  1  0.79615000  0.09046000  0.91378000  1.0
  C  C370  1  0.79616000  0.59046000  0.58622000  1.0
  C  C371  1  0.20385000  0.90954000  0.08622000  1.0
  C  C372  1  0.99503000  0.59930000  0.24805000  1.0
  C  C373  1  0.00497000  0.90070000  0.74805000  1.0
  C  C374  1  0.00497000  0.40070000  0.75195000  1.0
  C  C375  1  0.99503000  0.09930000  0.25195000  1.0
  C  C376  1  0.02631000  0.68873000  0.18044000  1.0
  C  C377  1  0.97369000  0.81126000  0.68045000  1.0
  C  C378  1  0.97369000  0.31126000  0.81955000  1.0
  C  C379  1  0.02631000  0.18874000  0.31955000  1.0
  C  C380  1  0.65151000  0.60748000  0.16820000  1.0
  C  C381  1  0.34849000  0.89252000  0.66820000  1.0
  C  C382  1  0.34849000  0.39252000  0.83180000  1.0
  C  C383  1  0.65151000  0.10749000  0.33180000  1.0
  C  C384  1  0.61105000  0.50777000  0.21124000  1.0
  C  C385  1  0.38896000  0.99223000  0.71124000  1.0
  C  C386  1  0.38896000  0.49224000  0.78876000  1.0
  C  C387  1  0.61104000  0.00777000  0.28876000  1.0
  C  C388  1  0.25269000  0.78904000  0.19009000  1.0
  C  C389  1  0.74731000  0.71096000  0.69009000  1.0
  C  C390  1  0.74731000  0.21096000  0.80991000  1.0
  C  C391  1  0.25269000  0.28904000  0.30991000  1.0
  C  C392  1  0.91246000  0.26929000  0.62087000  1.0
  C  C393  1  0.08754000  0.23070000  0.12087000  1.0
  C  C394  1  0.08754000  0.73070000  0.37913000  1.0
  C  C395  1  0.91246000  0.76930000  0.87913000  1.0
  N  N396  1  0.41166000  0.82874000  0.43551000  1.0
  N  N397  1  0.58834000  0.67126000  0.93551000  1.0
  N  N398  1  0.58834000  0.17126000  0.56449000  1.0
  N  N399  1  0.41166000  0.32874000  0.06449000  1.0
  N  N400  1  0.31313000  0.74676000  0.17851000  1.0
  N  N401  1  0.68687000  0.75324000  0.67851000  1.0
  N  N402  1  0.68687000  0.25324000  0.82149000  1.0
  N  N403  1  0.31313000  0.24676000  0.32149000  1.0
  N  N404  1  0.77236000  0.77041000  0.18432000  1.0
  N  N405  1  0.22764000  0.72959000  0.68432000  1.0
  N  N406  1  0.22764000  0.22959000  0.81568000  1.0
  N  N407  1  0.77236000  0.27041000  0.31568000  1.0
  N  N408  1  0.12891000  0.36406000  0.54586000  1.0
  N  N409  1  0.87109000  0.13594000  0.04586000  1.0
  N  N410  1  0.87110000  0.63593000  0.45414000  1.0
  N  N411  1  0.12891000  0.86407000  0.95414000  1.0
  N  N412  1  0.59302000  0.57016000  0.19811000  1.0
  N  N413  1  0.40698000  0.92983000  0.69811000  1.0
  N  N414  1  0.40698000  0.42984000  0.80189000  1.0
  N  N415  1  0.59302000  0.07017000  0.30189000  1.0
  N  N416  1  0.89315000  0.72477000  0.19191000  1.0
  N  N417  1  0.10684000  0.77523000  0.69191000  1.0
  N  N418  1  0.10684000  0.27523000  0.80809000  1.0
  N  N419  1  0.89316000  0.22477000  0.30809000  1.0
  N  N420  1  0.43117000  0.89446000  0.49693000  1.0
  N  N421  1  0.56883000  0.60554000  0.99693000  1.0
  N  N422  1  0.56883000  0.10554000  0.50307000  1.0
  N  N423  1  0.43117000  0.39446000  0.00307000  1.0
  N  N424  1  0.05814000  0.31987000  0.60765000  1.0
  N  N425  1  0.94186000  0.18012000  0.10765000  1.0
  N  N426  1  0.94186000  0.68012000  0.39235000  1.0
  N  N427  1  0.05814000  0.81988000  0.89235000  1.0
  O  O428  1  0.30915000  0.47650000  0.25698000  1.0
  O  O429  1  0.69085000  0.02350000  0.75698000  1.0
  O  O430  1  0.69085000  0.52350000  0.74303000  1.0
  O  O431  1  0.30915000  0.97650000  0.24302000  1.0
  O  O432  1  0.20586000  0.57425000  0.21411000  1.0
  O  O433  1  0.79413000  0.92575000  0.71411000  1.0
  O  O434  1  0.79414000  0.42576000  0.78589000  1.0
  O  O435  1  0.20586000  0.07424000  0.28589000  1.0
  O  O436  1  0.36322000  0.65308000  0.19251000  1.0
  O  O437  1  0.63678000  0.84692000  0.69251000  1.0
  O  O438  1  0.63678000  0.34692000  0.80749000  1.0
  O  O439  1  0.36322000  0.15308000  0.30749000  1.0
  O  O440  1  0.33302000  0.61668000  0.28568000  1.0
  O  O441  1  0.66698000  0.88332000  0.78568000  1.0
  O  O442  1  0.66699000  0.38332000  0.71432000  1.0
  O  O443  1  0.33302000  0.11669000  0.21432000  1.0
  O  O444  1  0.66557000  0.98285000  0.66366000  1.0
  O  O445  1  0.33442000  0.51715000  0.16366000  1.0
  O  O446  1  0.33443000  0.01715000  0.33634000  1.0
  O  O447  1  0.66557000  0.48286000  0.83634000  1.0
  O  O448  1  0.46398000  0.55602000  0.23168000  1.0
  O  O449  1  0.53602000  0.94398000  0.73168000  1.0
  O  O450  1  0.53603000  0.44399000  0.76832000  1.0
  O  O451  1  0.46397000  0.05602000  0.26832000  1.0
  O  O452  1  0.74912000  0.14917000  0.70054000  1.0
  O  O453  1  0.25088000  0.35082000  0.20054000  1.0
  O  O454  1  0.25088000  0.85082000  0.29946000  1.0
  O  O455  1  0.74912000  0.64918000  0.79946000  1.0
  O  O456  1  0.42869000  0.86512000  0.25031000  1.0
  O  O457  1  0.57131000  0.63489000  0.75031000  1.0
  O  O458  1  0.57131000  0.13488000  0.74969000  1.0
  O  O459  1  0.42869000  0.36512000  0.24969000  1.0
  O  O460  1  0.47211000  0.93263000  0.19344000  1.0
  O  O461  1  0.52789000  0.56737000  0.69343000  1.0
  O  O462  1  0.52789000  0.06737000  0.80656000  1.0
  O  O463  1  0.47211000  0.43263000  0.30657000  1.0
  O  O464  1  0.40723000  0.56565000  0.33557000  1.0
  O  O465  1  0.59276000  0.93435000  0.83557000  1.0
  O  O466  1  0.59276000  0.43435000  0.66443000  1.0
  O  O467  1  0.40724000  0.06565000  0.16443000  1.0
  O  O468  1  0.31217000  0.43695000  0.36131000  1.0
  O  O469  1  0.68782000  0.06305000  0.86131000  1.0
  O  O470  1  0.68783000  0.56305000  0.63869000  1.0
  O  O471  1  0.31217000  0.93695000  0.13869000  1.0
  O  O472  1  0.11661000  0.51812000  0.26313000  1.0
  O  O473  1  0.88338000  0.98188000  0.76313000  1.0
  O  O474  1  0.88338000  0.48188000  0.73687000  1.0
  O  O475  1  0.11661000  0.01812000  0.23687000  1.0
  O  O476  1  0.17588000  0.43052000  0.33802000  1.0
  O  O477  1  0.82411000  0.06949000  0.83802000  1.0
  O  O478  1  0.82412000  0.56948000  0.66198000  1.0
  O  O479  1  0.17588000  0.93052000  0.16198000  1.0
  O  O480  1  0.85878000  0.12352000  0.74209000  1.0
  O  O481  1  0.14121000  0.37648000  0.24209000  1.0
  O  O482  1  0.14122000  0.87648000  0.25791000  1.0
  O  O483  1  0.85879000  0.62352000  0.75791000  1.0
  O  O484  1  0.58907000  0.06379000  0.66115000  1.0
  O  O485  1  0.41093000  0.43621000  0.16115000  1.0
  O  O486  1  0.41093000  0.93621000  0.33885000  1.0
  O  O487  1  0.58907000  0.56379000  0.83885000  1.0
  O  O488  1  0.45620000  0.79102000  0.50263000  1.0
  O  O489  1  0.54380000  0.70898000  0.00263000  1.0
  O  O490  1  0.54380000  0.20898000  0.49737000  1.0
  O  O491  1  0.45620000  0.29102000  0.99737000  1.0
  O  O492  1  0.78492000  0.70221000  0.24334000  1.0
  O  O493  1  0.21508000  0.79779000  0.74334000  1.0
  O  O494  1  0.21508000  0.29779000  0.75666000  1.0
  O  O495  1  0.78492000  0.20221000  0.25666000  1.0
  O  O496  1  0.98924000  0.32014000  0.53954000  1.0
  O  O497  1  0.01077000  0.17984000  0.03955000  1.0
  O  O498  1  0.01077000  0.67984000  0.46045000  1.0
  O  O499  1  0.98924000  0.82014000  0.96046000  1.0
