# generated using pymatgen
data_FeCu2H20(C6N5)2
_symmetry_space_group_name_H-M   'P 1'
_cell_length_a   7.65879000
_cell_length_b   9.92662000
_cell_length_c   12.70490000
_cell_angle_alpha   89.99970000
_cell_angle_beta   90.91510000
_cell_angle_gamma   89.99990000
_symmetry_Int_Tables_number   1
_chemical_formula_structural   FeCu2H20(C6N5)2
_chemical_formula_sum   'Fe2 Cu4 H40 C24 N20'
_cell_volume   965.77823853
_cell_formula_units_Z   2
loop_
 _symmetry_equiv_pos_site_id
 _symmetry_equiv_pos_as_xyz
  1  'x, y, z'
loop_
 _atom_site_type_symbol
 _atom_site_label
 _atom_site_symmetry_multiplicity
 _atom_site_fract_x
 _atom_site_fract_y
 _atom_site_fract_z
 _atom_site_occupancy
  Fe  Fe0  1  0.00000000  0.50000000  0.00000000  1.0
  Fe  Fe1  1  0.50000000  0.99999000  0.49999000  1.0
  Cu  Cu2  1  0.51573000  0.29708000  0.18268000  1.0
  Cu  Cu3  1  0.98428000  0.79709000  0.31732000  1.0
  Cu  Cu4  1  0.48427000  0.70292000  0.81732000  1.0
  Cu  Cu5  1  0.01572000  0.20291000  0.68268000  1.0
  H  H6  1  0.72535000  0.44855000  0.27269000  1.0
  H  H7  1  0.77466000  0.94857000  0.22731000  1.0
  H  H8  1  0.27465000  0.55144000  0.72731000  1.0
  H  H9  1  0.22534000  0.05144000  0.77269000  1.0
  H  H10  1  0.59663000  0.54601000  0.20260000  1.0
  H  H11  1  0.90340000  0.04601000  0.29740000  1.0
  H  H12  1  0.40337000  0.45399000  0.79740000  1.0
  H  H13  1  0.09661000  0.95399000  0.70260000  1.0
  H  H14  1  0.96622000  0.64284000  0.46723000  1.0
  H  H15  1  0.53378000  0.14285000  0.03276000  1.0
  H  H16  1  0.03377000  0.35716000  0.53276000  1.0
  H  H17  1  0.46623000  0.85715000  0.96724000  1.0
  H  H18  1  0.97729000  0.55037000  0.35876000  1.0
  H  H19  1  0.52271000  0.05038000  0.14123000  1.0
  H  H20  1  0.02270000  0.44963000  0.64123000  1.0
  H  H21  1  0.47729000  0.94962000  0.85878000  1.0
  H  H22  1  0.57685000  0.59140000  0.39341000  1.0
  H  H23  1  0.92315000  0.09142000  0.10659000  1.0
  H  H24  1  0.42314000  0.40859000  0.60659000  1.0
  H  H25  1  0.07685000  0.90859000  0.89341000  1.0
  H  H26  1  0.50181000  0.42079000  0.40457000  1.0
  H  H27  1  0.99820000  0.92080000  0.09543000  1.0
  H  H28  1  0.49819000  0.57921000  0.59544000  1.0
  H  H29  1  0.00180000  0.07920000  0.90457000  1.0
  H  H30  1  0.25110000  0.47902000  0.28118000  1.0
  H  H31  1  0.24890000  0.97904000  0.21882000  1.0
  H  H32  1  0.74889000  0.52097000  0.71882000  1.0
  H  H33  1  0.75110000  0.02097000  0.78118000  1.0
  H  H34  1  0.32203000  0.64804000  0.27884000  1.0
  H  H35  1  0.17798000  0.14806000  0.22115000  1.0
  H  H36  1  0.67797000  0.35195000  0.72115000  1.0
  H  H37  1  0.82202000  0.85195000  0.77884000  1.0
  H  H38  1  0.27960000  0.66927000  0.47188000  1.0
  H  H39  1  0.22040000  0.16928000  0.02812000  1.0
  H  H40  1  0.72040000  0.33073000  0.52812000  1.0
  H  H41  1  0.77960000  0.83072000  0.97188000  1.0
  H  H42  1  0.22419000  0.49544000  0.47885000  1.0
  H  H43  1  0.27581000  0.99546000  0.02114000  1.0
  H  H44  1  0.77580000  0.50455000  0.52115000  1.0
  H  H45  1  0.72420000  0.00454000  0.97886000  1.0
  C  C46  1  0.85986000  0.37042000  0.06530000  1.0
  C  C47  1  0.64014000  0.87043000  0.43470000  1.0
  C  C48  1  0.14014000  0.62958000  0.93470000  1.0
  C  C49  1  0.35985000  0.12959000  0.56531000  1.0
  C  C50  1  0.20419000  0.43272000  0.06437000  1.0
  C  C51  1  0.29582000  0.93272000  0.43563000  1.0
  C  C52  1  0.79581000  0.56728000  0.93563000  1.0
  C  C53  1  0.70419000  0.06728000  0.56437000  1.0
  C  C54  1  0.50454000  0.50982000  0.35323000  1.0
  C  C55  1  0.99546000  0.00983000  0.14677000  1.0
  C  C56  1  0.49546000  0.49018000  0.64677000  1.0
  C  C57  1  0.00454000  0.99018000  0.85323000  1.0
  C  C58  1  0.31973000  0.55655000  0.32779000  1.0
  C  C59  1  0.18028000  0.05657000  0.17221000  1.0
  C  C60  1  0.68027000  0.44344000  0.67221000  1.0
  C  C61  1  0.81972000  0.94344000  0.82779000  1.0
  C  C62  1  0.22030000  0.58540000  0.42780000  1.0
  C  C63  1  0.27971000  0.08541000  0.07220000  1.0
  C  C64  1  0.77970000  0.41459000  0.57220000  1.0
  C  C65  1  0.72029000  0.91459000  0.92780000  1.0
  C  C66  1  0.03077000  0.38401000  0.88490000  1.0
  C  C67  1  0.46924000  0.88401000  0.61511000  1.0
  C  C68  1  0.96923000  0.61599000  0.11510000  1.0
  C  C69  1  0.53077000  0.11599000  0.38490000  1.0
  N  N70  1  0.76502000  0.29240000  0.10555000  1.0
  N  N71  1  0.73500000  0.79240000  0.39444000  1.0
  N  N72  1  0.23498000  0.70760000  0.89445000  1.0
  N  N73  1  0.26502000  0.20760000  0.60555000  1.0
  N  N74  1  0.33397000  0.39181000  0.10391000  1.0
  N  N75  1  0.16603000  0.89181000  0.39609000  1.0
  N  N76  1  0.66603000  0.60818000  0.89609000  1.0
  N  N77  1  0.83397000  0.10820000  0.60392000  1.0
  N  N78  1  0.59710000  0.47006000  0.25713000  1.0
  N  N79  1  0.90291000  0.97006000  0.24287000  1.0
  N  N80  1  0.40290000  0.52995000  0.74287000  1.0
  N  N81  1  0.09709000  0.02994000  0.75713000  1.0
  N  N82  1  0.04989000  0.31087000  0.81262000  1.0
  N  N83  1  0.45011000  0.81087000  0.68739000  1.0
  N  N84  1  0.95011000  0.68913000  0.18737000  1.0
  N  N85  1  0.54989000  0.18913000  0.31261000  1.0
  N  N86  1  0.03884000  0.62336000  0.40223000  1.0
  N  N87  1  0.46116000  0.12336000  0.09776000  1.0
  N  N88  1  0.96116000  0.37664000  0.59777000  1.0
  N  N89  1  0.53884000  0.87664000  0.90224000  1.0
