# generated using pymatgen
data_AgH8C6S3O4F3
_symmetry_space_group_name_H-M   'P 1'
_cell_length_a   9.64429000
_cell_length_b   11.52997986
_cell_length_c   13.10464548
_cell_angle_alpha   66.01966460
_cell_angle_beta   68.43529601
_cell_angle_gamma   65.30426933
_symmetry_Int_Tables_number   1
_chemical_formula_structural   AgH8C6S3O4F3
_chemical_formula_sum   'Ag4 H32 C24 S12 O16 F12'
_cell_volume   1174.83891611
_cell_formula_units_Z   4
loop_
 _symmetry_equiv_pos_site_id
 _symmetry_equiv_pos_as_xyz
  1  'x, y, z'
loop_
 _atom_site_type_symbol
 _atom_site_label
 _atom_site_symmetry_multiplicity
 _atom_site_fract_x
 _atom_site_fract_y
 _atom_site_fract_z
 _atom_site_occupancy
  Ag  Ag0  1  0.61289000  0.13219000  0.21800000  1.0
  Ag  Ag1  1  0.03658000  0.63236000  0.71818000  1.0
  Ag  Ag2  1  0.38710000  0.86781000  0.78201000  1.0
  Ag  Ag3  1  0.96344000  0.36763000  0.28181000  1.0
  H  H4  1  0.58104000  0.39482000  0.95126000  1.0
  H  H5  1  0.07224000  0.89543000  0.45145000  1.0
  H  H6  1  0.41896000  0.60518000  0.04874000  1.0
  H  H7  1  0.92775000  0.10458000  0.54855000  1.0
  H  H8  1  0.66107000  0.41489000  0.04400000  1.0
  H  H9  1  0.87955000  0.91529000  0.54423000  1.0
  H  H10  1  0.33893000  0.58511000  0.95600000  1.0
  H  H11  1  0.12044000  0.08471000  0.45578000  1.0
  H  H12  1  0.72406000  0.54619000  0.82898000  1.0
  H  H13  1  0.90015000  0.04653000  0.32911000  1.0
  H  H14  1  0.27593000  0.45382000  0.17102000  1.0
  H  H15  1  0.09985000  0.95347000  0.67089000  1.0
  H  H16  1  0.85129000  0.39359000  0.80008000  1.0
  H  H17  1  0.95470000  0.89382000  0.30027000  1.0
  H  H18  1  0.14873000  0.60641000  0.19991000  1.0
  H  H19  1  0.04530000  0.10618000  0.69973000  1.0
  H  H20  1  0.18473000  0.33210000  0.80142000  1.0
  H  H21  1  0.68182000  0.83183000  0.30142000  1.0
  H  H22  1  0.81526000  0.66790000  0.19859000  1.0
  H  H23  1  0.31818000  0.16817000  0.69858000  1.0
  H  H24  1  0.18574000  0.30905000  0.94600000  1.0
  H  H25  1  0.55925000  0.80873000  0.44594000  1.0
  H  H26  1  0.81424000  0.69095000  0.05401000  1.0
  H  H27  1  0.44075000  0.19127000  0.55406000  1.0
  H  H28  1  0.93491000  0.22839000  0.09955000  1.0
  H  H29  1  0.73712000  0.72835000  0.59961000  1.0
  H  H30  1  0.06508000  0.77161000  0.90045000  1.0
  H  H31  1  0.26288000  0.27165000  0.40039000  1.0
  H  H32  1  0.99214000  0.06096000  0.09250000  1.0
  H  H33  1  0.85465000  0.56094000  0.59257000  1.0
  H  H34  1  0.00785000  0.93905000  0.90750000  1.0
  H  H35  1  0.14536000  0.43906000  0.40743000  1.0
  C  C36  1  0.69030000  0.37602000  0.97235000  1.0
  C  C37  1  0.96079000  0.87646000  0.47257000  1.0
  C  C38  1  0.30970000  0.62399000  0.02764000  1.0
  C  C39  1  0.03920000  0.12354000  0.52744000  1.0
  C  C40  1  0.79634000  0.44446000  0.86682000  1.0
  C  C41  1  0.89188000  0.94475000  0.36697000  1.0
  C  C42  1  0.20366000  0.55554000  0.13318000  1.0
  C  C43  1  0.10811000  0.05526000  0.63303000  1.0
  C  C44  1  0.11605000  0.31933000  0.89042000  1.0
  C  C45  1  0.67418000  0.81911000  0.39044000  1.0
  C  C46  1  0.88395000  0.68067000  0.10958000  1.0
  C  C47  1  0.32582000  0.18089000  0.60956000  1.0
  C  C48  1  0.06963000  0.19498000  0.93231000  1.0
  C  C49  1  0.80302000  0.69483000  0.43240000  1.0
  C  C50  1  0.93037000  0.80502000  0.06769000  1.0
  C  C51  1  0.19697000  0.30518000  0.56760000  1.0
  C  C52  1  0.95260000  0.16804000  0.04670000  1.0
  C  C53  1  0.83267000  0.66802000  0.54676000  1.0
  C  C54  1  0.04739000  0.83196000  0.95330000  1.0
  C  C55  1  0.16733000  0.33198000  0.45324000  1.0
  C  C56  1  0.50660000  0.54211000  0.31709000  1.0
  C  C57  1  0.63458000  0.04192000  0.81713000  1.0
  C  C58  1  0.49340000  0.45789000  0.68291000  1.0
  C  C59  1  0.36542000  0.95807000  0.18287000  1.0
  S  S60  1  0.76615000  0.19470000  0.02157000  1.0
  S  S61  1  0.01735000  0.69513000  0.52165000  1.0
  S  S62  1  0.23385000  0.80530000  0.97843000  1.0
  S  S63  1  0.98265000  0.30487000  0.47835000  1.0
  S  S64  1  0.94714000  0.46901000  0.90166000  1.0
  S  S65  1  0.68184000  0.96900000  0.40167000  1.0
  S  S66  1  0.05286000  0.53099000  0.09834000  1.0
  S  S67  1  0.31816000  0.03100000  0.59833000  1.0
  S  S68  1  0.60394000  0.36815000  0.30646000  1.0
  S  S69  1  0.72181000  0.86797000  0.80662000  1.0
  S  S70  1  0.39606000  0.63186000  0.69354000  1.0
  S  S71  1  0.27817000  0.13203000  0.19339000  1.0
  O  O72  1  0.12373000  0.11885000  0.87335000  1.0
  O  O73  1  0.88390000  0.61859000  0.37354000  1.0
  O  O74  1  0.87627000  0.88115000  0.12665000  1.0
  O  O75  1  0.11610000  0.38141000  0.62646000  1.0
  O  O76  1  0.49128000  0.35254000  0.26623000  1.0
  O  O77  1  0.89020000  0.85258000  0.76639000  1.0
  O  O78  1  0.50872000  0.64746000  0.73377000  1.0
  O  O79  1  0.10980000  0.14742000  0.23361000  1.0
  O  O80  1  0.62388000  0.28347000  0.42115000  1.0
  O  O81  1  0.67199000  0.78331000  0.92135000  1.0
  O  O82  1  0.37612000  0.71653000  0.57885000  1.0
  O  O83  1  0.32801000  0.21669000  0.07865000  1.0
  O  O84  1  0.75096000  0.37600000  0.21856000  1.0
  O  O85  1  0.65485000  0.87558000  0.71877000  1.0
  O  O86  1  0.24905000  0.62399000  0.78144000  1.0
  O  O87  1  0.34515000  0.12441000  0.28123000  1.0
  F  F88  1  0.48596000  0.62982000  0.21235000  1.0
  F  F89  1  0.67228000  0.12960000  0.71240000  1.0
  F  F90  1  0.51405000  0.37017000  0.78765000  1.0
  F  F91  1  0.32771000  0.87040000  0.28760000  1.0
  F  F92  1  0.36412000  0.55399000  0.39201000  1.0
  F  F93  1  0.69018000  0.05389000  0.89212000  1.0
  F  F94  1  0.63589000  0.44600000  0.60799000  1.0
  F  F95  1  0.30983000  0.94610000  0.10788000  1.0
  F  F96  1  0.59517000  0.57685000  0.35275000  1.0
  F  F97  1  0.47568000  0.07658000  0.85271000  1.0
  F  F98  1  0.40484000  0.42315000  0.64725000  1.0
  F  F99  1  0.52433000  0.92341000  0.14730000  1.0
