# generated using pymatgen
data_CuH16C14Se2(NCl)2
_symmetry_space_group_name_H-M   'P 1'
_cell_length_a   10.10100000
_cell_length_b   11.38540000
_cell_length_c   14.73210000
_cell_angle_alpha   89.99980000
_cell_angle_beta   89.99860000
_cell_angle_gamma   89.99980000
_symmetry_Int_Tables_number   1
_chemical_formula_structural   CuH16C14Se2(NCl)2
_chemical_formula_sum   'Cu4 H64 C56 Se8 N8 Cl8'
_cell_volume   1694.24932886
_cell_formula_units_Z   4
loop_
 _symmetry_equiv_pos_site_id
 _symmetry_equiv_pos_as_xyz
  1  'x, y, z'
loop_
 _atom_site_type_symbol
 _atom_site_label
 _atom_site_symmetry_multiplicity
 _atom_site_fract_x
 _atom_site_fract_y
 _atom_site_fract_z
 _atom_site_occupancy
  Cu  Cu0  1  0.00000000  0.00000000  0.50000000  1.0
  Cu  Cu1  1  0.50000000  0.50000000  0.50000000  1.0
  Cu  Cu2  1  0.00000000  0.50000000  1.00000000  1.0
  Cu  Cu3  1  0.50001000  0.99999000  0.99999000  1.0
  H  H4  1  0.92724000  0.81733000  0.36309000  1.0
  H  H5  1  0.42724000  0.68268000  0.63691000  1.0
  H  H6  1  0.07277000  0.31733000  0.13691000  1.0
  H  H7  1  0.57276000  0.18267000  0.86309000  1.0
  H  H8  1  0.07276000  0.18267000  0.63691000  1.0
  H  H9  1  0.57276000  0.31733000  0.36309000  1.0
  H  H10  1  0.92723000  0.68268000  0.86309000  1.0
  H  H11  1  0.42724000  0.81733000  0.13691000  1.0
  H  H12  1  0.01541000  0.75933000  0.20878000  1.0
  H  H13  1  0.51540000  0.74067000  0.79122000  1.0
  H  H14  1  0.98459000  0.25933000  0.29122000  1.0
  H  H15  1  0.48461000  0.24067000  0.70879000  1.0
  H  H16  1  0.98459000  0.24067000  0.79122000  1.0
  H  H17  1  0.48460000  0.25933000  0.20879000  1.0
  H  H18  1  0.01540000  0.74067000  0.70878000  1.0
  H  H19  1  0.51539000  0.75933000  0.29121000  1.0
  H  H20  1  0.20430000  0.87288000  0.14456000  1.0
  H  H21  1  0.70429000  0.62714000  0.85544000  1.0
  H  H22  1  0.79570000  0.37288000  0.35544000  1.0
  H  H23  1  0.29570000  0.12714000  0.64456000  1.0
  H  H24  1  0.79569000  0.12712000  0.85543000  1.0
  H  H25  1  0.29570000  0.37286000  0.14456000  1.0
  H  H26  1  0.20430000  0.62713000  0.64456000  1.0
  H  H27  1  0.70430000  0.87286000  0.35544000  1.0
  H  H28  1  0.29317000  0.04594000  0.22971000  1.0
  H  H29  1  0.79316000  0.45407000  0.77028000  1.0
  H  H30  1  0.70683000  0.54594000  0.27029000  1.0
  H  H31  1  0.20684000  0.95407000  0.72972000  1.0
  H  H32  1  0.70683000  0.95406000  0.77029000  1.0
  H  H33  1  0.20684000  0.54593000  0.22972000  1.0
  H  H34  1  0.29317000  0.45407000  0.72971000  1.0
  H  H35  1  0.79316000  0.04594000  0.27028000  1.0
  H  H36  1  0.44470000  0.10306000  0.35725000  1.0
  H  H37  1  0.94469000  0.39694000  0.64275000  1.0
  H  H38  1  0.55530000  0.60306000  0.14275000  1.0
  H  H39  1  0.05530000  0.89694000  0.85725000  1.0
  H  H40  1  0.55531000  0.89694000  0.64275000  1.0
  H  H41  1  0.05531000  0.60306000  0.35725000  1.0
  H  H42  1  0.44470000  0.39694000  0.85725000  1.0
  H  H43  1  0.94470000  0.10306000  0.14275000  1.0
  H  H44  1  0.44321000  0.18957000  0.45842000  1.0
  H  H45  1  0.94321000  0.31043000  0.54158000  1.0
  H  H46  1  0.55679000  0.68957000  0.04158000  1.0
  H  H47  1  0.05679000  0.81043000  0.95842000  1.0
  H  H48  1  0.55679000  0.81043000  0.54158000  1.0
  H  H49  1  0.05679000  0.68957000  0.45842000  1.0
  H  H50  1  0.44321000  0.31043000  0.95842000  1.0
  H  H51  1  0.94321000  0.18957000  0.04159000  1.0
  H  H52  1  0.40525000  0.92210000  0.44421000  1.0
  H  H53  1  0.90525000  0.57790000  0.55579000  1.0
  H  H54  1  0.59476000  0.42210000  0.05579000  1.0
  H  H55  1  0.09475000  0.07790000  0.94421000  1.0
  H  H56  1  0.59475000  0.07790000  0.55579000  1.0
  H  H57  1  0.09476000  0.42210000  0.44421000  1.0
  H  H58  1  0.40525000  0.57790000  0.94421000  1.0
  H  H59  1  0.90524000  0.92210000  0.05579000  1.0
  H  H60  1  0.35988000  0.00052000  0.54144000  1.0
  H  H61  1  0.85988000  0.49948000  0.45856000  1.0
  H  H62  1  0.64012000  0.50052000  0.95856000  1.0
  H  H63  1  0.14012000  0.99948000  0.04144000  1.0
  H  H64  1  0.64012000  0.99948000  0.45856000  1.0
  H  H65  1  0.14012000  0.50052000  0.54144000  1.0
  H  H66  1  0.35988000  0.49948000  0.04144000  1.0
  H  H67  1  0.85988000  0.00052000  0.95856000  1.0
  C  C68  1  0.16005000  0.01852000  0.34324000  1.0
  C  C69  1  0.66004000  0.48148000  0.65676000  1.0
  C  C70  1  0.83995000  0.51852000  0.15676000  1.0
  C  C71  1  0.33996000  0.98148000  0.84324000  1.0
  C  C72  1  0.83996000  0.98148000  0.65676000  1.0
  C  C73  1  0.33996000  0.51852000  0.34324000  1.0
  C  C74  1  0.16004000  0.48148000  0.84324000  1.0
  C  C75  1  0.66004000  0.01852000  0.15676000  1.0
  C  C76  1  0.00848000  0.86441000  0.33070000  1.0
  C  C77  1  0.50848000  0.63558000  0.66931000  1.0
  C  C78  1  0.99152000  0.36441000  0.16930000  1.0
  C  C79  1  0.49152000  0.13558000  0.83070000  1.0
  C  C80  1  0.99152000  0.13559000  0.66930000  1.0
  C  C81  1  0.49152000  0.36442000  0.33070000  1.0
  C  C82  1  0.00848000  0.63559000  0.83070000  1.0
  C  C83  1  0.50848000  0.86442000  0.16930000  1.0
  C  C84  1  0.05779000  0.83268000  0.24628000  1.0
  C  C85  1  0.55777000  0.66731000  0.75372000  1.0
  C  C86  1  0.94222000  0.33268000  0.25372000  1.0
  C  C87  1  0.44222000  0.16732000  0.74628000  1.0
  C  C88  1  0.94221000  0.16732000  0.75372000  1.0
  C  C89  1  0.44222000  0.33268000  0.24628000  1.0
  C  C90  1  0.05779000  0.66733000  0.74628000  1.0
  C  C91  1  0.55777000  0.83269000  0.25372000  1.0
  C  C92  1  0.16359000  0.89663000  0.21056000  1.0
  C  C93  1  0.66358000  0.60338000  0.78944000  1.0
  C  C94  1  0.83641000  0.39663000  0.28944000  1.0
  C  C95  1  0.33642000  0.10338000  0.71056000  1.0
  C  C96  1  0.83641000  0.10337000  0.78944000  1.0
  C  C97  1  0.33642000  0.39663000  0.21056000  1.0
  C  C98  1  0.16358000  0.60338000  0.71056000  1.0
  C  C99  1  0.66358000  0.89662000  0.28944000  1.0
  C  C100  1  0.21473000  0.99177000  0.25867000  1.0
  C  C101  1  0.71473000  0.50824000  0.74133000  1.0
  C  C102  1  0.78527000  0.49177000  0.24133000  1.0
  C  C103  1  0.28527000  0.00824000  0.75866000  1.0
  C  C104  1  0.78527000  0.00823000  0.74133000  1.0
  C  C105  1  0.28527000  0.49176000  0.25867000  1.0
  C  C106  1  0.21473000  0.50824000  0.75867000  1.0
  C  C107  1  0.71473000  0.99176000  0.24134000  1.0
  C  C108  1  0.40339000  0.11034000  0.42593000  1.0
  C  C109  1  0.90339000  0.38966000  0.57407000  1.0
  C  C110  1  0.59661000  0.61034000  0.07407000  1.0
  C  C111  1  0.09661000  0.88966000  0.92593000  1.0
  C  C112  1  0.59661000  0.88966000  0.57406000  1.0
  C  C113  1  0.09661000  0.61034000  0.42593000  1.0
  C  C114  1  0.40339000  0.38966000  0.92593000  1.0
  C  C115  1  0.90339000  0.11034000  0.07407000  1.0
  C  C116  1  0.42812000  0.00191000  0.48343000  1.0
  C  C117  1  0.92812000  0.49809000  0.51657000  1.0
  C  C118  1  0.57188000  0.50191000  0.01657000  1.0
  C  C119  1  0.07188000  0.99809000  0.98343000  1.0
  C  C120  1  0.57188000  0.99809000  0.51657000  1.0
  C  C121  1  0.07188000  0.50191000  0.48343000  1.0
  C  C122  1  0.42812000  0.49809000  0.98343000  1.0
  C  C123  1  0.92812000  0.00191000  0.01657000  1.0
  Se  Se124  1  0.21380000  0.15191000  0.41549000  1.0
  Se  Se125  1  0.71379000  0.34809000  0.58452000  1.0
  Se  Se126  1  0.78621000  0.65191000  0.08451000  1.0
  Se  Se127  1  0.28621000  0.84809000  0.91548000  1.0
  Se  Se128  1  0.78621000  0.84809000  0.58450000  1.0
  Se  Se129  1  0.28621000  0.65192000  0.41549000  1.0
  Se  Se130  1  0.21379000  0.34808000  0.91548000  1.0
  Se  Se131  1  0.71379000  0.15191000  0.08452000  1.0
  N  N132  1  0.06054000  0.95407000  0.37822000  1.0
  N  N133  1  0.56054000  0.54593000  0.62178000  1.0
  N  N134  1  0.93947000  0.45408000  0.12178000  1.0
  N  N135  1  0.43946000  0.04593000  0.87822000  1.0
  N  N136  1  0.93946000  0.04593000  0.62178000  1.0
  N  N137  1  0.43946000  0.45407000  0.37822000  1.0
  N  N138  1  0.06053000  0.54592000  0.87822000  1.0
  N  N139  1  0.56055000  0.95407000  0.12178000  1.0
  Cl  Cl140  1  0.86590000  0.14129000  0.43296000  1.0
  Cl  Cl141  1  0.36589000  0.35873000  0.56702000  1.0
  Cl  Cl142  1  0.13409000  0.64128000  0.06702000  1.0
  Cl  Cl143  1  0.63414000  0.85868000  0.93296000  1.0
  Cl  Cl144  1  0.13409000  0.85871000  0.56704000  1.0
  Cl  Cl145  1  0.63411000  0.64128000  0.43298000  1.0
  Cl  Cl146  1  0.86590000  0.35871000  0.93297000  1.0
  Cl  Cl147  1  0.36588000  0.14126000  0.06702000  1.0
