# generated using pymatgen
data_CdH34C38(NO)4
_symmetry_space_group_name_H-M   'P 1'
_cell_length_a   10.31570000
_cell_length_b   12.38560000
_cell_length_c   28.25310000
_cell_angle_alpha   90.00040000
_cell_angle_beta   89.99980000
_cell_angle_gamma   89.99980000
_symmetry_Int_Tables_number   1
_chemical_formula_structural   CdH34C38(NO)4
_chemical_formula_sum   'Cd4 H136 C152 N16 O16'
_cell_volume   3609.78935812
_cell_formula_units_Z   4
loop_
 _symmetry_equiv_pos_site_id
 _symmetry_equiv_pos_as_xyz
  1  'x, y, z'
loop_
 _atom_site_type_symbol
 _atom_site_label
 _atom_site_symmetry_multiplicity
 _atom_site_fract_x
 _atom_site_fract_y
 _atom_site_fract_z
 _atom_site_occupancy
  Cd  Cd0  1  0.76725000  0.15319000  0.93850000  1.0
  Cd  Cd1  1  0.73275000  0.84681000  0.43851000  1.0
  Cd  Cd2  1  0.23275000  0.65319000  0.56149000  1.0
  Cd  Cd3  1  0.26725000  0.34681000  0.06149000  1.0
  H  H4  1  0.39125000  0.04864000  0.15142000  1.0
  H  H5  1  0.10876000  0.95136000  0.65141000  1.0
  H  H6  1  0.60876000  0.54863000  0.34858000  1.0
  H  H7  1  0.89124000  0.45136000  0.84858000  1.0
  H  H8  1  0.39491000  0.88844000  0.20510000  1.0
  H  H9  1  0.10510000  0.11155000  0.70510000  1.0
  H  H10  1  0.60510000  0.38844000  0.29490000  1.0
  H  H11  1  0.89492000  0.61156000  0.79490000  1.0
  H  H12  1  0.45347000  0.69697000  0.21939000  1.0
  H  H13  1  0.04654000  0.30302000  0.71940000  1.0
  H  H14  1  0.54654000  0.19697000  0.28061000  1.0
  H  H15  1  0.95347000  0.80303000  0.78061000  1.0
  H  H16  1  0.56737000  0.59106000  0.15691000  1.0
  H  H17  1  0.93264000  0.40893000  0.65691000  1.0
  H  H18  1  0.43264000  0.09107000  0.34309000  1.0
  H  H19  1  0.06736000  0.90893000  0.84310000  1.0
  H  H20  1  0.63017000  0.67796000  0.08141000  1.0
  H  H21  1  0.86984000  0.32203000  0.58141000  1.0
  H  H22  1  0.36984000  0.17796000  0.41859000  1.0
  H  H23  1  0.13017000  0.82203000  0.91859000  1.0
  H  H24  1  0.63356000  0.84144000  0.02947000  1.0
  H  H25  1  0.86645000  0.15855000  0.52948000  1.0
  H  H26  1  0.36645000  0.34144000  0.47053000  1.0
  H  H27  1  0.13355000  0.65855000  0.97053000  1.0
  H  H28  1  0.07009000  0.16611000  0.97137000  1.0
  H  H29  1  0.42992000  0.83390000  0.47137000  1.0
  H  H30  1  0.92991000  0.66611000  0.52863000  1.0
  H  H31  1  0.57009000  0.33389000  0.02863000  1.0
  H  H32  1  0.81176000  0.91046000  0.96921000  1.0
  H  H33  1  0.68824000  0.08955000  0.46921000  1.0
  H  H34  1  0.18823000  0.41045000  0.53079000  1.0
  H  H35  1  0.31176000  0.58954000  0.03079000  1.0
  H  H36  1  0.97083000  0.78780000  0.00913000  1.0
  H  H37  1  0.52917000  0.21222000  0.50913000  1.0
  H  H38  1  0.02916000  0.28779000  0.49087000  1.0
  H  H39  1  0.47083000  0.71221000  0.99087000  1.0
  H  H40  1  0.24014000  0.05607000  0.01049000  1.0
  H  H41  1  0.25987000  0.94393000  0.51049000  1.0
  H  H42  1  0.75986000  0.55607000  0.48951000  1.0
  H  H43  1  0.74015000  0.44393000  0.98951000  1.0
  H  H44  1  0.30344000  0.89200000  0.04750000  1.0
  H  H45  1  0.19656000  0.10801000  0.54750000  1.0
  H  H46  1  0.69656000  0.39200000  0.45250000  1.0
  H  H47  1  0.80344000  0.60801000  0.95250000  1.0
  H  H48  1  0.25653000  0.78108000  0.01264000  1.0
  H  H49  1  0.24347000  0.21893000  0.51264000  1.0
  H  H50  1  0.74347000  0.28108000  0.48736000  1.0
  H  H51  1  0.75654000  0.71892000  0.98736000  1.0
  H  H52  1  0.09399000  0.72328000  0.07151000  1.0
  H  H53  1  0.40602000  0.27673000  0.57151000  1.0
  H  H54  1  0.90601000  0.22328000  0.42849000  1.0
  H  H55  1  0.59399000  0.77672000  0.92849000  1.0
  H  H56  1  0.24693000  0.73587000  0.09808000  1.0
  H  H57  1  0.25308000  0.26414000  0.59808000  1.0
  H  H58  1  0.75307000  0.23586000  0.40192000  1.0
  H  H59  1  0.74693000  0.76414000  0.90192000  1.0
  H  H60  1  0.04459000  0.91729000  0.10005000  1.0
  H  H61  1  0.45542000  0.08272000  0.60005000  1.0
  H  H62  1  0.95542000  0.41727000  0.39995000  1.0
  H  H63  1  0.54459000  0.58272000  0.89995000  1.0
  H  H64  1  0.19094000  0.91444000  0.13167000  1.0
  H  H65  1  0.30906000  0.08556000  0.63166000  1.0
  H  H66  1  0.80906000  0.41444000  0.36834000  1.0
  H  H67  1  0.69095000  0.58556000  0.86833000  1.0
  H  H68  1  0.89616000  0.73122000  0.11584000  1.0
  H  H69  1  0.60384000  0.26877000  0.61584000  1.0
  H  H70  1  0.10383000  0.23122000  0.38416000  1.0
  H  H71  1  0.39617000  0.76877000  0.88416000  1.0
  H  H72  1  0.77798000  0.65683000  0.18498000  1.0
  H  H73  1  0.72202000  0.34318000  0.68499000  1.0
  H  H74  1  0.22202000  0.15682000  0.31501000  1.0
  H  H75  1  0.27799000  0.84317000  0.81501000  1.0
  H  H76  1  0.16251000  0.87884000  0.21413000  1.0
  H  H77  1  0.33750000  0.12116000  0.71414000  1.0
  H  H78  1  0.83749000  0.37884000  0.28586000  1.0
  H  H79  1  0.66251000  0.62116000  0.78586000  1.0
  H  H80  1  0.03053000  0.79980000  0.27960000  1.0
  H  H81  1  0.46947000  0.20020000  0.77961000  1.0
  H  H82  1  0.96947000  0.29980000  0.22039000  1.0
  H  H83  1  0.53054000  0.70020000  0.72039000  1.0
  H  H84  1  0.04940000  0.61595000  0.65099000  1.0
  H  H85  1  0.45061000  0.38406000  0.15098000  1.0
  H  H86  1  0.95060000  0.11595000  0.84901000  1.0
  H  H87  1  0.54938000  0.88405000  0.34902000  1.0
  H  H88  1  0.04803000  0.53326000  0.73219000  1.0
  H  H89  1  0.45197000  0.46675000  0.23219000  1.0
  H  H90  1  0.95197000  0.03326000  0.76781000  1.0
  H  H91  1  0.54802000  0.96673000  0.26781000  1.0
  H  H92  1  0.41569000  0.49900000  0.62283000  1.0
  H  H93  1  0.08431000  0.50100000  0.12283000  1.0
  H  H94  1  0.58431000  0.99899000  0.87717000  1.0
  H  H95  1  0.91568000  0.00100000  0.37718000  1.0
  H  H96  1  0.43390000  0.41602000  0.70371000  1.0
  H  H97  1  0.06609000  0.58398000  0.20371000  1.0
  H  H98  1  0.56610000  0.91602000  0.79629000  1.0
  H  H99  1  0.93389000  0.08397000  0.29629000  1.0
  H  H100  1  0.15103000  0.38548000  0.78328000  1.0
  H  H101  1  0.34896000  0.61453000  0.28328000  1.0
  H  H102  1  0.84897000  0.88548000  0.71672000  1.0
  H  H103  1  0.65103000  0.11452000  0.21672000  1.0
  H  H104  1  0.31655000  0.35288000  0.77453000  1.0
  H  H105  1  0.18344000  0.64713000  0.27453000  1.0
  H  H106  1  0.68345000  0.85287000  0.72547000  1.0
  H  H107  1  0.81654000  0.14712000  0.22547000  1.0
  H  H108  1  0.37672000  0.54170000  0.79985000  1.0
  H  H109  1  0.12328000  0.45831000  0.29986000  1.0
  H  H110  1  0.62328000  0.04169000  0.70015000  1.0
  H  H111  1  0.87672000  0.95831000  0.20015000  1.0
  H  H112  1  0.21234000  0.57251000  0.80771000  1.0
  H  H113  1  0.28766000  0.42750000  0.30771000  1.0
  H  H114  1  0.78765000  0.07251000  0.69229000  1.0
  H  H115  1  0.71235000  0.92749000  0.19229000  1.0
  H  H116  1  0.19263000  0.42636000  0.86910000  1.0
  H  H117  1  0.30736000  0.57367000  0.36909000  1.0
  H  H118  1  0.80737000  0.92635000  0.63090000  1.0
  H  H119  1  0.69263000  0.07365000  0.13091000  1.0
  H  H120  1  0.29333000  0.53360000  0.88483000  1.0
  H  H121  1  0.20668000  0.46642000  0.38483000  1.0
  H  H122  1  0.70666000  0.03358000  0.61517000  1.0
  H  H123  1  0.79334000  0.96641000  0.11517000  1.0
  H  H124  1  0.52725000  0.42168000  0.81593000  1.0
  H  H125  1  0.97275000  0.57833000  0.31593000  1.0
  H  H126  1  0.47276000  0.92166000  0.68408000  1.0
  H  H127  1  0.02725000  0.07834000  0.18407000  1.0
  H  H128  1  0.69829000  0.29988000  0.84704000  1.0
  H  H129  1  0.80170000  0.70012000  0.34704000  1.0
  H  H130  1  0.30172000  0.79987000  0.65296000  1.0
  H  H131  1  0.19829000  0.20013000  0.15296000  1.0
  H  H132  1  0.28854000  0.32621000  0.93485000  1.0
  H  H133  1  0.21145000  0.67380000  0.43485000  1.0
  H  H134  1  0.71146000  0.82620000  0.56515000  1.0
  H  H135  1  0.78854000  0.17379000  0.06515000  1.0
  H  H136  1  0.47046000  0.20965000  0.96137000  1.0
  H  H137  1  0.02952000  0.79035000  0.46137000  1.0
  H  H138  1  0.52954000  0.70965000  0.53863000  1.0
  H  H139  1  0.97046000  0.29034000  0.03863000  1.0
  C  C140  1  0.60060000  0.04366000  0.00372000  1.0
  C  C141  1  0.89941000  0.95634000  0.50372000  1.0
  C  C142  1  0.39940000  0.54366000  0.49628000  1.0
  C  C143  1  0.10060000  0.45634000  0.99628000  1.0
  C  C144  1  0.54577000  0.99160000  0.04756000  1.0
  C  C145  1  0.95423000  0.00840000  0.54756000  1.0
  C  C146  1  0.45423000  0.49160000  0.45244000  1.0
  C  C147  1  0.04577000  0.50839000  0.95244000  1.0
  C  C148  1  0.47539000  0.05073000  0.08249000  1.0
  C  C149  1  0.02461000  0.94926000  0.58249000  1.0
  C  C150  1  0.52462000  0.55073000  0.41751000  1.0
  C  C151  1  0.97538000  0.44927000  0.91751000  1.0
  C  C152  1  0.44382000  0.00166000  0.12493000  1.0
  C  C153  1  0.05617000  0.99834000  0.62493000  1.0
  C  C154  1  0.55618000  0.50166000  0.37507000  1.0
  C  C155  1  0.94383000  0.49834000  0.87507000  1.0
  C  C156  1  0.47754000  0.89313000  0.13471000  1.0
  C  C157  1  0.02246000  0.10686000  0.63471000  1.0
  C  C158  1  0.52247000  0.39313000  0.36529000  1.0
  C  C159  1  0.97754000  0.60686000  0.86529000  1.0
  C  C160  1  0.44596000  0.84190000  0.17809000  1.0
  C  C161  1  0.05405000  0.15809000  0.67809000  1.0
  C  C162  1  0.55405000  0.34189000  0.32191000  1.0
  C  C163  1  0.94596000  0.65810000  0.82191000  1.0
  C  C164  1  0.47851000  0.73545000  0.18597000  1.0
  C  C165  1  0.02149000  0.26455000  0.68598000  1.0
  C  C166  1  0.52150000  0.23544000  0.31403000  1.0
  C  C167  1  0.97852000  0.76455000  0.81403000  1.0
  C  C168  1  0.54430000  0.67573000  0.15069000  1.0
  C  C169  1  0.95571000  0.32427000  0.65069000  1.0
  C  C170  1  0.45570000  0.17573000  0.34931000  1.0
  C  C171  1  0.04430000  0.82426000  0.84931000  1.0
  C  C172  1  0.57876000  0.72377000  0.10849000  1.0
  C  C173  1  0.92126000  0.27623000  0.60850000  1.0
  C  C174  1  0.42125000  0.22377000  0.39150000  1.0
  C  C175  1  0.07875000  0.77623000  0.89150000  1.0
  C  C176  1  0.54620000  0.83299000  0.09930000  1.0
  C  C177  1  0.95382000  0.16702000  0.59930000  1.0
  C  C178  1  0.45381000  0.33298000  0.40070000  1.0
  C  C179  1  0.04619000  0.66701000  0.90070000  1.0
  C  C180  1  0.57888000  0.88532000  0.05636000  1.0
  C  C181  1  0.92113000  0.11468000  0.55636000  1.0
  C  C182  1  0.42112000  0.38532000  0.44364000  1.0
  C  C183  1  0.07888000  0.61468000  0.94365000  1.0
  C  C184  1  0.42434000  0.16295000  0.07432000  1.0
  C  C185  1  0.07566000  0.83704000  0.57432000  1.0
  C  C186  1  0.57565000  0.66295000  0.42568000  1.0
  C  C187  1  0.92433000  0.33704000  0.92568000  1.0
  C  C188  1  0.05231000  0.08131000  0.97978000  1.0
  C  C189  1  0.44769000  0.91869000  0.47978000  1.0
  C  C190  1  0.94769000  0.58131000  0.52022000  1.0
  C  C191  1  0.55231000  0.41869000  0.02022000  1.0
  C  C192  1  0.90834000  0.93843000  0.97917000  1.0
  C  C193  1  0.59166000  0.06158000  0.47917000  1.0
  C  C194  1  0.09165000  0.43842000  0.52083000  1.0
  C  C195  1  0.40835000  0.56157000  0.02083000  1.0
  C  C196  1  0.99730000  0.87128000  0.00149000  1.0
  C  C197  1  0.50270000  0.12872000  0.50149000  1.0
  C  C198  1  0.00270000  0.37128000  0.49851000  1.0
  C  C199  1  0.49730000  0.62872000  0.99851000  1.0
  C  C200  1  0.14719000  0.01874000  0.00175000  1.0
  C  C201  1  0.35280000  0.98127000  0.50175000  1.0
  C  C202  1  0.85281000  0.51874000  0.49825000  1.0
  C  C203  1  0.64720000  0.48126000  0.99825000  1.0
  C  C204  1  0.12046000  0.91112000  0.01339000  1.0
  C  C205  1  0.37954000  0.08889000  0.51339000  1.0
  C  C206  1  0.87953000  0.41112000  0.48660000  1.0
  C  C207  1  0.62047000  0.58888000  0.98661000  1.0
  C  C208  1  0.21984000  0.84159000  0.03798000  1.0
  C  C209  1  0.28016000  0.15842000  0.53798000  1.0
  C  C210  1  0.78016000  0.34159000  0.46202000  1.0
  C  C211  1  0.71984000  0.65842000  0.96202000  1.0
  C  C212  1  0.16788000  0.78278000  0.08194000  1.0
  C  C213  1  0.33212000  0.21723000  0.58194000  1.0
  C  C214  1  0.83212000  0.28278000  0.41806000  1.0
  C  C215  1  0.66788000  0.71722000  0.91806000  1.0
  C  C216  1  0.11269000  0.86265000  0.11822000  1.0
  C  C217  1  0.38731000  0.13735000  0.61822000  1.0
  C  C218  1  0.88731000  0.36265000  0.38177000  1.0
  C  C219  1  0.61269000  0.63735000  0.88177000  1.0
  C  C220  1  0.04163000  0.81162000  0.15887000  1.0
  C  C221  1  0.45837000  0.18839000  0.65887000  1.0
  C  C222  1  0.95837000  0.31161000  0.34112000  1.0
  C  C223  1  0.54164000  0.68839000  0.84112000  1.0
  C  C224  1  0.93118000  0.74773000  0.15157000  1.0
  C  C225  1  0.56882000  0.25227000  0.65157000  1.0
  C  C226  1  0.06882000  0.24773000  0.34843000  1.0
  C  C227  1  0.43119000  0.75227000  0.84843000  1.0
  C  C228  1  0.86460000  0.70594000  0.19041000  1.0
  C  C229  1  0.63539000  0.29407000  0.69041000  1.0
  C  C230  1  0.13539000  0.20594000  0.30959000  1.0
  C  C231  1  0.36461000  0.79406000  0.80959000  1.0
  C  C232  1  0.07793000  0.82931000  0.20601000  1.0
  C  C233  1  0.42207000  0.17069000  0.70601000  1.0
  C  C234  1  0.92207000  0.32931000  0.29399000  1.0
  C  C235  1  0.57794000  0.67069000  0.79399000  1.0
  C  C236  1  0.00431000  0.78497000  0.24266000  1.0
  C  C237  1  0.49569000  0.21503000  0.74266000  1.0
  C  C238  1  0.99569000  0.28497000  0.25734000  1.0
  C  C239  1  0.50432000  0.71502000  0.75734000  1.0
  C  C240  1  0.13115000  0.56891000  0.66413000  1.0
  C  C241  1  0.36885000  0.43109000  0.16414000  1.0
  C  C242  1  0.86885000  0.06891000  0.83586000  1.0
  C  C243  1  0.63114000  0.93108000  0.33586000  1.0
  C  C244  1  0.13221000  0.52381000  0.70915000  1.0
  C  C245  1  0.36779000  0.47619000  0.20915000  1.0
  C  C246  1  0.86779000  0.02381000  0.79085000  1.0
  C  C247  1  0.63220000  0.97618000  0.29085000  1.0
  C  C248  1  0.33733000  0.50497000  0.64868000  1.0
  C  C249  1  0.16267000  0.49503000  0.14867000  1.0
  C  C250  1  0.66267000  0.00497000  0.85132000  1.0
  C  C251  1  0.83732000  0.99503000  0.35133000  1.0
  C  C252  1  0.34595000  0.45854000  0.69340000  1.0
  C  C253  1  0.15405000  0.54145000  0.19340000  1.0
  C  C254  1  0.65406000  0.95854000  0.80660000  1.0
  C  C255  1  0.84593000  0.04146000  0.30660000  1.0
  C  C256  1  0.24102000  0.46631000  0.72464000  1.0
  C  C257  1  0.25897000  0.53369000  0.22464000  1.0
  C  C258  1  0.75898000  0.96631000  0.77536000  1.0
  C  C259  1  0.74101000  0.03369000  0.27536000  1.0
  C  C260  1  0.24616000  0.41941000  0.77353000  1.0
  C  C261  1  0.25383000  0.58060000  0.27353000  1.0
  C  C262  1  0.75384000  0.91941000  0.72647000  1.0
  C  C263  1  0.74615000  0.08059000  0.22647000  1.0
  C  C264  1  0.28304000  0.50631000  0.80983000  1.0
  C  C265  1  0.21695000  0.49370000  0.30983000  1.0
  C  C266  1  0.71695000  0.00631000  0.69017000  1.0
  C  C267  1  0.78305000  0.99369000  0.19017000  1.0
  C  C268  1  0.28605000  0.46428000  0.86043000  1.0
  C  C269  1  0.21395000  0.53574000  0.36043000  1.0
  C  C270  1  0.71395000  0.96427000  0.63957000  1.0
  C  C271  1  0.78605000  0.03573000  0.13957000  1.0
  C  C272  1  0.39257000  0.38667000  0.87345000  1.0
  C  C273  1  0.10742000  0.61334000  0.37345000  1.0
  C  C274  1  0.60743000  0.88666000  0.62655000  1.0
  C  C275  1  0.89257000  0.11334000  0.12655000  1.0
  C  C276  1  0.50953000  0.37708000  0.84855000  1.0
  C  C277  1  0.99046000  0.62293000  0.34855000  1.0
  C  C278  1  0.49047000  0.87706000  0.65146000  1.0
  C  C279  1  0.00953000  0.12294000  0.15145000  1.0
  C  C280  1  0.60618000  0.30891000  0.86565000  1.0
  C  C281  1  0.89381000  0.69109000  0.36565000  1.0
  C  C282  1  0.39382000  0.80890000  0.63435000  1.0
  C  C283  1  0.10618000  0.19110000  0.13435000  1.0
  C  C284  1  0.37781000  0.32285000  0.91408000  1.0
  C  C285  1  0.12219000  0.67716000  0.41408000  1.0
  C  C286  1  0.62219000  0.82284000  0.58592000  1.0
  C  C287  1  0.87780000  0.17716000  0.08592000  1.0
  C  C288  1  0.47908000  0.25743000  0.92910000  1.0
  C  C289  1  0.02091000  0.74257000  0.42910000  1.0
  C  C290  1  0.52092000  0.75743000  0.57090000  1.0
  C  C291  1  0.97908000  0.24257000  0.07090000  1.0
  N  N292  1  0.93450000  0.04223000  0.96867000  1.0
  N  N293  1  0.56550000  0.95779000  0.46867000  1.0
  N  N294  1  0.06550000  0.54222000  0.53133000  1.0
  N  N295  1  0.43450000  0.45777000  0.03133000  1.0
  N  N296  1  0.89901000  0.72335000  0.23568000  1.0
  N  N297  1  0.60099000  0.27666000  0.73568000  1.0
  N  N298  1  0.10099000  0.22334000  0.26432000  1.0
  N  N299  1  0.39902000  0.77665000  0.76432000  1.0
  N  N300  1  0.59257000  0.25117000  0.90564000  1.0
  N  N301  1  0.90741000  0.74884000  0.40564000  1.0
  N  N302  1  0.40743000  0.75116000  0.59436000  1.0
  N  N303  1  0.09257000  0.24884000  0.09436000  1.0
  N  N304  1  0.23164000  0.55902000  0.63418000  1.0
  N  N305  1  0.26837000  0.44098000  0.13417000  1.0
  N  N306  1  0.76836000  0.05902000  0.86582000  1.0
  N  N307  1  0.73162000  0.94098000  0.36583000  1.0
  O  O308  1  0.60448000  0.99070000  0.96549000  1.0
  O  O309  1  0.89550000  0.00931000  0.46549000  1.0
  O  O310  1  0.39551000  0.49070000  0.53451000  1.0
  O  O311  1  0.10448000  0.50930000  0.03451000  1.0
  O  O312  1  0.65050000  0.13767000  0.00941000  1.0
  O  O313  1  0.84952000  0.86232000  0.50941000  1.0
  O  O314  1  0.34951000  0.63768000  0.49059000  1.0
  O  O315  1  0.15050000  0.36233000  0.99059000  1.0
  O  O316  1  0.36971000  0.18236000  0.03459000  1.0
  O  O317  1  0.13030000  0.81764000  0.53459000  1.0
  O  O318  1  0.63030000  0.68235000  0.46540000  1.0
  O  O319  1  0.86971000  0.31764000  0.96541000  1.0
  O  O320  1  0.42855000  0.22952000  0.10837000  1.0
  O  O321  1  0.07146000  0.77047000  0.60837000  1.0
  O  O322  1  0.57143000  0.72953000  0.39163000  1.0
  O  O323  1  0.92852000  0.27048000  0.89163000  1.0
