# generated using pymatgen
data_ZnH4C6(N3O2)2
_symmetry_space_group_name_H-M   'P 1'
_cell_length_a   15.01856358
_cell_length_b   15.01840000
_cell_length_c   15.01840000
_cell_angle_alpha   109.47100000
_cell_angle_beta   109.47144127
_cell_angle_gamma   109.47144127
_symmetry_Int_Tables_number   1
_chemical_formula_structural   ZnH4C6(N3O2)2
_chemical_formula_sum   'Zn6 H24 C36 N36 O24'
_cell_volume   2607.67016575
_cell_formula_units_Z   6
loop_
 _symmetry_equiv_pos_site_id
 _symmetry_equiv_pos_as_xyz
  1  'x, y, z'
loop_
 _atom_site_type_symbol
 _atom_site_label
 _atom_site_symmetry_multiplicity
 _atom_site_fract_x
 _atom_site_fract_y
 _atom_site_fract_z
 _atom_site_occupancy
  Zn  Zn0  1  0.49999000  0.75000000  0.24999000  1.0
  Zn  Zn1  1  0.49999000  0.24999000  0.75000000  1.0
  Zn  Zn2  1  0.75001000  0.50001000  0.25000000  1.0
  Zn  Zn3  1  0.25000000  0.49999000  0.74999000  1.0
  Zn  Zn4  1  0.75001000  0.25001000  0.50001000  1.0
  Zn  Zn5  1  0.25000000  0.75000000  0.50000000  1.0
  H  H6  1  0.52798000  0.64123000  0.40350000  1.0
  H  H7  1  0.76227000  0.35877000  0.88674000  1.0
  H  H8  1  0.23773000  0.12448000  0.59650000  1.0
  H  H9  1  0.47203000  0.87553000  0.11326000  1.0
  H  H10  1  0.87552000  0.47202000  0.11325000  1.0
  H  H11  1  0.12447000  0.23772000  0.59649000  1.0
  H  H12  1  0.35877000  0.76227000  0.88674000  1.0
  H  H13  1  0.64123000  0.52797000  0.40350000  1.0
  H  H14  1  0.40349000  0.52798000  0.64122000  1.0
  H  H15  1  0.88675000  0.76227000  0.35877000  1.0
  H  H16  1  0.11326000  0.47203000  0.87553000  1.0
  H  H17  1  0.59650000  0.23773000  0.12447000  1.0
  H  H18  1  0.23772000  0.59650000  0.12447000  1.0
  H  H19  1  0.52797000  0.40349000  0.64122000  1.0
  H  H20  1  0.47203000  0.11326000  0.87553000  1.0
  H  H21  1  0.76227000  0.88675000  0.35877000  1.0
  H  H22  1  0.64123000  0.40350000  0.52798000  1.0
  H  H23  1  0.35877000  0.88675000  0.76227000  1.0
  H  H24  1  0.87552000  0.11325000  0.47202000  1.0
  H  H25  1  0.12447000  0.59650000  0.23772000  1.0
  H  H26  1  0.40349000  0.64123000  0.52798000  1.0
  H  H27  1  0.88675000  0.35877000  0.76227000  1.0
  H  H28  1  0.59650000  0.12448000  0.23773000  1.0
  H  H29  1  0.11326000  0.87553000  0.47203000  1.0
  C  C30  1  0.63834000  0.63834000  0.25601000  1.0
  C  C31  1  0.61767000  0.36166000  0.99999000  1.0
  C  C32  1  0.38233000  0.38233000  0.74399000  1.0
  C  C33  1  0.36166000  0.61767000  1.00000000  1.0
  C  C34  1  0.25600000  0.63834000  0.63834000  1.0
  C  C35  1  0.00000000  0.61767000  0.36166000  1.0
  C  C36  1  0.00000000  0.36166000  0.61767000  1.0
  C  C37  1  0.74399000  0.38233000  0.38233000  1.0
  C  C38  1  0.38232000  0.74398000  0.38232000  1.0
  C  C39  1  0.63834000  0.25601000  0.63834000  1.0
  C  C40  1  0.36166000  0.00000000  0.61767000  1.0
  C  C41  1  0.61767000  0.00000000  0.36166000  1.0
  C  C42  1  0.57183000  0.62871000  0.36036000  1.0
  C  C43  1  0.73165000  0.37130000  0.94311000  1.0
  C  C44  1  0.26835000  0.21147000  0.63965000  1.0
  C  C45  1  0.42818000  0.78853000  0.05688000  1.0
  C  C46  1  0.78853000  0.42817000  0.05688000  1.0
  C  C47  1  0.21147000  0.26835000  0.63965000  1.0
  C  C48  1  0.37129000  0.73164000  0.94311000  1.0
  C  C49  1  0.62870000  0.57182000  0.36035000  1.0
  C  C50  1  0.36034000  0.57181000  0.62870000  1.0
  C  C51  1  0.94313000  0.73166000  0.37130000  1.0
  C  C52  1  0.05688000  0.42818000  0.78853000  1.0
  C  C53  1  0.63965000  0.26835000  0.21147000  1.0
  C  C54  1  0.26835000  0.63965000  0.21147000  1.0
  C  C55  1  0.57182000  0.36035000  0.62870000  1.0
  C  C56  1  0.42817000  0.05688000  0.78853000  1.0
  C  C57  1  0.73165000  0.94312000  0.37129000  1.0
  C  C58  1  0.62870000  0.36035000  0.57182000  1.0
  C  C59  1  0.37130000  0.94313000  0.73166000  1.0
  C  C60  1  0.78853000  0.05688000  0.42817000  1.0
  C  C61  1  0.21147000  0.63965000  0.26835000  1.0
  C  C62  1  0.36035000  0.62871000  0.57182000  1.0
  C  C63  1  0.94313000  0.37130000  0.73165000  1.0
  C  C64  1  0.63965000  0.21147000  0.26835000  1.0
  C  C65  1  0.05688000  0.78853000  0.42818000  1.0
  N  N66  1  0.57860000  0.67094000  0.29402000  1.0
  N  N67  1  0.62309000  0.32907000  0.90766000  1.0
  N  N68  1  0.37691000  0.28457000  0.70598000  1.0
  N  N69  1  0.42140000  0.71543000  0.09233000  1.0
  N  N70  1  0.71543000  0.42140000  0.09234000  1.0
  N  N71  1  0.28457000  0.37690000  0.70597000  1.0
  N  N72  1  0.32906000  0.62308000  0.90766000  1.0
  N  N73  1  0.67094000  0.57860000  0.29403000  1.0
  N  N74  1  0.29402000  0.57860000  0.67093000  1.0
  N  N75  1  0.90767000  0.62309000  0.32907000  1.0
  N  N76  1  0.09234000  0.42140000  0.71543000  1.0
  N  N77  1  0.70598000  0.37691000  0.28458000  1.0
  N  N78  1  0.37690000  0.70597000  0.28457000  1.0
  N  N79  1  0.57860000  0.29403000  0.67094000  1.0
  N  N80  1  0.42140000  0.09234000  0.71543000  1.0
  N  N81  1  0.62309000  0.90766000  0.32906000  1.0
  N  N82  1  0.67093000  0.29402000  0.57860000  1.0
  N  N83  1  0.32906000  0.90766000  0.62309000  1.0
  N  N84  1  0.71543000  0.09234000  0.42140000  1.0
  N  N85  1  0.28457000  0.70597000  0.37691000  1.0
  N  N86  1  0.29401000  0.67093000  0.57859000  1.0
  N  N87  1  0.90767000  0.32907000  0.62309000  1.0
  N  N88  1  0.70598000  0.28458000  0.37691000  1.0
  N  N89  1  0.09234000  0.71543000  0.42140000  1.0
  N  N90  1  0.66415000  0.66415000  0.18161000  1.0
  N  N91  1  0.51747000  0.33586000  0.00001000  1.0
  N  N92  1  0.48254000  0.48253000  0.81840000  1.0
  N  N93  1  0.33586000  0.51746000  0.00001000  1.0
  N  N94  1  0.18160000  0.66415000  0.66415000  1.0
  N  N95  1  0.99999000  0.51745000  0.33585000  1.0
  N  N96  1  0.99999000  0.33584000  0.51745000  1.0
  N  N97  1  0.81840000  0.48255000  0.48255000  1.0
  N  N98  1  0.48254000  0.81840000  0.48253000  1.0
  N  N99  1  0.66415000  0.18160000  0.66415000  1.0
  N  N100  1  0.33586000  0.00001000  0.51746000  1.0
  N  N101  1  0.51746000  0.00000000  0.33585000  1.0
  O  O102  1  0.72023000  0.63012000  0.15167000  1.0
  O  O103  1  0.52155000  0.36989000  0.09012000  1.0
  O  O104  1  0.47844000  0.56855000  0.84833000  1.0
  O  O105  1  0.27979000  0.43146000  0.90990000  1.0
  O  O106  1  0.43147000  0.27979000  0.90990000  1.0
  O  O107  1  0.56856000  0.47844000  0.84834000  1.0
  O  O108  1  0.36989000  0.52155000  0.09012000  1.0
  O  O109  1  0.63012000  0.72023000  0.15168000  1.0
  O  O110  1  0.15167000  0.72023000  0.63012000  1.0
  O  O111  1  0.09011000  0.52157000  0.36990000  1.0
  O  O112  1  0.90988000  0.27977000  0.43143000  1.0
  O  O113  1  0.84833000  0.47844000  0.56856000  1.0
  O  O114  1  0.47843000  0.84832000  0.56854000  1.0
  O  O115  1  0.72023000  0.15166000  0.63011000  1.0
  O  O116  1  0.27978000  0.90988000  0.43144000  1.0
  O  O117  1  0.52155000  0.09011000  0.36988000  1.0
  O  O118  1  0.63011000  0.15167000  0.72022000  1.0
  O  O119  1  0.36989000  0.09011000  0.52155000  1.0
  O  O120  1  0.43145000  0.90989000  0.27977000  1.0
  O  O121  1  0.56857000  0.84835000  0.47845000  1.0
  O  O122  1  0.15166000  0.63012000  0.72024000  1.0
  O  O123  1  0.09011000  0.36989000  0.52156000  1.0
  O  O124  1  0.84833000  0.56855000  0.47845000  1.0
  O  O125  1  0.90988000  0.43143000  0.27977000  1.0
