# generated using pymatgen
data_ZnH14C14(N2Cl)2
_symmetry_space_group_name_H-M   'P 1'
_cell_length_a   7.65379000
_cell_length_b   8.89975000
_cell_length_c   11.00610000
_cell_angle_alpha   90.00020000
_cell_angle_beta   90.00030000
_cell_angle_gamma   82.76400000
_symmetry_Int_Tables_number   1
_chemical_formula_structural   ZnH14C14(N2Cl)2
_chemical_formula_sum   'Zn2 H28 C28 N8 Cl4'
_cell_volume   743.72970812
_cell_formula_units_Z   2
loop_
 _symmetry_equiv_pos_site_id
 _symmetry_equiv_pos_as_xyz
  1  'x, y, z'
loop_
 _atom_site_type_symbol
 _atom_site_label
 _atom_site_symmetry_multiplicity
 _atom_site_fract_x
 _atom_site_fract_y
 _atom_site_fract_z
 _atom_site_occupancy
  Zn  Zn0  1  0.80515000  0.80258000  0.49922000  1.0
  Zn  Zn1  1  0.19485000  0.19742000  0.99923000  1.0
  H  H2  1  0.15541000  0.85997000  0.97650000  1.0
  H  H3  1  0.84459000  0.14003000  0.47650000  1.0
  H  H4  1  0.34773000  0.62768000  0.10272000  1.0
  H  H5  1  0.65227000  0.37232000  0.60272000  1.0
  H  H6  1  0.55672000  0.77973000  0.25622000  1.0
  H  H7  1  0.44328000  0.22026000  0.75622000  1.0
  H  H8  1  0.51079000  0.18377000  0.16658000  1.0
  H  H9  1  0.48921000  0.81622000  0.66658000  1.0
  H  H10  1  0.62212000  0.04672000  0.26705000  1.0
  H  H11  1  0.37788000  0.95328000  0.76705000  1.0
  H  H12  1  0.34838000  0.93561000  0.41085000  1.0
  H  H13  1  0.65162000  0.06440000  0.91085000  1.0
  H  H14  1  0.14921000  0.03763000  0.57734000  1.0
  H  H15  1  0.85079000  0.96238000  0.07733000  1.0
  H  H16  1  0.05665000  0.31124000  0.59530000  1.0
  H  H17  1  0.94336000  0.68876000  0.09530000  1.0
  H  H18  1  0.36752000  0.38949000  0.27968000  1.0
  H  H19  1  0.63248000  0.61051000  0.77968000  1.0
  H  H20  1  0.22570000  0.60201000  0.38847000  1.0
  H  H21  1  0.77429000  0.39798000  0.88847000  1.0
  H  H22  1  0.00727000  0.55972000  0.40720000  1.0
  H  H23  1  0.99273000  0.44028000  0.90720000  1.0
  H  H24  1  0.35796000  0.46714000  0.64686000  1.0
  H  H25  1  0.64204000  0.53286000  0.14686000  1.0
  H  H26  1  0.97723000  0.84142000  0.76387000  1.0
  H  H27  1  0.02277000  0.15858000  0.26387000  1.0
  H  H28  1  0.26769000  0.64967000  0.84440000  1.0
  H  H29  1  0.73232000  0.35033000  0.34440000  1.0
  C  C30  1  0.25362000  0.86466000  0.04692000  1.0
  C  C31  1  0.74638000  0.13534000  0.54692000  1.0
  C  C32  1  0.35216000  0.74853000  0.11242000  1.0
  C  C33  1  0.64784000  0.25147000  0.61243000  1.0
  C  C34  1  0.45857000  0.82199000  0.18908000  1.0
  C  C35  1  0.54143000  0.17800000  0.68908000  1.0
  C  C36  1  0.49193000  0.09489000  0.23265000  1.0
  C  C37  1  0.50807000  0.90511000  0.73265000  1.0
  C  C38  1  0.37190000  0.15671000  0.33482000  1.0
  C  C39  1  0.62809000  0.84329000  0.83482000  1.0
  C  C40  1  0.30995000  0.05751000  0.41858000  1.0
  C  C41  1  0.69005000  0.94249000  0.91858000  1.0
  C  C42  1  0.19727000  0.11420000  0.51158000  1.0
  C  C43  1  0.80273000  0.88580000  0.01158000  1.0
  C  C44  1  0.14467000  0.26950000  0.52151000  1.0
  C  C45  1  0.85532000  0.73050000  0.02151000  1.0
  C  C46  1  0.20594000  0.37005000  0.43877000  1.0
  C  C47  1  0.79405000  0.62995000  0.93877000  1.0
  C  C48  1  0.32056000  0.31263000  0.34601000  1.0
  C  C49  1  0.67944000  0.68737000  0.84601000  1.0
  C  C50  1  0.14184000  0.53726000  0.44388000  1.0
  C  C51  1  0.85816000  0.46274000  0.94388000  1.0
  C  C52  1  0.25141000  0.55787000  0.65904000  1.0
  C  C53  1  0.74859000  0.44212000  0.15904000  1.0
  C  C54  1  0.05515000  0.74887000  0.71695000  1.0
  C  C55  1  0.94485000  0.25113000  0.21695000  1.0
  C  C56  1  0.20314000  0.65261000  0.75681000  1.0
  C  C57  1  0.79686000  0.34739000  0.25681000  1.0
  N  N58  1  0.29523000  0.00058000  0.08189000  1.0
  N  N59  1  0.70477000  0.99942000  0.58189000  1.0
  N  N60  1  0.42197000  0.97245000  0.16817000  1.0
  N  N61  1  0.57803000  0.02755000  0.66817000  1.0
  N  N62  1  0.13577000  0.59648000  0.56803000  1.0
  N  N63  1  0.86423000  0.40352000  0.06803000  1.0
  N  N64  1  0.01464000  0.71394000  0.60223000  1.0
  N  N65  1  0.98536000  0.28605000  0.10223000  1.0
  Cl  Cl66  1  0.60788000  0.63674000  0.48004000  1.0
  Cl  Cl67  1  0.39213000  0.36326000  0.98004000  1.0
  Cl  Cl68  1  0.91260000  0.87343000  0.32112000  1.0
  Cl  Cl69  1  0.08741000  0.12657000  0.82113000  1.0
