# generated using pymatgen
data_ErH14C12N3O10
_symmetry_space_group_name_H-M   'P 1'
_cell_length_a   7.50863000
_cell_length_b   11.85840000
_cell_length_c   12.83010000
_cell_angle_alpha   110.47100000
_cell_angle_beta   98.02880000
_cell_angle_gamma   96.24900000
_symmetry_Int_Tables_number   1
_chemical_formula_structural   ErH14C12N3O10
_chemical_formula_sum   'Er2 H28 C24 N6 O20'
_cell_volume   1044.33808198
_cell_formula_units_Z   2
loop_
 _symmetry_equiv_pos_site_id
 _symmetry_equiv_pos_as_xyz
  1  'x, y, z'
loop_
 _atom_site_type_symbol
 _atom_site_label
 _atom_site_symmetry_multiplicity
 _atom_site_fract_x
 _atom_site_fract_y
 _atom_site_fract_z
 _atom_site_occupancy
  Er  Er0  1  0.25156000  0.01167000  0.98021000  1.0
  Er  Er1  1  0.74838000  0.98833000  0.01978000  1.0
  H  H2  1  0.95081000  0.87200000  0.56630000  1.0
  H  H3  1  0.04922000  0.12803000  0.43372000  1.0
  H  H4  1  0.96537000  0.72828000  0.58030000  1.0
  H  H5  1  0.03469000  0.27174000  0.41971000  1.0
  H  H6  1  0.73668000  0.76803000  0.71076000  1.0
  H  H7  1  0.26330000  0.23195000  0.28920000  1.0
  H  H8  1  0.72051000  0.90802000  0.69343000  1.0
  H  H9  1  0.27947000  0.09196000  0.30655000  1.0
  H  H10  1  0.38713000  0.90933000  0.36380000  1.0
  H  H11  1  0.61289000  0.09067000  0.63619000  1.0
  H  H12  1  0.25587000  0.77226000  0.25699000  1.0
  H  H13  1  0.74416000  0.22772000  0.74302000  1.0
  H  H14  1  0.51841000  0.75423000  0.14986000  1.0
  H  H15  1  0.48159000  0.24578000  0.85012000  1.0
  H  H16  1  0.63315000  0.89821000  0.24845000  1.0
  H  H17  1  0.36682000  0.10180000  0.75154000  1.0
  H  H18  1  0.36328000  0.39817000  0.24865000  1.0
  H  H19  1  0.63674000  0.60183000  0.75140000  1.0
  H  H20  1  0.51664000  0.38722000  0.36341000  1.0
  H  H21  1  0.48343000  0.61278000  0.63661000  1.0
  H  H22  1  0.63885000  0.43026000  0.15981000  1.0
  H  H23  1  0.36113000  0.56974000  0.84019000  1.0
  H  H24  1  0.77687000  0.39692000  0.26555000  1.0
  H  H25  1  0.22314000  0.60305000  0.73444000  1.0
  H  H26  1  0.17906000  0.24984000  0.01742000  1.0
  H  H27  1  0.82086000  0.75018000  0.98257000  1.0
  H  H28  1  0.01372000  0.17339000  0.91794000  1.0
  H  H29  1  0.98622000  0.82663000  0.08206000  1.0
  C  C30  1  0.67528000  0.60948000  0.44790000  1.0
  C  C31  1  0.32476000  0.39053000  0.55210000  1.0
  C  C32  1  0.63145000  0.81075000  0.44251000  1.0
  C  C33  1  0.36862000  0.18928000  0.55749000  1.0
  C  C34  1  0.44636000  0.62302000  0.29694000  1.0
  C  C35  1  0.55368000  0.37697000  0.70307000  1.0
  C  C36  1  0.87708000  0.79624000  0.58165000  1.0
  C  C37  1  0.12295000  0.20377000  0.41836000  1.0
  C  C38  1  0.81297000  0.84224000  0.69443000  1.0
  C  C39  1  0.18702000  0.15774000  0.30557000  1.0
  C  C40  1  0.96835000  0.90692000  0.79276000  1.0
  C  C41  1  0.03161000  0.09306000  0.20724000  1.0
  C  C42  1  0.39388000  0.82281000  0.29676000  1.0
  C  C43  1  0.60614000  0.17719000  0.70324000  1.0
  C  C44  1  0.49727000  0.84302000  0.20874000  1.0
  C  C45  1  0.50270000  0.15699000  0.79125000  1.0
  C  C46  1  0.39883000  0.90135000  0.13627000  1.0
  C  C47  1  0.60112000  0.09865000  0.86372000  1.0
  C  C48  1  0.50381000  0.42386000  0.29587000  1.0
  C  C49  1  0.49622000  0.57615000  0.70417000  1.0
  C  C50  1  0.63759000  0.37950000  0.21722000  1.0
  C  C51  1  0.36240000  0.62049000  0.78279000  1.0
  C  C52  1  0.58739000  0.24474000  0.14205000  1.0
  C  C53  1  0.41257000  0.75525000  0.85794000  1.0
  N  N54  1  0.53997000  0.55737000  0.35080000  1.0
  N  N55  1  0.46007000  0.44262000  0.64922000  1.0
  N  N56  1  0.72222000  0.73623000  0.48680000  1.0
  N  N57  1  0.27783000  0.26377000  0.51318000  1.0
  N  N58  1  0.48785000  0.74969000  0.35130000  1.0
  N  N59  1  0.51219000  0.25031000  0.64869000  1.0
  O  O60  1  0.11958000  0.95115000  0.77974000  1.0
  O  O61  1  0.88037000  0.04885000  0.22027000  1.0
  O  O62  1  0.94455000  0.91669000  0.89399000  1.0
  O  O63  1  0.05540000  0.08329000  0.10599000  1.0
  O  O64  1  0.41772000  0.19917000  0.10867000  1.0
  O  O65  1  0.58223000  0.80083000  0.89132000  1.0
  O  O66  1  0.71781000  0.18824000  0.11534000  1.0
  O  O67  1  0.28216000  0.81175000  0.88464000  1.0
  O  O68  1  0.49595000  0.96512000  0.09442000  1.0
  O  O69  1  0.50400000  0.03489000  0.90557000  1.0
  O  O70  1  0.22717000  0.88973000  0.11355000  1.0
  O  O71  1  0.77278000  0.11024000  0.88644000  1.0
  O  O72  1  0.33429000  0.57302000  0.20804000  1.0
  O  O73  1  0.66577000  0.42699000  0.79198000  1.0
  O  O74  1  0.75042000  0.54783000  0.49441000  1.0
  O  O75  1  0.24968000  0.45219000  0.50560000  1.0
  O  O76  1  0.67586000  0.92242000  0.48140000  1.0
  O  O77  1  0.32420000  0.07758000  0.51859000  1.0
  O  O78  1  0.14694000  0.18361000  0.94325000  1.0
  O  O79  1  0.85300000  0.81640000  0.05675000  1.0
