# generated using pymatgen
data_AgH3C2(N3O)2
_symmetry_space_group_name_H-M   'P 1'
_cell_length_a   6.60165000
_cell_length_b   8.43537000
_cell_length_c   10.74860000
_cell_angle_alpha   90.00000000
_cell_angle_beta   104.51700000
_cell_angle_gamma   89.99990000
_symmetry_Int_Tables_number   1
_chemical_formula_structural   AgH3C2(N3O)2
_chemical_formula_sum   'Ag4 H12 C8 N24 O8'
_cell_volume   579.45108403
_cell_formula_units_Z   4
loop_
 _symmetry_equiv_pos_site_id
 _symmetry_equiv_pos_as_xyz
  1  'x, y, z'
loop_
 _atom_site_type_symbol
 _atom_site_label
 _atom_site_symmetry_multiplicity
 _atom_site_fract_x
 _atom_site_fract_y
 _atom_site_fract_z
 _atom_site_occupancy
  Ag  Ag0  1  0.78344000  0.06061000  0.46584000  1.0
  Ag  Ag1  1  0.71656000  0.56061000  0.53416000  1.0
  Ag  Ag2  1  0.21656000  0.93939000  0.53416000  1.0
  Ag  Ag3  1  0.28344000  0.43939000  0.46584000  1.0
  H  H4  1  0.74407000  0.03832000  0.99723000  1.0
  H  H5  1  0.75593000  0.53832000  0.00277000  1.0
  H  H6  1  0.25593000  0.96168000  0.00277000  1.0
  H  H7  1  0.24407000  0.46168000  0.99723000  1.0
  H  H8  1  0.88580000  0.85727000  0.03963000  1.0
  H  H9  1  0.61420000  0.35727000  0.96037000  1.0
  H  H10  1  0.11420000  0.14273000  0.96037000  1.0
  H  H11  1  0.38580000  0.64273000  0.03963000  1.0
  H  H12  1  0.60629000  0.85549000  0.99342000  1.0
  H  H13  1  0.89371000  0.35549000  0.00658000  1.0
  H  H14  1  0.39371000  0.14450000  0.00658000  1.0
  H  H15  1  0.10629000  0.64450000  0.99342000  1.0
  C  C16  1  0.75858000  0.00756000  0.75536000  1.0
  C  C17  1  0.74142000  0.50756000  0.24464000  1.0
  C  C18  1  0.24142000  0.99244000  0.24464000  1.0
  C  C19  1  0.25858000  0.49244000  0.75536000  1.0
  C  C20  1  0.74629000  0.91161000  0.97677000  1.0
  C  C21  1  0.75371000  0.41161000  0.02323000  1.0
  C  C22  1  0.25371000  0.08839000  0.02323000  1.0
  C  C23  1  0.24629000  0.58838000  0.97677000  1.0
  N  N24  1  0.74448000  0.93275000  0.64235000  1.0
  N  N25  1  0.75552000  0.43275000  0.35765000  1.0
  N  N26  1  0.25552000  0.06725000  0.35765000  1.0
  N  N27  1  0.24448000  0.56725000  0.64235000  1.0
  N  N28  1  0.74793000  0.89320000  0.84285000  1.0
  N  N29  1  0.75207000  0.39320000  0.15715000  1.0
  N  N30  1  0.25207000  0.10680000  0.15715000  1.0
  N  N31  1  0.24793000  0.60680000  0.84285000  1.0
  N  N32  1  0.80147000  0.15869000  0.79646000  1.0
  N  N33  1  0.69853000  0.65869000  0.20354000  1.0
  N  N34  1  0.19853000  0.84131000  0.20354000  1.0
  N  N35  1  0.30147000  0.34131000  0.79646000  1.0
  N  N36  1  0.72924000  0.77548000  0.66656000  1.0
  N  N37  1  0.77077000  0.27548000  0.33344000  1.0
  N  N38  1  0.27077000  0.22453000  0.33344000  1.0
  N  N39  1  0.22924000  0.72453000  0.66656000  1.0
  N  N40  1  0.73575000  0.27418000  0.71278000  1.0
  N  N41  1  0.76424000  0.77418000  0.28722000  1.0
  N  N42  1  0.26424000  0.72582000  0.28722000  1.0
  N  N43  1  0.23575000  0.22582000  0.71277000  1.0
  N  N44  1  0.73010000  0.75043000  0.78608000  1.0
  N  N45  1  0.76990000  0.25043000  0.21392000  1.0
  N  N46  1  0.26990000  0.24957000  0.21392000  1.0
  N  N47  1  0.23010000  0.74957000  0.78608000  1.0
  O  O48  1  0.80012000  0.41222000  0.74772000  1.0
  O  O49  1  0.69987000  0.91222000  0.25228000  1.0
  O  O50  1  0.19987000  0.58778000  0.25228000  1.0
  O  O51  1  0.30012000  0.08778000  0.74772000  1.0
  O  O52  1  0.61123000  0.25034000  0.60305000  1.0
  O  O53  1  0.88877000  0.75034000  0.39695000  1.0
  O  O54  1  0.38877000  0.74966000  0.39695000  1.0
  O  O55  1  0.11123000  0.24967000  0.60305000  1.0
