# generated using pymatgen
data_HoH7C14(NO4)2
_symmetry_space_group_name_H-M   'P 1'
_cell_length_a   8.36667000
_cell_length_b   12.21830000
_cell_length_c   13.39620000
_cell_angle_alpha   102.41200000
_cell_angle_beta   89.99980000
_cell_angle_gamma   90.00000000
_symmetry_Int_Tables_number   1
_chemical_formula_structural   HoH7C14(NO4)2
_chemical_formula_sum   'Ho4 H28 C56 N8 O32'
_cell_volume   1337.43874181
_cell_formula_units_Z   4
loop_
 _symmetry_equiv_pos_site_id
 _symmetry_equiv_pos_as_xyz
  1  'x, y, z'
loop_
 _atom_site_type_symbol
 _atom_site_label
 _atom_site_symmetry_multiplicity
 _atom_site_fract_x
 _atom_site_fract_y
 _atom_site_fract_z
 _atom_site_occupancy
  Ho  Ho0  1  0.73024000  0.19770000  0.31844000  1.0
  Ho  Ho1  1  0.76976000  0.19770000  0.81844000  1.0
  Ho  Ho2  1  0.26976000  0.80230000  0.68156000  1.0
  Ho  Ho3  1  0.23024000  0.80230000  0.18156000  1.0
  H  H4  1  0.40314000  0.33781000  0.34214000  1.0
  H  H5  1  0.09686000  0.33781000  0.84214000  1.0
  H  H6  1  0.59687000  0.66219000  0.65786000  1.0
  H  H7  1  0.90313000  0.66219000  0.15786000  1.0
  H  H8  1  0.71063000  0.66257000  0.40580000  1.0
  H  H9  1  0.78937000  0.66257000  0.90580000  1.0
  H  H10  1  0.28937000  0.33743000  0.59420000  1.0
  H  H11  1  0.21063000  0.33743000  0.09420000  1.0
  H  H12  1  0.01064000  0.69253000  0.40728000  1.0
  H  H13  1  0.48936000  0.69253000  0.90728000  1.0
  H  H14  1  0.98936000  0.30747000  0.59272000  1.0
  H  H15  1  0.51064000  0.30747000  0.09272000  1.0
  H  H16  1  0.18939000  0.52408000  0.37489000  1.0
  H  H17  1  0.31061000  0.52408000  0.87489000  1.0
  H  H18  1  0.81061000  0.47592000  0.62511000  1.0
  H  H19  1  0.68939000  0.47592000  0.12511000  1.0
  H  H20  1  0.40739000  0.15727000  0.66587000  1.0
  H  H21  1  0.09262000  0.15727000  0.16587000  1.0
  H  H22  1  0.59262000  0.84273000  0.33413000  1.0
  H  H23  1  0.90738000  0.84273000  0.83413000  1.0
  H  H24  1  0.15107000  0.08408000  0.57885000  1.0
  H  H25  1  0.34893000  0.08408000  0.07885000  1.0
  H  H26  1  0.84893000  0.91592000  0.42115000  1.0
  H  H27  1  0.65107000  0.91592000  0.92115000  1.0
  H  H28  1  0.14509000  0.02814000  0.38675000  1.0
  H  H29  1  0.35491000  0.02814000  0.88674000  1.0
  H  H30  1  0.85491000  0.97186000  0.61326000  1.0
  H  H31  1  0.64509000  0.97186000  0.11326000  1.0
  C  C32  1  0.56029000  0.46141000  0.37143000  1.0
  C  C33  1  0.93971000  0.46141000  0.87143000  1.0
  C  C34  1  0.43971000  0.53859000  0.62857000  1.0
  C  C35  1  0.06029000  0.53859000  0.12857000  1.0
  C  C36  1  0.73570000  0.48342000  0.37317000  1.0
  C  C37  1  0.76430000  0.48342000  0.87317000  1.0
  C  C38  1  0.26430000  0.51658000  0.62683000  1.0
  C  C39  1  0.23570000  0.51658000  0.12683000  1.0
  C  C40  1  0.79418000  0.59277000  0.39191000  1.0
  C  C41  1  0.70581000  0.59277000  0.89191000  1.0
  C  C42  1  0.20582000  0.40723000  0.60809000  1.0
  C  C43  1  0.29419000  0.40723000  0.10809000  1.0
  C  C44  1  0.95903000  0.60878000  0.39200000  1.0
  C  C45  1  0.54097000  0.60878000  0.89200000  1.0
  C  C46  1  0.04097000  0.39122000  0.60800000  1.0
  C  C47  1  0.45903000  0.39122000  0.10800000  1.0
  C  C48  1  0.05959000  0.51534000  0.37424000  1.0
  C  C49  1  0.44041000  0.51534000  0.87424000  1.0
  C  C50  1  0.94041000  0.48466000  0.62576000  1.0
  C  C51  1  0.55959000  0.48466000  0.12576000  1.0
  C  C52  1  0.99100000  0.40858000  0.35628000  1.0
  C  C53  1  0.50900000  0.40858000  0.85628000  1.0
  C  C54  1  0.00900000  0.59142000  0.64372000  1.0
  C  C55  1  0.49100000  0.59142000  0.14372000  1.0
  C  C56  1  0.08708000  0.30100000  0.33559000  1.0
  C  C57  1  0.41292000  0.30100000  0.83559000  1.0
  C  C58  1  0.91292000  0.69900000  0.66441000  1.0
  C  C59  1  0.58707000  0.69900000  0.16442000  1.0
  C  C60  1  0.68480000  0.20787000  0.56281000  1.0
  C  C61  1  0.81520000  0.20787000  0.06281000  1.0
  C  C62  1  0.31520000  0.79213000  0.43719000  1.0
  C  C63  1  0.18480000  0.79213000  0.93719000  1.0
  C  C64  1  0.52569000  0.15858000  0.52299000  1.0
  C  C65  1  0.97431000  0.15858000  0.02299000  1.0
  C  C66  1  0.47431000  0.84142000  0.47701000  1.0
  C  C67  1  0.02569000  0.84142000  0.97701000  1.0
  C  C68  1  0.39693000  0.13896000  0.58290000  1.0
  C  C69  1  0.10307000  0.13896000  0.08290000  1.0
  C  C70  1  0.60307000  0.86104000  0.41710000  1.0
  C  C71  1  0.89693000  0.86104000  0.91710000  1.0
  C  C72  1  0.25555000  0.09575000  0.53395000  1.0
  C  C73  1  0.24445000  0.09575000  0.03394000  1.0
  C  C74  1  0.74445000  0.90426000  0.46605000  1.0
  C  C75  1  0.75555000  0.90425000  0.96605000  1.0
  C  C76  1  0.25055000  0.06586000  0.42770000  1.0
  C  C77  1  0.24945000  0.06586000  0.92770000  1.0
  C  C78  1  0.74945000  0.93414000  0.57230000  1.0
  C  C79  1  0.75055000  0.93414000  0.07230000  1.0
  C  C80  1  0.38591000  0.08638000  0.37379000  1.0
  C  C81  1  0.11409000  0.08639000  0.87379000  1.0
  C  C82  1  0.61409000  0.91362000  0.62621000  1.0
  C  C83  1  0.88591000  0.91362000  0.12620000  1.0
  C  C84  1  0.40056000  0.05662000  0.25959000  1.0
  C  C85  1  0.09944000  0.05662000  0.75959000  1.0
  C  C86  1  0.59944000  0.94338000  0.74041000  1.0
  C  C87  1  0.90056000  0.94338000  0.24041000  1.0
  N  N88  1  0.83185000  0.39342000  0.35538000  1.0
  N  N89  1  0.66815000  0.39342000  0.85538000  1.0
  N  N90  1  0.16815000  0.60658000  0.64462000  1.0
  N  N91  1  0.33185000  0.60658000  0.14462000  1.0
  N  N92  1  0.51717000  0.13512000  0.42045000  1.0
  N  N93  1  0.98284000  0.13512000  0.92046000  1.0
  N  N94  1  0.48283000  0.86488000  0.57954000  1.0
  N  N95  1  0.01717000  0.86488000  0.07954000  1.0
  O  O96  1  0.52623000  0.35063000  0.34770000  1.0
  O  O97  1  0.97377000  0.35063000  0.84770000  1.0
  O  O98  1  0.47378000  0.64937000  0.65230000  1.0
  O  O99  1  0.02622000  0.64937000  0.15230000  1.0
  O  O100  1  0.45898000  0.53522000  0.38867000  1.0
  O  O101  1  0.04102000  0.53521000  0.88867000  1.0
  O  O102  1  0.54102000  0.46478000  0.61133000  1.0
  O  O103  1  0.95898000  0.46478000  0.11133000  1.0
  O  O104  1  0.00656000  0.21081000  0.32616000  1.0
  O  O105  1  0.49344000  0.21081000  0.82616000  1.0
  O  O106  1  0.99344000  0.78919000  0.67384000  1.0
  O  O107  1  0.50655000  0.78919000  0.17384000  1.0
  O  O108  1  0.23642000  0.30443000  0.32555000  1.0
  O  O109  1  0.26358000  0.30443000  0.82555000  1.0
  O  O110  1  0.76358000  0.69557000  0.67445000  1.0
  O  O111  1  0.73642000  0.69557000  0.17446000  1.0
  O  O112  1  0.77786000  0.23275000  0.49584000  1.0
  O  O113  1  0.72215000  0.23275000  0.99584000  1.0
  O  O114  1  0.22214000  0.76725000  0.50416000  1.0
  O  O115  1  0.27786000  0.76725000  0.00416000  1.0
  O  O116  1  0.71707000  0.22048000  0.65690000  1.0
  O  O117  1  0.78292000  0.22049000  0.15689000  1.0
  O  O118  1  0.28293000  0.77952000  0.34310000  1.0
  O  O119  1  0.21708000  0.77952000  0.84310000  1.0
  O  O120  1  0.50769000  0.10744000  0.22006000  1.0
  O  O121  1  0.99231000  0.10744000  0.72006000  1.0
  O  O122  1  0.49231000  0.89256000  0.77995000  1.0
  O  O123  1  0.00768000  0.89256000  0.27994000  1.0
  O  O124  1  0.30825000  0.98165000  0.21009000  1.0
  O  O125  1  0.19175000  0.98166000  0.71008000  1.0
  O  O126  1  0.69175000  0.01834000  0.78992000  1.0
  O  O127  1  0.80825000  0.01834000  0.28992000  1.0
