# generated using pymatgen
data_ZnH11C21BrNO4
_symmetry_space_group_name_H-M   'P 1'
_cell_length_a   9.58671000
_cell_length_b   11.01790000
_cell_length_c   15.29380000
_cell_angle_alpha   89.57790000
_cell_angle_beta   90.81130000
_cell_angle_gamma   89.92960000
_symmetry_Int_Tables_number   1
_chemical_formula_structural   ZnH11C21BrNO4
_chemical_formula_sum   'Zn2 H22 C42 Br2 N2 O8'
_cell_volume   1615.20671625
_cell_formula_units_Z   2
loop_
 _symmetry_equiv_pos_site_id
 _symmetry_equiv_pos_as_xyz
  1  'x, y, z'
loop_
 _atom_site_type_symbol
 _atom_site_label
 _atom_site_symmetry_multiplicity
 _atom_site_fract_x
 _atom_site_fract_y
 _atom_site_fract_z
 _atom_site_occupancy
  Zn  Zn0  1  0.64213000  0.50123000  0.50221000  1.0
  Zn  Zn1  1  0.35789000  0.49876000  0.49779000  1.0
  H  H2  1  0.58684000  0.66834000  0.77368000  1.0
  H  H3  1  0.41326000  0.33162000  0.22631000  1.0
  H  H4  1  0.63123000  0.79015000  0.07374000  1.0
  H  H5  1  0.36884000  0.20982000  0.92625000  1.0
  H  H6  1  0.28626000  0.88636000  0.45686000  1.0
  H  H7  1  0.71372000  0.11363000  0.54319000  1.0
  H  H8  1  0.28772000  0.11483000  0.45362000  1.0
  H  H9  1  0.71226000  0.88516000  0.54644000  1.0
  H  H10  1  0.13544000  0.33213000  0.56294000  1.0
  H  H11  1  0.86458000  0.66787000  0.43706000  1.0
  H  H12  1  0.13328000  0.66534000  0.43530000  1.0
  H  H13  1  0.86674000  0.33465000  0.56469000  1.0
  H  H14  1  0.19095000  0.34290000  0.74922000  1.0
  H  H15  1  0.10485000  0.15010000  0.68353000  1.0
  H  H16  1  0.26657000  0.97431000  0.66792000  1.0
  H  H17  1  0.51288000  0.99181000  0.71884000  1.0
  H  H18  1  0.59782000  0.18403000  0.78531000  1.0
  H  H19  1  0.40196000  0.81582000  0.21456000  1.0
  H  H20  1  0.48657000  0.00816000  0.28104000  1.0
  H  H21  1  0.73280000  0.02589000  0.33209000  1.0
  H  H22  1  0.89477000  0.85023000  0.31659000  1.0
  H  H23  1  0.80897000  0.65733000  0.25089000  1.0
  C  C24  1  0.49939000  0.73774000  0.50264000  1.0
  C  C25  1  0.50061000  0.26225000  0.49737000  1.0
  C  C26  1  0.59509000  0.70913000  0.04010000  1.0
  C  C27  1  0.40497000  0.29085000  0.95990000  1.0
  C  C28  1  0.37905000  0.93725000  0.47594000  1.0
  C  C29  1  0.62092000  0.06275000  0.52411000  1.0
  C  C30  1  0.37995000  0.06335000  0.47379000  1.0
  C  C31  1  0.62002000  0.93664000  0.52627000  1.0
  C  C32  1  0.50096000  0.12672000  0.49787000  1.0
  C  C33  1  0.49901000  0.87327000  0.50218000  1.0
  C  C34  1  0.07334000  0.40636000  0.53519000  1.0
  C  C35  1  0.92667000  0.59364000  0.46479000  1.0
  C  C36  1  0.07180000  0.59220000  0.46363000  1.0
  C  C37  1  0.92822000  0.40780000  0.53637000  1.0
  C  C38  1  0.50062000  0.50962000  0.32878000  1.0
  C  C39  1  0.49941000  0.49037000  0.67122000  1.0
  C  C40  1  0.44951000  0.38824000  0.81633000  1.0
  C  C41  1  0.55050000  0.61175000  0.18366000  1.0
  C  C42  1  0.49812000  0.48922000  0.76942000  1.0
  C  C43  1  0.50191000  0.51076000  0.23058000  1.0
  C  C44  1  0.54786000  0.59231000  0.81214000  1.0
  C  C45  1  0.45221000  0.40766000  0.18785000  1.0
  C  C46  1  0.54807000  0.60017000  0.90344000  1.0
  C  C47  1  0.45201000  0.39981000  0.09655000  1.0
  C  C48  1  0.50003000  0.49836000  0.95344000  1.0
  C  C49  1  0.50005000  0.50163000  0.04656000  1.0
  C  C50  1  0.45173000  0.39221000  0.90895000  1.0
  C  C51  1  0.54832000  0.60778000  0.09105000  1.0
  C  C52  1  0.59465000  0.70477000  0.95104000  1.0
  C  C53  1  0.40542000  0.29520000  0.04896000  1.0
  C  C54  1  0.39994000  0.27621000  0.77142000  1.0
  C  C55  1  0.26123000  0.26583000  0.74199000  1.0
  C  C56  1  0.21364000  0.15783000  0.70492000  1.0
  C  C57  1  0.30367000  0.05884000  0.69659000  1.0
  C  C58  1  0.44213000  0.06873000  0.72506000  1.0
  C  C59  1  0.48998000  0.17673000  0.76211000  1.0
  C  C60  1  0.59992000  0.72383000  0.22857000  1.0
  C  C61  1  0.50976000  0.82324000  0.23782000  1.0
  C  C62  1  0.55744000  0.93131000  0.27487000  1.0
  C  C63  1  0.69585000  0.94132000  0.30341000  1.0
  C  C64  1  0.78601000  0.84241000  0.29512000  1.0
  C  C65  1  0.73857000  0.73434000  0.25806000  1.0
  Br  Br66  1  0.65850000  0.84452000  0.88875000  1.0
  Br  Br67  1  0.34164000  0.15544000  0.11124000  1.0
  N  N68  1  0.85678000  0.50127000  0.50125000  1.0
  N  N69  1  0.14324000  0.49873000  0.49875000  1.0
  O  O70  1  0.61808000  0.68571000  0.50658000  1.0
  O  O71  1  0.38191000  0.31430000  0.49343000  1.0
  O  O72  1  0.61856000  0.31557000  0.50084000  1.0
  O  O73  1  0.38143000  0.68442000  0.49917000  1.0
  O  O74  1  0.61822000  0.50970000  0.36823000  1.0
  O  O75  1  0.38181000  0.49030000  0.63177000  1.0
  O  O76  1  0.61854000  0.49432000  0.63587000  1.0
  O  O77  1  0.38148000  0.50567000  0.36414000  1.0
