# generated using pymatgen
data_CdH22C22(NO)4
_symmetry_space_group_name_H-M   'P 1'
_cell_length_a   5.13207000
_cell_length_b   9.82459000
_cell_length_c   19.75900000
_cell_angle_alpha   97.22750000
_cell_angle_beta   90.00000000
_cell_angle_gamma   90.00000000
_symmetry_Int_Tables_number   1
_chemical_formula_structural   CdH22C22(NO)4
_chemical_formula_sum   'Cd2 H44 C44 N8 O8'
_cell_volume   988.34249654
_cell_formula_units_Z   2
loop_
 _symmetry_equiv_pos_site_id
 _symmetry_equiv_pos_as_xyz
  1  'x, y, z'
loop_
 _atom_site_type_symbol
 _atom_site_label
 _atom_site_symmetry_multiplicity
 _atom_site_fract_x
 _atom_site_fract_y
 _atom_site_fract_z
 _atom_site_occupancy
  Cd  Cd0  1  0.49999000  0.50000000  0.50000000  1.0
  Cd  Cd1  1  0.99999000  0.00001000  0.50000000  1.0
  H  H2  1  0.87002000  0.64150000  0.43503000  1.0
  H  H3  1  0.37002000  0.85850000  0.56497000  1.0
  H  H4  1  0.12996000  0.35850000  0.56496000  1.0
  H  H5  1  0.62998000  0.14150000  0.43503000  1.0
  H  H6  1  0.79935000  0.51522000  0.37511000  1.0
  H  H7  1  0.29935000  0.98479000  0.62489000  1.0
  H  H8  1  0.20062000  0.48478000  0.62489000  1.0
  H  H9  1  0.70064000  0.01521000  0.37511000  1.0
  H  H10  1  0.96108000  0.65772000  0.14099000  1.0
  H  H11  1  0.46106000  0.84229000  0.85902000  1.0
  H  H12  1  0.03892000  0.34228000  0.85902000  1.0
  H  H13  1  0.53894000  0.15770000  0.14098000  1.0
  H  H14  1  0.65001000  0.76400000  0.36054000  1.0
  H  H15  1  0.15002000  0.73601000  0.63947000  1.0
  H  H16  1  0.34998000  0.23601000  0.63946000  1.0
  H  H17  1  0.84998000  0.26399000  0.36053000  1.0
  H  H18  1  0.33228000  0.49957000  0.33314000  1.0
  H  H19  1  0.83231000  0.00044000  0.66687000  1.0
  H  H20  1  0.66768000  0.50044000  0.66686000  1.0
  H  H21  1  0.16769000  0.99955000  0.33313000  1.0
  H  H22  1  0.21393000  0.65464000  0.30972000  1.0
  H  H23  1  0.71393000  0.84538000  0.69029000  1.0
  H  H24  1  0.78606000  0.34537000  0.69028000  1.0
  H  H25  1  0.28607000  0.15461000  0.30971000  1.0
  H  H26  1  0.85622000  0.73910000  0.26162000  1.0
  H  H27  1  0.35623000  0.76090000  0.73840000  1.0
  H  H28  1  0.14375000  0.26090000  0.73839000  1.0
  H  H29  1  0.64377000  0.23909000  0.26161000  1.0
  H  H30  1  0.77486000  0.45900000  0.03394000  1.0
  H  H31  1  0.27483000  0.04101000  0.96607000  1.0
  H  H32  1  0.22518000  0.54100000  0.96607000  1.0
  H  H33  1  0.72517000  0.95898000  0.03393000  1.0
  H  H34  1  0.42373000  0.28388000  0.00998000  1.0
  H  H35  1  0.92370000  0.21614000  0.99002000  1.0
  H  H36  1  0.57632000  0.71611000  0.99002000  1.0
  H  H37  1  0.07630000  0.78386000  0.00997000  1.0
  H  H38  1  0.10875000  0.23963000  0.10031000  1.0
  H  H39  1  0.60873000  0.26038000  0.89970000  1.0
  H  H40  1  0.89128000  0.76036000  0.89970000  1.0
  H  H41  1  0.39127000  0.73962000  0.10030000  1.0
  H  H42  1  0.13714000  0.36568000  0.21656000  1.0
  H  H43  1  0.63715000  0.13432000  0.78345000  1.0
  H  H44  1  0.86286000  0.63431000  0.78345000  1.0
  H  H45  1  0.36286000  0.86567000  0.21655000  1.0
  C  C46  1  0.33260000  0.74508000  0.42749000  1.0
  C  C47  1  0.83262000  0.75494000  0.57251000  1.0
  C  C48  1  0.66739000  0.25493000  0.57251000  1.0
  C  C49  1  0.16739000  0.24506000  0.42748000  1.0
  C  C50  1  0.54183000  0.67837000  0.37821000  1.0
  C  C51  1  0.04184000  0.82163000  0.62180000  1.0
  C  C52  1  0.45814000  0.32164000  0.62180000  1.0
  C  C53  1  0.95817000  0.17836000  0.37819000  1.0
  C  C54  1  0.39496000  0.59847000  0.31777000  1.0
  C  C55  1  0.89497000  0.90154000  0.68224000  1.0
  C  C56  1  0.60502000  0.40155000  0.68223000  1.0
  C  C57  1  0.10503000  0.09845000  0.31776000  1.0
  C  C58  1  0.75055000  0.65513000  0.23306000  1.0
  C  C59  1  0.25054000  0.84488000  0.76695000  1.0
  C  C60  1  0.24944000  0.34488000  0.76694000  1.0
  C  C61  1  0.74945000  0.15511000  0.23305000  1.0
  C  C62  1  0.54313000  0.57861000  0.25205000  1.0
  C  C63  1  0.04315000  0.92140000  0.74796000  1.0
  C  C64  1  0.45685000  0.42140000  0.74795000  1.0
  C  C65  1  0.95686000  0.07858000  0.25204000  1.0
  C  C66  1  0.47530000  0.48512000  0.19247000  1.0
  C  C67  1  0.97530000  0.01488000  0.80754000  1.0
  C  C68  1  0.52471000  0.51488000  0.80753000  1.0
  C  C69  1  0.02471000  0.98510000  0.19246000  1.0
  C  C70  1  0.65233000  0.51028000  0.13932000  1.0
  C  C71  1  0.15232000  0.98973000  0.86069000  1.0
  C  C72  1  0.34769000  0.48972000  0.86069000  1.0
  C  C73  1  0.84768000  0.01027000  0.13931000  1.0
  C  C74  1  0.63861000  0.43815000  0.07373000  1.0
  C  C75  1  0.13860000  0.06186000  0.92628000  1.0
  C  C76  1  0.36141000  0.56185000  0.92628000  1.0
  C  C77  1  0.86140000  0.93814000  0.07372000  1.0
  C  C78  1  0.44166000  0.34075000  0.06080000  1.0
  C  C79  1  0.94164000  0.15927000  0.93921000  1.0
  C  C80  1  0.55837000  0.65924000  0.93920000  1.0
  C  C81  1  0.05837000  0.84074000  0.06079000  1.0
  C  C82  1  0.26299000  0.31517000  0.11218000  1.0
  C  C83  1  0.76298000  0.18483000  0.88782000  1.0
  C  C84  1  0.73702000  0.68482000  0.88782000  1.0
  C  C85  1  0.23703000  0.81516000  0.11217000  1.0
  C  C86  1  0.27850000  0.38615000  0.17781000  1.0
  C  C87  1  0.77849000  0.11386000  0.82219000  1.0
  C  C88  1  0.72151000  0.61385000  0.82219000  1.0
  C  C89  1  0.22152000  0.88613000  0.17780000  1.0
  N  N90  1  0.71839000  0.58770000  0.41051000  1.0
  N  N91  1  0.21839000  0.91231000  0.58950000  1.0
  N  N92  1  0.28159000  0.41231000  0.58949000  1.0
  N  N93  1  0.78161000  0.08769000  0.41050000  1.0
  N  N94  1  0.81590000  0.61389000  0.16597000  1.0
  N  N95  1  0.31591000  0.88610000  0.83405000  1.0
  N  N96  1  0.18410000  0.38611000  0.83404000  1.0
  N  N97  1  0.68408000  0.11388000  0.16595000  1.0
  O  O98  1  0.23949000  0.67884000  0.47334000  1.0
  O  O99  1  0.73949000  0.82116000  0.52666000  1.0
  O  O100  1  0.76049000  0.32116000  0.52666000  1.0
  O  O101  1  0.26050000  0.17885000  0.47334000  1.0
  O  O102  1  0.25139000  0.86121000  0.41500000  1.0
  O  O103  1  0.75138000  0.63879000  0.58500000  1.0
  O  O104  1  0.74861000  0.13881000  0.58500000  1.0
  O  O105  1  0.24862000  0.36121000  0.41499000  1.0
