# generated using pymatgen
data_CeH7(CO2)5
_symmetry_space_group_name_H-M   'P 1'
_cell_length_a   6.45583000
_cell_length_b   13.81120000
_cell_length_c   23.91360000
_cell_angle_alpha   90.00130000
_cell_angle_beta   89.99440000
_cell_angle_gamma   89.99970000
_symmetry_Int_Tables_number   1
_chemical_formula_structural   CeH7(CO2)5
_chemical_formula_sum   'Ce8 H56 C40 O80'
_cell_volume   2132.20254994
_cell_formula_units_Z   8
loop_
 _symmetry_equiv_pos_site_id
 _symmetry_equiv_pos_as_xyz
  1  'x, y, z'
loop_
 _atom_site_type_symbol
 _atom_site_label
 _atom_site_symmetry_multiplicity
 _atom_site_fract_x
 _atom_site_fract_y
 _atom_site_fract_z
 _atom_site_occupancy
  Ce  Ce0  1  0.88282000  0.71692000  0.62956000  1.0
  Ce  Ce1  1  0.38284000  0.78305000  0.87042000  1.0
  Ce  Ce2  1  0.61717000  0.71695000  0.37043000  1.0
  Ce  Ce3  1  0.11716000  0.78304000  0.12958000  1.0
  Ce  Ce4  1  0.11718000  0.28307000  0.37044000  1.0
  Ce  Ce5  1  0.61716000  0.21695000  0.12958000  1.0
  Ce  Ce6  1  0.38282000  0.28306000  0.62957000  1.0
  Ce  Ce7  1  0.88285000  0.21696000  0.87042000  1.0
  H  H8  1  0.90695000  0.92715000  0.61937000  1.0
  H  H9  1  0.54238000  0.77700000  0.72107000  1.0
  H  H10  1  0.52651000  0.85796000  0.67210000  1.0
  H  H11  1  0.84330000  0.50617000  0.57072000  1.0
  H  H12  1  0.01789000  0.48727000  0.61461000  1.0
  H  H13  1  0.33057000  0.70529000  0.58692000  1.0
  H  H14  1  0.35259000  0.73618000  0.64935000  1.0
  H  H15  1  0.40694000  0.57282000  0.88057000  1.0
  H  H16  1  0.04241000  0.72302000  0.77891000  1.0
  H  H17  1  0.02653000  0.64206000  0.82787000  1.0
  H  H18  1  0.34334000  0.99381000  0.92924000  1.0
  H  H19  1  0.51793000  0.01272000  0.88534000  1.0
  H  H20  1  0.83052000  0.79462000  0.91306000  1.0
  H  H21  1  0.85262000  0.76379000  0.85062000  1.0
  H  H22  1  0.59306000  0.92717000  0.38063000  1.0
  H  H23  1  0.95761000  0.77701000  0.27893000  1.0
  H  H24  1  0.97349000  0.85797000  0.32790000  1.0
  H  H25  1  0.65672000  0.50620000  0.42927000  1.0
  H  H26  1  0.48210000  0.48729000  0.38539000  1.0
  H  H27  1  0.16943000  0.70531000  0.41308000  1.0
  H  H28  1  0.14739000  0.73619000  0.35064000  1.0
  H  H29  1  0.09307000  0.57281000  0.11943000  1.0
  H  H30  1  0.45759000  0.72302000  0.22109000  1.0
  H  H31  1  0.47348000  0.64205000  0.17213000  1.0
  H  H32  1  0.15667000  0.99380000  0.07077000  1.0
  H  H33  1  0.98207000  0.01271000  0.11466000  1.0
  H  H34  1  0.66947000  0.79461000  0.08694000  1.0
  H  H35  1  0.64739000  0.76378000  0.14938000  1.0
  H  H36  1  0.09305000  0.07285000  0.38063000  1.0
  H  H37  1  0.45760000  0.22301000  0.27893000  1.0
  H  H38  1  0.47348000  0.14205000  0.32789000  1.0
  H  H39  1  0.15670000  0.49382000  0.42928000  1.0
  H  H40  1  0.98211000  0.51273000  0.38539000  1.0
  H  H41  1  0.66943000  0.29470000  0.41308000  1.0
  H  H42  1  0.64740000  0.26382000  0.35064000  1.0
  H  H43  1  0.59306000  0.42718000  0.11943000  1.0
  H  H44  1  0.95759000  0.27698000  0.22109000  1.0
  H  H45  1  0.97347000  0.35794000  0.17213000  1.0
  H  H46  1  0.65665000  0.00619000  0.07076000  1.0
  H  H47  1  0.48208000  0.98729000  0.11466000  1.0
  H  H48  1  0.16947000  0.20538000  0.08694000  1.0
  H  H49  1  0.14738000  0.23621000  0.14938000  1.0
  H  H50  1  0.40695000  0.07283000  0.61938000  1.0
  H  H51  1  0.04240000  0.22299000  0.72107000  1.0
  H  H52  1  0.02653000  0.14204000  0.67211000  1.0
  H  H53  1  0.34329000  0.49380000  0.57073000  1.0
  H  H54  1  0.51790000  0.51271000  0.61461000  1.0
  H  H55  1  0.83057000  0.29470000  0.58692000  1.0
  H  H56  1  0.85260000  0.26381000  0.64936000  1.0
  H  H57  1  0.90694000  0.42719000  0.88057000  1.0
  H  H58  1  0.54241000  0.27698000  0.77891000  1.0
  H  H59  1  0.52653000  0.35795000  0.82787000  1.0
  H  H60  1  0.84334000  0.00621000  0.92923000  1.0
  H  H61  1  0.01793000  0.98729000  0.88534000  1.0
  H  H62  1  0.33054000  0.20539000  0.91306000  1.0
  H  H63  1  0.35262000  0.23622000  0.85062000  1.0
  C  C64  1  0.02240000  0.89184000  0.73584000  1.0
  C  C65  1  0.05843000  0.93594000  0.79134000  1.0
  C  C66  1  0.01236000  0.03225000  0.76894000  1.0
  C  C67  1  0.98846000  0.99030000  0.71200000  1.0
  C  C68  1  0.86537000  0.70529000  0.49167000  1.0
  C  C69  1  0.52234000  0.60816000  0.76414000  1.0
  C  C70  1  0.55824000  0.56403000  0.70865000  1.0
  C  C71  1  0.51214000  0.46773000  0.73105000  1.0
  C  C72  1  0.48832000  0.50970000  0.78799000  1.0
  C  C73  1  0.36539000  0.79466000  0.00833000  1.0
  C  C74  1  0.47761000  0.89185000  0.26416000  1.0
  C  C75  1  0.44158000  0.93594000  0.20867000  1.0
  C  C76  1  0.48764000  0.03225000  0.23106000  1.0
  C  C77  1  0.51156000  0.99031000  0.28800000  1.0
  C  C78  1  0.63461000  0.70529000  0.50833000  1.0
  C  C79  1  0.97767000  0.60816000  0.23586000  1.0
  C  C80  1  0.94176000  0.56403000  0.29136000  1.0
  C  C81  1  0.98785000  0.46773000  0.26895000  1.0
  C  C82  1  0.01168000  0.50970000  0.21201000  1.0
  C  C83  1  0.13460000  0.79466000  0.99167000  1.0
  C  C84  1  0.97760000  0.10816000  0.26416000  1.0
  C  C85  1  0.94158000  0.06406000  0.20867000  1.0
  C  C86  1  0.98765000  0.96775000  0.23107000  1.0
  C  C87  1  0.01155000  0.00970000  0.28801000  1.0
  C  C88  1  0.13462000  0.29471000  0.50833000  1.0
  C  C89  1  0.47767000  0.39184000  0.23586000  1.0
  C  C90  1  0.44175000  0.43597000  0.29136000  1.0
  C  C91  1  0.48783000  0.53227000  0.26895000  1.0
  C  C92  1  0.51167000  0.49030000  0.21202000  1.0
  C  C93  1  0.63461000  0.20534000  0.99167000  1.0
  C  C94  1  0.52240000  0.10816000  0.73584000  1.0
  C  C95  1  0.55842000  0.06406000  0.79133000  1.0
  C  C96  1  0.51236000  0.96775000  0.76894000  1.0
  C  C97  1  0.48846000  0.00970000  0.71200000  1.0
  C  C98  1  0.36538000  0.29470000  0.49167000  1.0
  C  C99  1  0.02234000  0.39184000  0.76414000  1.0
  C  C100  1  0.05825000  0.43597000  0.70865000  1.0
  C  C101  1  0.01218000  0.53227000  0.73105000  1.0
  C  C102  1  0.98834000  0.49030000  0.78798000  1.0
  C  C103  1  0.86540000  0.20535000  0.00832000  1.0
  O  O104  1  0.02013000  0.80611000  0.71812000  1.0
  O  O105  1  0.11285000  0.90715000  0.83931000  1.0
  O  O106  1  0.99877000  0.11602000  0.78899000  1.0
  O  O107  1  0.96038000  0.02574000  0.66447000  1.0
  O  O108  1  0.99700000  0.70961000  0.53003000  1.0
  O  O109  1  0.90140000  0.69857000  0.43931000  1.0
  O  O110  1  0.87836000  0.85901000  0.60824000  1.0
  O  O111  1  0.55736000  0.78799000  0.68017000  1.0
  O  O112  1  0.96367000  0.53693000  0.58790000  1.0
  O  O113  1  0.24931000  0.71030000  0.62187000  1.0
  O  O114  1  0.52019000  0.69390000  0.78186000  1.0
  O  O115  1  0.61266000  0.59282000  0.66068000  1.0
  O  O116  1  0.49857000  0.38394000  0.71101000  1.0
  O  O117  1  0.46018000  0.47426000  0.83551000  1.0
  O  O118  1  0.49701000  0.79036000  0.96994000  1.0
  O  O119  1  0.40141000  0.80135000  0.06068000  1.0
  O  O120  1  0.37842000  0.64097000  0.89173000  1.0
  O  O121  1  0.05742000  0.71202000  0.81980000  1.0
  O  O122  1  0.46368000  0.96304000  0.91203000  1.0
  O  O123  1  0.74931000  0.78966000  0.87810000  1.0
  O  O124  1  0.47987000  0.80611000  0.28188000  1.0
  O  O125  1  0.38715000  0.90714000  0.16070000  1.0
  O  O126  1  0.50123000  0.11603000  0.21101000  1.0
  O  O127  1  0.53963000  0.02575000  0.33553000  1.0
  O  O128  1  0.50297000  0.70964000  0.46996000  1.0
  O  O129  1  0.59858000  0.69856000  0.56067000  1.0
  O  O130  1  0.62162000  0.85903000  0.39176000  1.0
  O  O131  1  0.94264000  0.78800000  0.31983000  1.0
  O  O132  1  0.53633000  0.53696000  0.41209000  1.0
  O  O133  1  0.25069000  0.71032000  0.37812000  1.0
  O  O134  1  0.97981000  0.69389000  0.21814000  1.0
  O  O135  1  0.88734000  0.59283000  0.33933000  1.0
  O  O136  1  0.00141000  0.38394000  0.28899000  1.0
  O  O137  1  0.03981000  0.47425000  0.16449000  1.0
  O  O138  1  0.00298000  0.79035000  0.03006000  1.0
  O  O139  1  0.09858000  0.80135000  0.93932000  1.0
  O  O140  1  0.12158000  0.64096000  0.10827000  1.0
  O  O141  1  0.44258000  0.71201000  0.18020000  1.0
  O  O142  1  0.03633000  0.96302000  0.08797000  1.0
  O  O143  1  0.75070000  0.78964000  0.12190000  1.0
  O  O144  1  0.97986000  0.19389000  0.28189000  1.0
  O  O145  1  0.88715000  0.09285000  0.16070000  1.0
  O  O146  1  0.00124000  0.88398000  0.21101000  1.0
  O  O147  1  0.03963000  0.97426000  0.33554000  1.0
  O  O148  1  0.00298000  0.29038000  0.46996000  1.0
  O  O149  1  0.09859000  0.30143000  0.56068000  1.0
  O  O150  1  0.12163000  0.14099000  0.39176000  1.0
  O  O151  1  0.44263000  0.21201000  0.31983000  1.0
  O  O152  1  0.03632000  0.46306000  0.41210000  1.0
  O  O153  1  0.75069000  0.28968000  0.37812000  1.0
  O  O154  1  0.47981000  0.30611000  0.21814000  1.0
  O  O155  1  0.38734000  0.40718000  0.33933000  1.0
  O  O156  1  0.50140000  0.61606000  0.28899000  1.0
  O  O157  1  0.53984000  0.52574000  0.16449000  1.0
  O  O158  1  0.50299000  0.20964000  0.03006000  1.0
  O  O159  1  0.59859000  0.19865000  0.93932000  1.0
  O  O160  1  0.62158000  0.35903000  0.10828000  1.0
  O  O161  1  0.94257000  0.28798000  0.18020000  1.0
  O  O162  1  0.53632000  0.03697000  0.08797000  1.0
  O  O163  1  0.25069000  0.21035000  0.12190000  1.0
  O  O164  1  0.52013000  0.19389000  0.71812000  1.0
  O  O165  1  0.61286000  0.09285000  0.83931000  1.0
  O  O166  1  0.49876000  0.88398000  0.78899000  1.0
  O  O167  1  0.46036000  0.97425000  0.66447000  1.0
  O  O168  1  0.49702000  0.29036000  0.53004000  1.0
  O  O169  1  0.40141000  0.30143000  0.43932000  1.0
  O  O170  1  0.37839000  0.14097000  0.60824000  1.0
  O  O171  1  0.05736000  0.21200000  0.68017000  1.0
  O  O172  1  0.46368000  0.46304000  0.58791000  1.0
  O  O173  1  0.74931000  0.28968000  0.62188000  1.0
  O  O174  1  0.02020000  0.30611000  0.78186000  1.0
  O  O175  1  0.11266000  0.40718000  0.66067000  1.0
  O  O176  1  0.99860000  0.61606000  0.71101000  1.0
  O  O177  1  0.96018000  0.52575000  0.83551000  1.0
  O  O178  1  0.99702000  0.20965000  0.96994000  1.0
  O  O179  1  0.90141000  0.19866000  0.06068000  1.0
  O  O180  1  0.87843000  0.35904000  0.89172000  1.0
  O  O181  1  0.55742000  0.28799000  0.81980000  1.0
  O  O182  1  0.96368000  0.03698000  0.91203000  1.0
  O  O183  1  0.24931000  0.21036000  0.87810000  1.0
