# generated using pymatgen
data_CdH19C24N3O4
_symmetry_space_group_name_H-M   'P 1'
_cell_length_a   14.62190000
_cell_length_b   15.89410000
_cell_length_c   22.58730000
_cell_angle_alpha   89.99950000
_cell_angle_beta   90.00010000
_cell_angle_gamma   89.99990000
_symmetry_Int_Tables_number   1
_chemical_formula_structural   CdH19C24N3O4
_chemical_formula_sum   'Cd8 H152 C192 N24 O32'
_cell_volume   5249.33235699
_cell_formula_units_Z   8
loop_
 _symmetry_equiv_pos_site_id
 _symmetry_equiv_pos_as_xyz
  1  'x, y, z'
loop_
 _atom_site_type_symbol
 _atom_site_label
 _atom_site_symmetry_multiplicity
 _atom_site_fract_x
 _atom_site_fract_y
 _atom_site_fract_z
 _atom_site_occupancy
  Cd  Cd0  1  0.64505000  0.24103000  0.88496000  1.0
  Cd  Cd1  1  0.85493000  0.25896000  0.38496000  1.0
  Cd  Cd2  1  0.14507000  0.25896000  0.11504000  1.0
  Cd  Cd3  1  0.35493000  0.24104000  0.61503000  1.0
  Cd  Cd4  1  0.35494000  0.75897000  0.11504000  1.0
  Cd  Cd5  1  0.14507000  0.74104000  0.61504000  1.0
  Cd  Cd6  1  0.85493000  0.74104000  0.88496000  1.0
  Cd  Cd7  1  0.64506000  0.75896000  0.38496000  1.0
  H  H8  1  0.85834000  0.26267000  0.89605000  1.0
  H  H9  1  0.64165000  0.23733000  0.39604000  1.0
  H  H10  1  0.35834000  0.23734000  0.10396000  1.0
  H  H11  1  0.14165000  0.26267000  0.60395000  1.0
  H  H12  1  0.14165000  0.73734000  0.10395000  1.0
  H  H13  1  0.35835000  0.76268000  0.60394000  1.0
  H  H14  1  0.64165000  0.76266000  0.89604000  1.0
  H  H15  1  0.85835000  0.73733000  0.39605000  1.0
  H  H16  1  0.54037000  0.12175000  0.98136000  1.0
  H  H17  1  0.95963000  0.37824000  0.48135000  1.0
  H  H18  1  0.04037000  0.37825000  0.01866000  1.0
  H  H19  1  0.45964000  0.12176000  0.51864000  1.0
  H  H20  1  0.45964000  0.87824000  0.01865000  1.0
  H  H21  1  0.04036000  0.62176000  0.51865000  1.0
  H  H22  1  0.95964000  0.62176000  0.98136000  1.0
  H  H23  1  0.54036000  0.87824000  0.48135000  1.0
  H  H24  1  0.04357000  0.76808000  0.95085000  1.0
  H  H25  1  0.45641000  0.73191000  0.45084000  1.0
  H  H26  1  0.54360000  0.73191000  0.04916000  1.0
  H  H27  1  0.95642000  0.76808000  0.54917000  1.0
  H  H28  1  0.95641000  0.23192000  0.04916000  1.0
  H  H29  1  0.54359000  0.26810000  0.54916000  1.0
  H  H30  1  0.45640000  0.26808000  0.95084000  1.0
  H  H31  1  0.04359000  0.23192000  0.45084000  1.0
  H  H32  1  0.40390000  0.02685000  0.98922000  1.0
  H  H33  1  0.09610000  0.47314000  0.48921000  1.0
  H  H34  1  0.90390000  0.47316000  0.01080000  1.0
  H  H35  1  0.59611000  0.02686000  0.51079000  1.0
  H  H36  1  0.59611000  0.97314000  0.01079000  1.0
  H  H37  1  0.90389000  0.52685000  0.51080000  1.0
  H  H38  1  0.09611000  0.52686000  0.98921000  1.0
  H  H39  1  0.40390000  0.97315000  0.48920000  1.0
  H  H40  1  0.71741000  0.15603000  0.67199000  1.0
  H  H41  1  0.78258000  0.34396000  0.17199000  1.0
  H  H42  1  0.21741000  0.34395000  0.32800000  1.0
  H  H43  1  0.28257000  0.15603000  0.82801000  1.0
  H  H44  1  0.28259000  0.84396000  0.32801000  1.0
  H  H45  1  0.21743000  0.65603000  0.82801000  1.0
  H  H46  1  0.78258000  0.65603000  0.67199000  1.0
  H  H47  1  0.71743000  0.84397000  0.17200000  1.0
  H  H48  1  0.24012000  0.00007000  0.81799000  1.0
  H  H49  1  0.25989000  0.49992000  0.31798000  1.0
  H  H50  1  0.74010000  0.49992000  0.18203000  1.0
  H  H51  1  0.75988000  0.00007000  0.68202000  1.0
  H  H52  1  0.75990000  0.99993000  0.18202000  1.0
  H  H53  1  0.74011000  0.50008000  0.68203000  1.0
  H  H54  1  0.25988000  0.50008000  0.81798000  1.0
  H  H55  1  0.24010000  0.99992000  0.31798000  1.0
  H  H56  1  0.38910000  0.03086000  0.79771000  1.0
  H  H57  1  0.11089000  0.46913000  0.29770000  1.0
  H  H58  1  0.88909000  0.46911000  0.20231000  1.0
  H  H59  1  0.61089000  0.03087000  0.70229000  1.0
  H  H60  1  0.61089000  0.96913000  0.20230000  1.0
  H  H61  1  0.88912000  0.53087000  0.70231000  1.0
  H  H62  1  0.11089000  0.53087000  0.79771000  1.0
  H  H63  1  0.38910000  0.96913000  0.29769000  1.0
  H  H64  1  0.81087000  0.31952000  0.71291000  1.0
  H  H65  1  0.68911000  0.18048000  0.21292000  1.0
  H  H66  1  0.31092000  0.18048000  0.28709000  1.0
  H  H67  1  0.18911000  0.31952000  0.78708000  1.0
  H  H68  1  0.18911000  0.68048000  0.28708000  1.0
  H  H69  1  0.31090000  0.81951000  0.78709000  1.0
  H  H70  1  0.68911000  0.81952000  0.71291000  1.0
  H  H71  1  0.81090000  0.68048000  0.21292000  1.0
  H  H72  1  0.18999000  0.84585000  0.94545000  1.0
  H  H73  1  0.31001000  0.65413000  0.44544000  1.0
  H  H74  1  0.69000000  0.65413000  0.05457000  1.0
  H  H75  1  0.81002000  0.84586000  0.55456000  1.0
  H  H76  1  0.81001000  0.15414000  0.05456000  1.0
  H  H77  1  0.68999000  0.34587000  0.55457000  1.0
  H  H78  1  0.31000000  0.34587000  0.94543000  1.0
  H  H79  1  0.18999000  0.15414000  0.44543000  1.0
  H  H80  1  0.99752000  0.19105000  0.93704000  1.0
  H  H81  1  0.50248000  0.30895000  0.43705000  1.0
  H  H82  1  0.49752000  0.30896000  0.06295000  1.0
  H  H83  1  0.00248000  0.19104000  0.56295000  1.0
  H  H84  1  0.00248000  0.80897000  0.06295000  1.0
  H  H85  1  0.49752000  0.69106000  0.56294000  1.0
  H  H86  1  0.50248000  0.69104000  0.93704000  1.0
  H  H87  1  0.99753000  0.80894000  0.43705000  1.0
  H  H88  1  0.29502000  0.93566000  0.94191000  1.0
  H  H89  1  0.20498000  0.56433000  0.44190000  1.0
  H  H90  1  0.79501000  0.56433000  0.05811000  1.0
  H  H91  1  0.70499000  0.93567000  0.55810000  1.0
  H  H92  1  0.70499000  0.06434000  0.05810000  1.0
  H  H93  1  0.79501000  0.43567000  0.55812000  1.0
  H  H94  1  0.20499000  0.43567000  0.94190000  1.0
  H  H95  1  0.29502000  0.06434000  0.44189000  1.0
  H  H96  1  0.52697000  0.12408000  0.79894000  1.0
  H  H97  1  0.97303000  0.37590000  0.29893000  1.0
  H  H98  1  0.02696000  0.37589000  0.20108000  1.0
  H  H99  1  0.47302000  0.12409000  0.70106000  1.0
  H  H100  1  0.47302000  0.87591000  0.20107000  1.0
  H  H101  1  0.02698000  0.62410000  0.70107000  1.0
  H  H102  1  0.97302000  0.62410000  0.79894000  1.0
  H  H103  1  0.52697000  0.87590000  0.29893000  1.0
  H  H104  1  0.83192000  0.96531000  0.95442000  1.0
  H  H105  1  0.66809000  0.53469000  0.45443000  1.0
  H  H106  1  0.33191000  0.53470000  0.04557000  1.0
  H  H107  1  0.16810000  0.96531000  0.54556000  1.0
  H  H108  1  0.16809000  0.03470000  0.04557000  1.0
  H  H109  1  0.33191000  0.46532000  0.54557000  1.0
  H  H110  1  0.66809000  0.46530000  0.95443000  1.0
  H  H111  1  0.83192000  0.03469000  0.45443000  1.0
  H  H112  1  0.74483000  0.12679000  0.56405000  1.0
  H  H113  1  0.75517000  0.37318000  0.06405000  1.0
  H  H114  1  0.24481000  0.37321000  0.43593000  1.0
  H  H115  1  0.25516000  0.12681000  0.93594000  1.0
  H  H116  1  0.25518000  0.87320000  0.43594000  1.0
  H  H117  1  0.24483000  0.62680000  0.93594000  1.0
  H  H118  1  0.75517000  0.62679000  0.56405000  1.0
  H  H119  1  0.74482000  0.87320000  0.06406000  1.0
  H  H120  1  0.08454000  0.97205000  0.78994000  1.0
  H  H121  1  0.41547000  0.52794000  0.28994000  1.0
  H  H122  1  0.58452000  0.52795000  0.21007000  1.0
  H  H123  1  0.91547000  0.97205000  0.71007000  1.0
  H  H124  1  0.91548000  0.02795000  0.21006000  1.0
  H  H125  1  0.58452000  0.47205000  0.71007000  1.0
  H  H126  1  0.41548000  0.47206000  0.78994000  1.0
  H  H127  1  0.08451000  0.02794000  0.28994000  1.0
  H  H128  1  0.85227000  0.28068000  0.60908000  1.0
  H  H129  1  0.64772000  0.21930000  0.10909000  1.0
  H  H130  1  0.35229000  0.21933000  0.39092000  1.0
  H  H131  1  0.14771000  0.28069000  0.89090000  1.0
  H  H132  1  0.14771000  0.71933000  0.39092000  1.0
  H  H133  1  0.35229000  0.78068000  0.89091000  1.0
  H  H134  1  0.64773000  0.78068000  0.60908000  1.0
  H  H135  1  0.85229000  0.71932000  0.10909000  1.0
  H  H136  1  0.94009000  0.88723000  0.80279000  1.0
  H  H137  1  0.55992000  0.61277000  0.30279000  1.0
  H  H138  1  0.44008000  0.61279000  0.19722000  1.0
  H  H139  1  0.05992000  0.88722000  0.69722000  1.0
  H  H140  1  0.05993000  0.11278000  0.19721000  1.0
  H  H141  1  0.44007000  0.38722000  0.69722000  1.0
  H  H142  1  0.55992000  0.38723000  0.80278000  1.0
  H  H143  1  0.94007000  0.11277000  0.30279000  1.0
  H  H144  1  0.70296000  0.04656000  0.91246000  1.0
  H  H145  1  0.79704000  0.45343000  0.41247000  1.0
  H  H146  1  0.20296000  0.45344000  0.08753000  1.0
  H  H147  1  0.29705000  0.04657000  0.58753000  1.0
  H  H148  1  0.29704000  0.95344000  0.08753000  1.0
  H  H149  1  0.20296000  0.54658000  0.58753000  1.0
  H  H150  1  0.79704000  0.54656000  0.91247000  1.0
  H  H151  1  0.70297000  0.95344000  0.41247000  1.0
  H  H152  1  0.06972000  0.06393000  0.97548000  1.0
  H  H153  1  0.43029000  0.43607000  0.47549000  1.0
  H  H154  1  0.56971000  0.43607000  0.02451000  1.0
  H  H155  1  0.93030000  0.06392000  0.52450000  1.0
  H  H156  1  0.93029000  0.93609000  0.02451000  1.0
  H  H157  1  0.56971000  0.56393000  0.52451000  1.0
  H  H158  1  0.43029000  0.56392000  0.97548000  1.0
  H  H159  1  0.06972000  0.93607000  0.47548000  1.0
  C  C160  1  0.85649000  0.19683000  0.90963000  1.0
  C  C161  1  0.64351000  0.30317000  0.40964000  1.0
  C  C162  1  0.35649000  0.30317000  0.09036000  1.0
  C  C163  1  0.14351000  0.19683000  0.59036000  1.0
  C  C164  1  0.14350000  0.80318000  0.09036000  1.0
  C  C165  1  0.35650000  0.69685000  0.59035000  1.0
  C  C166  1  0.64350000  0.69683000  0.90964000  1.0
  C  C167  1  0.85650000  0.80316000  0.40964000  1.0
  C  C168  1  0.50535000  0.09818000  0.94208000  1.0
  C  C169  1  0.99465000  0.40181000  0.44208000  1.0
  C  C170  1  0.00535000  0.40182000  0.05793000  1.0
  C  C171  1  0.49466000  0.09819000  0.55792000  1.0
  C  C172  1  0.49466000  0.90181000  0.05792000  1.0
  C  C173  1  0.00534000  0.59819000  0.55792000  1.0
  C  C174  1  0.99466000  0.59819000  0.94209000  1.0
  C  C175  1  0.50535000  0.90181000  0.44207000  1.0
  C  C176  1  0.05579000  0.81375000  0.91572000  1.0
  C  C177  1  0.44420000  0.68625000  0.41572000  1.0
  C  C178  1  0.55581000  0.68625000  0.08429000  1.0
  C  C179  1  0.94421000  0.81375000  0.58429000  1.0
  C  C180  1  0.94420000  0.18626000  0.08428000  1.0
  C  C181  1  0.55580000  0.31376000  0.58429000  1.0
  C  C182  1  0.44419000  0.31376000  0.91571000  1.0
  C  C183  1  0.05580000  0.18625000  0.41571000  1.0
  C  C184  1  0.82424000  0.20652000  0.50366000  1.0
  C  C185  1  0.67575000  0.29345000  0.00366000  1.0
  C  C186  1  0.32423000  0.29350000  0.49634000  1.0
  C  C187  1  0.17574000  0.20654000  0.99634000  1.0
  C  C188  1  0.17575000  0.79348000  0.49634000  1.0
  C  C189  1  0.32425000  0.70654000  0.99634000  1.0
  C  C190  1  0.67575000  0.70652000  0.50365000  1.0
  C  C191  1  0.82424000  0.79348000  0.00366000  1.0
  C  C192  1  0.42972000  0.04568000  0.94593000  1.0
  C  C193  1  0.07029000  0.45431000  0.44592000  1.0
  C  C194  1  0.92972000  0.45432000  0.05409000  1.0
  C  C195  1  0.57029000  0.04569000  0.55407000  1.0
  C  C196  1  0.57029000  0.95431000  0.05408000  1.0
  C  C197  1  0.92971000  0.54569000  0.55409000  1.0
  C  C198  1  0.07029000  0.54569000  0.94593000  1.0
  C  C199  1  0.42972000  0.95432000  0.44591000  1.0
  C  C200  1  0.76275000  0.21043000  0.66828000  1.0
  C  C201  1  0.73724000  0.28956000  0.16828000  1.0
  C  C202  1  0.26277000  0.28956000  0.33171000  1.0
  C  C203  1  0.23723000  0.21043000  0.83172000  1.0
  C  C204  1  0.23724000  0.78956000  0.33172000  1.0
  C  C205  1  0.26277000  0.71043000  0.83172000  1.0
  C  C206  1  0.73725000  0.71043000  0.66828000  1.0
  C  C207  1  0.76277000  0.78957000  0.16829000  1.0
  C  C208  1  0.23464000  0.96395000  0.85907000  1.0
  C  C209  1  0.26535000  0.53604000  0.35906000  1.0
  C  C210  1  0.73464000  0.53604000  0.14095000  1.0
  C  C211  1  0.76535000  0.96396000  0.64094000  1.0
  C  C212  1  0.76536000  0.03605000  0.14094000  1.0
  C  C213  1  0.73464000  0.46396000  0.64096000  1.0
  C  C214  1  0.26535000  0.46396000  0.85905000  1.0
  C  C215  1  0.23464000  0.03604000  0.35905000  1.0
  C  C216  1  0.42046000  0.04815000  0.83978000  1.0
  C  C217  1  0.07953000  0.45184000  0.33977000  1.0
  C  C218  1  0.92046000  0.45183000  0.16024000  1.0
  C  C219  1  0.57953000  0.04815000  0.66022000  1.0
  C  C220  1  0.57954000  0.95185000  0.16023000  1.0
  C  C221  1  0.92047000  0.54816000  0.66024000  1.0
  C  C222  1  0.07953000  0.54816000  0.83978000  1.0
  C  C223  1  0.42047000  0.95184000  0.33976000  1.0
  C  C224  1  0.76786000  0.26341000  0.71486000  1.0
  C  C225  1  0.73213000  0.23659000  0.21487000  1.0
  C  C226  1  0.26789000  0.23658000  0.28513000  1.0
  C  C227  1  0.23213000  0.26340000  0.78513000  1.0
  C  C228  1  0.23213000  0.73659000  0.28513000  1.0
  C  C229  1  0.26788000  0.76340000  0.78513000  1.0
  C  C230  1  0.73213000  0.76341000  0.71486000  1.0
  C  C231  1  0.76788000  0.73659000  0.21487000  1.0
  C  C232  1  0.13718000  0.85801000  0.91258000  1.0
  C  C233  1  0.36281000  0.64198000  0.41258000  1.0
  C  C234  1  0.63720000  0.64197000  0.08743000  1.0
  C  C235  1  0.86282000  0.85802000  0.58743000  1.0
  C  C236  1  0.86282000  0.14199000  0.08742000  1.0
  C  C237  1  0.63719000  0.35803000  0.58743000  1.0
  C  C238  1  0.36281000  0.35802000  0.91257000  1.0
  C  C239  1  0.13718000  0.14198000  0.41257000  1.0
  C  C240  1  0.93336000  0.15658000  0.93223000  1.0
  C  C241  1  0.56663000  0.34342000  0.43224000  1.0
  C  C242  1  0.43336000  0.34343000  0.06776000  1.0
  C  C243  1  0.06664000  0.15657000  0.56776000  1.0
  C  C244  1  0.06663000  0.84344000  0.06776000  1.0
  C  C245  1  0.43336000  0.65659000  0.56775000  1.0
  C  C246  1  0.56664000  0.65657000  0.93224000  1.0
  C  C247  1  0.93337000  0.84342000  0.43223000  1.0
  C  C248  1  0.30239000  0.96849000  0.89962000  1.0
  C  C249  1  0.19761000  0.53151000  0.39961000  1.0
  C  C250  1  0.80238000  0.53150000  0.10040000  1.0
  C  C251  1  0.69761000  0.96849000  0.60039000  1.0
  C  C252  1  0.69762000  0.03151000  0.10039000  1.0
  C  C253  1  0.80238000  0.46850000  0.60041000  1.0
  C  C254  1  0.19761000  0.46850000  0.89961000  1.0
  C  C255  1  0.30238000  0.03151000  0.39960000  1.0
  C  C256  1  0.49692000  0.10011000  0.83979000  1.0
  C  C257  1  0.00308000  0.39988000  0.33978000  1.0
  C  C258  1  0.99692000  0.39988000  0.16023000  1.0
  C  C259  1  0.50308000  0.10011000  0.66022000  1.0
  C  C260  1  0.50308000  0.89989000  0.16022000  1.0
  C  C261  1  0.99693000  0.60012000  0.66022000  1.0
  C  C262  1  0.00307000  0.60012000  0.83979000  1.0
  C  C263  1  0.49693000  0.89988000  0.33977000  1.0
  C  C264  1  0.84182000  0.03162000  0.94344000  1.0
  C  C265  1  0.65818000  0.46838000  0.44345000  1.0
  C  C266  1  0.34181000  0.46839000  0.05655000  1.0
  C  C267  1  0.15819000  0.03162000  0.55654000  1.0
  C  C268  1  0.15818000  0.96839000  0.05655000  1.0
  C  C269  1  0.34182000  0.53163000  0.55655000  1.0
  C  C270  1  0.65819000  0.53161000  0.94345000  1.0
  C  C271  1  0.84183000  0.96838000  0.44345000  1.0
  C  C272  1  0.92611000  0.07284000  0.95192000  1.0
  C  C273  1  0.57390000  0.42717000  0.45194000  1.0
  C  C274  1  0.42610000  0.42717000  0.04807000  1.0
  C  C275  1  0.07391000  0.07283000  0.54806000  1.0
  C  C276  1  0.07390000  0.92718000  0.04807000  1.0
  C  C277  1  0.42610000  0.57284000  0.54806000  1.0
  C  C278  1  0.57390000  0.57283000  0.95193000  1.0
  C  C279  1  0.92611000  0.92716000  0.45192000  1.0
  C  C280  1  0.71361000  0.25194000  0.76994000  1.0
  C  C281  1  0.78638000  0.24806000  0.26994000  1.0
  C  C282  1  0.21363000  0.24802000  0.23006000  1.0
  C  C283  1  0.28639000  0.25194000  0.73006000  1.0
  C  C284  1  0.28639000  0.74806000  0.23006000  1.0
  C  C285  1  0.21363000  0.75195000  0.73006000  1.0
  C  C286  1  0.78638000  0.75194000  0.76994000  1.0
  C  C287  1  0.71363000  0.74805000  0.26994000  1.0
  C  C288  1  0.79059000  0.18089000  0.56293000  1.0
  C  C289  1  0.70940000  0.31908000  0.06293000  1.0
  C  C290  1  0.29058000  0.31911000  0.43707000  1.0
  C  C291  1  0.20939000  0.18091000  0.93707000  1.0
  C  C292  1  0.20940000  0.81910000  0.43707000  1.0
  C  C293  1  0.29061000  0.68091000  0.93707000  1.0
  C  C294  1  0.70941000  0.68090000  0.56292000  1.0
  C  C295  1  0.79060000  0.81910000  0.06293000  1.0
  C  C296  1  0.07791000  0.92714000  0.82622000  1.0
  C  C297  1  0.42210000  0.57285000  0.32622000  1.0
  C  C298  1  0.57790000  0.57286000  0.17379000  1.0
  C  C299  1  0.92210000  0.92714000  0.67379000  1.0
  C  C300  1  0.92211000  0.07286000  0.17378000  1.0
  C  C301  1  0.57790000  0.42715000  0.67379000  1.0
  C  C302  1  0.42210000  0.42715000  0.82622000  1.0
  C  C303  1  0.07789000  0.07285000  0.32622000  1.0
  C  C304  1  0.15041000  0.91617000  0.86648000  1.0
  C  C305  1  0.34960000  0.58382000  0.36647000  1.0
  C  C306  1  0.65040000  0.58382000  0.13354000  1.0
  C  C307  1  0.84960000  0.91617000  0.63354000  1.0
  C  C308  1  0.84961000  0.08383000  0.13353000  1.0
  C  C309  1  0.65040000  0.41618000  0.63354000  1.0
  C  C310  1  0.34960000  0.41618000  0.86646000  1.0
  C  C311  1  0.15039000  0.08382000  0.36646000  1.0
  C  C312  1  0.80722000  0.22590000  0.61257000  1.0
  C  C313  1  0.69277000  0.27408000  0.11257000  1.0
  C  C314  1  0.30723000  0.27410000  0.38742000  1.0
  C  C315  1  0.19276000  0.22591000  0.88742000  1.0
  C  C316  1  0.19277000  0.77410000  0.38742000  1.0
  C  C317  1  0.30724000  0.72590000  0.88742000  1.0
  C  C318  1  0.69278000  0.72590000  0.61257000  1.0
  C  C319  1  0.80723000  0.77410000  0.11258000  1.0
  C  C320  1  0.99807000  0.88063000  0.83287000  1.0
  C  C321  1  0.50193000  0.61937000  0.33287000  1.0
  C  C322  1  0.49807000  0.61938000  0.16714000  1.0
  C  C323  1  0.00193000  0.88063000  0.66714000  1.0
  C  C324  1  0.00194000  0.11938000  0.16713000  1.0
  C  C325  1  0.49806000  0.38063000  0.66714000  1.0
  C  C326  1  0.50193000  0.38063000  0.83287000  1.0
  C  C327  1  0.99806000  0.11937000  0.33287000  1.0
  C  C328  1  0.76926000  0.07646000  0.91962000  1.0
  C  C329  1  0.73074000  0.42353000  0.41963000  1.0
  C  C330  1  0.26925000  0.42355000  0.08037000  1.0
  C  C331  1  0.23075000  0.07647000  0.58037000  1.0
  C  C332  1  0.23074000  0.92355000  0.08037000  1.0
  C  C333  1  0.26926000  0.57648000  0.58037000  1.0
  C  C334  1  0.73075000  0.57646000  0.91963000  1.0
  C  C335  1  0.76926000  0.92354000  0.41963000  1.0
  C  C336  1  0.38456000  0.01975000  0.89407000  1.0
  C  C337  1  0.11544000  0.48024000  0.39406000  1.0
  C  C338  1  0.88456000  0.48024000  0.10595000  1.0
  C  C339  1  0.61544000  0.01975000  0.60594000  1.0
  C  C340  1  0.61544000  0.98025000  0.10594000  1.0
  C  C341  1  0.88456000  0.51976000  0.60595000  1.0
  C  C342  1  0.11544000  0.51976000  0.89406000  1.0
  C  C343  1  0.38456000  0.98025000  0.39405000  1.0
  C  C344  1  0.00330000  0.03369000  0.98191000  1.0
  C  C345  1  0.49670000  0.46631000  0.48191000  1.0
  C  C346  1  0.50330000  0.46631000  0.01808000  1.0
  C  C347  1  0.99671000  0.03369000  0.51808000  1.0
  C  C348  1  0.99670000  0.96632000  0.01808000  1.0
  C  C349  1  0.50330000  0.53369000  0.51808000  1.0
  C  C350  1  0.49670000  0.53368000  0.98191000  1.0
  C  C351  1  0.00332000  0.96631000  0.48190000  1.0
  N  N352  1  0.98736000  0.82425000  0.87663000  1.0
  N  N353  1  0.51264000  0.67574000  0.37663000  1.0
  N  N354  1  0.48737000  0.67575000  0.12337000  1.0
  N  N355  1  0.01265000  0.82425000  0.62338000  1.0
  N  N356  1  0.01264000  0.17575000  0.12337000  1.0
  N  N357  1  0.48735000  0.32426000  0.62338000  1.0
  N  N358  1  0.51264000  0.32425000  0.87663000  1.0
  N  N359  1  0.98735000  0.17575000  0.37663000  1.0
  N  N360  1  0.77514000  0.15809000  0.90423000  1.0
  N  N361  1  0.72486000  0.34190000  0.40424000  1.0
  N  N362  1  0.27514000  0.34191000  0.09576000  1.0
  N  N363  1  0.22486000  0.15810000  0.59575000  1.0
  N  N364  1  0.22486000  0.84191000  0.09576000  1.0
  N  N365  1  0.27515000  0.65811000  0.59576000  1.0
  N  N366  1  0.72486000  0.65809000  0.90424000  1.0
  N  N367  1  0.77515000  0.84190000  0.40424000  1.0
  N  N368  1  0.53887000  0.12514000  0.88990000  1.0
  N  N369  1  0.96113000  0.37485000  0.38989000  1.0
  N  N370  1  0.03887000  0.37486000  0.11012000  1.0
  N  N371  1  0.46113000  0.12515000  0.61010000  1.0
  N  N372  1  0.46114000  0.87486000  0.11011000  1.0
  N  N373  1  0.03887000  0.62515000  0.61011000  1.0
  N  N374  1  0.96113000  0.62515000  0.88990000  1.0
  N  N375  1  0.53886000  0.87485000  0.38989000  1.0
  O  O376  1  0.72217000  0.31027000  0.80918000  1.0
  O  O377  1  0.77781000  0.18973000  0.30918000  1.0
  O  O378  1  0.22222000  0.18970000  0.19081000  1.0
  O  O379  1  0.27781000  0.31026000  0.69081000  1.0
  O  O380  1  0.27781000  0.68973000  0.19081000  1.0
  O  O381  1  0.22220000  0.81028000  0.69082000  1.0
  O  O382  1  0.77779000  0.81026000  0.80918000  1.0
  O  O383  1  0.72220000  0.68972000  0.30918000  1.0
  O  O384  1  0.88024000  0.26767000  0.49890000  1.0
  O  O385  1  0.61977000  0.23229000  0.99890000  1.0
  O  O386  1  0.38022000  0.23234000  0.50110000  1.0
  O  O387  1  0.11975000  0.26769000  0.00109000  1.0
  O  O388  1  0.11975000  0.73233000  0.50110000  1.0
  O  O389  1  0.38025000  0.76769000  0.00109000  1.0
  O  O390  1  0.61974000  0.76767000  0.49890000  1.0
  O  O391  1  0.88024000  0.73233000  0.99890000  1.0
  O  O392  1  0.66278000  0.18782000  0.77646000  1.0
  O  O393  1  0.83720000  0.31218000  0.27646000  1.0
  O  O394  1  0.16278000  0.31213000  0.22354000  1.0
  O  O395  1  0.33722000  0.18782000  0.72354000  1.0
  O  O396  1  0.33722000  0.81218000  0.22354000  1.0
  O  O397  1  0.16280000  0.68783000  0.72353000  1.0
  O  O398  1  0.83720000  0.68782000  0.77646000  1.0
  O  O399  1  0.66279000  0.81217000  0.27646000  1.0
  O  O400  1  0.79194000  0.16621000  0.45911000  1.0
  O  O401  1  0.70804000  0.33377000  0.95911000  1.0
  O  O402  1  0.29192000  0.33381000  0.54088000  1.0
  O  O403  1  0.20804000  0.16624000  0.04088000  1.0
  O  O404  1  0.20806000  0.83380000  0.54089000  1.0
  O  O405  1  0.29195000  0.66623000  0.04089000  1.0
  O  O406  1  0.70805000  0.66622000  0.45911000  1.0
  O  O407  1  0.79193000  0.83380000  0.95912000  1.0
