# generated using pymatgen
data_MnH10C17S2O5
_symmetry_space_group_name_H-M   'P 1'
_cell_length_a   19.49581603
_cell_length_b   19.49790000
_cell_length_c   20.36580000
_cell_angle_alpha   90.00000000
_cell_angle_beta   90.00000000
_cell_angle_gamma   120.00460843
_symmetry_Int_Tables_number   1
_chemical_formula_structural   MnH10C17S2O5
_chemical_formula_sum   'Mn12 H120 C204 S24 O60'
_cell_volume   6704.11095465
_cell_formula_units_Z   12
loop_
 _symmetry_equiv_pos_site_id
 _symmetry_equiv_pos_as_xyz
  1  'x, y, z'
loop_
 _atom_site_type_symbol
 _atom_site_label
 _atom_site_symmetry_multiplicity
 _atom_site_fract_x
 _atom_site_fract_y
 _atom_site_fract_z
 _atom_site_occupancy
  Mn  Mn0  1  0.73312000  0.37520000  0.97411000  1.0
  Mn  Mn1  1  0.64202000  0.26690000  0.30739000  1.0
  Mn  Mn2  1  0.62479000  0.35785000  0.64069000  1.0
  Mn  Mn3  1  0.26688000  0.62480000  0.47411000  1.0
  Mn  Mn4  1  0.35797000  0.73310000  0.80740000  1.0
  Mn  Mn5  1  0.37521000  0.64215000  0.14069000  1.0
  Mn  Mn6  1  0.44567000  0.73042000  0.97482000  1.0
  Mn  Mn7  1  0.28473000  0.55427000  0.30825000  1.0
  Mn  Mn8  1  0.26955000  0.71524000  0.64170000  1.0
  Mn  Mn9  1  0.55433000  0.26958000  0.47482000  1.0
  Mn  Mn10  1  0.71527000  0.44573000  0.80825000  1.0
  Mn  Mn11  1  0.73045000  0.28476000  0.14170000  1.0
  H  H12  1  0.21669000  0.50073000  0.07387000  1.0
  H  H13  1  0.28392000  0.78324000  0.40712000  1.0
  H  H14  1  0.49918000  0.71576000  0.74043000  1.0
  H  H15  1  0.78330000  0.49926000  0.57387000  1.0
  H  H16  1  0.71608000  0.21676000  0.90712000  1.0
  H  H17  1  0.50082000  0.28424000  0.24043000  1.0
  H  H18  1  0.12725000  0.35524000  0.08104000  1.0
  H  H19  1  0.22781000  0.87262000  0.41422000  1.0
  H  H20  1  0.64470000  0.77186000  0.74756000  1.0
  H  H21  1  0.87275000  0.64476000  0.58104000  1.0
  H  H22  1  0.77219000  0.12739000  0.91422000  1.0
  H  H23  1  0.35530000  0.22814000  0.24756000  1.0
  H  H24  1  0.26274000  0.32109000  0.93045000  1.0
  H  H25  1  0.05831000  0.73712000  0.26353000  1.0
  H  H26  1  0.67881000  0.94165000  0.59714000  1.0
  H  H27  1  0.73726000  0.67892000  0.43045000  1.0
  H  H28  1  0.94169000  0.26288000  0.76353000  1.0
  H  H29  1  0.32119000  0.05836000  0.09714000  1.0
  H  H30  1  0.35351000  0.46728000  0.92451000  1.0
  H  H31  1  0.11377000  0.64637000  0.25771000  1.0
  H  H32  1  0.53261000  0.88617000  0.59121000  1.0
  H  H33  1  0.64649000  0.53273000  0.42451000  1.0
  H  H34  1  0.88623000  0.35363000  0.75770000  1.0
  H  H35  1  0.46739000  0.11384000  0.09120000  1.0
  H  H36  1  0.82913000  0.19328000  0.09302000  1.0
  H  H37  1  0.36392000  0.17098000  0.42623000  1.0
  H  H38  1  0.80664000  0.63584000  0.75955000  1.0
  H  H39  1  0.17087000  0.80672000  0.59302000  1.0
  H  H40  1  0.63608000  0.82902000  0.92623000  1.0
  H  H41  1  0.19335000  0.36415000  0.25955000  1.0
  H  H42  1  0.92853000  0.14851000  0.09134000  1.0
  H  H43  1  0.21979000  0.07140000  0.42458000  1.0
  H  H44  1  0.85141000  0.78001000  0.75781000  1.0
  H  H45  1  0.07147000  0.85149000  0.59134000  1.0
  H  H46  1  0.78021000  0.92860000  0.92458000  1.0
  H  H47  1  0.14859000  0.22000000  0.25782000  1.0
  H  H48  1  0.05965000  0.32167000  0.94165000  1.0
  H  H49  1  0.26218000  0.94028000  0.27514000  1.0
  H  H50  1  0.67816000  0.73782000  0.60816000  1.0
  H  H51  1  0.94034000  0.67832000  0.44165000  1.0
  H  H52  1  0.73782000  0.05973000  0.77514000  1.0
  H  H53  1  0.32184000  0.26218000  0.10816000  1.0
  H  H54  1  0.96027000  0.36661000  0.94482000  1.0
  H  H55  1  0.40646000  0.03975000  0.27837000  1.0
  H  H56  1  0.63317000  0.59349000  0.61142000  1.0
  H  H57  1  0.03972000  0.63338000  0.44482000  1.0
  H  H58  1  0.59354000  0.96026000  0.77837000  1.0
  H  H59  1  0.36682000  0.40650000  0.11142000  1.0
  H  H60  1  0.93690000  0.60141000  0.00073000  1.0
  H  H61  1  0.66442000  0.06301000  0.33410000  1.0
  H  H62  1  0.39865000  0.33560000  0.66717000  1.0
  H  H63  1  0.06310000  0.39859000  0.50073000  1.0
  H  H64  1  0.33557000  0.93698000  0.83410000  1.0
  H  H65  1  0.60135000  0.66440000  0.16717000  1.0
  H  H66  1  0.03999000  0.74119000  0.02518000  1.0
  H  H67  1  0.70130000  0.96005000  0.35848000  1.0
  H  H68  1  0.25888000  0.29885000  0.69168000  1.0
  H  H69  1  0.96002000  0.25882000  0.52518000  1.0
  H  H70  1  0.29870000  0.03995000  0.85848000  1.0
  H  H71  1  0.74113000  0.70116000  0.19168000  1.0
  H  H72  1  0.92333000  0.82333000  0.89344000  1.0
  H  H73  1  0.89998000  0.07685000  0.22662000  1.0
  H  H74  1  0.17668000  0.09999000  0.55999000  1.0
  H  H75  1  0.07668000  0.17668000  0.39344000  1.0
  H  H76  1  0.10002000  0.92315000  0.72662000  1.0
  H  H77  1  0.82332000  0.90001000  0.05999000  1.0
  H  H78  1  0.82097000  0.68329000  0.86930000  1.0
  H  H79  1  0.86220000  0.17916000  0.20264000  1.0
  H  H80  1  0.31672000  0.13765000  0.53588000  1.0
  H  H81  1  0.17904000  0.31672000  0.36930000  1.0
  H  H82  1  0.13780000  0.82084000  0.70264000  1.0
  H  H83  1  0.68328000  0.86235000  0.03588000  1.0
  H  H84  1  0.34871000  0.89108000  0.02937000  1.0
  H  H85  1  0.54233000  0.65132000  0.36264000  1.0
  H  H86  1  0.10886000  0.45766000  0.69593000  1.0
  H  H87  1  0.65129000  0.10891000  0.52937000  1.0
  H  H88  1  0.45767000  0.34868000  0.86264000  1.0
  H  H89  1  0.89115000  0.54235000  0.19593000  1.0
  H  H90  1  0.26221000  0.94993000  0.04049000  1.0
  H  H91  1  0.68766000  0.73787000  0.37380000  1.0
  H  H92  1  0.04992000  0.31230000  0.70702000  1.0
  H  H93  1  0.73779000  0.05007000  0.54049000  1.0
  H  H94  1  0.31234000  0.26213000  0.87380000  1.0
  H  H95  1  0.95008000  0.68770000  0.20702000  1.0
  H  H96  1  0.10777000  0.79212000  0.89054000  1.0
  H  H97  1  0.68426000  0.89239000  0.22395000  1.0
  H  H98  1  0.20790000  0.31569000  0.55724000  1.0
  H  H99  1  0.89224000  0.20789000  0.39054000  1.0
  H  H100  1  0.31574000  0.10761000  0.72395000  1.0
  H  H101  1  0.79210000  0.68431000  0.05724000  1.0
  H  H102  1  0.19273000  0.73140000  0.88223000  1.0
  H  H103  1  0.53857000  0.80730000  0.21555000  1.0
  H  H104  1  0.26870000  0.46140000  0.54893000  1.0
  H  H105  1  0.80727000  0.26860000  0.38223000  1.0
  H  H106  1  0.46143000  0.19270000  0.71555000  1.0
  H  H107  1  0.73130000  0.53860000  0.04893000  1.0
  H  H108  1  0.60675000  0.42510000  0.97436000  1.0
  H  H109  1  0.81834000  0.39323000  0.30778000  1.0
  H  H110  1  0.57474000  0.18158000  0.64107000  1.0
  H  H111  1  0.39325000  0.57489000  0.47436000  1.0
  H  H112  1  0.18166000  0.60677000  0.80778000  1.0
  H  H113  1  0.42526000  0.81843000  0.14107000  1.0
  H  H114  1  0.59608000  0.38423000  0.90505000  1.0
  H  H115  1  0.78808000  0.40392000  0.23851000  1.0
  H  H116  1  0.61567000  0.21184000  0.57179000  1.0
  H  H117  1  0.40392000  0.61577000  0.40505000  1.0
  H  H118  1  0.21192000  0.59608000  0.73851000  1.0
  H  H119  1  0.38433000  0.78816000  0.07179000  1.0
  H  H120  1  0.61536000  0.23577000  0.03232000  1.0
  H  H121  1  0.62033000  0.38467000  0.36551000  1.0
  H  H122  1  0.76420000  0.37958000  0.69898000  1.0
  H  H123  1  0.38464000  0.76423000  0.53232000  1.0
  H  H124  1  0.37967000  0.61533000  0.86551000  1.0
  H  H125  1  0.23580000  0.62042000  0.19898000  1.0
  H  H126  1  0.58601000  0.27460000  0.97963000  1.0
  H  H127  1  0.68858000  0.41400000  0.31291000  1.0
  H  H128  1  0.72540000  0.31137000  0.64633000  1.0
  H  H129  1  0.41399000  0.72540000  0.47963000  1.0
  H  H130  1  0.31142000  0.58600000  0.81291000  1.0
  H  H131  1  0.27460000  0.68863000  0.14633000  1.0
  C  C132  1  0.09466000  0.02293000  0.99739000  1.0
  C  C133  1  0.92819000  0.90532000  0.33079000  1.0
  C  C134  1  0.97705000  0.07176000  0.66414000  1.0
  C  C135  1  0.90534000  0.97707000  0.49739000  1.0
  C  C136  1  0.07181000  0.09468000  0.83079000  1.0
  C  C137  1  0.02295000  0.92824000  0.16414000  1.0
  C  C138  1  0.09665000  0.09307000  0.00565000  1.0
  C  C139  1  0.99632000  0.90325000  0.33894000  1.0
  C  C140  1  0.90687000  0.00358000  0.67231000  1.0
  C  C141  1  0.90335000  0.90693000  0.50565000  1.0
  C  C142  1  0.00368000  0.09675000  0.83894000  1.0
  C  C143  1  0.09313000  0.99642000  0.17231000  1.0
  C  C144  1  0.13647000  0.24194000  0.00859000  1.0
  C  C145  1  0.10538000  0.86341000  0.34174000  1.0
  C  C146  1  0.75798000  0.89447000  0.67515000  1.0
  C  C147  1  0.86353000  0.75806000  0.50859000  1.0
  C  C148  1  0.89462000  0.13660000  0.84174000  1.0
  C  C149  1  0.24202000  0.10553000  0.17515000  1.0
  C  C150  1  0.05580000  0.20105000  0.01380000  1.0
  C  C151  1  0.14519000  0.94405000  0.34707000  1.0
  C  C152  1  0.79886000  0.85470000  0.68030000  1.0
  C  C153  1  0.94420000  0.79895000  0.51380000  1.0
  C  C154  1  0.85481000  0.05595000  0.84707000  1.0
  C  C155  1  0.20114000  0.14530000  0.18030000  1.0
  C  C156  1  0.04764000  0.87495000  0.97354000  1.0
  C  C157  1  0.82733000  0.95246000  0.30681000  1.0
  C  C158  1  0.12506000  0.17273000  0.64013000  1.0
  C  C159  1  0.95236000  0.12504000  0.47354000  1.0
  C  C160  1  0.17267000  0.04754000  0.80681000  1.0
  C  C161  1  0.87494000  0.82727000  0.14013000  1.0
  C  C162  1  0.12845000  0.91124000  0.97490000  1.0
  C  C163  1  0.78274000  0.87167000  0.30828000  1.0
  C  C164  1  0.08877000  0.21724000  0.64157000  1.0
  C  C165  1  0.87155000  0.08875000  0.47490000  1.0
  C  C166  1  0.21726000  0.12833000  0.80829000  1.0
  C  C167  1  0.91123000  0.78276000  0.14157000  1.0
  C  C168  1  0.29065000  0.49289000  0.99860000  1.0
  C  C169  1  0.20221000  0.70929000  0.33182000  1.0
  C  C170  1  0.50702000  0.79762000  0.66520000  1.0
  C  C171  1  0.70934000  0.50710000  0.49860000  1.0
  C  C172  1  0.79779000  0.29071000  0.83182000  1.0
  C  C173  1  0.49298000  0.20239000  0.16520000  1.0
  C  C174  1  0.22622000  0.46104000  0.04232000  1.0
  C  C175  1  0.23475000  0.77372000  0.37552000  1.0
  C  C176  1  0.53887000  0.76500000  0.70889000  1.0
  C  C177  1  0.77378000  0.53896000  0.54232000  1.0
  C  C178  1  0.76525000  0.22628000  0.87552000  1.0
  C  C179  1  0.46113000  0.23500000  0.20889000  1.0
  C  C180  1  0.17601000  0.37969000  0.04601000  1.0
  C  C181  1  0.20357000  0.82390000  0.37917000  1.0
  C  C182  1  0.62024000  0.79617000  0.71257000  1.0
  C  C183  1  0.82399000  0.62031000  0.54601000  1.0
  C  C184  1  0.79643000  0.17611000  0.87917000  1.0
  C  C185  1  0.37976000  0.20383000  0.21257000  1.0
  C  C186  1  0.18843000  0.32811000  0.00568000  1.0
  C  C187  1  0.13959000  0.81145000  0.33880000  1.0
  C  C188  1  0.67181000  0.86024000  0.67228000  1.0
  C  C189  1  0.81157000  0.67189000  0.50569000  1.0
  C  C190  1  0.86041000  0.18855000  0.83879000  1.0
  C  C191  1  0.32819000  0.13977000  0.17228000  1.0
  C  C192  1  0.25328000  0.36065000  0.96218000  1.0
  C  C193  1  0.10735000  0.74662000  0.29527000  1.0
  C  C194  1  0.63925000  0.89258000  0.62882000  1.0
  C  C195  1  0.74672000  0.63935000  0.46218000  1.0
  C  C196  1  0.89265000  0.25339000  0.79527000  1.0
  C  C197  1  0.36075000  0.10742000  0.12882000  1.0
  C  C198  1  0.30348000  0.44198000  0.95833000  1.0
  C  C199  1  0.13850000  0.69644000  0.29148000  1.0
  C  C200  1  0.55792000  0.86141000  0.62497000  1.0
  C  C201  1  0.69652000  0.55802000  0.45833000  1.0
  C  C202  1  0.86150000  0.30356000  0.79148000  1.0
  C  C203  1  0.44207000  0.13858000  0.12497000  1.0
  C  C204  1  0.34603000  0.57886000  0.99522000  1.0
  C  C205  1  0.23283000  0.65393000  0.32856000  1.0
  C  C206  1  0.42107000  0.76710000  0.66189000  1.0
  C  C207  1  0.65397000  0.42114000  0.49522000  1.0
  C  C208  1  0.76718000  0.34608000  0.82856000  1.0
  C  C209  1  0.57893000  0.23290000  0.16189000  1.0
  C  C210  1  0.88894000  0.28271000  0.01920000  1.0
  C  C211  1  0.39371000  0.11113000  0.35258000  1.0
  C  C212  1  0.71714000  0.60614000  0.68579000  1.0
  C  C213  1  0.11106000  0.71729000  0.51920000  1.0
  C  C214  1  0.60629000  0.88887000  0.85258000  1.0
  C  C215  1  0.28286000  0.39386000  0.18579000  1.0
  C  C216  1  0.88010000  0.22114000  0.06032000  1.0
  C  C217  1  0.34089000  0.11994000  0.39362000  1.0
  C  C218  1  0.77877000  0.65893000  0.72685000  1.0
  C  C219  1  0.11990000  0.77885000  0.56032000  1.0
  C  C220  1  0.65911000  0.88006000  0.89362000  1.0
  C  C221  1  0.22123000  0.34107000  0.22685000  1.0
  C  C222  1  0.93548000  0.19623000  0.05898000  1.0
  C  C223  1  0.26061000  0.06445000  0.39228000  1.0
  C  C224  1  0.80369000  0.73921000  0.72545000  1.0
  C  C225  1  0.06452000  0.80376000  0.55898000  1.0
  C  C226  1  0.73938000  0.93554000  0.89228000  1.0
  C  C227  1  0.19631000  0.26079000  0.22545000  1.0
  C  C228  1  0.00107000  0.23217000  0.01641000  1.0
  C  C229  1  0.23106000  0.99881000  0.34977000  1.0
  C  C230  1  0.76772000  0.76883000  0.68288000  1.0
  C  C231  1  0.99893000  0.76782000  0.51641000  1.0
  C  C232  1  0.76894000  0.00120000  0.84977000  1.0
  C  C233  1  0.23228000  0.23117000  0.18289000  1.0
  C  C234  1  0.00986000  0.29437000  0.97554000  1.0
  C  C235  1  0.28457000  0.99005000  0.30901000  1.0
  C  C236  1  0.70548000  0.71537000  0.64206000  1.0
  C  C237  1  0.99014000  0.70563000  0.47554000  1.0
  C  C238  1  0.71543000  0.00996000  0.80901000  1.0
  C  C239  1  0.29452000  0.28463000  0.14207000  1.0
  C  C240  1  0.95462000  0.31954000  0.97719000  1.0
  C  C241  1  0.36496000  0.04535000  0.31069000  1.0
  C  C242  1  0.68027000  0.63495000  0.64378000  1.0
  C  C243  1  0.04538000  0.68046000  0.47719000  1.0
  C  C244  1  0.63504000  0.95465000  0.81068000  1.0
  C  C245  1  0.31973000  0.36505000  0.14378000  1.0
  C  C246  1  0.82660000  0.30535000  0.01926000  1.0
  C  C247  1  0.47865000  0.17357000  0.35258000  1.0
  C  C248  1  0.69457000  0.52119000  0.68590000  1.0
  C  C249  1  0.17340000  0.69465000  0.51926000  1.0
  C  C250  1  0.52134000  0.82642000  0.85258000  1.0
  C  C251  1  0.30543000  0.47881000  0.18591000  1.0
  C  C252  1  0.87364000  0.63393000  0.93268000  1.0
  C  C253  1  0.76022000  0.12640000  0.26606000  1.0
  C  C254  1  0.36610000  0.23972000  0.59919000  1.0
  C  C255  1  0.12637000  0.36607000  0.43268000  1.0
  C  C256  1  0.23978000  0.87360000  0.76606000  1.0
  C  C257  1  0.63390000  0.76028000  0.09919000  1.0
  C  C258  1  0.93546000  0.65060000  0.97669000  1.0
  C  C259  1  0.71510000  0.06453000  0.31006000  1.0
  C  C260  1  0.34944000  0.28491000  0.64317000  1.0
  C  C261  1  0.06454000  0.34940000  0.47669000  1.0
  C  C262  1  0.28490000  0.93547000  0.81006000  1.0
  C  C263  1  0.65056000  0.71509000  0.14318000  1.0
  C  C264  1  0.99269000  0.72844000  0.99032000  1.0
  C  C265  1  0.73580000  0.00738000  0.32363000  1.0
  C  C266  1  0.27159000  0.26426000  0.65682000  1.0
  C  C267  1  0.00732000  0.27156000  0.49032000  1.0
  C  C268  1  0.26420000  0.99263000  0.82363000  1.0
  C  C269  1  0.72841000  0.73574000  0.15682000  1.0
  C  C270  1  0.98928000  0.79153000  0.96004000  1.0
  C  C271  1  0.80229000  0.01084000  0.29330000  1.0
  C  C272  1  0.20848000  0.19777000  0.62657000  1.0
  C  C273  1  0.01072000  0.20847000  0.46004000  1.0
  C  C274  1  0.19771000  0.98916000  0.79330000  1.0
  C  C275  1  0.79152000  0.80223000  0.12657000  1.0
  C  C276  1  0.92638000  0.77451000  0.91676000  1.0
  C  C277  1  0.84812000  0.07375000  0.25002000  1.0
  C  C278  1  0.22549000  0.15188000  0.58331000  1.0
  C  C279  1  0.07363000  0.22549000  0.41676000  1.0
  C  C280  1  0.15188000  0.92625000  0.75002000  1.0
  C  C281  1  0.77451000  0.84812000  0.08331000  1.0
  C  C282  1  0.86952000  0.69658000  0.90293000  1.0
  C  C283  1  0.82701000  0.13059000  0.23627000  1.0
  C  C284  1  0.30342000  0.17293000  0.56948000  1.0
  C  C285  1  0.13048000  0.30341000  0.40293000  1.0
  C  C286  1  0.17299000  0.86941000  0.73626000  1.0
  C  C287  1  0.69658000  0.82707000  0.06948000  1.0
  C  C288  1  0.81181000  0.55027000  0.91845000  1.0
  C  C289  1  0.73829000  0.18816000  0.25189000  1.0
  C  C290  1  0.44977000  0.26153000  0.58501000  1.0
  C  C291  1  0.18819000  0.44973000  0.41845000  1.0
  C  C292  1  0.26170000  0.81184000  0.75188000  1.0
  C  C293  1  0.55023000  0.73847000  0.08501000  1.0
  C  C294  1  0.27569000  0.80631000  0.95579000  1.0
  C  C295  1  0.53056000  0.72434000  0.28907000  1.0
  C  C296  1  0.19371000  0.46941000  0.62243000  1.0
  C  C297  1  0.72431000  0.19369000  0.45579000  1.0
  C  C298  1  0.46944000  0.27566000  0.78907000  1.0
  C  C299  1  0.80629000  0.53059000  0.12243000  1.0
  C  C300  1  0.29523000  0.86885000  0.99975000  1.0
  C  C301  1  0.57356000  0.70480000  0.33304000  1.0
  C  C302  1  0.13108000  0.42640000  0.66633000  1.0
  C  C303  1  0.70477000  0.13115000  0.49975000  1.0
  C  C304  1  0.42644000  0.29520000  0.83304000  1.0
  C  C305  1  0.86892000  0.57359000  0.16632000  1.0
  C  C306  1  0.24722000  0.90241000  0.00519000  1.0
  C  C307  1  0.65512000  0.75284000  0.33851000  1.0
  C  C308  1  0.09748000  0.34484000  0.67175000  1.0
  C  C309  1  0.75278000  0.09759000  0.50519000  1.0
  C  C310  1  0.34488000  0.24716000  0.83851000  1.0
  C  C311  1  0.90253000  0.65517000  0.17175000  1.0
  C  C312  1  0.17798000  0.87470000  0.96703000  1.0
  C  C313  1  0.69666000  0.82213000  0.30039000  1.0
  C  C314  1  0.12525000  0.30331000  0.63365000  1.0
  C  C315  1  0.82202000  0.12530000  0.46703000  1.0
  C  C316  1  0.30334000  0.17787000  0.80039000  1.0
  C  C317  1  0.87476000  0.69670000  0.13365000  1.0
  C  C318  1  0.15925000  0.81260000  0.92234000  1.0
  C  C319  1  0.65327000  0.84085000  0.25569000  1.0
  C  C320  1  0.18739000  0.34669000  0.58899000  1.0
  C  C321  1  0.84075000  0.18740000  0.42234000  1.0
  C  C322  1  0.34673000  0.15915000  0.75569000  1.0
  C  C323  1  0.81261000  0.65331000  0.08900000  1.0
  C  C324  1  0.20699000  0.77876000  0.91736000  1.0
  C  C325  1  0.57169000  0.79306000  0.25066000  1.0
  C  C326  1  0.22127000  0.42828000  0.58402000  1.0
  C  C327  1  0.79301000  0.22124000  0.41736000  1.0
  C  C328  1  0.42831000  0.20694000  0.75066000  1.0
  C  C329  1  0.77873000  0.57172000  0.08402000  1.0
  C  C330  1  0.32762000  0.77141000  0.94882000  1.0
  C  C331  1  0.44372000  0.67241000  0.28212000  1.0
  C  C332  1  0.22869000  0.55625000  0.61554000  1.0
  C  C333  1  0.67238000  0.22859000  0.44882000  1.0
  C  C334  1  0.55628000  0.32759000  0.78212000  1.0
  C  C335  1  0.77131000  0.44375000  0.11554000  1.0
  S  S336  1  0.18363000  0.18509000  0.00752000  1.0
  S  S337  1  0.00134000  0.81627000  0.34069000  1.0
  S  S338  1  0.81482000  0.99849000  0.67418000  1.0
  S  S339  1  0.81637000  0.81491000  0.50752000  1.0
  S  S340  1  0.99866000  0.18373000  0.84069000  1.0
  S  S341  1  0.18518000  0.00151000  0.17418000  1.0
  S  S342  1  0.01029000  0.09775000  0.01794000  1.0
  S  S343  1  0.08741000  0.98957000  0.35122000  1.0
  S  S344  1  0.90217000  0.91253000  0.68451000  1.0
  S  S345  1  0.98971000  0.90225000  0.51793000  1.0
  S  S346  1  0.91259000  0.01044000  0.85123000  1.0
  S  S347  1  0.09783000  0.08747000  0.18451000  1.0
  S  S348  1  0.00538000  0.93302000  0.99287000  1.0
  S  S349  1  0.92766000  0.99465000  0.32617000  1.0
  S  S350  1  0.06697000  0.07240000  0.65956000  1.0
  S  S351  1  0.99462000  0.06698000  0.49287000  1.0
  S  S352  1  0.07234000  0.00535000  0.82617000  1.0
  S  S353  1  0.93303000  0.92760000  0.15955000  1.0
  S  S354  1  0.17912000  0.01357000  0.99172000  1.0
  S  S355  1  0.83429000  0.82095000  0.32531000  1.0
  S  S356  1  0.98647000  0.16560000  0.65859000  1.0
  S  S357  1  0.82088000  0.98643000  0.49173000  1.0
  S  S358  1  0.16571000  0.17905000  0.82531000  1.0
  S  S359  1  0.01353000  0.83440000  0.15859000  1.0
  O  O360  1  0.39677000  0.60804000  0.94823000  1.0
  O  O361  1  0.21129000  0.60313000  0.28162000  1.0
  O  O362  1  0.39188000  0.78872000  0.61496000  1.0
  O  O363  1  0.60323000  0.39196000  0.44823000  1.0
  O  O364  1  0.78871000  0.39687000  0.78162000  1.0
  O  O365  1  0.60812000  0.21128000  0.11496000  1.0
  O  O366  1  0.34485000  0.62634000  0.03849000  1.0
  O  O367  1  0.28142000  0.65514000  0.37191000  1.0
  O  O368  1  0.37361000  0.71850000  0.70521000  1.0
  O  O369  1  0.65515000  0.37366000  0.53849000  1.0
  O  O370  1  0.71859000  0.34487000  0.87191000  1.0
  O  O371  1  0.62639000  0.28150000  0.20521000  1.0
  O  O372  1  0.76510000  0.26368000  0.05490000  1.0
  O  O373  1  0.49841000  0.23520000  0.38803000  1.0
  O  O374  1  0.73643000  0.50149000  0.72143000  1.0
  O  O375  1  0.23490000  0.73632000  0.55490000  1.0
  O  O376  1  0.50159000  0.76480000  0.88803000  1.0
  O  O377  1  0.26356000  0.49850000  0.22143000  1.0
  O  O378  1  0.83454000  0.36258000  0.98375000  1.0
  O  O379  1  0.52799000  0.16557000  0.31718000  1.0
  O  O380  1  0.63723000  0.47178000  0.65054000  1.0
  O  O381  1  0.16546000  0.63741000  0.48375000  1.0
  O  O382  1  0.47200000  0.83442000  0.81718000  1.0
  O  O383  1  0.36277000  0.52822000  0.15054000  1.0
  O  O384  1  0.80979000  0.49595000  0.95406000  1.0
  O  O385  1  0.68575000  0.18992000  0.28735000  1.0
  O  O386  1  0.50409000  0.31394000  0.62055000  1.0
  O  O387  1  0.19021000  0.50405000  0.45406000  1.0
  O  O388  1  0.31425000  0.81008000  0.78735000  1.0
  O  O389  1  0.49591000  0.68606000  0.12055000  1.0
  O  O390  1  0.76432000  0.53902000  0.87063000  1.0
  O  O391  1  0.77469000  0.23586000  0.20421000  1.0
  O  O392  1  0.46106000  0.22519000  0.53729000  1.0
  O  O393  1  0.23568000  0.46098000  0.37063000  1.0
  O  O394  1  0.22531000  0.76414000  0.70421000  1.0
  O  O395  1  0.53894000  0.77481000  0.03729000  1.0
  O  O396  1  0.38698000  0.79463000  0.98879000  1.0
  O  O397  1  0.40762000  0.61306000  0.32208000  1.0
  O  O398  1  0.20548000  0.59236000  0.65556000  1.0
  O  O399  1  0.61302000  0.20537000  0.48879000  1.0
  O  O400  1  0.59238000  0.38694000  0.82208000  1.0
  O  O401  1  0.79452000  0.40764000  0.15555000  1.0
  O  O402  1  0.31408000  0.72000000  0.90460000  1.0
  O  O403  1  0.40584000  0.68597000  0.23793000  1.0
  O  O404  1  0.28014000  0.59417000  0.57134000  1.0
  O  O405  1  0.68591000  0.27999000  0.40459000  1.0
  O  O406  1  0.59416000  0.31403000  0.73793000  1.0
  O  O407  1  0.71986000  0.40584000  0.07134000  1.0
  O  O408  1  0.60908000  0.38223000  0.95217000  1.0
  O  O409  1  0.77311000  0.39087000  0.28563000  1.0
  O  O410  1  0.61759000  0.22682000  0.61890000  1.0
  O  O411  1  0.39092000  0.61777000  0.45217000  1.0
  O  O412  1  0.22689000  0.60913000  0.78563000  1.0
  O  O413  1  0.38241000  0.77318000  0.11890000  1.0
  O  O414  1  0.62456000  0.25714000  0.98691000  1.0
  O  O415  1  0.63254000  0.37549000  0.32012000  1.0
  O  O416  1  0.74285000  0.36738000  0.65357000  1.0
  O  O417  1  0.37544000  0.74286000  0.48691000  1.0
  O  O418  1  0.36746000  0.62452000  0.82012000  1.0
  O  O419  1  0.25715000  0.63262000  0.15357000  1.0
