# generated using pymatgen
data_CdH14C20(NO)4
_symmetry_space_group_name_H-M   'P 1'
_cell_length_a   8.25547000
_cell_length_b   10.17730000
_cell_length_c   11.27270000
_cell_angle_alpha   78.85100000
_cell_angle_beta   88.73190000
_cell_angle_gamma   67.44600000
_symmetry_Int_Tables_number   1
_chemical_formula_structural   CdH14C20(NO)4
_chemical_formula_sum   'Cd2 H28 C40 N8 O8'
_cell_volume   856.75397549
_cell_formula_units_Z   2
loop_
 _symmetry_equiv_pos_site_id
 _symmetry_equiv_pos_as_xyz
  1  'x, y, z'
loop_
 _atom_site_type_symbol
 _atom_site_label
 _atom_site_symmetry_multiplicity
 _atom_site_fract_x
 _atom_site_fract_y
 _atom_site_fract_z
 _atom_site_occupancy
  Cd  Cd0  1  0.09817000  0.40042000  0.36180000  1.0
  Cd  Cd1  1  0.90183000  0.59958000  0.63819000  1.0
  H  H2  1  0.59705000  0.48929000  0.70448000  1.0
  H  H3  1  0.40295000  0.51071000  0.29552000  1.0
  H  H4  1  0.69602000  0.03301000  0.80125000  1.0
  H  H5  1  0.30398000  0.96698000  0.19876000  1.0
  H  H6  1  0.84362000  0.01666000  0.99683000  1.0
  H  H7  1  0.15638000  0.98334000  0.00317000  1.0
  H  H8  1  0.87293000  0.23424000  0.04397000  1.0
  H  H9  1  0.12707000  0.76576000  0.95603000  1.0
  H  H10  1  0.84995000  0.78705000  0.86722000  1.0
  H  H11  1  0.15005000  0.21295000  0.13277000  1.0
  H  H12  1  0.74278000  0.46824000  0.11722000  1.0
  H  H13  1  0.25722000  0.53176000  0.88278000  1.0
  H  H14  1  0.48190000  0.10863000  0.42016000  1.0
  H  H15  1  0.51810000  0.89137000  0.57984000  1.0
  H  H16  1  0.32048000  0.48038000  0.57655000  1.0
  H  H17  1  0.67953000  0.51962000  0.42345000  1.0
  H  H18  1  0.05790000  0.88669000  0.39707000  1.0
  H  H19  1  0.94211000  0.11331000  0.60293000  1.0
  H  H20  1  0.65149000  0.28732000  0.21907000  1.0
  H  H21  1  0.34850000  0.71268000  0.78093000  1.0
  H  H22  1  0.49594000  0.14817000  0.14800000  1.0
  H  H23  1  0.50407000  0.85183000  0.85200000  1.0
  H  H24  1  0.62708000  0.87673000  0.19818000  1.0
  H  H25  1  0.37293000  0.12327000  0.80182000  1.0
  H  H26  1  0.82537000  0.68059000  0.09608000  1.0
  H  H27  1  0.17463000  0.31941000  0.90392000  1.0
  H  H28  1  0.70442000  0.05141000  0.59650000  1.0
  H  H29  1  0.29558000  0.94859000  0.40350000  1.0
  C  C30  1  0.73480000  0.37708000  0.87876000  1.0
  C  C31  1  0.26520000  0.62292000  0.12124000  1.0
  C  C32  1  0.65063000  0.38608000  0.76893000  1.0
  C  C33  1  0.34937000  0.61392000  0.23107000  1.0
  C  C34  1  0.63741000  0.26214000  0.74010000  1.0
  C  C35  1  0.36259000  0.73786000  0.25991000  1.0
  C  C36  1  0.70771000  0.12885000  0.82307000  1.0
  C  C37  1  0.29229000  0.87115000  0.17693000  1.0
  C  C38  1  0.79039000  0.11957000  0.93220000  1.0
  C  C39  1  0.20961000  0.88043000  0.06780000  1.0
  C  C40  1  0.80531000  0.24219000  0.95946000  1.0
  C  C41  1  0.19469000  0.75781000  0.04054000  1.0
  C  C42  1  0.81588000  0.69443000  0.90138000  1.0
  C  C43  1  0.18412000  0.30556000  0.09862000  1.0
  C  C44  1  0.76023000  0.52599000  0.02964000  1.0
  C  C45  1  0.23977000  0.47401000  0.97036000  1.0
  C  C46  1  0.75585000  0.50147000  0.91328000  1.0
  C  C47  1  0.24414000  0.49853000  0.08672000  1.0
  C  C48  1  0.47703000  0.18153000  0.47961000  1.0
  C  C49  1  0.52297000  0.81847000  0.52039000  1.0
  C  C50  1  0.40042000  0.37264000  0.56155000  1.0
  C  C51  1  0.59958000  0.62736000  0.43845000  1.0
  C  C52  1  0.54841000  0.26805000  0.62767000  1.0
  C  C53  1  0.45159000  0.73195000  0.37233000  1.0
  C  C54  1  0.84899000  0.86629000  0.30195000  1.0
  C  C55  1  0.15102000  0.13371000  0.69805000  1.0
  C  C56  1  0.93549000  0.94509000  0.34212000  1.0
  C  C57  1  0.06451000  0.05491000  0.65788000  1.0
  C  C58  1  0.86727000  0.09685000  0.30929000  1.0
  C  C59  1  0.13273000  0.90315000  0.69071000  1.0
  C  C60  1  0.70598000  0.16919000  0.24193000  1.0
  C  C61  1  0.29402000  0.83081000  0.75807000  1.0
  C  C62  1  0.61893000  0.09079000  0.20246000  1.0
  C  C63  1  0.38107000  0.90920000  0.79754000  1.0
  C  C64  1  0.69159000  0.93973000  0.23042000  1.0
  C  C65  1  0.30841000  0.06027000  0.76958000  1.0
  C  C66  1  0.92793000  0.70432000  0.32753000  1.0
  C  C67  1  0.07207000  0.29568000  0.67247000  1.0
  C  C68  1  0.96862000  0.18288000  0.33754000  1.0
  C  C69  1  0.03138000  0.81712000  0.66246000  1.0
  N  N70  1  0.78989000  0.60948000  0.83370000  1.0
  N  N71  1  0.21011000  0.39052000  0.16630000  1.0
  N  N72  1  0.79754000  0.64766000  0.01994000  1.0
  N  N73  1  0.20246000  0.35234000  0.98006000  1.0
  N  N74  1  0.59416000  0.14839000  0.57310000  1.0
  N  N75  1  0.40584000  0.85161000  0.42690000  1.0
  N  N76  1  0.35717000  0.31646000  0.47050000  1.0
  N  N77  1  0.64283000  0.68354000  0.52950000  1.0
  O  O78  1  0.89797000  0.63973000  0.24945000  1.0
  O  O79  1  0.10203000  0.36027000  0.75055000  1.0
  O  O80  1  0.02477000  0.63408000  0.42406000  1.0
  O  O81  1  0.97523000  0.36592000  0.57594000  1.0
  O  O82  1  0.13157000  0.11966000  0.36998000  1.0
  O  O83  1  0.86843000  0.88034000  0.63002000  1.0
  O  O84  1  0.88650000  0.32080000  0.32151000  1.0
  O  O85  1  0.11350000  0.67920000  0.67849000  1.0
