# generated using pymatgen
data_ZnH10C11(N2O)2
_symmetry_space_group_name_H-M   'P 1'
_cell_length_a   9.43360000
_cell_length_b   9.79442000
_cell_length_c   19.91024890
_cell_angle_alpha   79.95587056
_cell_angle_beta   76.30086407
_cell_angle_gamma   89.98390000
_symmetry_Int_Tables_number   1
_chemical_formula_structural   ZnH10C11(N2O)2
_chemical_formula_sum   'Zn4 H40 C44 N16 O8'
_cell_volume   1758.29573326
_cell_formula_units_Z   4
loop_
 _symmetry_equiv_pos_site_id
 _symmetry_equiv_pos_as_xyz
  1  'x, y, z'
loop_
 _atom_site_type_symbol
 _atom_site_label
 _atom_site_symmetry_multiplicity
 _atom_site_fract_x
 _atom_site_fract_y
 _atom_site_fract_z
 _atom_site_occupancy
  Zn  Zn0  1  0.59610000  0.91009000  0.42762000  1.0
  Zn  Zn1  1  0.02374000  0.59011000  0.57230000  1.0
  Zn  Zn2  1  0.40390000  0.08991000  0.57238000  1.0
  Zn  Zn3  1  0.97626000  0.40989000  0.42770000  1.0
  H  H4  1  0.43183000  0.69444000  0.39832000  1.0
  H  H5  1  0.25909000  0.60855000  0.43097000  1.0
  H  H6  1  0.40554000  0.54992000  0.46880000  1.0
  H  H7  1  0.16811000  0.94187000  0.67170000  1.0
  H  H8  1  0.06300000  0.78254000  0.68331000  1.0
  H  H9  1  0.02024000  0.93431000  0.63097000  1.0
  H  H10  1  0.36444000  0.13178000  0.22134000  1.0
  H  H11  1  0.70201000  0.83600000  0.21346000  1.0
  H  H12  1  0.70817000  0.83451000  0.08661000  1.0
  H  H13  1  0.36846000  0.12778000  0.09489000  1.0
  H  H14  1  0.82906000  0.80527000  0.60176000  1.0
  H  H15  1  0.68896000  0.89081000  0.56891000  1.0
  H  H16  1  0.87308000  0.94994000  0.53128000  1.0
  H  H17  1  0.83947000  0.55802000  0.32812000  1.0
  H  H18  1  0.74576000  0.71732000  0.31666000  1.0
  H  H19  1  0.65096000  0.56553000  0.36901000  1.0
  H  H20  1  0.58602000  0.36857000  0.77851000  1.0
  H  H21  1  0.91559000  0.66405000  0.78664000  1.0
  H  H22  1  0.79488000  0.66527000  0.91349000  1.0
  H  H23  1  0.46350000  0.37238000  0.90495000  1.0
  H  H24  1  0.56817000  0.30556000  0.60168000  1.0
  H  H25  1  0.74091000  0.39145000  0.56903000  1.0
  H  H26  1  0.59446000  0.45008000  0.53120000  1.0
  H  H27  1  0.83189000  0.05812000  0.32830000  1.0
  H  H28  1  0.93700000  0.21746000  0.31669000  1.0
  H  H29  1  0.97975000  0.06569000  0.36904000  1.0
  H  H30  1  0.63556000  0.86823000  0.77866000  1.0
  H  H31  1  0.29799000  0.16400000  0.78654000  1.0
  H  H32  1  0.29183000  0.16549000  0.91339000  1.0
  H  H33  1  0.63153000  0.87222000  0.90511000  1.0
  H  H34  1  0.17094000  0.19473000  0.39824000  1.0
  H  H35  1  0.31104000  0.10919000  0.43109000  1.0
  H  H36  1  0.12692000  0.05006000  0.46872000  1.0
  H  H37  1  0.16052000  0.44198000  0.67188000  1.0
  H  H38  1  0.25423000  0.28268000  0.68334000  1.0
  H  H39  1  0.34904000  0.43447000  0.63099000  1.0
  H  H40  1  0.41399000  0.63143000  0.22149000  1.0
  H  H41  1  0.08440000  0.33595000  0.21337000  1.0
  H  H42  1  0.20511000  0.33474000  0.08652000  1.0
  H  H43  1  0.53650000  0.62761000  0.09505000  1.0
  C  C44  1  0.31875000  0.73913000  0.49735000  1.0
  C  C45  1  0.21403000  0.83842000  0.58404000  1.0
  C  C46  1  0.35504000  0.64300000  0.44656000  1.0
  C  C47  1  0.11101000  0.87636000  0.64621000  1.0
  C  C48  1  0.52506000  0.98546000  0.30073000  1.0
  C  C49  1  0.53144000  0.98271000  0.22513000  1.0
  C  C50  1  0.43775000  0.06572000  0.19147000  1.0
  C  C51  1  0.62889000  0.89908000  0.18737000  1.0
  C  C52  1  0.63249000  0.89770000  0.11727000  1.0
  C  C53  1  0.43968000  0.06381000  0.12182000  1.0
  C  C54  1  0.53676000  0.97865000  0.08437000  1.0
  C  C55  1  0.81571000  0.76067000  0.50257000  1.0
  C  C56  1  0.79791000  0.66143000  0.41584000  1.0
  C  C57  1  0.80067000  0.85666000  0.55345000  1.0
  C  C58  1  0.75692000  0.62349000  0.35370000  1.0
  C  C59  1  0.82592000  0.51495000  0.69920000  1.0
  C  C60  1  0.75672000  0.51756000  0.77482000  1.0
  C  C61  1  0.62943000  0.43452000  0.80844000  1.0
  C  C62  1  0.81638000  0.60100000  0.81267000  1.0
  C  C63  1  0.74983000  0.60224000  0.88278000  1.0
  C  C64  1  0.56164000  0.43634000  0.87809000  1.0
  C  C65  1  0.62119000  0.52136000  0.91562000  1.0
  C  C66  1  0.68124000  0.26087000  0.50265000  1.0
  C  C67  1  0.78597000  0.16158000  0.41596000  1.0
  C  C68  1  0.64496000  0.35700000  0.55344000  1.0
  C  C69  1  0.88900000  0.12364000  0.35379000  1.0
  C  C70  1  0.47493000  0.01456000  0.69927000  1.0
  C  C71  1  0.46857000  0.01729000  0.77487000  1.0
  C  C72  1  0.56224000  0.93428000  0.80853000  1.0
  C  C73  1  0.37111000  0.10092000  0.81263000  1.0
  C  C74  1  0.36751000  0.10230000  0.88273000  1.0
  C  C75  1  0.56032000  0.93619000  0.87818000  1.0
  C  C76  1  0.46324000  0.02135000  0.91563000  1.0
  C  C77  1  0.18428000  0.23933000  0.49743000  1.0
  C  C78  1  0.20209000  0.33857000  0.58416000  1.0
  C  C79  1  0.19933000  0.14334000  0.44655000  1.0
  C  C80  1  0.24307000  0.37651000  0.64630000  1.0
  C  C81  1  0.17409000  0.48505000  0.30080000  1.0
  C  C82  1  0.24329000  0.48244000  0.22518000  1.0
  C  C83  1  0.37058000  0.56548000  0.19156000  1.0
  C  C84  1  0.18362000  0.39901000  0.18733000  1.0
  C  C85  1  0.25017000  0.39776000  0.11722000  1.0
  C  C86  1  0.43836000  0.56366000  0.12191000  1.0
  C  C87  1  0.37881000  0.47864000  0.08438000  1.0
  N  N88  1  0.40572000  0.84698000  0.49677000  1.0
  N  N89  1  0.33923000  0.90988000  0.55183000  1.0
  N  N90  1  0.19717000  0.73059000  0.55115000  1.0
  N  N91  1  0.54787000  0.96814000  0.01350000  1.0
  N  N92  1  0.90226000  0.65291000  0.50316000  1.0
  N  N93  1  0.89101000  0.59005000  0.44805000  1.0
  N  N94  1  0.74799000  0.76918000  0.44875000  1.0
  N  N95  1  0.56137000  0.53184000  0.98651000  1.0
  N  N96  1  0.59428000  0.15302000  0.50323000  1.0
  N  N97  1  0.66077000  0.09012000  0.44817000  1.0
  N  N98  1  0.80283000  0.26941000  0.44885000  1.0
  N  N99  1  0.45213000  0.03186000  0.98650000  1.0
  N  N100  1  0.09774000  0.34709000  0.49684000  1.0
  N  N101  1  0.10899000  0.40995000  0.55195000  1.0
  N  N102  1  0.25201000  0.23082000  0.55125000  1.0
  N  N103  1  0.43864000  0.46816000  0.01349000  1.0
  O  O104  1  0.61508000  0.90431000  0.32837000  1.0
  O  O105  1  0.43881000  0.05996000  0.33420000  1.0
  O  O106  1  0.94332000  0.59632000  0.67154000  1.0
  O  O107  1  0.77328000  0.44035000  0.66571000  1.0
  O  O108  1  0.38493000  0.09569000  0.67163000  1.0
  O  O109  1  0.56123000  0.94004000  0.66579000  1.0
  O  O110  1  0.05668000  0.40368000  0.32846000  1.0
  O  O111  1  0.22672000  0.55965000  0.33429000  1.0
