# generated using pymatgen
data_HgH30C34N6(ClO2)2
_symmetry_space_group_name_H-M   'P 1'
_cell_length_a   4.98293000
_cell_length_b   12.06540000
_cell_length_c   15.40220000
_cell_angle_alpha   82.57700000
_cell_angle_beta   80.68650000
_cell_angle_gamma   78.08280000
_symmetry_Int_Tables_number   1
_chemical_formula_structural   HgH30C34N6(ClO2)2
_chemical_formula_sum   'Hg1 H30 C34 N6 Cl2 O4'
_cell_volume   889.68522283
_cell_formula_units_Z   1
loop_
 _symmetry_equiv_pos_site_id
 _symmetry_equiv_pos_as_xyz
  1  'x, y, z'
loop_
 _atom_site_type_symbol
 _atom_site_label
 _atom_site_symmetry_multiplicity
 _atom_site_fract_x
 _atom_site_fract_y
 _atom_site_fract_z
 _atom_site_occupancy
  Hg  Hg0  1  0.36613000  0.00000000  0.99999000  1.0
  H  H1  1  0.97338000  0.25402000  0.95034000  1.0
  H  H2  1  0.17775000  0.74606000  0.04964000  1.0
  H  H3  1  0.63349000  0.35254000  0.85065000  1.0
  H  H4  1  0.83675000  0.64752000  0.14935000  1.0
  H  H5  1  0.73600000  0.03378000  0.73767000  1.0
  H  H6  1  0.50745000  0.96624000  0.26238000  1.0
  H  H7  1  0.06162000  0.94884000  0.84421000  1.0
  H  H8  1  0.85459000  0.05119000  0.15584000  1.0
  H  H9  1  0.39993000  0.09800000  0.67951000  1.0
  H  H10  1  0.17699000  0.90193000  0.32028000  1.0
  H  H11  1  0.96498000  0.40040000  0.54726000  1.0
  H  H12  1  0.91275000  0.59953000  0.45278000  1.0
  H  H13  1  0.48330000  0.42974000  0.73652000  1.0
  H  H14  1  0.64969000  0.57024000  0.26347000  1.0
  H  H15  1  0.47935000  0.25262000  0.43869000  1.0
  H  H16  1  0.17076000  0.74736000  0.56132000  1.0
  H  H17  1  0.40515000  0.26309000  0.26313000  1.0
  H  H18  1  0.93140000  0.73694000  0.73687000  1.0
  H  H19  1  0.53089000  0.13182000  0.32391000  1.0
  H  H20  1  0.98666000  0.86820000  0.67608000  1.0
  H  H21  1  0.92568000  0.22832000  0.29868000  1.0
  H  H22  1  0.45269000  0.77167000  0.70132000  1.0
  H  H23  1  0.12085000  0.09505000  0.26995000  1.0
  H  H24  1  0.48585000  0.90495000  0.73008000  1.0
  H  H25  1  0.80337000  0.10435000  0.43373000  1.0
  H  H26  1  0.34162000  0.89565000  0.56628000  1.0
  H  H27  1  0.14405000  0.02385000  0.42649000  1.0
  H  H28  1  0.59457000  0.97616000  0.57353000  1.0
  H  H29  1  0.54825000  0.41902000  0.37821000  1.0
  H  H30  1  0.34554000  0.58095000  0.62172000  1.0
  C  C31  1  0.91429000  0.20914000  0.90138000  1.0
  C  C32  1  0.02480000  0.79094000  0.09861000  1.0
  C  C33  1  0.72508000  0.26320000  0.84494000  1.0
  C  C34  1  0.83321000  0.73686000  0.15504000  1.0
  C  C35  1  0.65345000  0.20216000  0.78311000  1.0
  C  C36  1  0.63860000  0.79787000  0.21688000  1.0
  C  C37  1  0.77666000  0.08646000  0.78410000  1.0
  C  C38  1  0.64715000  0.91355000  0.21593000  1.0
  C  C39  1  0.96382000  0.03863000  0.84244000  1.0
  C  C40  1  0.84483000  0.96140000  0.15760000  1.0
  C  C41  1  0.46318000  0.25613000  0.71862000  1.0
  C  C42  1  0.43789000  0.74384000  0.28136000  1.0
  C  C43  1  0.35341000  0.19034000  0.66958000  1.0
  C  C44  1  0.21308000  0.80960000  0.33034000  1.0
  C  C45  1  0.18305000  0.24130000  0.60603000  1.0
  C  C46  1  0.03038000  0.75864000  0.39399000  1.0
  C  C47  1  0.10722000  0.35980000  0.59353000  1.0
  C  C48  1  0.06068000  0.64013000  0.40653000  1.0
  C  C49  1  0.21634000  0.42637000  0.64173000  1.0
  C  C50  1  0.28455000  0.57359000  0.35826000  1.0
  C  C51  1  0.39419000  0.37505000  0.70288000  1.0
  C  C52  1  0.47222000  0.62493000  0.29712000  1.0
  C  C53  1  0.08284000  0.16516000  0.55382000  1.0
  C  C54  1  0.80180000  0.83482000  0.44620000  1.0
  C  C55  1  0.29086000  0.25780000  0.40870000  1.0
  C  C56  1  0.95744000  0.74221000  0.59132000  1.0
  C  C57  1  0.35435000  0.20298000  0.32024000  1.0
  C  C58  1  0.87764000  0.79703000  0.67976000  1.0
  C  C59  1  0.09072000  0.15803000  0.31765000  1.0
  C  C60  1  0.56644000  0.84197000  0.68238000  1.0
  C  C61  1  0.02153000  0.10967000  0.41310000  1.0
  C  C62  1  0.54441000  0.89034000  0.58693000  1.0
  C  C63  1  0.15646000  0.38337000  0.39208000  1.0
  C  C64  1  0.93194000  0.61663000  0.60792000  1.0
  N  N65  1  0.03426000  0.09890000  0.89968000  1.0
  N  N66  1  0.03284000  0.90117000  0.10034000  1.0
  N  N67  1  0.10664000  0.18845000  0.46425000  1.0
  N  N68  1  0.75940000  0.81156000  0.53578000  1.0
  N  N69  1  0.34243000  0.45342000  0.37509000  1.0
  N  N70  1  0.17101000  0.54654000  0.62485000  1.0
  Cl  Cl71  1  0.57789000  0.83479000  0.92365000  1.0
  Cl  Cl72  1  0.33651000  0.16519000  0.07634000  1.0
  O  O73  1  0.98274000  0.08182000  0.59089000  1.0
  O  O74  1  0.65545000  0.91818000  0.40916000  1.0
  O  O75  1  0.90300000  0.41588000  0.39124000  1.0
  O  O76  1  0.71014000  0.58412000  0.60877000  1.0
