# generated using pymatgen
data_Zn8H37C70N8(O2F)13
_symmetry_space_group_name_H-M   'P 1'
_cell_length_a   18.29750000
_cell_length_b   18.33000000
_cell_length_c   18.32750000
_cell_angle_alpha   61.01750000
_cell_angle_beta   60.74840000
_cell_angle_gamma   60.86360000
_symmetry_Int_Tables_number   1
_chemical_formula_structural   Zn8H37C70N8(O2F)13
_chemical_formula_sum   'Zn8 H37 C70 N8 O26 F13'
_cell_volume   4432.36490066
_cell_formula_units_Z   1
loop_
 _symmetry_equiv_pos_site_id
 _symmetry_equiv_pos_as_xyz
  1  'x, y, z'
loop_
 _atom_site_type_symbol
 _atom_site_label
 _atom_site_symmetry_multiplicity
 _atom_site_fract_x
 _atom_site_fract_y
 _atom_site_fract_z
 _atom_site_occupancy
  Zn  Zn0  1  0.94852000  0.45549000  0.46144000  1.0
  Zn  Zn1  1  0.12798000  0.45252000  0.45775000  1.0
  Zn  Zn2  1  0.95893000  0.45886000  0.62912000  1.0
  Zn  Zn3  1  0.95814000  0.62933000  0.45232000  1.0
  Zn  Zn4  1  0.54117000  0.04201000  0.05044000  1.0
  Zn  Zn5  1  0.54184000  0.04538000  0.87097000  1.0
  Zn  Zn6  1  0.36981000  0.03643000  0.04480000  1.0
  Zn  Zn7  1  0.54499000  0.87322000  0.04301000  1.0
  H  H8  1  0.58966000  0.08402000  0.32383000  1.0
  H  H9  1  0.13717000  0.95835000  0.17588000  1.0
  H  H10  1  0.10464000  0.82030000  0.15870000  1.0
  H  H11  1  0.08833000  0.29739000  0.81407000  1.0
  H  H12  1  0.44786000  0.29441000  0.63712000  1.0
  H  H13  1  0.17764000  0.16571000  0.23226000  1.0
  H  H14  1  0.46324000  0.16682000  0.24521000  1.0
  H  H15  1  0.68896000  0.54349000  0.35895000  1.0
  H  H16  1  0.44834000  0.26323000  0.15215000  1.0
  H  H17  1  0.36206000  0.25960000  0.34648000  1.0
  H  H18  1  0.34750000  0.35583000  0.25312000  1.0
  H  H19  1  0.61822000  0.92802000  0.34519000  1.0
  H  H20  1  0.79269000  0.80911000  0.31138000  1.0
  H  H21  1  0.78429000  0.96635000  0.07140000  1.0
  H  H22  1  0.96332000  0.25940000  0.28320000  1.0
  H  H23  1  0.86019000  0.25965000  0.35392000  1.0
  H  H24  1  0.57721000  0.22523000  0.67872000  1.0
  H  H25  1  0.56836000  0.32306000  0.67016000  1.0
  H  H26  1  0.44509000  0.60538000  0.30955000  1.0
  H  H27  1  0.47176000  0.70075000  0.22989000  1.0
  H  H28  1  0.97713000  0.83964000  0.27780000  1.0
  H  H29  1  0.01033000  0.88253000  0.31172000  1.0
  H  H30  1  0.81282000  0.28289000  0.82832000  1.0
  H  H31  1  0.49520000  0.12032000  0.62750000  1.0
  H  H32  1  0.55567000  0.18612000  0.57027000  1.0
  H  H33  1  0.39643000  0.40687000  0.52438000  1.0
  H  H34  1  0.32114000  0.41293000  0.49276000  1.0
  H  H35  1  0.71806000  0.34924000  0.34740000  1.0
  H  H36  1  0.66607000  0.40238000  0.42158000  1.0
  H  H37  1  0.69983000  0.71602000  0.11363000  1.0
  H  H38  1  0.75297000  0.60961000  0.17634000  1.0
  H  H39  1  0.72109000  0.18428000  0.92174000  1.0
  H  H40  1  0.73092000  0.17680000  0.62791000  1.0
  H  H41  1  0.81347000  0.59302000  0.81024000  1.0
  H  H42  1  0.00242000  0.39579000  0.20566000  1.0
  H  H43  1  0.70354000  0.97990000  0.63132000  1.0
  H  H44  1  0.81343000  0.88646000  0.52867000  1.0
  C  C45  1  0.14264000  0.63114000  0.36227000  1.0
  C  C46  1  0.78667000  0.65439000  0.26364000  1.0
  C  C47  1  0.74064000  0.99056000  0.12752000  1.0
  C  C48  1  0.85811000  0.36427000  0.64908000  1.0
  C  C49  1  0.72517000  0.07639000  0.11712000  1.0
  C  C50  1  0.67033000  0.11016000  0.18724000  1.0
  C  C51  1  0.63134000  0.05717000  0.26931000  1.0
  C  C52  1  0.64772000  0.97017000  0.28051000  1.0
  C  C53  1  0.70163000  0.93612000  0.21010000  1.0
  C  C54  1  0.76499000  0.28498000  0.67150000  1.0
  C  C55  1  0.80268000  0.30567000  0.70634000  1.0
  C  C56  1  0.75784000  0.51066000  0.32530000  1.0
  C  C57  1  0.78509000  0.26811000  0.79822000  1.0
  C  C58  1  0.73327000  0.21271000  0.85083000  1.0
  C  C59  1  0.69676000  0.19153000  0.81450000  1.0
  C  C60  1  0.12689000  0.34851000  0.37682000  1.0
  C  C61  1  0.71397000  0.22939000  0.72321000  1.0
  C  C62  1  0.69531000  0.23753000  0.64574000  1.0
  C  C63  1  0.75180000  0.30277000  0.58830000  1.0
  C  C64  1  0.75954000  0.79111000  0.65700000  1.0
  C  C65  1  0.80249000  0.70042000  0.68904000  1.0
  C  C66  1  0.78325000  0.66352000  0.78080000  1.0
  C  C67  1  0.78333000  0.42333000  0.33138000  1.0
  C  C68  1  0.72614000  0.71544000  0.83602000  1.0
  C  C69  1  0.68341000  0.80718000  0.80512000  1.0
  C  C70  1  0.70248000  0.84142000  0.71335000  1.0
  C  C71  1  0.68532000  0.92712000  0.63874000  1.0
  C  C72  1  0.86466000  0.64332000  0.63168000  1.0
  C  C73  1  0.75229000  0.87002000  0.57423000  1.0
  C  C74  1  0.17673000  0.77138000  0.24949000  1.0
  C  C75  1  0.20172000  0.68632000  0.30918000  1.0
  C  C76  1  0.28638000  0.65730000  0.31246000  1.0
  C  C77  1  0.34636000  0.70635000  0.26115000  1.0
  C  C78  1  0.87304000  0.38015000  0.28834000  1.0
  C  C79  1  0.31813000  0.79266000  0.20177000  1.0
  C  C80  1  0.23266000  0.82144000  0.19958000  1.0
  C  C81  1  0.16613000  0.89915000  0.15664000  1.0
  C  C82  1  0.10452000  0.84003000  0.20669000  1.0
  C  C83  1  0.29162000  0.28305000  0.65894000  1.0
  C  C84  1  0.14225000  0.36456000  0.63499000  1.0
  C  C85  1  0.19914000  0.30854000  0.69199000  1.0
  C  C86  1  0.16012000  0.28012000  0.78414000  1.0
  C  C87  1  0.21221000  0.22924000  0.83863000  1.0
  C  C88  1  0.30588000  0.20409000  0.80678000  1.0
  C  C89  1  0.73778000  0.71277000  0.20320000  1.0
  C  C90  1  0.34288000  0.23511000  0.71433000  1.0
  C  C91  1  0.42953000  0.24453000  0.63832000  1.0
  C  C92  1  0.37109000  0.29202000  0.57481000  1.0
  C  C93  1  0.27554000  0.26876000  0.28815000  1.0
  C  C94  1  0.18366000  0.28714000  0.32422000  1.0
  C  C95  1  0.15245000  0.24571000  0.30241000  1.0
  C  C96  1  0.85981000  0.63549000  0.36159000  1.0
  C  C97  1  0.20666000  0.19475000  0.24678000  1.0
  C  C98  1  0.29858000  0.18036000  0.20899000  1.0
  C  C99  1  0.33139000  0.21753000  0.23233000  1.0
  C  C100  1  0.70489000  0.80644000  0.18602000  1.0
  C  C101  1  0.41410000  0.22829000  0.21998000  1.0
  C  C102  1  0.35093000  0.28631000  0.28327000  1.0
  C  C103  1  0.62497000  0.86447000  0.86246000  1.0
  C  C104  1  0.35646000  0.12828000  0.14717000  1.0
  C  C105  1  0.64278000  0.13160000  0.87043000  1.0
  C  C106  1  0.37322000  0.85053000  0.14556000  1.0
  C  C107  1  0.36138000  0.14683000  0.86534000  1.0
  C  C108  1  0.93300000  0.42718000  0.23885000  1.0
  C  C109  1  0.64696000  0.86559000  0.13105000  1.0
  C  C110  1  0.90443000  0.51411000  0.23445000  1.0
  C  C111  1  0.72540000  0.84056000  0.22634000  1.0
  C  C112  1  0.81763000  0.55857000  0.27725000  1.0
  C  C113  1  0.77510000  0.78290000  0.28239000  1.0
  C  C114  1  0.80538000  0.69093000  0.30138000  1.0
  N  N115  1  0.89736000  0.29294000  0.29552000  1.0
  N  N116  1  0.60636000  0.27324000  0.64330000  1.0
  N  N117  1  0.42593000  0.66990000  0.27377000  1.0
  N  N118  1  0.01375000  0.87820000  0.25661000  1.0
  N  N119  1  0.50736000  0.16865000  0.62828000  1.0
  N  N120  1  0.37745000  0.37371000  0.50914000  1.0
  N  N121  1  0.72568000  0.37285000  0.38256000  1.0
  N  N122  1  0.72342000  0.67557000  0.16491000  1.0
  O  O123  1  0.99825000  0.50013000  0.50016000  1.0
  O  O124  1  0.33457000  0.93032000  0.10677000  1.0
  O  O125  1  0.44407000  0.13674000  0.82712000  1.0
  O  O126  1  0.05968000  0.67358000  0.38535000  1.0
  O  O127  1  0.64464000  0.83523000  0.08168000  1.0
  O  O128  1  0.32300000  0.11190000  0.94679000  1.0
  O  O129  1  0.60011000  0.94370000  0.13512000  1.0
  O  O130  1  0.62078000  0.10892000  0.95408000  1.0
  O  O131  1  0.45607000  0.81735000  0.13862000  1.0
  O  O132  1  0.60903000  0.94729000  0.82159000  1.0
  O  O133  1  0.31922000  0.09696000  0.13079000  1.0
  O  O134  1  0.04372000  0.37907000  0.39128000  1.0
  O  O135  1  0.87792000  0.38460000  0.56635000  1.0
  O  O136  1  0.16918000  0.36674000  0.40100000  1.0
  O  O137  1  0.89449000  0.56114000  0.67159000  1.0
  O  O138  1  0.18171000  0.39196000  0.55182000  1.0
  O  O139  1  0.89360000  0.67566000  0.37161000  1.0
  O  O140  1  0.05885000  0.38151000  0.67414000  1.0
  O  O141  1  0.86806000  0.55385000  0.39878000  1.0
  O  O142  1  0.88202000  0.68223000  0.54862000  1.0
  O  O143  1  0.17924000  0.54802000  0.37848000  1.0
  O  O144  1  0.88080000  0.38843000  0.68752000  1.0
  O  O145  1  0.49956000  0.00151000  0.00027000  1.0
  O  O146  1  0.59698000  0.82652000  0.94528000  1.0
  O  O147  1  0.43855000  0.12011000  0.11568000  1.0
  O  O148  1  0.62359000  0.10840000  0.82825000  1.0
  F  F149  1  0.65633000  0.19489000  0.17433000  1.0
  F  F150  1  0.16771000  0.20559000  0.92653000  1.0
  F  F151  1  0.39073000  0.23320000  0.53292000  1.0
  F  F152  1  0.06479000  0.25410000  0.33751000  1.0
  F  F153  1  0.76517000  0.12885000  0.03801000  1.0
  F  F154  1  0.82662000  0.27867000  0.52072000  1.0
  F  F155  1  0.70386000  0.38908000  0.55219000  1.0
  F  F156  1  0.71438000  0.67264000  0.92330000  1.0
  F  F157  1  0.59901000  0.96432000  0.63608000  1.0
  F  F158  1  0.71402000  0.87085000  0.52401000  1.0
  F  F159  1  0.31770000  0.57621000  0.36933000  1.0
  F  F160  1  0.19358000  0.92664000  0.06405000  1.0
  F  F161  1  0.96548000  0.55772000  0.18598000  1.0
