# generated using pymatgen
data_CuH16C21N4O5
_symmetry_space_group_name_H-M   'P 1'
_cell_length_a   9.53810000
_cell_length_b   14.47270000
_cell_length_c   19.64900000
_cell_angle_alpha   90.00010000
_cell_angle_beta   89.99930000
_cell_angle_gamma   89.99720000
_symmetry_Int_Tables_number   1
_chemical_formula_structural   CuH16C21N4O5
_chemical_formula_sum   'Cu4 H64 C84 N16 O20'
_cell_volume   2712.38843094
_cell_formula_units_Z   4
loop_
 _symmetry_equiv_pos_site_id
 _symmetry_equiv_pos_as_xyz
  1  'x, y, z'
loop_
 _atom_site_type_symbol
 _atom_site_label
 _atom_site_symmetry_multiplicity
 _atom_site_fract_x
 _atom_site_fract_y
 _atom_site_fract_z
 _atom_site_occupancy
  Cu  Cu0  1  0.11298000  0.25977000  0.75000000  1.0
  Cu  Cu1  1  0.38702000  0.75975000  0.25000000  1.0
  Cu  Cu2  1  0.61298000  0.24024000  0.75000000  1.0
  Cu  Cu3  1  0.88704000  0.74023000  0.25000000  1.0
  H  H4  1  0.85270000  0.50102000  0.75001000  1.0
  H  H5  1  0.64733000  0.00095000  0.24999000  1.0
  H  H6  1  0.35267000  0.99904000  0.75000000  1.0
  H  H7  1  0.14733000  0.49901000  0.25000000  1.0
  H  H8  1  0.84223000  0.37721000  0.75001000  1.0
  H  H9  1  0.65776000  0.87715000  0.24999000  1.0
  H  H10  1  0.34225000  0.12285000  0.75000000  1.0
  H  H11  1  0.15775000  0.62282000  0.25000000  1.0
  H  H12  1  0.05564000  0.62440000  0.96674000  1.0
  H  H13  1  0.44431000  0.12439000  0.03329000  1.0
  H  H14  1  0.55562000  0.87562000  0.53326000  1.0
  H  H15  1  0.94437000  0.37560000  0.46674000  1.0
  H  H16  1  0.94436000  0.37560000  0.03326000  1.0
  H  H17  1  0.55562000  0.87562000  0.96674000  1.0
  H  H18  1  0.44430000  0.12439000  0.46670000  1.0
  H  H19  1  0.05564000  0.62441000  0.53327000  1.0
  H  H20  1  0.97417000  0.56478000  0.85734000  1.0
  H  H21  1  0.52583000  0.06476000  0.14265000  1.0
  H  H22  1  0.47414000  0.93524000  0.64266000  1.0
  H  H23  1  0.02585000  0.43523000  0.35735000  1.0
  H  H24  1  0.02584000  0.43522000  0.14266000  1.0
  H  H25  1  0.47415000  0.93524000  0.85735000  1.0
  H  H26  1  0.52584000  0.06476000  0.35734000  1.0
  H  H27  1  0.97416000  0.56479000  0.64267000  1.0
  H  H28  1  0.16832000  0.69120000  0.06881000  1.0
  H  H29  1  0.33166000  0.19119000  0.93121000  1.0
  H  H30  1  0.66831000  0.80880000  0.43119000  1.0
  H  H31  1  0.83168000  0.30880000  0.56881000  1.0
  H  H32  1  0.83167000  0.30880000  0.93119000  1.0
  H  H33  1  0.66832000  0.80880000  0.06881000  1.0
  H  H34  1  0.33166000  0.19119000  0.56878000  1.0
  H  H35  1  0.16832000  0.69121000  0.43120000  1.0
  H  H36  1  0.22085000  0.31820000  0.89642000  1.0
  H  H37  1  0.27911000  0.81819000  0.10360000  1.0
  H  H38  1  0.72087000  0.18179000  0.60359000  1.0
  H  H39  1  0.77914000  0.68179000  0.39641000  1.0
  H  H40  1  0.77914000  0.68179000  0.10359000  1.0
  H  H41  1  0.72088000  0.18179000  0.89642000  1.0
  H  H42  1  0.27913000  0.81819000  0.39640000  1.0
  H  H43  1  0.22084000  0.31821000  0.60359000  1.0
  H  H44  1  0.33705000  0.39131000  0.97764000  1.0
  H  H45  1  0.16294000  0.89131000  0.02235000  1.0
  H  H46  1  0.83704000  0.10869000  0.52235000  1.0
  H  H47  1  0.66297000  0.60870000  0.47766000  1.0
  H  H48  1  0.66297000  0.60870000  0.02235000  1.0
  H  H49  1  0.83704000  0.10869000  0.97765000  1.0
  H  H50  1  0.16293000  0.89130000  0.47765000  1.0
  H  H51  1  0.33704000  0.39131000  0.52236000  1.0
  H  H52  1  0.45384000  0.46201000  0.07758000  1.0
  H  H53  1  0.04619000  0.96201000  0.92240000  1.0
  H  H54  1  0.95383000  0.03796000  0.42242000  1.0
  H  H55  1  0.54618000  0.53798000  0.57758000  1.0
  H  H56  1  0.54618000  0.53799000  0.92242000  1.0
  H  H57  1  0.95384000  0.03797000  0.07758000  1.0
  H  H58  1  0.04618000  0.96201000  0.57759000  1.0
  H  H59  1  0.45383000  0.46202000  0.42242000  1.0
  H  H60  1  0.39680000  0.33699000  0.70969000  1.0
  H  H61  1  0.10322000  0.83697000  0.29031000  1.0
  H  H62  1  0.89680000  0.16301000  0.79031000  1.0
  H  H63  1  0.60322000  0.66301000  0.20969000  1.0
  H  H64  1  0.60322000  0.66301000  0.29031000  1.0
  H  H65  1  0.89681000  0.16301000  0.70969000  1.0
  H  H66  1  0.10322000  0.83698000  0.20969000  1.0
  H  H67  1  0.39680000  0.33699000  0.79032000  1.0
  C  C68  1  0.39785000  0.62482000  0.13754000  1.0
  C  C69  1  0.10217000  0.12483000  0.86245000  1.0
  C  C70  1  0.89786000  0.87517000  0.36246000  1.0
  C  C71  1  0.60216000  0.37518000  0.63754000  1.0
  C  C72  1  0.60215000  0.37518000  0.86246000  1.0
  C  C73  1  0.89786000  0.87517000  0.13753000  1.0
  C  C74  1  0.10217000  0.12483000  0.63755000  1.0
  C  C75  1  0.39785000  0.62482000  0.36246000  1.0
  C  C76  1  0.12420000  0.46101000  0.90400000  1.0
  C  C77  1  0.37576000  0.96100000  0.09602000  1.0
  C  C78  1  0.62420000  0.03900000  0.59601000  1.0
  C  C79  1  0.87580000  0.53900000  0.40399000  1.0
  C  C80  1  0.87580000  0.53900000  0.09601000  1.0
  C  C81  1  0.62421000  0.03900000  0.90399000  1.0
  C  C82  1  0.37576000  0.96100000  0.40398000  1.0
  C  C83  1  0.12421000  0.46101000  0.59601000  1.0
  C  C84  1  0.91323000  0.43679000  0.75001000  1.0
  C  C85  1  0.58679000  0.93675000  0.24999000  1.0
  C  C86  1  0.41323000  0.06324000  0.75000000  1.0
  C  C87  1  0.08677000  0.56322000  0.25000000  1.0
  C  C88  1  0.14314000  0.58809000  0.99052000  1.0
  C  C89  1  0.35684000  0.08808000  0.00950000  1.0
  C  C90  1  0.64312000  0.91192000  0.50948000  1.0
  C  C91  1  0.85687000  0.41191000  0.49052000  1.0
  C  C92  1  0.85687000  0.41191000  0.00948000  1.0
  C  C93  1  0.64313000  0.91192000  0.99052000  1.0
  C  C94  1  0.35683000  0.08808000  0.49049000  1.0
  C  C95  1  0.14313000  0.58810000  0.50949000  1.0
  C  C96  1  0.02725000  0.49855000  0.85840000  1.0
  C  C97  1  0.47272000  0.99851000  0.14161000  1.0
  C  C98  1  0.52725000  0.00148000  0.64160000  1.0
  C  C99  1  0.97275000  0.50147000  0.35840000  1.0
  C  C100  1  0.97274000  0.50147000  0.14160000  1.0
  C  C101  1  0.52726000  0.00148000  0.85840000  1.0
  C  C102  1  0.47273000  0.99851000  0.35839000  1.0
  C  C103  1  0.02726000  0.49855000  0.64161000  1.0
  C  C104  1  0.20691000  0.62636000  0.04767000  1.0
  C  C105  1  0.29310000  0.12635000  0.95235000  1.0
  C  C106  1  0.70691000  0.87365000  0.45233000  1.0
  C  C107  1  0.79309000  0.37364000  0.54767000  1.0
  C  C108  1  0.79308000  0.37364000  0.95233000  1.0
  C  C109  1  0.70691000  0.87365000  0.04767000  1.0
  C  C110  1  0.29309000  0.12635000  0.54764000  1.0
  C  C111  1  0.20690000  0.62637000  0.45234000  1.0
  C  C112  1  0.15004000  0.37124000  0.87839000  1.0
  C  C113  1  0.34992000  0.87122000  0.12163000  1.0
  C  C114  1  0.65006000  0.12876000  0.62162000  1.0
  C  C115  1  0.84996000  0.62877000  0.37838000  1.0
  C  C116  1  0.84995000  0.62877000  0.12162000  1.0
  C  C117  1  0.65006000  0.12877000  0.87838000  1.0
  C  C118  1  0.34994000  0.87122000  0.37837000  1.0
  C  C119  1  0.15004000  0.37124000  0.62162000  1.0
  C  C120  1  0.18789000  0.50254000  0.96437000  1.0
  C  C121  1  0.31207000  0.00254000  0.03564000  1.0
  C  C122  1  0.68789000  0.99747000  0.53563000  1.0
  C  C123  1  0.81211000  0.49747000  0.46437000  1.0
  C  C124  1  0.81210000  0.49746000  0.03563000  1.0
  C  C125  1  0.68790000  0.99747000  0.96437000  1.0
  C  C126  1  0.31206000  0.00254000  0.46436000  1.0
  C  C127  1  0.18789000  0.50255000  0.53564000  1.0
  C  C128  1  0.32011000  0.58160000  0.07913000  1.0
  C  C129  1  0.17992000  0.08159000  0.92088000  1.0
  C  C130  1  0.82011000  0.91840000  0.42087000  1.0
  C  C131  1  0.67990000  0.41840000  0.57913000  1.0
  C  C132  1  0.67989000  0.41841000  0.92087000  1.0
  C  C133  1  0.82011000  0.91840000  0.07913000  1.0
  C  C134  1  0.17991000  0.08159000  0.57911000  1.0
  C  C135  1  0.32010000  0.58160000  0.42088000  1.0
  C  C136  1  0.29835000  0.45659000  0.99778000  1.0
  C  C137  1  0.20163000  0.95658000  0.00222000  1.0
  C  C138  1  0.79834000  0.04341000  0.50221000  1.0
  C  C139  1  0.70166000  0.54342000  0.49779000  1.0
  C  C140  1  0.70166000  0.54342000  0.00222000  1.0
  C  C141  1  0.79834000  0.04341000  0.99779000  1.0
  C  C142  1  0.20163000  0.95658000  0.49778000  1.0
  C  C143  1  0.29834000  0.45660000  0.50222000  1.0
  C  C144  1  0.36452000  0.49604000  0.05368000  1.0
  C  C145  1  0.13549000  0.99602000  0.94632000  1.0
  C  C146  1  0.86452000  0.00396000  0.44632000  1.0
  C  C147  1  0.63549000  0.50397000  0.55368000  1.0
  C  C148  1  0.63548000  0.50397000  0.94632000  1.0
  C  C149  1  0.86452000  0.00396000  0.05368000  1.0
  C  C150  1  0.13548000  0.99603000  0.55367000  1.0
  C  C151  1  0.36451000  0.49604000  0.44632000  1.0
  N  N152  1  0.07461000  0.35524000  0.82242000  1.0
  N  N153  1  0.42539000  0.85521000  0.17759000  1.0
  N  N154  1  0.57463000  0.14477000  0.67758000  1.0
  N  N155  1  0.92539000  0.64476000  0.32242000  1.0
  N  N156  1  0.92539000  0.64476000  0.17758000  1.0
  N  N157  1  0.57462000  0.14477000  0.82242000  1.0
  N  N158  1  0.42540000  0.85521000  0.32241000  1.0
  N  N159  1  0.07461000  0.35525000  0.67758000  1.0
  N  N160  1  0.00021000  0.43334000  0.81050000  1.0
  N  N161  1  0.49979000  0.93331000  0.18951000  1.0
  N  N162  1  0.50021000  0.06668000  0.68951000  1.0
  N  N163  1  0.99979000  0.56666000  0.31049000  1.0
  N  N164  1  0.99979000  0.56666000  0.18951000  1.0
  N  N165  1  0.50022000  0.06668000  0.81050000  1.0
  N  N166  1  0.49980000  0.93331000  0.31048000  1.0
  N  N167  1  0.00021000  0.43334000  0.68951000  1.0
  O  O168  1  0.36662000  0.29974000  0.75000000  1.0
  O  O169  1  0.13338000  0.79972000  0.25000000  1.0
  O  O170  1  0.86664000  0.20028000  0.75000000  1.0
  O  O171  1  0.63338000  0.70027000  0.25000000  1.0
  O  O172  1  0.52697000  0.60940000  0.14329000  1.0
  O  O173  1  0.97304000  0.10937000  0.85670000  1.0
  O  O174  1  0.02699000  0.89060000  0.35671000  1.0
  O  O175  1  0.47303000  0.39060000  0.64329000  1.0
  O  O176  1  0.47302000  0.39060000  0.85671000  1.0
  O  O177  1  0.02698000  0.89060000  0.14329000  1.0
  O  O178  1  0.97304000  0.10938000  0.64331000  1.0
  O  O179  1  0.52698000  0.60940000  0.35672000  1.0
  O  O180  1  0.32139000  0.67549000  0.17695000  1.0
  O  O181  1  0.17863000  0.17553000  0.82305000  1.0
  O  O182  1  0.82142000  0.82450000  0.32304000  1.0
  O  O183  1  0.67861000  0.32451000  0.67696000  1.0
  O  O184  1  0.67860000  0.32451000  0.82304000  1.0
  O  O185  1  0.82141000  0.82449000  0.17694000  1.0
  O  O186  1  0.17864000  0.17554000  0.67693000  1.0
  O  O187  1  0.32139000  0.67549000  0.32304000  1.0
