# generated using pymatgen
data_ZnH13C23(N3O2)2
_symmetry_space_group_name_H-M   'P 1'
_cell_length_a   9.76164000
_cell_length_b   10.66240000
_cell_length_c   11.60120000
_cell_angle_alpha   104.21200000
_cell_angle_beta   105.90800000
_cell_angle_gamma   112.55400000
_symmetry_Int_Tables_number   1
_chemical_formula_structural   ZnH13C23(N3O2)2
_chemical_formula_sum   'Zn2 H26 C46 N12 O8'
_cell_volume   985.31040573
_cell_formula_units_Z   2
loop_
 _symmetry_equiv_pos_site_id
 _symmetry_equiv_pos_as_xyz
  1  'x, y, z'
loop_
 _atom_site_type_symbol
 _atom_site_label
 _atom_site_symmetry_multiplicity
 _atom_site_fract_x
 _atom_site_fract_y
 _atom_site_fract_z
 _atom_site_occupancy
  Zn  Zn0  1  0.38510000  0.24193000  0.49519000  1.0
  Zn  Zn1  1  0.61490000  0.75807000  0.50481000  1.0
  H  H2  1  0.73717000  0.12032000  0.80897000  1.0
  H  H3  1  0.26283000  0.87968000  0.19103000  1.0
  H  H4  1  0.66559000  0.23707000  0.65459000  1.0
  H  H5  1  0.33441000  0.76292000  0.34541000  1.0
  H  H6  1  0.17484000  0.00979000  0.57219000  1.0
  H  H7  1  0.82516000  0.99021000  0.42782000  1.0
  H  H8  1  0.11027000  0.60335000  0.78788000  1.0
  H  H9  1  0.88974000  0.39666000  0.21213000  1.0
  H  H10  1  0.89361000  0.39089000  0.79534000  1.0
  H  H11  1  0.10639000  0.60912000  0.20465000  1.0
  H  H12  1  0.22662000  0.37417000  0.09421000  1.0
  H  H13  1  0.77338000  0.62583000  0.90578000  1.0
  H  H14  1  0.45834000  0.58666000  0.09866000  1.0
  H  H15  1  0.54166000  0.41333000  0.90134000  1.0
  H  H16  1  0.82175000  0.79527000  0.19056000  1.0
  H  H17  1  0.17825000  0.20473000  0.80945000  1.0
  H  H18  1  0.96377000  0.16517000  0.07548000  1.0
  H  H19  1  0.03623000  0.83483000  0.92452000  1.0
  H  H20  1  0.23689000  0.28550000  0.26327000  1.0
  H  H21  1  0.76312000  0.71450000  0.73672000  1.0
  H  H22  1  0.10014000  0.92111000  0.36352000  1.0
  H  H23  1  0.89986000  0.07888000  0.63648000  1.0
  H  H24  1  0.88926000  0.28748000  0.55976000  1.0
  H  H25  1  0.11074000  0.71252000  0.44024000  1.0
  H  H26  1  0.22345000  0.86731000  0.70641000  1.0
  H  H27  1  0.77655000  0.13269000  0.29360000  1.0
  C  C28  1  0.51971000  0.90995000  0.85629000  1.0
  C  C29  1  0.48029000  0.09005000  0.14372000  1.0
  C  C30  1  0.43504000  0.73661000  0.93906000  1.0
  C  C31  1  0.56496000  0.26339000  0.06094000  1.0
  C  C32  1  0.70390000  0.90165000  0.01851000  1.0
  C  C33  1  0.29610000  0.09835000  0.98149000  1.0
  C  C34  1  0.48400000  0.98225000  0.76707000  1.0
  C  C35  1  0.51601000  0.01775000  0.23294000  1.0
  C  C36  1  0.61087000  0.08858000  0.75354000  1.0
  C  C37  1  0.38913000  0.91141000  0.24646000  1.0
  C  C38  1  0.57244000  0.15484000  0.67000000  1.0
  C  C39  1  0.42756000  0.84516000  0.33000000  1.0
  C  C40  1  0.29659000  0.02655000  0.62166000  1.0
  C  C41  1  0.70341000  0.97345000  0.37835000  1.0
  C  C42  1  0.32445000  0.95000000  0.69842000  1.0
  C  C43  1  0.67555000  0.05000000  0.30159000  1.0
  C  C44  1  0.30259000  0.61045000  0.94125000  1.0
  C  C45  1  0.69741000  0.38955000  0.05875000  1.0
  C  C46  1  0.14088000  0.55423000  0.85600000  1.0
  C  C47  1  0.85911000  0.44577000  0.14400000  1.0
  C  C48  1  0.02017000  0.43389000  0.86012000  1.0
  C  C49  1  0.97983000  0.56611000  0.13988000  1.0
  C  C50  1  0.20462000  0.42543000  0.02554000  1.0
  C  C51  1  0.79538000  0.57456000  0.97446000  1.0
  C  C52  1  0.33461000  0.54479000  0.02907000  1.0
  C  C53  1  0.66538000  0.45521000  0.97093000  1.0
  C  C54  1  0.87200000  0.96972000  0.11810000  1.0
  C  C55  1  0.12800000  0.03027000  0.88190000  1.0
  C  C56  1  0.91178000  0.90099000  0.20017000  1.0
  C  C57  1  0.08822000  0.09901000  0.79983000  1.0
  C  C58  1  0.99155000  0.10835000  0.13732000  1.0
  C  C59  1  0.00845000  0.89165000  0.86268000  1.0
  C  C60  1  0.14363000  0.17391000  0.23950000  1.0
  C  C61  1  0.85637000  0.82609000  0.76050000  1.0
  C  C62  1  0.06774000  0.97248000  0.29796000  1.0
  C  C63  1  0.93226000  0.02752000  0.70204000  1.0
  C  C64  1  0.69722000  0.40965000  0.53518000  1.0
  C  C65  1  0.30278000  0.59035000  0.46482000  1.0
  C  C66  1  0.84967000  0.45746000  0.51110000  1.0
  C  C67  1  0.15034000  0.54254000  0.48889000  1.0
  C  C68  1  0.83106000  0.66844000  0.45478000  1.0
  C  C69  1  0.16894000  0.33157000  0.54521000  1.0
  C  C70  1  0.91459000  0.57838000  0.47707000  1.0
  C  C71  1  0.08541000  0.42163000  0.52293000  1.0
  C  C72  1  0.93628000  0.38124000  0.53291000  1.0
  C  C73  1  0.06373000  0.61876000  0.46709000  1.0
  N  N74  1  0.39432000  0.79872000  0.85673000  1.0
  N  N75  1  0.60568000  0.20129000  0.14328000  1.0
  N  N76  1  0.58854000  0.78412000  0.02165000  1.0
  N  N77  1  0.41146000  0.21588000  0.97836000  1.0
  N  N78  1  0.67677000  0.96590000  0.93511000  1.0
  N  N79  1  0.32324000  0.03410000  0.06489000  1.0
  N  N80  1  0.41867000  0.12617000  0.60620000  1.0
  N  N81  1  0.58132000  0.87382000  0.39380000  1.0
  N  N82  1  0.04910000  0.36821000  0.94191000  1.0
  N  N83  1  0.95090000  0.63179000  0.05809000  1.0
  N  N84  1  0.18125000  0.10707000  0.31878000  1.0
  N  N85  1  0.81875000  0.89292000  0.68122000  1.0
  O  O86  1  0.56611000  0.29879000  0.43975000  1.0
  O  O87  1  0.43389000  0.70120000  0.56025000  1.0
  O  O88  1  0.70797000  0.46631000  0.64773000  1.0
  O  O89  1  0.29203000  0.53369000  0.35227000  1.0
  O  O90  1  0.68500000  0.61324000  0.45065000  1.0
  O  O91  1  0.31500000  0.38676000  0.54934000  1.0
  O  O92  1  0.90393000  0.78860000  0.44537000  1.0
  O  O93  1  0.09607000  0.21140000  0.55463000  1.0
