# generated using pymatgen
data_Nd2H20C28N2O17
_symmetry_space_group_name_H-M   'P 1'
_cell_length_a   10.19250000
_cell_length_b   12.41700000
_cell_length_c   13.26590000
_cell_angle_alpha   72.41770000
_cell_angle_beta   73.38700000
_cell_angle_gamma   69.84190000
_symmetry_Int_Tables_number   1
_chemical_formula_structural   Nd2H20C28N2O17
_chemical_formula_sum   'Nd4 H40 C56 N4 O34'
_cell_volume   1471.13104177
_cell_formula_units_Z   2
loop_
 _symmetry_equiv_pos_site_id
 _symmetry_equiv_pos_as_xyz
  1  'x, y, z'
loop_
 _atom_site_type_symbol
 _atom_site_label
 _atom_site_symmetry_multiplicity
 _atom_site_fract_x
 _atom_site_fract_y
 _atom_site_fract_z
 _atom_site_occupancy
  Nd  Nd0  1  0.80934000  0.78387000  0.40351000  1.0
  Nd  Nd1  1  0.19066000  0.21613000  0.59649000  1.0
  Nd  Nd2  1  0.18437000  0.71973000  0.54173000  1.0
  Nd  Nd3  1  0.81564000  0.28027000  0.45827000  1.0
  H  H4  1  0.87189000  0.96191000  0.48473000  1.0
  H  H5  1  0.12811000  0.03810000  0.51527000  1.0
  H  H6  1  0.71805000  0.02416000  0.46695000  1.0
  H  H7  1  0.28195000  0.97584000  0.53305000  1.0
  H  H8  1  0.30881000  0.53033000  0.72477000  1.0
  H  H9  1  0.69119000  0.46967000  0.27523000  1.0
  H  H10  1  0.29832000  0.45911000  0.64469000  1.0
  H  H11  1  0.70169000  0.54089000  0.35531000  1.0
  H  H12  1  0.28626000  0.50831000  0.42927000  1.0
  H  H13  1  0.71374000  0.49168000  0.57073000  1.0
  H  H14  1  0.12663000  0.56960000  0.42119000  1.0
  H  H15  1  0.87337000  0.43040000  0.57881000  1.0
  H  H16  1  0.00463000  0.36625000  0.92925000  1.0
  H  H17  1  0.99537000  0.63375000  0.07075000  1.0
  H  H18  1  0.83539000  0.49109000  0.05668000  1.0
  H  H19  1  0.16461000  0.50891000  0.94332000  1.0
  H  H20  1  0.66116000  0.67733000  0.98306000  1.0
  H  H21  1  0.33884000  0.32267000  0.01694000  1.0
  H  H22  1  0.56110000  0.05335000  0.69198000  1.0
  H  H23  1  0.43891000  0.94665000  0.30802000  1.0
  H  H24  1  0.75717000  0.87470000  0.73159000  1.0
  H  H25  1  0.24283000  0.12530000  0.26841000  1.0
  H  H26  1  0.48601000  0.65870000  0.82301000  1.0
  H  H27  1  0.51399000  0.34130000  0.17699000  1.0
  H  H28  1  0.27765000  0.82988000  0.78983000  1.0
  H  H29  1  0.72234000  0.17012000  0.21017000  1.0
  H  H30  1  0.96199000  0.24558000  0.08884000  1.0
  H  H31  1  0.03801000  0.75442000  0.91116000  1.0
  H  H32  1  0.09750000  0.16415000  0.92351000  1.0
  H  H33  1  0.90250000  0.83585000  0.07649000  1.0
  H  H34  1  0.25914000  0.95898000  0.94843000  1.0
  H  H35  1  0.74086000  0.04102000  0.05157000  1.0
  H  H36  1  0.35096000  0.53607000  0.12047000  1.0
  H  H37  1  0.64904000  0.46393000  0.87953000  1.0
  H  H38  1  0.17919000  0.73693000  0.09646000  1.0
  H  H39  1  0.82081000  0.26307000  0.90354000  1.0
  H  H40  1  0.44830000  0.87699000  0.16949000  1.0
  H  H41  1  0.55170000  0.12301000  0.83051000  1.0
  H  H42  1  0.62912000  0.68257000  0.20152000  1.0
  H  H43  1  0.37088000  0.31742000  0.79848000  1.0
  C  C44  1  0.84529000  0.64422000  0.62783000  1.0
  C  C45  1  0.15471000  0.35578000  0.37217000  1.0
  C  C46  1  0.02006000  0.39661000  0.72106000  1.0
  C  C47  1  0.97994000  0.60339000  0.27894000  1.0
  C  C48  1  0.84105000  0.59329000  0.74651000  1.0
  C  C49  1  0.15895000  0.40671000  0.25349000  1.0
  C  C50  1  0.93275000  0.48448000  0.78882000  1.0
  C  C51  1  0.06725000  0.51552000  0.21118000  1.0
  C  C52  1  0.93098000  0.45016000  0.89979000  1.0
  C  C53  1  0.06902000  0.54984000  0.10021000  1.0
  C  C54  1  0.83728000  0.51939000  0.97029000  1.0
  C  C55  1  0.16272000  0.48061000  0.02971000  1.0
  C  C56  1  0.73987000  0.62332000  0.92969000  1.0
  C  C57  1  0.26013000  0.37668000  0.07031000  1.0
  C  C58  1  0.74094000  0.65862000  0.81926000  1.0
  C  C59  1  0.25906000  0.34138000  0.18074000  1.0
  C  C60  1  0.53730000  0.96921000  0.72491000  1.0
  C  C61  1  0.46270000  0.03079000  0.27509000  1.0
  C  C62  1  0.64847000  0.87072000  0.74541000  1.0
  C  C63  1  0.35153000  0.12928000  0.25459000  1.0
  C  C64  1  0.49511000  0.74851000  0.79867000  1.0
  C  C65  1  0.50489000  0.25150000  0.20133000  1.0
  C  C66  1  0.38047000  0.84432000  0.77970000  1.0
  C  C67  1  0.61952000  0.15568000  0.22030000  1.0
  C  C68  1  0.39525000  0.96134000  0.74297000  1.0
  C  C69  1  0.60475000  0.03866000  0.25703000  1.0
  C  C70  1  0.47432000  0.79871000  0.50500000  1.0
  C  C71  1  0.52568000  0.20129000  0.49500000  1.0
  C  C72  1  0.52371000  0.69432000  0.44909000  1.0
  C  C73  1  0.47629000  0.30568000  0.55091000  1.0
  C  C74  1  0.13507000  0.88627000  0.32363000  1.0
  C  C75  1  0.86493000  0.11373000  0.67637000  1.0
  C  C76  1  0.96361000  0.14566000  0.29335000  1.0
  C  C77  1  0.03639000  0.85434000  0.70665000  1.0
  C  C78  1  0.12547000  0.96926000  0.21449000  1.0
  C  C79  1  0.87453000  0.03074000  0.78551000  1.0
  C  C80  1  0.03905000  0.08660000  0.20045000  1.0
  C  C81  1  0.96095000  0.91341000  0.79955000  1.0
  C  C82  1  0.02962000  0.15503000  0.09568000  1.0
  C  C83  1  0.97038000  0.84497000  0.90432000  1.0
  C  C84  1  0.10481000  0.11009000  0.00469000  1.0
  C  C85  1  0.89519000  0.88991000  0.99531000  1.0
  C  C86  1  0.19538000  0.99542000  0.01809000  1.0
  C  C87  1  0.80462000  0.00458000  0.98191000  1.0
  C  C88  1  0.20585000  0.92730000  0.12188000  1.0
  C  C89  1  0.79415000  0.07270000  0.87812000  1.0
  C  C90  1  0.37558000  0.60854000  0.13380000  1.0
  C  C91  1  0.62442000  0.39146000  0.86620000  1.0
  C  C92  1  0.28081000  0.71806000  0.11899000  1.0
  C  C93  1  0.71919000  0.28194000  0.88100000  1.0
  C  C94  1  0.43332000  0.79735000  0.16202000  1.0
  C  C95  1  0.56667000  0.20265000  0.83798000  1.0
  C  C96  1  0.53118000  0.68980000  0.17906000  1.0
  C  C97  1  0.46882000  0.31020000  0.82094000  1.0
  C  C98  1  0.50471000  0.58624000  0.17049000  1.0
  C  C99  1  0.49529000  0.41376000  0.82951000  1.0
  N  N100  1  0.62831000  0.76124000  0.78372000  1.0
  N  N101  1  0.37169000  0.23876000  0.21628000  1.0
  N  N102  1  0.30735000  0.81204000  0.13459000  1.0
  N  N103  1  0.69265000  0.18796000  0.86540000  1.0
  O  O104  1  0.94260000  0.69471000  0.57381000  1.0
  O  O105  1  0.05740000  0.30529000  0.42619000  1.0
  O  O106  1  0.74673000  0.64637000  0.58692000  1.0
  O  O107  1  0.25327000  0.35363000  0.41308000  1.0
  O  O108  1  0.01996000  0.42283000  0.61988000  1.0
  O  O109  1  0.98004000  0.57717000  0.38012000  1.0
  O  O110  1  0.08764000  0.29455000  0.76701000  1.0
  O  O111  1  0.91236000  0.70545000  0.23299000  1.0
  O  O112  1  0.28767000  0.05246000  0.72809000  1.0
  O  O113  1  0.71233000  0.94754000  0.27191000  1.0
  O  O114  1  0.56072000  0.85594000  0.49176000  1.0
  O  O115  1  0.43928000  0.14406000  0.50824000  1.0
  O  O116  1  0.34629000  0.82099000  0.55837000  1.0
  O  O117  1  0.65371000  0.17901000  0.44163000  1.0
  O  O118  1  0.65150000  0.67268000  0.39439000  1.0
  O  O119  1  0.34850000  0.32732000  0.60562000  1.0
  O  O120  1  0.43542000  0.63998000  0.45948000  1.0
  O  O121  1  0.56458000  0.36002000  0.54052000  1.0
  O  O122  1  0.04272000  0.82846000  0.36597000  1.0
  O  O123  1  0.95728000  0.17154000  0.63403000  1.0
  O  O124  1  0.23780000  0.87082000  0.36642000  1.0
  O  O125  1  0.76220000  0.12918000  0.63358000  1.0
  O  O126  1  0.97726000  0.09064000  0.39008000  1.0
  O  O127  1  0.02274000  0.90936000  0.60992000  1.0
  O  O128  1  0.89110000  0.25323000  0.27091000  1.0
  O  O129  1  0.10890000  0.74677000  0.72909000  1.0
  O  O130  1  0.58926000  0.48328000  0.19209000  1.0
  O  O131  1  0.41074000  0.51672000  0.80791000  1.0
  O  O132  1  0.78424000  0.94455000  0.48694000  1.0
  O  O133  1  0.21577000  0.05545000  0.51306000  1.0
  O  O134  1  0.25605000  0.53452000  0.66906000  1.0
  O  O135  1  0.74395000  0.46548000  0.33094000  1.0
  O  O136  1  0.21170000  0.58235000  0.43293000  1.0
  O  O137  1  0.78830000  0.41764000  0.56707000  1.0
