# generated using pymatgen
data_NdH7C8NO8
_symmetry_space_group_name_H-M   'P 1'
_cell_length_a   7.61560000
_cell_length_b   9.94295000
_cell_length_c   14.96200000
_cell_angle_alpha   89.99980000
_cell_angle_beta   98.12180000
_cell_angle_gamma   89.99980000
_symmetry_Int_Tables_number   1
_chemical_formula_structural   NdH7C8NO8
_chemical_formula_sum   'Nd4 H28 C32 N4 O32'
_cell_volume   1121.58206093
_cell_formula_units_Z   4
loop_
 _symmetry_equiv_pos_site_id
 _symmetry_equiv_pos_as_xyz
  1  'x, y, z'
loop_
 _atom_site_type_symbol
 _atom_site_label
 _atom_site_symmetry_multiplicity
 _atom_site_fract_x
 _atom_site_fract_y
 _atom_site_fract_z
 _atom_site_occupancy
  Nd  Nd0  1  0.85788000  0.45799000  0.64303000  1.0
  Nd  Nd1  1  0.64212000  0.95799000  0.85697000  1.0
  Nd  Nd2  1  0.14213000  0.54201000  0.35698000  1.0
  Nd  Nd3  1  0.35787000  0.04201000  0.14302000  1.0
  H  H4  1  0.25170000  0.44998000  0.70751000  1.0
  H  H5  1  0.24831000  0.94998000  0.79249000  1.0
  H  H6  1  0.74831000  0.55002000  0.29249000  1.0
  H  H7  1  0.75169000  0.05002000  0.20751000  1.0
  H  H8  1  0.21874000  0.55760000  0.63103000  1.0
  H  H9  1  0.28127000  0.05760000  0.86897000  1.0
  H  H10  1  0.78127000  0.44241000  0.36897000  1.0
  H  H11  1  0.71873000  0.94241000  0.13103000  1.0
  H  H12  1  0.96941000  0.22709000  0.79492000  1.0
  H  H13  1  0.53059000  0.72709000  0.70508000  1.0
  H  H14  1  0.03059000  0.77291000  0.20508000  1.0
  H  H15  1  0.46941000  0.27291000  0.29492000  1.0
  H  H16  1  0.08031000  0.36246000  0.82130000  1.0
  H  H17  1  0.41969000  0.86246000  0.67870000  1.0
  H  H18  1  0.91969000  0.63754000  0.17870000  1.0
  H  H19  1  0.58031000  0.13754000  0.32129000  1.0
  H  H20  1  0.83030000  0.88551000  0.64273000  1.0
  H  H21  1  0.66970000  0.38552000  0.85726000  1.0
  H  H22  1  0.16970000  0.11448000  0.35726000  1.0
  H  H23  1  0.33030000  0.61448000  0.14273000  1.0
  H  H24  1  0.78957000  0.88380000  0.35215000  1.0
  H  H25  1  0.71042000  0.38380000  0.14785000  1.0
  H  H26  1  0.21043000  0.11619000  0.64785000  1.0
  H  H27  1  0.28957000  0.61620000  0.85215000  1.0
  H  H28  1  0.60622000  0.21592000  0.47861000  1.0
  H  H29  1  0.89377000  0.71592000  0.02138000  1.0
  H  H30  1  0.39378000  0.78408000  0.52138000  1.0
  H  H31  1  0.10622000  0.28408000  0.97862000  1.0
  C  C32  1  0.68952000  0.14188000  0.65376000  1.0
  C  C33  1  0.81048000  0.64189000  0.84624000  1.0
  C  C34  1  0.31048000  0.85811000  0.34623000  1.0
  C  C35  1  0.18953000  0.35812000  0.15377000  1.0
  C  C36  1  0.71815000  0.06271000  0.57157000  1.0
  C  C37  1  0.78185000  0.56271000  0.92843000  1.0
  C  C38  1  0.28185000  0.93729000  0.42843000  1.0
  C  C39  1  0.21815000  0.43729000  0.07157000  1.0
  C  C40  1  0.79329000  0.93432000  0.57754000  1.0
  C  C41  1  0.70670000  0.43432000  0.92246000  1.0
  C  C42  1  0.20670000  0.06568000  0.42245000  1.0
  C  C43  1  0.29330000  0.56568000  0.07754000  1.0
  C  C44  1  0.82285000  0.86908000  0.49833000  1.0
  C  C45  1  0.67714000  0.36908000  0.00167000  1.0
  C  C46  1  0.17715000  0.13092000  0.50167000  1.0
  C  C47  1  0.32285000  0.63092000  0.99833000  1.0
  C  C48  1  0.90870000  0.73293000  0.50138000  1.0
  C  C49  1  0.59129000  0.23293000  0.99862000  1.0
  C  C50  1  0.09130000  0.26707000  0.49861000  1.0
  C  C51  1  0.40870000  0.76707000  0.00138000  1.0
  C  C52  1  0.77000000  0.93274000  0.41533000  1.0
  C  C53  1  0.73000000  0.43274000  0.08467000  1.0
  C  C54  1  0.23000000  0.06726000  0.58466000  1.0
  C  C55  1  0.26999000  0.56726000  0.91533000  1.0
  C  C56  1  0.66841000  0.11736000  0.48575000  1.0
  C  C57  1  0.83159000  0.61736000  0.01425000  1.0
  C  C58  1  0.33159000  0.88264000  0.51424000  1.0
  C  C59  1  0.16841000  0.38264000  0.98576000  1.0
  C  C60  1  0.45600000  0.53249000  0.53858000  1.0
  C  C61  1  0.04399000  0.03249000  0.96142000  1.0
  C  C62  1  0.54400000  0.46751000  0.46142000  1.0
  C  C63  1  0.95600000  0.96751000  0.03858000  1.0
  N  N64  1  0.69136000  0.05395000  0.40917000  1.0
  N  N65  1  0.80863000  0.55395000  0.09083000  1.0
  N  N66  1  0.30864000  0.94605000  0.59082000  1.0
  N  N67  1  0.19136000  0.44605000  0.90918000  1.0
  O  O68  1  0.66327000  0.26789000  0.64465000  1.0
  O  O69  1  0.83674000  0.76789000  0.85535000  1.0
  O  O70  1  0.33674000  0.73211000  0.35534000  1.0
  O  O71  1  0.16326000  0.23211000  0.14466000  1.0
  O  O72  1  0.69487000  0.07911000  0.72759000  1.0
  O  O73  1  0.80514000  0.57911000  0.77241000  1.0
  O  O74  1  0.30513000  0.92089000  0.27240000  1.0
  O  O75  1  0.19488000  0.42089000  0.22760000  1.0
  O  O76  1  0.91778000  0.66706000  0.57441000  1.0
  O  O77  1  0.58222000  0.16706000  0.92559000  1.0
  O  O78  1  0.08222000  0.33294000  0.42559000  1.0
  O  O79  1  0.41777000  0.83294000  0.07441000  1.0
  O  O80  1  0.96611000  0.69396000  0.43023000  1.0
  O  O81  1  0.53389000  0.19396000  0.06978000  1.0
  O  O82  1  0.03390000  0.30604000  0.56978000  1.0
  O  O83  1  0.46610000  0.80604000  0.93022000  1.0
  O  O84  1  0.55367000  0.55694000  0.61240000  1.0
  O  O85  1  0.94633000  0.05694000  0.88760000  1.0
  O  O86  1  0.44636000  0.44306000  0.38761000  1.0
  O  O87  1  0.05366000  0.94306000  0.11240000  1.0
  O  O88  1  0.29122000  0.55740000  0.52177000  1.0
  O  O89  1  0.20878000  0.05740000  0.97823000  1.0
  O  O90  1  0.70881000  0.44260000  0.47824000  1.0
  O  O91  1  0.79120000  0.94260000  0.02177000  1.0
  O  O92  1  0.17834000  0.52796000  0.68846000  1.0
  O  O93  1  0.32167000  0.02796000  0.81155000  1.0
  O  O94  1  0.82167000  0.47204000  0.31155000  1.0
  O  O95  1  0.67833000  0.97204000  0.18845000  1.0
  O  O96  1  0.00439000  0.31272000  0.77039000  1.0
  O  O97  1  0.49561000  0.81272000  0.72961000  1.0
  O  O98  1  0.99561000  0.68728000  0.22961000  1.0
  O  O99  1  0.50438000  0.18728000  0.27038000  1.0
