# generated using pymatgen
data_SmH14C12N3O10
_symmetry_space_group_name_H-M   'P 1'
_cell_length_a   7.54364000
_cell_length_b   12.51360000
_cell_length_c   19.58370000
_cell_angle_alpha   90.00030000
_cell_angle_beta   90.00010000
_cell_angle_gamma   98.45760000
_symmetry_Int_Tables_number   1
_chemical_formula_structural   SmH14C12N3O10
_chemical_formula_sum   'Sm4 H56 C48 N12 O40'
_cell_volume   1828.55967602
_cell_formula_units_Z   4
loop_
 _symmetry_equiv_pos_site_id
 _symmetry_equiv_pos_as_xyz
  1  'x, y, z'
loop_
 _atom_site_type_symbol
 _atom_site_label
 _atom_site_symmetry_multiplicity
 _atom_site_fract_x
 _atom_site_fract_y
 _atom_site_fract_z
 _atom_site_occupancy
  Sm  Sm0  1  0.76070000  0.52325000  0.96848000  1.0
  Sm  Sm1  1  0.73930000  0.97675000  0.46848000  1.0
  Sm  Sm2  1  0.23931000  0.47676000  0.03153000  1.0
  Sm  Sm3  1  0.26068000  0.02324000  0.53152000  1.0
  H  H4  1  0.35272000  0.18540000  0.95482000  1.0
  H  H5  1  0.14730000  0.31460000  0.45482000  1.0
  H  H6  1  0.64731000  0.81461000  0.04519000  1.0
  H  H7  1  0.85271000  0.68539000  0.54518000  1.0
  H  H8  1  0.23991000  0.26765000  0.90137000  1.0
  H  H9  1  0.26008000  0.23234000  0.40136000  1.0
  H  H10  1  0.76010000  0.73234000  0.09864000  1.0
  H  H11  1  0.73989000  0.76764000  0.59863000  1.0
  H  H12  1  0.45850000  0.32541000  0.79289000  1.0
  H  H13  1  0.04153000  0.17460000  0.29288000  1.0
  H  H14  1  0.54153000  0.67460000  0.20712000  1.0
  H  H15  1  0.95846000  0.82540000  0.70712000  1.0
  H  H16  1  0.28720000  0.22096000  0.76528000  1.0
  H  H17  1  0.21282000  0.27905000  0.26528000  1.0
  H  H18  1  0.71283000  0.77905000  0.23473000  1.0
  H  H19  1  0.78718000  0.72094000  0.73472000  1.0
  H  H20  1  0.65869000  0.99497000  0.81707000  1.0
  H  H21  1  0.84129000  0.50502000  0.31708000  1.0
  H  H22  1  0.34130000  0.00502000  0.18293000  1.0
  H  H23  1  0.15871000  0.49498000  0.68293000  1.0
  H  H24  1  0.44148000  0.97435000  0.77877000  1.0
  H  H25  1  0.05851000  0.52565000  0.27878000  1.0
  H  H26  1  0.55851000  0.02565000  0.22123000  1.0
  H  H27  1  0.94150000  0.47436000  0.72123000  1.0
  H  H28  1  0.81599000  0.01835000  0.71875000  1.0
  H  H29  1  0.68399000  0.48164000  0.21875000  1.0
  H  H30  1  0.18398000  0.98163000  0.28125000  1.0
  H  H31  1  0.31602000  0.51837000  0.78125000  1.0
  H  H32  1  0.82728000  0.14194000  0.67439000  1.0
  H  H33  1  0.67272000  0.35805000  0.17439000  1.0
  H  H34  1  0.17270000  0.85804000  0.32561000  1.0
  H  H35  1  0.32730000  0.64197000  0.82561000  1.0
  H  H36  1  0.72346000  0.18272000  0.03451000  1.0
  H  H37  1  0.77653000  0.31727000  0.53451000  1.0
  H  H38  1  0.27653000  0.81728000  0.96548000  1.0
  H  H39  1  0.22346000  0.68272000  0.46547000  1.0
  H  H40  1  0.77085000  0.19740000  0.94540000  1.0
  H  H41  1  0.72914000  0.30259000  0.44540000  1.0
  H  H42  1  0.22918000  0.80261000  0.05459000  1.0
  H  H43  1  0.27080000  0.69739000  0.55458000  1.0
  H  H44  1  0.03660000  0.11134000  0.09223000  1.0
  H  H45  1  0.46342000  0.38867000  0.59223000  1.0
  H  H46  1  0.96339000  0.88866000  0.90777000  1.0
  H  H47  1  0.53662000  0.61134000  0.40777000  1.0
  H  H48  1  0.82393000  0.03072000  0.09120000  1.0
  H  H49  1  0.67608000  0.46929000  0.59120000  1.0
  H  H50  1  0.17607000  0.96927000  0.90879000  1.0
  H  H51  1  0.32394000  0.53073000  0.40878000  1.0
  H  H52  1  0.72703000  0.69594000  0.87543000  1.0
  H  H53  1  0.77297000  0.80406000  0.37542000  1.0
  H  H54  1  0.27298000  0.30406000  0.12458000  1.0
  H  H55  1  0.22702000  0.19594000  0.62457000  1.0
  H  H56  1  0.78318000  0.59714000  0.83830000  1.0
  H  H57  1  0.71683000  0.90287000  0.33830000  1.0
  H  H58  1  0.21683000  0.40286000  0.16170000  1.0
  H  H59  1  0.28316000  0.09714000  0.66170000  1.0
  C  C60  1  0.50207000  0.34093000  0.93172000  1.0
  C  C61  1  0.99795000  0.15907000  0.43172000  1.0
  C  C62  1  0.49795000  0.65908000  0.06829000  1.0
  C  C63  1  0.00205000  0.84093000  0.56829000  1.0
  C  C64  1  0.37078000  0.24200000  0.91178000  1.0
  C  C65  1  0.12923000  0.25799000  0.41178000  1.0
  C  C66  1  0.62924000  0.75800000  0.08823000  1.0
  C  C67  1  0.87076000  0.74199000  0.58822000  1.0
  C  C68  1  0.42436000  0.23774000  0.78666000  1.0
  C  C69  1  0.07566000  0.26227000  0.28666000  1.0
  C  C70  1  0.57567000  0.76227000  0.21334000  1.0
  C  C71  1  0.92434000  0.73773000  0.71334000  1.0
  C  C72  1  0.55444000  0.20576000  0.73401000  1.0
  C  C73  1  0.94558000  0.29424000  0.23401000  1.0
  C  C74  1  0.44559000  0.79424000  0.26600000  1.0
  C  C75  1  0.05442000  0.70577000  0.76599000  1.0
  C  C76  1  0.47940000  0.08703000  0.86147000  1.0
  C  C77  1  0.02060000  0.41296000  0.36148000  1.0
  C  C78  1  0.52061000  0.91297000  0.13853000  1.0
  C  C79  1  0.97940000  0.58703000  0.63853000  1.0
  C  C80  1  0.54900000  0.03613000  0.79875000  1.0
  C  C81  1  0.95099000  0.46386000  0.29876000  1.0
  C  C82  1  0.45100000  0.96386000  0.20125000  1.0
  C  C83  1  0.04902000  0.53614000  0.70125000  1.0
  C  C84  1  0.73418000  0.07356000  0.69472000  1.0
  C  C85  1  0.76581000  0.42643000  0.19472000  1.0
  C  C86  1  0.26580000  0.92643000  0.30528000  1.0
  C  C87  1  0.23420000  0.57358000  0.80529000  1.0
  C  C88  1  0.63317000  0.01883000  0.63333000  1.0
  C  C89  1  0.86681000  0.48117000  0.13333000  1.0
  C  C90  1  0.36679000  0.98116000  0.36668000  1.0
  C  C91  1  0.13321000  0.51885000  0.86668000  1.0
  C  C92  1  0.96488000  0.28894000  0.00962000  1.0
  C  C93  1  0.53510000  0.21105000  0.50963000  1.0
  C  C94  1  0.03512000  0.71106000  0.99038000  1.0
  C  C95  1  0.46486000  0.78894000  0.49037000  1.0
  C  C96  1  0.83046000  0.18883000  0.99584000  1.0
  C  C97  1  0.66953000  0.31116000  0.49584000  1.0
  C  C98  1  0.16955000  0.81117000  0.00416000  1.0
  C  C99  1  0.33044000  0.68882000  0.50415000  1.0
  C  C100  1  0.96118000  0.05164000  0.93579000  1.0
  C  C101  1  0.53883000  0.44836000  0.43579000  1.0
  C  C102  1  0.03884000  0.94836000  0.06420000  1.0
  C  C103  1  0.46115000  0.55164000  0.56420000  1.0
  C  C104  1  0.95066000  0.04887000  0.06296000  1.0
  C  C105  1  0.54934000  0.45113000  0.56296000  1.0
  C  C106  1  0.04934000  0.95113000  0.93704000  1.0
  C  C107  1  0.45066000  0.54887000  0.43703000  1.0
  N  N108  1  0.43135000  0.18672000  0.85321000  1.0
  N  N109  1  0.06866000  0.31327000  0.35321000  1.0
  N  N110  1  0.56867000  0.81328000  0.14680000  1.0
  N  N111  1  0.93133000  0.68672000  0.64680000  1.0
  N  N112  1  0.61919000  0.11189000  0.74543000  1.0
  N  N113  1  0.88080000  0.38810000  0.24543000  1.0
  N  N114  1  0.38081000  0.88810000  0.25457000  1.0
  N  N115  1  0.11920000  0.61191000  0.75457000  1.0
  N  N116  1  0.91277000  0.09147000  0.99617000  1.0
  N  N117  1  0.58722000  0.40853000  0.49617000  1.0
  N  N118  1  0.08724000  0.90854000  0.00382000  1.0
  N  N119  1  0.41276000  0.59146000  0.50382000  1.0
  O  O120  1  0.48258000  0.38661000  0.99014000  1.0
  O  O121  1  0.01741000  0.11339000  0.49014000  1.0
  O  O122  1  0.51743000  0.61340000  0.00987000  1.0
  O  O123  1  0.98255000  0.88660000  0.50986000  1.0
  O  O124  1  0.62894000  0.37753000  0.89246000  1.0
  O  O125  1  0.87105000  0.12247000  0.39245000  1.0
  O  O126  1  0.37106000  0.62247000  0.10755000  1.0
  O  O127  1  0.12892000  0.87752000  0.60755000  1.0
  O  O128  1  0.46863000  0.03745000  0.91647000  1.0
  O  O129  1  0.03137000  0.46254000  0.41647000  1.0
  O  O130  1  0.53137000  0.96254000  0.08354000  1.0
  O  O131  1  0.96864000  0.53746000  0.58353000  1.0
  O  O132  1  0.59417000  0.26392000  0.68319000  1.0
  O  O133  1  0.90587000  0.23610000  0.18318000  1.0
  O  O134  1  0.40588000  0.73611000  0.31683000  1.0
  O  O135  1  0.09414000  0.76392000  0.81682000  1.0
  O  O136  1  0.46607000  0.02135000  0.62844000  1.0
  O  O137  1  0.03392000  0.47865000  0.12844000  1.0
  O  O138  1  0.53391000  0.97864000  0.37156000  1.0
  O  O139  1  0.96610000  0.52137000  0.87157000  1.0
  O  O140  1  0.72802000  0.97698000  0.59007000  1.0
  O  O141  1  0.77196000  0.52301000  0.09007000  1.0
  O  O142  1  0.27192000  0.02300000  0.40993000  1.0
  O  O143  1  0.22808000  0.47700000  0.90993000  1.0
  O  O144  1  0.91709000  0.38224000  0.00026000  1.0
  O  O145  1  0.58290000  0.11776000  0.50026000  1.0
  O  O146  1  0.08292000  0.61777000  0.99974000  1.0
  O  O147  1  0.41707000  0.88223000  0.49974000  1.0
  O  O148  1  0.12236000  0.28137000  0.02904000  1.0
  O  O149  1  0.37764000  0.21863000  0.52905000  1.0
  O  O150  1  0.87765000  0.71863000  0.97096000  1.0
  O  O151  1  0.62234000  0.78137000  0.47095000  1.0
  O  O152  1  0.93517000  0.09362000  0.87967000  1.0
  O  O153  1  0.56484000  0.40638000  0.37968000  1.0
  O  O154  1  0.06485000  0.90638000  0.12032000  1.0
  O  O155  1  0.43514000  0.59362000  0.62031000  1.0
  O  O156  1  0.68021000  0.62225000  0.86116000  1.0
  O  O157  1  0.81979000  0.87775000  0.36116000  1.0
  O  O158  1  0.31979000  0.37775000  0.13884000  1.0
  O  O159  1  0.18020000  0.12226000  0.63884000  1.0
