# generated using pymatgen
data_CdH26C28Br2(N5O3)2
_symmetry_space_group_name_H-M   'P 1'
_cell_length_a   8.24269000
_cell_length_b   8.89439000
_cell_length_c   11.63750000
_cell_angle_alpha   84.22240000
_cell_angle_beta   75.22150000
_cell_angle_gamma   69.83820000
_symmetry_Int_Tables_number   1
_chemical_formula_structural   CdH26C28Br2(N5O3)2
_chemical_formula_sum   'Cd1 H26 C28 Br2 N10 O6'
_cell_volume   774.33634099
_cell_formula_units_Z   1
loop_
 _symmetry_equiv_pos_site_id
 _symmetry_equiv_pos_as_xyz
  1  'x, y, z'
loop_
 _atom_site_type_symbol
 _atom_site_label
 _atom_site_symmetry_multiplicity
 _atom_site_fract_x
 _atom_site_fract_y
 _atom_site_fract_z
 _atom_site_occupancy
  Cd  Cd0  1  0.50000000  0.00000000  0.00000000  1.0
  H  H1  1  0.21939000  0.69913000  0.70851000  1.0
  H  H2  1  0.78061000  0.30087000  0.29149000  1.0
  H  H3  1  0.30792000  0.53730000  0.35315000  1.0
  H  H4  1  0.69209000  0.46270000  0.64685000  1.0
  H  H5  1  0.15625000  0.25108000  0.65616000  1.0
  H  H6  1  0.84375000  0.74893000  0.34384000  1.0
  H  H7  1  0.14207000  0.32734000  0.85435000  1.0
  H  H8  1  0.85793000  0.67267000  0.14565000  1.0
  H  H9  1  0.19180000  0.50078000  0.87547000  1.0
  H  H10  1  0.80820000  0.49922000  0.12453000  1.0
  H  H11  1  0.81154000  0.36221000  0.86328000  1.0
  H  H12  1  0.18846000  0.63779000  0.13672000  1.0
  H  H13  1  0.49893000  0.62098000  0.93347000  1.0
  H  H14  1  0.50107000  0.37902000  0.06654000  1.0
  H  H15  1  0.94110000  0.77205000  0.90223000  1.0
  H  H16  1  0.05890000  0.22794000  0.09777000  1.0
  H  H17  1  0.23308000  0.88271000  0.54163000  1.0
  H  H18  1  0.76692000  0.11729000  0.45837000  1.0
  H  H19  1  0.45332000  0.76435000  0.48016000  1.0
  H  H20  1  0.54668000  0.23565000  0.51983000  1.0
  H  H21  1  0.55705000  0.82960000  0.27150000  1.0
  H  H22  1  0.44295000  0.17040000  0.72850000  1.0
  H  H23  1  0.09603000  0.94755000  0.14106000  1.0
  H  H24  1  0.90397000  0.05245000  0.85894000  1.0
  H  H25  1  0.01382000  0.86992000  0.38385000  1.0
  H  H26  1  0.98618000  0.13008000  0.61615000  1.0
  C  C27  1  0.17941000  0.47411000  0.69613000  1.0
  C  C28  1  0.82059000  0.52589000  0.30387000  1.0
  C  C29  1  0.22259000  0.60999000  0.64914000  1.0
  C  C30  1  0.77740000  0.39001000  0.35086000  1.0
  C  C31  1  0.26776000  0.63445000  0.52613000  1.0
  C  C32  1  0.73224000  0.36555000  0.47387000  1.0
  C  C33  1  0.27243000  0.52097000  0.44922000  1.0
  C  C34  1  0.72757000  0.47903000  0.55078000  1.0
  C  C35  1  0.23120000  0.38492000  0.49759000  1.0
  C  C36  1  0.76880000  0.61508000  0.50241000  1.0
  C  C37  1  0.18414000  0.35981000  0.61994000  1.0
  C  C38  1  0.81586000  0.64020000  0.38006000  1.0
  C  C39  1  0.11933000  0.45391000  0.82901000  1.0
  C  C40  1  0.88067000  0.54609000  0.17099000  1.0
  C  C41  1  0.78958000  0.48580000  0.88117000  1.0
  C  C42  1  0.21042000  0.51420000  0.11883000  1.0
  C  C43  1  0.63683000  0.61391000  0.91681000  1.0
  C  C44  1  0.36317000  0.38609000  0.08319000  1.0
  C  C45  1  0.85927000  0.69970000  0.90052000  1.0
  C  C46  1  0.14073000  0.30030000  0.09948000  1.0
  C  C47  1  0.31413000  0.78343000  0.48088000  1.0
  C  C48  1  0.68586000  0.21657000  0.51912000  1.0
  C  C49  1  0.42240000  0.84700000  0.26627000  1.0
  C  C50  1  0.57760000  0.15300000  0.73373000  1.0
  C  C51  1  0.17902000  0.91041000  0.20439000  1.0
  C  C52  1  0.82098000  0.08959000  0.79561000  1.0
  C  C53  1  0.13666000  0.87250000  0.32333000  1.0
  C  C54  1  0.86334000  0.12750000  0.67667000  1.0
  Br  Br55  1  0.24270000  0.22683000  0.39397000  1.0
  Br  Br56  1  0.75729000  0.77318000  0.60603000  1.0
  N  N57  1  0.68221000  0.74616000  0.92874000  1.0
  N  N58  1  0.31779000  0.25384000  0.07126000  1.0
  N  N59  1  0.92913000  0.54233000  0.87185000  1.0
  N  N60  1  0.07087000  0.45767000  0.12815000  1.0
  N  N61  1  0.35740000  0.89404000  0.17010000  1.0
  N  N62  1  0.64260000  0.10596000  0.82989000  1.0
  N  N63  1  0.29279000  0.83150000  0.36087000  1.0
  N  N64  1  0.70721000  0.16850000  0.63913000  1.0
  N  N65  1  0.24166000  0.94392000  0.83935000  1.0
  N  N66  1  0.75834000  0.05608000  0.16065000  1.0
  O  O67  1  0.26064000  0.05097000  0.89710000  1.0
  O  O68  1  0.73936000  0.94904000  0.10290000  1.0
  O  O69  1  0.24587000  0.96721000  0.73022000  1.0
  O  O70  1  0.75413000  0.03279000  0.26978000  1.0
  O  O71  1  0.21632000  0.82079000  0.89352000  1.0
  O  O72  1  0.78368000  0.17921000  0.10648000  1.0
