# generated using pymatgen
data_ZnH14C18I2(N2O)2
_symmetry_space_group_name_H-M   'P 1'
_cell_length_a   12.93270000
_cell_length_b   13.74620000
_cell_length_c   16.04330000
_cell_angle_alpha   101.41600000
_cell_angle_beta   113.75100000
_cell_angle_gamma   90.00600000
_symmetry_Int_Tables_number   1
_chemical_formula_structural   ZnH14C18I2(N2O)2
_chemical_formula_sum   'Zn4 H56 C72 I8 N16 O8'
_cell_volume   2548.74964695
_cell_formula_units_Z   4
loop_
 _symmetry_equiv_pos_site_id
 _symmetry_equiv_pos_as_xyz
  1  'x, y, z'
loop_
 _atom_site_type_symbol
 _atom_site_label
 _atom_site_symmetry_multiplicity
 _atom_site_fract_x
 _atom_site_fract_y
 _atom_site_fract_z
 _atom_site_occupancy
  Zn  Zn0  1  0.18912000  0.28214000  0.55184000  1.0
  Zn  Zn1  1  0.63721000  0.21781000  0.44825000  1.0
  Zn  Zn2  1  0.81088000  0.71786000  0.44816000  1.0
  Zn  Zn3  1  0.36279000  0.78219000  0.55175000  1.0
  H  H4  1  0.02310000  0.34032000  0.13226000  1.0
  H  H5  1  0.89093000  0.15973000  0.86778000  1.0
  H  H6  1  0.97690000  0.65968000  0.86774000  1.0
  H  H7  1  0.10907000  0.84027000  0.13222000  1.0
  H  H8  1  0.74560000  0.41489000  0.78773000  1.0
  H  H9  1  0.95790000  0.08513000  0.21232000  1.0
  H  H10  1  0.25440000  0.58511000  0.21227000  1.0
  H  H11  1  0.04210000  0.91487000  0.78768000  1.0
  H  H12  1  0.35500000  0.27473000  0.46145000  1.0
  H  H13  1  0.89336000  0.22543000  0.53853000  1.0
  H  H14  1  0.64500000  0.72527000  0.53855000  1.0
  H  H15  1  0.10663000  0.77457000  0.46146000  1.0
  H  H16  1  0.35438000  0.31161000  0.31568000  1.0
  H  H17  1  0.03854000  0.18850000  0.68419000  1.0
  H  H18  1  0.64562000  0.68839000  0.68432000  1.0
  H  H19  1  0.96146000  0.81150000  0.31581000  1.0
  H  H20  1  0.04056000  0.44762000  0.27471000  1.0
  H  H21  1  0.76587000  0.05237000  0.72539000  1.0
  H  H22  1  0.95944000  0.55238000  0.72529000  1.0
  H  H23  1  0.23413000  0.94763000  0.27461000  1.0
  H  H24  1  0.05956000  0.41413000  0.42710000  1.0
  H  H25  1  0.63246000  0.08577000  0.57299000  1.0
  H  H26  1  0.94044000  0.58587000  0.57290000  1.0
  H  H27  1  0.36754000  0.91423000  0.42701000  1.0
  H  H28  1  0.87794000  0.35431000  0.99975000  1.0
  H  H29  1  0.87824000  0.14563000  0.00030000  1.0
  H  H30  1  0.12206000  0.64569000  0.00025000  1.0
  H  H31  1  0.12176000  0.85437000  0.99970000  1.0
  H  H32  1  0.22183000  0.39866000  0.02911000  1.0
  H  H33  1  0.19270000  0.10140000  0.97078000  1.0
  H  H34  1  0.77817000  0.60134000  0.97089000  1.0
  H  H35  1  0.80730000  0.89860000  0.02922000  1.0
  H  H36  1  0.14900000  0.40680000  0.86112000  1.0
  H  H37  1  0.28784000  0.09319000  0.13876000  1.0
  H  H38  1  0.85100000  0.59320000  0.13888000  1.0
  H  H39  1  0.71216000  0.90681000  0.86124000  1.0
  H  H40  1  0.94188000  0.38629000  0.76233000  1.0
  H  H41  1  0.17953000  0.11373000  0.23764000  1.0
  H  H42  1  0.05812000  0.61371000  0.23767000  1.0
  H  H43  1  0.82047000  0.88627000  0.76236000  1.0
  H  H44  1  0.38202000  0.43535000  0.66261000  1.0
  H  H45  1  0.71951000  0.06455000  0.33754000  1.0
  H  H46  1  0.61798000  0.56466000  0.33739000  1.0
  H  H47  1  0.28049000  0.93545000  0.66246000  1.0
  H  H48  1  0.58719000  0.44534000  0.76449000  1.0
  H  H49  1  0.82279000  0.05460000  0.23560000  1.0
  H  H50  1  0.41281000  0.55466000  0.23551000  1.0
  H  H51  1  0.17721000  0.94539000  0.76440000  1.0
  H  H52  1  0.55383000  0.12331000  0.72304000  1.0
  H  H53  1  0.83064000  0.37663000  0.27694000  1.0
  H  H54  1  0.44617000  0.87669000  0.27696000  1.0
  H  H55  1  0.16936000  0.62337000  0.72306000  1.0
  H  H56  1  0.34867000  0.12708000  0.61738000  1.0
  H  H57  1  0.73116000  0.37278000  0.38268000  1.0
  H  H58  1  0.65133000  0.87292000  0.38262000  1.0
  H  H59  1  0.26884000  0.62721000  0.61732000  1.0
  C  C60  1  0.28743000  0.31403000  0.41879000  1.0
  C  C61  1  0.86853000  0.18607000  0.58120000  1.0
  C  C62  1  0.71257000  0.68598000  0.58121000  1.0
  C  C63  1  0.13147000  0.81393000  0.41880000  1.0
  C  C64  1  0.28616000  0.33363000  0.33679000  1.0
  C  C65  1  0.94926000  0.16646000  0.66317000  1.0
  C  C66  1  0.71384000  0.66637000  0.66321000  1.0
  C  C67  1  0.05074000  0.83354000  0.33683000  1.0
  C  C68  1  0.19448000  0.37879000  0.28140000  1.0
  C  C69  1  0.91301000  0.12123000  0.71857000  1.0
  C  C70  1  0.80552000  0.62121000  0.71860000  1.0
  C  C71  1  0.08698000  0.87877000  0.28143000  1.0
  C  C72  1  0.11171000  0.40932000  0.31385000  1.0
  C  C73  1  0.79784000  0.09068000  0.68620000  1.0
  C  C74  1  0.88829000  0.59068000  0.68615000  1.0
  C  C75  1  0.20216000  0.90932000  0.31380000  1.0
  C  C76  1  0.12112000  0.39030000  0.39826000  1.0
  C  C77  1  0.72282000  0.10967000  0.60180000  1.0
  C  C78  1  0.87888000  0.60970000  0.60174000  1.0
  C  C79  1  0.27718000  0.89033000  0.39820000  1.0
  C  C80  1  0.18939000  0.39614000  0.19066000  1.0
  C  C81  1  0.99866000  0.10380000  0.80925000  1.0
  C  C82  1  0.81061000  0.60386000  0.80934000  1.0
  C  C83  1  0.00134000  0.89620000  0.19075000  1.0
  C  C84  1  0.93761000  0.36531000  0.96939000  1.0
  C  C85  1  0.96825000  0.13468000  0.03063000  1.0
  C  C86  1  0.06238000  0.63469000  0.03061000  1.0
  C  C87  1  0.03175000  0.86532000  0.96937000  1.0
  C  C88  1  0.05441000  0.37608000  0.02494000  1.0
  C  C89  1  0.02948000  0.12394000  0.97503000  1.0
  C  C90  1  0.94559000  0.62392000  0.97506000  1.0
  C  C91  1  0.97052000  0.87606000  0.02497000  1.0
  C  C92  1  0.13133000  0.39090000  0.98595000  1.0
  C  C93  1  0.14536000  0.10910000  0.01396000  1.0
  C  C94  1  0.86867000  0.60910000  0.01405000  1.0
  C  C95  1  0.85464000  0.89090000  0.98604000  1.0
  C  C96  1  0.08996000  0.39570000  0.89210000  1.0
  C  C97  1  0.19783000  0.10433000  0.10781000  1.0
  C  C98  1  0.91004000  0.60430000  0.10790000  1.0
  C  C99  1  0.80217000  0.89567000  0.89219000  1.0
  C  C100  1  0.97379000  0.38499000  0.83619000  1.0
  C  C101  1  0.13760000  0.11502000  0.16378000  1.0
  C  C102  1  0.02621000  0.61500000  0.16381000  1.0
  C  C103  1  0.86240000  0.88498000  0.83622000  1.0
  C  C104  1  0.89830000  0.36940000  0.87569000  1.0
  C  C105  1  0.02262000  0.13059000  0.12432000  1.0
  C  C106  1  0.10170000  0.63060000  0.12431000  1.0
  C  C107  1  0.97738000  0.86941000  0.87568000  1.0
  C  C108  1  0.71065000  0.27930000  0.81099000  1.0
  C  C109  1  0.89970000  0.22072000  0.18910000  1.0
  C  C110  1  0.28935000  0.72070000  0.18901000  1.0
  C  C111  1  0.10030000  0.77928000  0.81090000  1.0
  C  C112  1  0.42385000  0.36803000  0.67775000  1.0
  C  C113  1  0.74614000  0.13187000  0.32235000  1.0
  C  C114  1  0.57615000  0.63197000  0.32225000  1.0
  C  C115  1  0.25386000  0.86813000  0.67765000  1.0
  C  C116  1  0.53867000  0.37265000  0.73486000  1.0
  C  C117  1  0.80388000  0.12730000  0.26524000  1.0
  C  C118  1  0.46133000  0.62735000  0.26514000  1.0
  C  C119  1  0.19612000  0.87270000  0.73476000  1.0
  C  C120  1  0.58738000  0.28365000  0.75206000  1.0
  C  C121  1  0.83528000  0.21631000  0.24798000  1.0
  C  C122  1  0.41262000  0.71635000  0.24794000  1.0
  C  C123  1  0.16472000  0.78369000  0.75202000  1.0
  C  C124  1  0.51873000  0.19384000  0.71108000  1.0
  C  C125  1  0.80757000  0.30611000  0.28896000  1.0
  C  C126  1  0.48127000  0.80616000  0.28892000  1.0
  C  C127  1  0.19243000  0.69389000  0.71104000  1.0
  C  C128  1  0.40522000  0.19535000  0.65329000  1.0
  C  C129  1  0.75184000  0.30456000  0.34677000  1.0
  C  C130  1  0.59478000  0.80465000  0.34671000  1.0
  C  C131  1  0.24816000  0.69544000  0.65323000  1.0
  I  I132  1  0.09996000  0.40855000  0.63858000  1.0
  I  I133  1  0.46145000  0.09135000  0.36141000  1.0
  I  I134  1  0.90004000  0.59145000  0.36142000  1.0
  I  I135  1  0.53855000  0.90865000  0.63859000  1.0
  I  I136  1  0.09619000  0.10526000  0.47824000  1.0
  I  I137  1  0.61795000  0.39468000  0.52195000  1.0
  I  I138  1  0.90381000  0.89474000  0.52175000  1.0
  I  I139  1  0.38205000  0.60532000  0.47806000  1.0
  N  N140  1  0.20550000  0.34069000  0.44833000  1.0
  N  N141  1  0.75711000  0.15937000  0.55173000  1.0
  N  N142  1  0.79450000  0.65931000  0.55167000  1.0
  N  N143  1  0.24290000  0.84063000  0.44827000  1.0
  N  N144  1  0.08663000  0.36936000  0.11821000  1.0
  N  N145  1  0.96845000  0.13067000  0.88177000  1.0
  N  N146  1  0.91337000  0.63064000  0.88179000  1.0
  N  N147  1  0.03155000  0.86933000  0.11823000  1.0
  N  N148  1  0.77971000  0.35825000  0.81994000  1.0
  N  N149  1  0.95981000  0.14178000  0.18012000  1.0
  N  N150  1  0.22029000  0.64175000  0.18006000  1.0
  N  N151  1  0.04019000  0.85822000  0.81988000  1.0
  N  N152  1  0.35848000  0.28114000  0.63752000  1.0
  N  N153  1  0.72093000  0.21875000  0.36256000  1.0
  N  N154  1  0.64152000  0.71886000  0.36249000  1.0
  N  N155  1  0.27907000  0.78125000  0.63744000  1.0
  O  O156  1  0.27455000  0.43306000  0.18610000  1.0
  O  O157  1  0.08829000  0.06680000  0.81371000  1.0
  O  O158  1  0.72545000  0.56694000  0.81390000  1.0
  O  O159  1  0.91171000  0.93320000  0.18629000  1.0
  O  O160  1  0.74499000  0.20560000  0.84570000  1.0
  O  O161  1  0.89935000  0.29442000  0.15438000  1.0
  O  O162  1  0.25500000  0.79440000  0.15430000  1.0
  O  O163  1  0.10066000  0.70558000  0.84562000  1.0
