# generated using pymatgen
data_CuH12C11N3(OF)3
_symmetry_space_group_name_H-M   'P 1'
_cell_length_a   6.24382000
_cell_length_b   7.67812000
_cell_length_c   14.46670000
_cell_angle_alpha   101.99000000
_cell_angle_beta   94.26430000
_cell_angle_gamma   92.00250000
_symmetry_Int_Tables_number   1
_chemical_formula_structural   CuH12C11N3(OF)3
_chemical_formula_sum   'Cu2 H24 C22 N6 O6 F6'
_cell_volume   675.63335278
_cell_formula_units_Z   2
loop_
 _symmetry_equiv_pos_site_id
 _symmetry_equiv_pos_as_xyz
  1  'x, y, z'
loop_
 _atom_site_type_symbol
 _atom_site_label
 _atom_site_symmetry_multiplicity
 _atom_site_fract_x
 _atom_site_fract_y
 _atom_site_fract_z
 _atom_site_occupancy
  Cu  Cu0  1  0.49999000  0.00001000  0.50001000  1.0
  Cu  Cu1  1  0.99999000  0.99999000  0.50000000  1.0
  H  H2  1  0.26648000  0.33667000  0.56279000  1.0
  H  H3  1  0.73353000  0.66334000  0.43719000  1.0
  H  H4  1  0.22050000  0.16408000  0.71680000  1.0
  H  H5  1  0.77950000  0.83589000  0.28318000  1.0
  H  H6  1  0.06482000  0.34015000  0.69169000  1.0
  H  H7  1  0.93519000  0.65983000  0.30829000  1.0
  H  H8  1  0.33333333  0.47657000  0.81467000  1.0
  H  H9  1  0.66666667  0.52339000  0.18532000  1.0
  H  H10  1  0.40762000  0.53570000  0.70961000  1.0
  H  H11  1  0.59236000  0.46431000  0.29040000  1.0
  H  H12  1  0.73177000  0.45310000  0.79924000  1.0
  H  H13  1  0.26821000  0.54693000  0.20076000  1.0
  H  H14  1  0.67664000  0.28896000  0.69291000  1.0
  H  H15  1  0.32337000  0.71105000  0.30708000  1.0
  H  H16  1  0.60562000  0.24510000  0.80272000  1.0
  H  H17  1  0.39440000  0.75492000  0.19728000  1.0
  H  H18  1  0.53072000  0.07111000  0.22454000  1.0
  H  H19  1  0.46928000  0.92889000  0.77547000  1.0
  H  H20  1  0.50209000  0.12933000  0.06083000  1.0
  H  H21  1  0.49791000  0.87067000  0.93919000  1.0
  H  H22  1  0.85980000  0.30323000  0.09946000  1.0
  H  H23  1  0.14020000  0.69679000  0.90055000  1.0
  H  H24  1  0.88932000  0.24027000  0.26269000  1.0
  H  H25  1  0.11068000  0.75974000  0.73731000  1.0
  C  C26  1  0.22628000  0.28654000  0.68898000  1.0
  C  C27  1  0.77372000  0.71344000  0.31100000  1.0
  C  C28  1  0.39451000  0.42303000  0.74558000  1.0
  C  C29  1  0.60548000  0.57696000  0.25441000  1.0
  C  C30  1  0.61465000  0.34863000  0.76075000  1.0
  C  C31  1  0.38535000  0.65138000  0.23925000  1.0
  C  C32  1  0.22704000  0.10750000  0.34923000  1.0
  C  C33  1  0.77294000  0.89250000  0.65077000  1.0
  C  C34  1  0.21120000  0.15096000  0.25262000  1.0
  C  C35  1  0.78881000  0.84904000  0.74738000  1.0
  C  C36  1  0.38467000  0.12162000  0.19627000  1.0
  C  C37  1  0.61532000  0.87839000  0.80374000  1.0
  C  C38  1  0.36819000  0.15421000  0.10507000  1.0
  C  C39  1  0.63180000  0.84579000  0.89494000  1.0
  C  C40  1  0.17807000  0.21795000  0.07018000  1.0
  C  C41  1  0.82194000  0.78206000  0.92983000  1.0
  C  C42  1  0.00535000  0.25031000  0.12657000  1.0
  C  C43  1  0.99464000  0.74971000  0.87343000  1.0
  C  C44  1  0.02182000  0.21595000  0.21759000  1.0
  C  C45  1  0.97818000  0.78407000  0.78242000  1.0
  C  C46  1  0.16644000  0.26017000  0.97327000  1.0
  C  C47  1  0.83358000  0.73984000  0.02674000  1.0
  N  N48  1  0.23972000  0.83198000  0.47517000  1.0
  N  N49  1  0.76028000  0.16800000  0.52483000  1.0
  N  N50  1  0.24170000  0.69553000  0.50466000  1.0
  N  N51  1  0.75831000  0.30448000  0.49533000  1.0
  N  N52  1  0.24331000  0.56190000  0.52992000  1.0
  N  N53  1  0.75670000  0.43806000  0.47006000  1.0
  O  O54  1  0.41551000  0.09089000  0.38545000  1.0
  O  O55  1  0.58447000  0.90911000  0.61456000  1.0
  O  O56  1  0.04961000  0.09045000  0.38539000  1.0
  O  O57  1  0.95037000  0.90953000  0.61461000  1.0
  O  O58  1  0.27067000  0.23023000  0.59064000  1.0
  O  O59  1  0.72935000  0.76977000  0.40934000  1.0
  F  F60  1  0.27187000  0.14093000  0.91043000  1.0
  F  F61  1  0.72820000  0.85910000  0.08959000  1.0
  F  F62  1  0.26248000  0.42491000  0.97509000  1.0
  F  F63  1  0.73748000  0.57512000  0.02492000  1.0
  F  F64  1  0.96123000  0.26092000  0.93427000  1.0
  F  F65  1  0.03879000  0.73905000  0.06574000  1.0
