# generated using pymatgen
data_FeCu2H8(C3N2)4
_symmetry_space_group_name_H-M   'P 1'
_cell_length_a   6.55170000
_cell_length_b   7.63258000
_cell_length_c   7.91397000
_cell_angle_alpha   110.12100000
_cell_angle_beta   106.90400000
_cell_angle_gamma   99.33190000
_symmetry_Int_Tables_number   1
_chemical_formula_structural   FeCu2H8(C3N2)4
_chemical_formula_sum   'Fe1 Cu2 H8 C12 N8'
_cell_volume   340.06375439
_cell_formula_units_Z   1
loop_
 _symmetry_equiv_pos_site_id
 _symmetry_equiv_pos_as_xyz
  1  'x, y, z'
loop_
 _atom_site_type_symbol
 _atom_site_label
 _atom_site_symmetry_multiplicity
 _atom_site_fract_x
 _atom_site_fract_y
 _atom_site_fract_z
 _atom_site_occupancy
  Fe  Fe0  1  0.99879000  0.98429000  0.97451000  1.0
  Cu  Cu1  1  0.51948000  0.62774000  0.15305000  1.0
  Cu  Cu2  1  0.48240000  0.36117000  0.84297000  1.0
  H  H3  1  0.34807000  0.85203000  0.82086000  1.0
  H  H4  1  0.65056000  0.17040000  0.19313000  1.0
  H  H5  1  0.34460000  0.66837000  0.48626000  1.0
  H  H6  1  0.66958000  0.36220000  0.53502000  1.0
  H  H7  1  0.98980000  0.57819000  0.19852000  1.0
  H  H8  1  0.02664000  0.43699000  0.81307000  1.0
  H  H9  1  0.69378000  0.85018000  0.57405000  1.0
  H  H10  1  0.28806000  0.13145000  0.42303000  1.0
  C  C11  1  0.35171000  0.80586000  0.14555000  1.0
  C  C12  1  0.64945000  0.18285000  0.84216000  1.0
  C  C13  1  0.35203000  0.36391000  0.07938000  1.0
  C  C14  1  0.64828000  0.62769000  0.92159000  1.0
  C  C15  1  0.20211000  0.80988000  0.69068000  1.0
  C  C16  1  0.79647000  0.20546000  0.32182000  1.0
  C  C17  1  0.19868000  0.70887000  0.50608000  1.0
  C  C18  1  0.80792000  0.31110000  0.50882000  1.0
  C  C19  1  0.00448000  0.65849000  0.34703000  1.0
  C  C20  1  0.00408000  0.35252000  0.66306000  1.0
  C  C21  1  0.83755000  0.80621000  0.55322000  1.0
  C  C22  1  0.15123000  0.18613000  0.44881000  1.0
  N  N23  1  0.22074000  0.88258000  0.09035000  1.0
  N  N24  1  0.77732000  0.09678000  0.87965000  1.0
  N  N25  1  0.22182000  0.21761000  0.04536000  1.0
  N  N26  1  0.77513000  0.76077000  0.92710000  1.0
  N  N27  1  0.01839000  0.85694000  0.71524000  1.0
  N  N28  1  0.97007000  0.14420000  0.29432000  1.0
  N  N29  1  0.82350000  0.70933000  0.37192000  1.0
  N  N30  1  0.17726000  0.28979000  0.63339000  1.0
