# generated using pymatgen
data_NiH28C27N4O7
_symmetry_space_group_name_H-M   'P 1'
_cell_length_a   9.56015000
_cell_length_b   12.10410000
_cell_length_c   12.26370000
_cell_angle_alpha   77.86200000
_cell_angle_beta   87.31370000
_cell_angle_gamma   88.81170000
_symmetry_Int_Tables_number   1
_chemical_formula_structural   NiH28C27N4O7
_chemical_formula_sum   'Ni2 H56 C54 N8 O14'
_cell_volume   1385.78223388
_cell_formula_units_Z   2
loop_
 _symmetry_equiv_pos_site_id
 _symmetry_equiv_pos_as_xyz
  1  'x, y, z'
loop_
 _atom_site_type_symbol
 _atom_site_label
 _atom_site_symmetry_multiplicity
 _atom_site_fract_x
 _atom_site_fract_y
 _atom_site_fract_z
 _atom_site_occupancy
  Ni  Ni0  1  0.83226000  0.63406000  0.58945000  1.0
  Ni  Ni1  1  0.16775000  0.36596000  0.41054000  1.0
  H  H2  1  0.62977000  0.74154000  0.71091000  1.0
  H  H3  1  0.37027000  0.25846000  0.28909000  1.0
  H  H4  1  0.78296000  0.43385000  0.64343000  1.0
  H  H5  1  0.21703000  0.56619000  0.35658000  1.0
  H  H6  1  0.85535000  0.43788000  0.51768000  1.0
  H  H7  1  0.14469000  0.56218000  0.48229000  1.0
  H  H8  1  0.62746000  0.90782000  0.80327000  1.0
  H  H9  1  0.37256000  0.09215000  0.19675000  1.0
  H  H10  1  0.74624000  0.98243000  0.92046000  1.0
  H  H11  1  0.25376000  0.01756000  0.07953000  1.0
  H  H12  1  0.58820000  0.27426000  0.82598000  1.0
  H  H13  1  0.41182000  0.72573000  0.17401000  1.0
  H  H14  1  0.01587000  0.01156000  0.62104000  1.0
  H  H15  1  0.98410000  0.98844000  0.37895000  1.0
  H  H16  1  0.00779000  0.83502000  0.54210000  1.0
  H  H17  1  0.99224000  0.16501000  0.45786000  1.0
  H  H18  1  0.81755000  0.22472000  0.88582000  1.0
  H  H19  1  0.18246000  0.77528000  0.11418000  1.0
  H  H20  1  0.85281000  0.03057000  0.08844000  1.0
  H  H21  1  0.14720000  0.96943000  0.91154000  1.0
  H  H22  1  0.98724000  0.11109000  0.00650000  1.0
  H  H23  1  0.01276000  0.88891000  0.99347000  1.0
  H  H24  1  0.93782000  0.17399000  0.18755000  1.0
  H  H25  1  0.06219000  0.82601000  0.81244000  1.0
  H  H26  1  0.90181000  0.28400000  0.07296000  1.0
  H  H27  1  0.09822000  0.71600000  0.92702000  1.0
  H  H28  1  0.70649000  0.26739000  0.21835000  1.0
  H  H29  1  0.29354000  0.73260000  0.78164000  1.0
  H  H30  1  0.68157000  0.12481000  0.20953000  1.0
  H  H31  1  0.31845000  0.87518000  0.79048000  1.0
  H  H32  1  0.65711000  0.33175000  0.01777000  1.0
  H  H33  1  0.34290000  0.66823000  0.98222000  1.0
  H  H34  1  0.51216000  0.25758000  0.09132000  1.0
  H  H35  1  0.48786000  0.74240000  0.90869000  1.0
  H  H36  1  0.58474000  0.08446000  0.02650000  1.0
  H  H37  1  0.41528000  0.91553000  0.97350000  1.0
  H  H38  1  0.55176000  0.22313000  0.66908000  1.0
  H  H39  1  0.44822000  0.77685000  0.33094000  1.0
  H  H40  1  0.44549000  0.30328000  0.48675000  1.0
  H  H41  1  0.55449000  0.69672000  0.51327000  1.0
  H  H42  1  0.05016000  0.31753000  0.63836000  1.0
  H  H43  1  0.94983000  0.68249000  0.36165000  1.0
  H  H44  1  0.13928000  0.23560000  0.82681000  1.0
  H  H45  1  0.86068000  0.76440000  0.17321000  1.0
  H  H46  1  0.48558000  0.41320000  0.94339000  1.0
  H  H47  1  0.51441000  0.58678000  0.05661000  1.0
  H  H48  1  0.33350000  0.37468000  0.10143000  1.0
  H  H49  1  0.66649000  0.62529000  0.89857000  1.0
  H  H50  1  0.16942000  0.32408000  0.07252000  1.0
  H  H51  1  0.83057000  0.67587000  0.92748000  1.0
  H  H52  1  0.18145000  0.45961000  0.10253000  1.0
  H  H53  1  0.81852000  0.54035000  0.89745000  1.0
  H  H54  1  0.04787000  0.49234000  0.90056000  1.0
  H  H55  1  0.95212000  0.50767000  0.09945000  1.0
  H  H56  1  0.34238000  0.57626000  0.62156000  1.0
  H  H57  1  0.65763000  0.42374000  0.37845000  1.0
  C  C58  1  0.71316000  0.80373000  0.69457000  1.0
  C  C59  1  0.28688000  0.19625000  0.30544000  1.0
  C  C60  1  0.71350000  0.89635000  0.74499000  1.0
  C  C61  1  0.28652000  0.10362000  0.25503000  1.0
  C  C62  1  0.82432000  0.97236000  0.72040000  1.0
  C  C63  1  0.17567000  0.02765000  0.27959000  1.0
  C  C64  1  0.92934000  0.95282000  0.64310000  1.0
  C  C65  1  0.07064000  0.04717000  0.35687000  1.0
  C  C66  1  0.92455000  0.85696000  0.59790000  1.0
  C  C67  1  0.07547000  0.14304000  0.40206000  1.0
  C  C68  1  0.83398000  0.07416000  0.77192000  1.0
  C  C69  1  0.16601000  0.92584000  0.22807000  1.0
  C  C70  1  0.78096000  0.14707000  0.94328000  1.0
  C  C71  1  0.21904000  0.85292000  0.05670000  1.0
  C  C72  1  0.87943000  0.11593000  0.04081000  1.0
  C  C73  1  0.12058000  0.88406000  0.95917000  1.0
  C  C74  1  0.86743000  0.19966000  0.11825000  1.0
  C  C75  1  0.13259000  0.80033000  0.88173000  1.0
  C  C76  1  0.71593000  0.20831000  0.16160000  1.0
  C  C77  1  0.28408000  0.79168000  0.83839000  1.0
  C  C78  1  0.62185000  0.24791000  0.06340000  1.0
  C  C79  1  0.37816000  0.75208000  0.93660000  1.0
  C  C80  1  0.62832000  0.16630000  0.98310000  1.0
  C  C81  1  0.37169000  0.83370000  0.01689000  1.0
  C  C82  1  0.41230000  0.17951000  0.87703000  1.0
  C  C83  1  0.58770000  0.82049000  0.12297000  1.0
  C  C84  1  0.35385000  0.22495000  0.76431000  1.0
  C  C85  1  0.64612000  0.77505000  0.23571000  1.0
  C  C86  1  0.44003000  0.24251000  0.66666667  1.0
  C  C87  1  0.55995000  0.75747000  0.33338000  1.0
  C  C88  1  0.38254000  0.28661000  0.56466000  1.0
  C  C89  1  0.61745000  0.71339000  0.43537000  1.0
  C  C90  1  0.16048000  0.29539000  0.64898000  1.0
  C  C91  1  0.83951000  0.70462000  0.35104000  1.0
  C  C92  1  0.21109000  0.24982000  0.75381000  1.0
  C  C93  1  0.78889000  0.75018000  0.24622000  1.0
  C  C94  1  0.57612000  0.49388000  0.72681000  1.0
  C  C95  1  0.42384000  0.50610000  0.27319000  1.0
  C  C96  1  0.42972000  0.49144000  0.77710000  1.0
  C  C97  1  0.57025000  0.50855000  0.22291000  1.0
  C  C98  1  0.40021000  0.44729000  0.89038000  1.0
  C  C99  1  0.59977000  0.55272000  0.10964000  1.0
  C  C100  1  0.26381000  0.44725000  0.93729000  1.0
  C  C101  1  0.73617000  0.55274000  0.06271000  1.0
  C  C102  1  0.23567000  0.39937000  0.05926000  1.0
  C  C103  1  0.76432000  0.60058000  0.94074000  1.0
  C  C104  1  0.15574000  0.49214000  0.86749000  1.0
  C  C105  1  0.84425000  0.50787000  0.13253000  1.0
  C  C106  1  0.18429000  0.53850000  0.75422000  1.0
  C  C107  1  0.81570000  0.46151000  0.24579000  1.0
  C  C108  1  0.32139000  0.53867000  0.70941000  1.0
  C  C109  1  0.67860000  0.46133000  0.29060000  1.0
  C  C110  1  0.07171000  0.59044000  0.67915000  1.0
  C  C111  1  0.92831000  0.40960000  0.32084000  1.0
  N  N112  1  0.81849000  0.78272000  0.62436000  1.0
  N  N113  1  0.18153000  0.21729000  0.37561000  1.0
  N  N114  1  0.24525000  0.31412000  0.55586000  1.0
  N  N115  1  0.75474000  0.68590000  0.44416000  1.0
  N  N116  1  0.78392000  0.05901000  0.87878000  1.0
  N  N117  1  0.21607000  0.94098000  0.12121000  1.0
  N  N118  1  0.54670000  0.20666000  0.88497000  1.0
  N  N119  1  0.45330000  0.79334000  0.11504000  1.0
  O  O120  1  0.61327000  0.58819000  0.66723000  1.0
  O  O121  1  0.38665000  0.41179000  0.33278000  1.0
  O  O122  1  0.85387000  0.47225000  0.58523000  1.0
  O  O123  1  0.14613000  0.52783000  0.41477000  1.0
  O  O124  1  0.94565000  0.58942000  0.72122000  1.0
  O  O125  1  0.05435000  0.41062000  0.27873000  1.0
  O  O126  1  0.10175000  0.63402000  0.57755000  1.0
  O  O127  1  0.89832000  0.36605000  0.42245000  1.0
  O  O128  1  0.65218000  0.40431000  0.74452000  1.0
  O  O129  1  0.34780000  0.59568000  0.25547000  1.0
  O  O130  1  0.88592000  0.16316000  0.71698000  1.0
  O  O131  1  0.11409000  0.83683000  0.28302000  1.0
  O  O132  1  0.33908000  0.11987000  0.95376000  1.0
  O  O133  1  0.66090000  0.88016000  0.04627000  1.0
