# generated using pymatgen
data_ZnH12C18(N7O)2
_symmetry_space_group_name_H-M   'P 1'
_cell_length_a   13.15940000
_cell_length_b   13.15940000
_cell_length_c   15.62842048
_cell_angle_alpha   109.55911391
_cell_angle_beta   109.55911391
_cell_angle_gamma   101.80300000
_symmetry_Int_Tables_number   1
_chemical_formula_structural   ZnH12C18(N7O)2
_chemical_formula_sum   'Zn2 H24 C36 N28 O4'
_cell_volume   2245.07423692
_cell_formula_units_Z   2
loop_
 _symmetry_equiv_pos_site_id
 _symmetry_equiv_pos_as_xyz
  1  'x, y, z'
loop_
 _atom_site_type_symbol
 _atom_site_label
 _atom_site_symmetry_multiplicity
 _atom_site_fract_x
 _atom_site_fract_y
 _atom_site_fract_z
 _atom_site_occupancy
  Zn  Zn0  1  0.62503000  0.87497000  0.75000000  1.0
  Zn  Zn1  1  0.37497000  0.12503000  0.25000000  1.0
  H  H2  1  0.90772000  0.94849000  0.90080000  1.0
  H  H3  1  0.54773000  0.00696000  0.59919000  1.0
  H  H4  1  0.55151000  0.59228000  0.59920000  1.0
  H  H5  1  0.49304000  0.95227000  0.90081000  1.0
  H  H6  1  0.09228000  0.05151000  0.09920000  1.0
  H  H7  1  0.45227000  0.99304000  0.40081000  1.0
  H  H8  1  0.44849000  0.40772000  0.40080000  1.0
  H  H9  1  0.50697000  0.04773000  0.09920000  1.0
  H  H10  1  0.73217000  0.82826000  0.58534000  1.0
  H  H11  1  0.74283000  0.14663000  0.91464000  1.0
  H  H12  1  0.67174000  0.76783000  0.91466000  1.0
  H  H13  1  0.35337000  0.75717000  0.58536000  1.0
  H  H14  1  0.26783000  0.17174000  0.41466000  1.0
  H  H15  1  0.25716000  0.85337000  0.08535000  1.0
  H  H16  1  0.32826000  0.23217000  0.08534000  1.0
  H  H17  1  0.64664000  0.24284000  0.41465000  1.0
  H  H18  1  0.96313000  0.85063000  0.63683000  1.0
  H  H19  1  0.71371000  0.32618000  0.86325000  1.0
  H  H20  1  0.64937000  0.53687000  0.86317000  1.0
  H  H21  1  0.17382000  0.78629000  0.63675000  1.0
  H  H22  1  0.03687000  0.14937000  0.36317000  1.0
  H  H23  1  0.28629000  0.67382000  0.13675000  1.0
  H  H24  1  0.35063000  0.46313000  0.13683000  1.0
  H  H25  1  0.82618000  0.21371000  0.36325000  1.0
  C  C26  1  0.88927000  0.91883000  0.82160000  1.0
  C  C27  1  0.59722000  0.06765000  0.67839000  1.0
  C  C28  1  0.58117000  0.61073000  0.67840000  1.0
  C  C29  1  0.43235000  0.90278000  0.82161000  1.0
  C  C30  1  0.11073000  0.08117000  0.17840000  1.0
  C  C31  1  0.40278000  0.93235000  0.32161000  1.0
  C  C32  1  0.41883000  0.38927000  0.32160000  1.0
  C  C33  1  0.56764000  0.09722000  0.17839000  1.0
  C  C34  1  0.80334000  0.85653000  0.65815000  1.0
  C  C35  1  0.69829000  0.14503000  0.84185000  1.0
  C  C36  1  0.64346000  0.69665000  0.84184000  1.0
  C  C37  1  0.35497000  0.80171000  0.65815000  1.0
  C  C38  1  0.19665000  0.14346000  0.34184000  1.0
  C  C39  1  0.30171000  0.85497000  0.15815000  1.0
  C  C40  1  0.35653000  0.30334000  0.15815000  1.0
  C  C41  1  0.64503000  0.19829000  0.34185000  1.0
  C  C42  1  0.91568000  0.86654000  0.68145000  1.0
  C  C43  1  0.68500000  0.23412000  0.81861000  1.0
  C  C44  1  0.63346000  0.58432000  0.81855000  1.0
  C  C45  1  0.26588000  0.81500000  0.68139000  1.0
  C  C46  1  0.08432000  0.13346000  0.31855000  1.0
  C  C47  1  0.31500000  0.76588000  0.18139000  1.0
  C  C48  1  0.36654000  0.41568000  0.18145000  1.0
  C  C49  1  0.73412000  0.18500000  0.31861000  1.0
  C  C50  1  0.08808000  0.92727000  0.84201000  1.0
  C  C51  1  0.58509000  0.24599000  0.65803000  1.0
  C  C52  1  0.57273000  0.41192000  0.65799000  1.0
  C  C53  1  0.25401000  0.91491000  0.84197000  1.0
  C  C54  1  0.91192000  0.07273000  0.15799000  1.0
  C  C55  1  0.41491000  0.75402000  0.34197000  1.0
  C  C56  1  0.42727000  0.58808000  0.34201000  1.0
  C  C57  1  0.74598000  0.08509000  0.15803000  1.0
  C  C58  1  0.24629000  0.99625000  0.99251000  1.0
  C  C59  1  0.50376000  0.25372000  0.50750000  1.0
  C  C60  1  0.75372000  0.00376000  0.00750000  1.0
  C  C61  1  0.49624000  0.74628000  0.49250000  1.0
  N  N62  1  0.78805000  0.88872000  0.74571000  1.0
  N  N63  1  0.64300000  0.04225000  0.75427000  1.0
  N  N64  1  0.61128000  0.71195000  0.75429000  1.0
  N  N65  1  0.45775000  0.85700000  0.74573000  1.0
  N  N66  1  0.21196000  0.11129000  0.25430000  1.0
  N  N67  1  0.35700000  0.95775000  0.24573000  1.0
  N  N68  1  0.38871000  0.28804000  0.24570000  1.0
  N  N69  1  0.54225000  0.14300000  0.25427000  1.0
  N  N70  1  0.97019000  0.90635000  0.78565000  1.0
  N  N71  1  0.62062000  0.18449000  0.71440000  1.0
  N  N72  1  0.59365000  0.52981000  0.71435000  1.0
  N  N73  1  0.31551000  0.87938000  0.78560000  1.0
  N  N74  1  0.02981000  0.09365000  0.21435000  1.0
  N  N75  1  0.37937000  0.81550000  0.28559000  1.0
  N  N76  1  0.40636000  0.47020000  0.28565000  1.0
  N  N77  1  0.68450000  0.12063000  0.21441000  1.0
  N  N78  1  0.14273000  0.89284000  0.78534000  1.0
  N  N79  1  0.60716000  0.35727000  0.71466000  1.0
  N  N80  1  0.85726000  0.10716000  0.21466000  1.0
  N  N81  1  0.39284000  0.64274000  0.28534000  1.0
  N  N82  1  0.13032000  0.97707000  0.94123000  1.0
  N  N83  1  0.53587000  0.18905000  0.55881000  1.0
  N  N84  1  0.52293000  0.36968000  0.55877000  1.0
  N  N85  1  0.31095000  0.96413000  0.94119000  1.0
  N  N86  1  0.86968000  0.02293000  0.05877000  1.0
  N  N87  1  0.46412000  0.81094000  0.44118000  1.0
  N  N88  1  0.47707000  0.63032000  0.44123000  1.0
  N  N89  1  0.68906000  0.03588000  0.05882000  1.0
  O  O90  1  0.29368000  0.04362000  0.08727000  1.0
  O  O91  1  0.45638000  0.20632000  0.41273000  1.0
  O  O92  1  0.70632000  0.95639000  0.91273000  1.0
  O  O93  1  0.54361000  0.79368000  0.58727000  1.0
