# generated using pymatgen
data_Zn4H16C40Br8N4O13
_symmetry_space_group_name_H-M   'P 1'
_cell_length_a   23.86655429
_cell_length_b   23.86620000
_cell_length_c   23.86510000
_cell_angle_alpha   113.07000000
_cell_angle_beta   107.70532282
_cell_angle_gamma   107.70268146
_symmetry_Int_Tables_number   1
_chemical_formula_structural   Zn4H16C40Br8N4O13
_chemical_formula_sum   'Zn8 H32 C80 Br16 N8 O26'
_cell_volume   10432.82081206
_cell_formula_units_Z   2
loop_
 _symmetry_equiv_pos_site_id
 _symmetry_equiv_pos_as_xyz
  1  'x, y, z'
loop_
 _atom_site_type_symbol
 _atom_site_label
 _atom_site_symmetry_multiplicity
 _atom_site_fract_x
 _atom_site_fract_y
 _atom_site_fract_z
 _atom_site_occupancy
  Zn  Zn0  1  0.94307000  0.90017000  0.45579000  1.0
  Zn  Zn1  1  0.94307000  0.04290000  0.48727000  1.0
  Zn  Zn2  1  0.05693000  0.04423000  0.59984000  1.0
  Zn  Zn3  1  0.05692000  0.01271000  0.45710000  1.0
  Zn  Zn4  1  0.05561000  0.59983000  0.04290000  1.0
  Zn  Zn5  1  0.94436000  0.45709000  0.90015000  1.0
  Zn  Zn6  1  0.05561000  0.45579000  0.01271000  1.0
  Zn  Zn7  1  0.94439000  0.48729000  0.04422000  1.0
  H  H8  1  0.07706000  0.72799000  0.96366000  1.0
  H  H9  1  0.92291000  0.53631000  0.77195000  1.0
  H  H10  1  0.07537000  0.96502000  0.72755000  1.0
  H  H11  1  0.92483000  0.77253000  0.53501000  1.0
  H  H12  1  0.92292000  0.38657000  0.15090000  1.0
  H  H13  1  0.07705000  0.34902000  0.11336000  1.0
  H  H14  1  0.92480000  0.15230000  0.38978000  1.0
  H  H15  1  0.07535000  0.11034000  0.34784000  1.0
  H  H16  1  0.26250000  0.72750000  0.15220000  1.0
  H  H17  1  0.26250000  0.53501000  0.11032000  1.0
  H  H18  1  0.73565000  0.96367000  0.38663000  1.0
  H  H19  1  0.73565000  0.77198000  0.34907000  1.0
  H  H20  1  0.73748000  0.34771000  0.77250000  1.0
  H  H21  1  0.73751000  0.38968000  0.96503000  1.0
  H  H22  1  0.26433000  0.11337000  0.53633000  1.0
  H  H23  1  0.26435000  0.15094000  0.72803000  1.0
  H  H24  1  0.08414000  0.92552000  0.33438000  1.0
  H  H25  1  0.09100000  0.89379000  0.25992000  1.0
  H  H26  1  0.90888000  0.57448000  0.15864000  1.0
  H  H27  1  0.86612000  0.60619000  0.19719000  1.0
  H  H28  1  0.09112000  0.74978000  0.16562000  1.0
  H  H29  1  0.13385000  0.83108000  0.24008000  1.0
  H  H30  1  0.91581000  0.75022000  0.34132000  1.0
  H  H31  1  0.90898000  0.66892000  0.30277000  1.0
  H  H32  1  0.08416000  0.15868000  0.74979000  1.0
  H  H33  1  0.09099000  0.19724000  0.83109000  1.0
  H  H34  1  0.90885000  0.33438000  0.75019000  1.0
  H  H35  1  0.86611000  0.25991000  0.66887000  1.0
  H  H36  1  0.09109000  0.34137000  0.92551000  1.0
  H  H37  1  0.13383000  0.30279000  0.89379000  1.0
  H  H38  1  0.91583000  0.16559000  0.57446000  1.0
  H  H39  1  0.90898000  0.24006000  0.60617000  1.0
  C  C40  1  0.81818000  0.90910000  0.40911000  1.0
  C  C41  1  0.00000000  0.13951000  0.63950000  1.0
  C  C42  1  0.00005000  0.90995000  0.59011000  1.0
  C  C43  1  0.18182000  0.09090000  0.59092000  1.0
  C  C44  1  0.99996000  0.86049000  0.36047000  1.0
  C  C45  1  0.00003000  0.09011000  0.40994000  1.0
  C  C46  1  0.99997000  0.59088000  0.90906000  1.0
  C  C47  1  0.99996000  0.36049000  0.86047000  1.0
  C  C48  1  0.18016000  0.59007000  0.09008000  1.0
  C  C49  1  0.00000000  0.40907000  0.09089000  1.0
  C  C50  1  0.00000000  0.63950000  0.13950000  1.0
  C  C51  1  0.81982000  0.40989000  0.90991000  1.0
  C  C52  1  0.99996000  0.80455000  0.30452000  1.0
  C  C53  1  0.99999000  0.69544000  0.19544000  1.0
  C  C54  1  0.04320000  0.82057000  0.27642000  1.0
  C  C55  1  0.95585000  0.67941000  0.22264000  1.0
  C  C56  1  0.04412000  0.76679000  0.22355000  1.0
  C  C57  1  0.95674000  0.73321000  0.27732000  1.0
  C  C58  1  0.99998000  0.19544000  0.69543000  1.0
  C  C59  1  0.99997000  0.30455000  0.80454000  1.0
  C  C60  1  0.04321000  0.22266000  0.76678000  1.0
  C  C61  1  0.95584000  0.27643000  0.73318000  1.0
  C  C62  1  0.04410000  0.27735000  0.82057000  1.0
  C  C63  1  0.95675000  0.22355000  0.67940000  1.0
  C  C64  1  0.99999000  0.62846000  0.87151000  1.0
  C  C65  1  0.04347000  0.70006000  0.90804000  1.0
  C  C66  1  0.04315000  0.73466000  0.87295000  1.0
  C  C67  1  0.00000000  0.69971000  0.80026000  1.0
  C  C68  1  0.95684000  0.62703000  0.76531000  1.0
  C  C69  1  0.95651000  0.59193000  0.79989000  1.0
  C  C70  1  0.00002000  0.73510000  0.76490000  1.0
  C  C71  1  0.00005000  0.76581000  0.73420000  1.0
  C  C72  1  0.00008000  0.80119000  0.69883000  1.0
  C  C73  1  0.04254000  0.87407000  0.73399000  1.0
  C  C74  1  0.04258000  0.90921000  0.69946000  1.0
  C  C75  1  0.00009000  0.87242000  0.62763000  1.0
  C  C76  1  0.95761000  0.80059000  0.59082000  1.0
  C  C77  1  0.95764000  0.76604000  0.62594000  1.0
  C  C78  1  0.99999000  0.37150000  0.12844000  1.0
  C  C79  1  0.95651000  0.36455000  0.15657000  1.0
  C  C80  1  0.95684000  0.32978000  0.19149000  1.0
  C  C81  1  0.00000000  0.30027000  0.19971000  1.0
  C  C82  1  0.04315000  0.30847000  0.17018000  1.0
  C  C83  1  0.04347000  0.34337000  0.13540000  1.0
  C  C84  1  0.00002000  0.26492000  0.23510000  1.0
  C  C85  1  0.00005000  0.23423000  0.26583000  1.0
  C  C86  1  0.00006000  0.19887000  0.30122000  1.0
  C  C87  1  0.95761000  0.19157000  0.33166000  1.0
  C  C88  1  0.95758000  0.15701000  0.36676000  1.0
  C  C89  1  0.00006000  0.12766000  0.37244000  1.0
  C  C90  1  0.04256000  0.13335000  0.34312000  1.0
  C  C91  1  0.04253000  0.16845000  0.30855000  1.0
  C  C92  1  0.25520000  0.62760000  0.12760000  1.0
  C  C93  1  0.29024000  0.69943000  0.15693000  1.0
  C  C94  1  0.35991000  0.73397000  0.19150000  1.0
  C  C95  1  0.39765000  0.69883000  0.19883000  1.0
  C  C96  1  0.35990000  0.62594000  0.16842000  1.0
  C  C97  1  0.29023000  0.59080000  0.13332000  1.0
  C  C98  1  0.46839000  0.73420000  0.23420000  1.0
  C  C99  1  0.52981000  0.76490000  0.26491000  1.0
  C  C100  1  0.60055000  0.80027000  0.30029000  1.0
  C  C101  1  0.63829000  0.87296000  0.32984000  1.0
  C  C102  1  0.70797000  0.90806000  0.36460000  1.0
  C  C103  1  0.74305000  0.87152000  0.37154000  1.0
  C  C104  1  0.70797000  0.79992000  0.34341000  1.0
  C  C105  1  0.63829000  0.76533000  0.30849000  1.0
  C  C106  1  0.74478000  0.37234000  0.87240000  1.0
  C  C107  1  0.70974000  0.34299000  0.80056000  1.0
  C  C108  1  0.64008000  0.30841000  0.76603000  1.0
  C  C109  1  0.60235000  0.30112000  0.80119000  1.0
  C  C110  1  0.64010000  0.33155000  0.87408000  1.0
  C  C111  1  0.70977000  0.36666000  0.90922000  1.0
  C  C112  1  0.53160000  0.26576000  0.76582000  1.0
  C  C113  1  0.47019000  0.23507000  0.73511000  1.0
  C  C114  1  0.39945000  0.19971000  0.69974000  1.0
  C  C115  1  0.36171000  0.17018000  0.62705000  1.0
  C  C116  1  0.29202000  0.13540000  0.59195000  1.0
  C  C117  1  0.25694000  0.12846000  0.62848000  1.0
  C  C118  1  0.29203000  0.15660000  0.70010000  1.0
  C  C119  1  0.36172000  0.19151000  0.73469000  1.0
  Br  Br120  1  0.89748000  0.57547000  0.66843000  1.0
  Br  Br121  1  0.10251000  0.83152000  0.92453000  1.0
  Br  Br122  1  0.89887000  0.66904000  0.57404000  1.0
  Br  Br123  1  0.10133000  0.92593000  0.83100000  1.0
  Br  Br124  1  0.10251000  0.27097000  0.17798000  1.0
  Br  Br125  1  0.89745000  0.32196000  0.22896000  1.0
  Br  Br126  1  0.10134000  0.17540000  0.27037000  1.0
  Br  Br127  1  0.89883000  0.22979000  0.32475000  1.0
  Br  Br128  1  0.40503000  0.57408000  0.17539000  1.0
  Br  Br129  1  0.40504000  0.83096000  0.22969000  1.0
  Br  Br130  1  0.59299000  0.66846000  0.27098000  1.0
  Br  Br131  1  0.59299000  0.92453000  0.32208000  1.0
  Br  Br132  1  0.59498000  0.32462000  0.92596000  1.0
  Br  Br133  1  0.59495000  0.27018000  0.66902000  1.0
  Br  Br134  1  0.40702000  0.22903000  0.83156000  1.0
  Br  Br135  1  0.40700000  0.17796000  0.57548000  1.0
  N  N136  1  0.08801000  0.88780000  0.29905000  1.0
  N  N137  1  0.91125000  0.61218000  0.20022000  1.0
  N  N138  1  0.08873000  0.78897000  0.20093000  1.0
  N  N139  1  0.91193000  0.71101000  0.29974000  1.0
  N  N140  1  0.08802000  0.20025000  0.78898000  1.0
  N  N141  1  0.91123000  0.29906000  0.71098000  1.0
  N  N142  1  0.08871000  0.29978000  0.88781000  1.0
  N  N143  1  0.91194000  0.20091000  0.61215000  1.0
  O  O144  1  0.00000000  0.00000000  0.50001000  1.0
  O  O145  1  0.84707000  0.87350000  0.41667000  1.0
  O  O146  1  0.95553000  0.11100000  0.57585000  1.0
  O  O147  1  0.03680000  0.97596000  0.62734000  1.0
  O  O148  1  0.84706000  0.97356000  0.43042000  1.0
  O  O149  1  0.96324000  0.87270000  0.52408000  1.0
  O  O150  1  0.04447000  0.12035000  0.65549000  1.0
  O  O151  1  0.15294000  0.08337000  0.62653000  1.0
  O  O152  1  0.04442000  0.92413000  0.38896000  1.0
  O  O153  1  0.15293000  0.06954000  0.52643000  1.0
  O  O154  1  0.95549000  0.84451000  0.37964000  1.0
  O  O155  1  0.96322000  0.09054000  0.43914000  1.0
  O  O156  1  0.03681000  0.06088000  0.40949000  1.0
  O  O157  1  0.99999000  0.50000000  0.99999000  1.0
  O  O158  1  0.04312000  0.62648000  0.97355000  1.0
  O  O159  1  0.96480000  0.38897000  0.84449000  1.0
  O  O160  1  0.15139000  0.52408000  0.06087000  1.0
  O  O161  1  0.95682000  0.52640000  0.87345000  1.0
  O  O162  1  0.15138000  0.62731000  0.09052000  1.0
  O  O163  1  0.03511000  0.37968000  0.92411000  1.0
  O  O164  1  0.04314000  0.41663000  0.06955000  1.0
  O  O165  1  0.96487000  0.57586000  0.12034000  1.0
  O  O166  1  0.95685000  0.43041000  0.08334000  1.0
  O  O167  1  0.03515000  0.65547000  0.11101000  1.0
  O  O168  1  0.84859000  0.40946000  0.87268000  1.0
  O  O169  1  0.84862000  0.43916000  0.97595000  1.0
