# generated using pymatgen
data_KH7(C2O3)2
_symmetry_space_group_name_H-M   'P 1'
_cell_length_a   6.49923000
_cell_length_b   8.39457000
_cell_length_c   13.68880000
_cell_angle_alpha   89.99980000
_cell_angle_beta   89.99990000
_cell_angle_gamma   104.45800000
_symmetry_Int_Tables_number   1
_chemical_formula_structural   KH7(C2O3)2
_chemical_formula_sum   'K4 H28 C16 O24'
_cell_volume   723.18521465
_cell_formula_units_Z   4
loop_
 _symmetry_equiv_pos_site_id
 _symmetry_equiv_pos_as_xyz
  1  'x, y, z'
loop_
 _atom_site_type_symbol
 _atom_site_label
 _atom_site_symmetry_multiplicity
 _atom_site_fract_x
 _atom_site_fract_y
 _atom_site_fract_z
 _atom_site_occupancy
  K  K0  1  0.11254000  0.96323000  0.64844000  1.0
  K  K1  1  0.38746000  0.03676000  0.14844000  1.0
  K  K2  1  0.88747000  0.03676000  0.35156000  1.0
  K  K3  1  0.61253000  0.96324000  0.85156000  1.0
  H  H4  1  0.95891000  0.58580000  0.72970000  1.0
  H  H5  1  0.54109000  0.41420000  0.22970000  1.0
  H  H6  1  0.04109000  0.41420000  0.27030000  1.0
  H  H7  1  0.45891000  0.58580000  0.77030000  1.0
  H  H8  1  0.06793000  0.24862000  0.80726000  1.0
  H  H9  1  0.43206000  0.75138000  0.30726000  1.0
  H  H10  1  0.93207000  0.75138000  0.19274000  1.0
  H  H11  1  0.56794000  0.24862000  0.69274000  1.0
  H  H12  1  0.91511000  0.26048000  0.72148000  1.0
  H  H13  1  0.58489000  0.73952000  0.22148000  1.0
  H  H14  1  0.08489000  0.73952000  0.27851000  1.0
  H  H15  1  0.41511000  0.26048000  0.77852000  1.0
  H  H16  1  0.34556000  0.03142000  0.41928000  1.0
  H  H17  1  0.15444000  0.96858000  0.91928000  1.0
  H  H18  1  0.65444000  0.96857000  0.58072000  1.0
  H  H19  1  0.84555000  0.03142000  0.08072000  1.0
  H  H20  1  0.22842000  0.84651000  0.43847000  1.0
  H  H21  1  0.27157000  0.15349000  0.93847000  1.0
  H  H22  1  0.77157000  0.15348000  0.56153000  1.0
  H  H23  1  0.72843000  0.84652000  0.06153000  1.0
  H  H24  1  0.02442000  0.73426000  0.01651000  1.0
  H  H25  1  0.47558000  0.26574000  0.51651000  1.0
  H  H26  1  0.97558000  0.26575000  0.98349000  1.0
  H  H27  1  0.52442000  0.73425000  0.48349000  1.0
  H  H28  1  0.27760000  0.58150000  0.05401000  1.0
  H  H29  1  0.22240000  0.41850000  0.55401000  1.0
  H  H30  1  0.72240000  0.41851000  0.94599000  1.0
  H  H31  1  0.77760000  0.58150000  0.44598000  1.0
  C  C32  1  0.99106000  0.67346000  0.86516000  1.0
  C  C33  1  0.50895000  0.32654000  0.36516000  1.0
  C  C34  1  0.00894000  0.32655000  0.13484000  1.0
  C  C35  1  0.49106000  0.67345000  0.63483000  1.0
  C  C36  1  0.00685000  0.62536000  0.97036000  1.0
  C  C37  1  0.49316000  0.37464000  0.47036000  1.0
  C  C38  1  0.99315000  0.37465000  0.02964000  1.0
  C  C39  1  0.50685000  0.62535000  0.52964000  1.0
  C  C40  1  0.17234000  0.52308000  0.99443000  1.0
  C  C41  1  0.32765000  0.47692000  0.49443000  1.0
  C  C42  1  0.82765000  0.47693000  0.00557000  1.0
  C  C43  1  0.67235000  0.52308000  0.50557000  1.0
  C  C44  1  0.31035000  0.49451000  0.91017000  1.0
  C  C45  1  0.18966000  0.50549000  0.41017000  1.0
  C  C46  1  0.68965000  0.50550000  0.08983000  1.0
  C  C47  1  0.81035000  0.49451000  0.58983000  1.0
  O  O48  1  0.99991000  0.81742000  0.83899000  1.0
  O  O49  1  0.50009000  0.18258000  0.33899000  1.0
  O  O50  1  0.00008000  0.18259000  0.16101000  1.0
  O  O51  1  0.49991000  0.81742000  0.66101000  1.0
  O  O52  1  0.96537000  0.54940000  0.80414000  1.0
  O  O53  1  0.53463000  0.45060000  0.30414000  1.0
  O  O54  1  0.03463000  0.45061000  0.19586000  1.0
  O  O55  1  0.46537000  0.54939000  0.69586000  1.0
  O  O56  1  0.42784000  0.62381000  0.87110000  1.0
  O  O57  1  0.07215000  0.37619000  0.37110000  1.0
  O  O58  1  0.57215000  0.37619000  0.12890000  1.0
  O  O59  1  0.92785000  0.62381000  0.62890000  1.0
  O  O60  1  0.30299000  0.34911000  0.88194000  1.0
  O  O61  1  0.19701000  0.65089000  0.38194000  1.0
  O  O62  1  0.69700000  0.65089000  0.11806000  1.0
  O  O63  1  0.80300000  0.34911000  0.61806000  1.0
  O  O64  1  0.95513000  0.18120000  0.76633000  1.0
  O  O65  1  0.54487000  0.81880000  0.26633000  1.0
  O  O66  1  0.04488000  0.81880000  0.23367000  1.0
  O  O67  1  0.45513000  0.18120000  0.73367000  1.0
  O  O68  1  0.23035000  0.95997000  0.45810000  1.0
  O  O69  1  0.26965000  0.04002000  0.95810000  1.0
  O  O70  1  0.76964000  0.04001000  0.54190000  1.0
  O  O71  1  0.73035000  0.95998000  0.04190000  1.0
