# generated using pymatgen
data_ZnH4C7SO2
_symmetry_space_group_name_H-M   'P 1'
_cell_length_a   7.01790000
_cell_length_b   7.53379000
_cell_length_c   14.06933607
_cell_angle_alpha   105.48499360
_cell_angle_beta   91.21234400
_cell_angle_gamma   90.01820000
_symmetry_Int_Tables_number   1
_chemical_formula_structural   ZnH4C7SO2
_chemical_formula_sum   'Zn4 H16 C28 S4 O8'
_cell_volume   716.68906596
_cell_formula_units_Z   4
loop_
 _symmetry_equiv_pos_site_id
 _symmetry_equiv_pos_as_xyz
  1  'x, y, z'
loop_
 _atom_site_type_symbol
 _atom_site_label
 _atom_site_symmetry_multiplicity
 _atom_site_fract_x
 _atom_site_fract_y
 _atom_site_fract_z
 _atom_site_occupancy
  Zn  Zn0  1  0.14303000  0.75240000  0.43637000  1.0
  Zn  Zn1  1  0.64308000  0.68374000  0.43642000  1.0
  Zn  Zn2  1  0.85697000  0.24760000  0.56363000  1.0
  Zn  Zn3  1  0.35692000  0.31625000  0.56358000  1.0
  H  H4  1  0.92822000  0.61232000  0.13174000  1.0
  H  H5  1  0.42865000  0.52011000  0.13178000  1.0
  H  H6  1  0.07178000  0.38768000  0.86826000  1.0
  H  H7  1  0.57135000  0.47989000  0.86822000  1.0
  H  H8  1  0.94711000  0.30534000  0.01077000  1.0
  H  H9  1  0.44736000  0.70649000  0.01083000  1.0
  H  H10  1  0.05289000  0.69466000  0.98923000  1.0
  H  H11  1  0.55265000  0.29351000  0.98917000  1.0
  H  H12  1  0.92016000  0.01964000  0.06884000  1.0
  H  H13  1  0.42014000  0.05005000  0.06886000  1.0
  H  H14  1  0.07984000  0.98037000  0.93116000  1.0
  H  H15  1  0.57987000  0.94995000  0.93114000  1.0
  H  H16  1  0.88710000  0.04807000  0.24790000  1.0
  H  H17  1  0.38693000  0.20019000  0.24791000  1.0
  H  H18  1  0.11290000  0.95192000  0.75209000  1.0
  H  H19  1  0.61307000  0.79981000  0.75209000  1.0
  C  C20  1  0.88466000  0.34344000  0.29034000  1.0
  C  C21  1  0.38464000  0.94712000  0.29038000  1.0
  C  C22  1  0.11534000  0.65656000  0.70966000  1.0
  C  C23  1  0.61536000  0.05288000  0.70962000  1.0
  C  C24  1  0.89362000  0.50554000  0.25736000  1.0
  C  C25  1  0.39376000  0.75213000  0.25739000  1.0
  C  C26  1  0.10638000  0.49446000  0.74264000  1.0
  C  C27  1  0.60624000  0.24787000  0.74261000  1.0
  C  C28  1  0.91837000  0.48725000  0.15640000  1.0
  C  C29  1  0.41872000  0.66975000  0.15645000  1.0
  C  C30  1  0.08163000  0.51275000  0.84360000  1.0
  C  C31  1  0.58128000  0.33025000  0.84355000  1.0
  C  C32  1  0.92952000  0.31478000  0.08883000  1.0
  C  C33  1  0.42971000  0.77491000  0.08889000  1.0
  C  C34  1  0.07048000  0.68523000  0.91117000  1.0
  C  C35  1  0.57029000  0.22509000  0.91111000  1.0
  C  C36  1  0.91530000  0.15542000  0.12105000  1.0
  C  C37  1  0.41535000  0.96637000  0.12109000  1.0
  C  C38  1  0.08469000  0.84459000  0.87895000  1.0
  C  C39  1  0.58465000  0.03363000  0.87891000  1.0
  C  C40  1  0.89542000  0.17067000  0.22097000  1.0
  C  C41  1  0.39541000  0.05075000  0.22101000  1.0
  C  C42  1  0.10459000  0.82933000  0.77903000  1.0
  C  C43  1  0.60459000  0.94925000  0.77899000  1.0
  C  C44  1  0.86569000  0.33941000  0.39511000  1.0
  C  C45  1  0.36541000  0.05557000  0.39516000  1.0
  C  C46  1  0.13431000  0.66059000  0.60489000  1.0
  C  C47  1  0.63459000  0.94443000  0.60484000  1.0
  S  S48  1  0.87894000  0.73708000  0.33196000  1.0
  S  S49  1  0.37897000  0.59495000  0.33197000  1.0
  S  S50  1  0.12106000  0.26293000  0.66804000  1.0
  S  S51  1  0.62103000  0.40505000  0.66803000  1.0
  O  O52  1  0.78855000  0.46978000  0.46042000  1.0
  O  O53  1  0.28877000  0.99012000  0.46051000  1.0
  O  O54  1  0.21145000  0.53022000  0.53958000  1.0
  O  O55  1  0.71123000  0.00988000  0.53949000  1.0
  O  O56  1  0.92786000  0.19905000  0.42025000  1.0
  O  O57  1  0.42708000  0.22123000  0.42022000  1.0
  O  O58  1  0.07214000  0.80095000  0.57975000  1.0
  O  O59  1  0.57292000  0.77877000  0.57978000  1.0
