# generated using pymatgen
data_V2PH13C15N3O8
_symmetry_space_group_name_H-M   'P 1'
_cell_length_a   7.88884000
_cell_length_b   9.91326000
_cell_length_c   11.94290000
_cell_angle_alpha   111.79100000
_cell_angle_beta   95.48060000
_cell_angle_gamma   97.02700000
_symmetry_Int_Tables_number   1
_chemical_formula_structural   V2PH13C15N3O8
_chemical_formula_sum   'V4 P2 H26 C30 N6 O16'
_cell_volume   850.60824671
_cell_formula_units_Z   2
loop_
 _symmetry_equiv_pos_site_id
 _symmetry_equiv_pos_as_xyz
  1  'x, y, z'
loop_
 _atom_site_type_symbol
 _atom_site_label
 _atom_site_symmetry_multiplicity
 _atom_site_fract_x
 _atom_site_fract_y
 _atom_site_fract_z
 _atom_site_occupancy
  V  V0  1  0.50160000  0.23170000  0.69017000  1.0
  V  V1  1  0.49840000  0.76830000  0.30983000  1.0
  V  V2  1  0.07323000  0.16306000  0.37757000  1.0
  V  V3  1  0.92677000  0.83693000  0.62243000  1.0
  P  P4  1  0.76395000  0.05847000  0.51120000  1.0
  P  P5  1  0.23605000  0.94153000  0.48880000  1.0
  H  H6  1  0.09123000  0.19170000  0.71053000  1.0
  H  H7  1  0.90878000  0.80829000  0.28946000  1.0
  H  H8  1  0.53703000  0.35569000  0.96232000  1.0
  H  H9  1  0.46296000  0.64431000  0.03768000  1.0
  H  H10  1  0.90451000  0.25661000  0.87004000  1.0
  H  H11  1  0.09549000  0.74338000  0.12995000  1.0
  H  H12  1  0.76839000  0.28605000  0.01603000  1.0
  H  H13  1  0.23160000  0.71395000  0.98396000  1.0
  H  H14  1  0.61424000  0.37714000  0.19868000  1.0
  H  H15  1  0.38575000  0.62286000  0.80132000  1.0
  H  H16  1  0.24719000  0.50982000  0.26402000  1.0
  H  H17  1  0.75280000  0.49017000  0.73597000  1.0
  H  H18  1  0.46647000  0.14501000  0.35910000  1.0
  H  H19  1  0.53354000  0.85499000  0.64090000  1.0
  H  H20  1  0.04424000  0.09291000  0.10536000  1.0
  H  H21  1  0.95577000  0.90711000  0.89464000  1.0
  H  H22  1  0.65387000  0.06785000  0.20207000  1.0
  H  H23  1  0.34614000  0.93214000  0.79794000  1.0
  H  H24  1  0.37396000  0.43537000  0.13636000  1.0
  H  H25  1  0.62603000  0.56463000  0.86364000  1.0
  H  H26  1  0.21085000  0.00642000  0.93193000  1.0
  H  H27  1  0.78917000  0.99360000  0.06807000  1.0
  H  H28  1  0.07212000  0.58998000  0.43067000  1.0
  H  H29  1  0.92786000  0.41002000  0.56932000  1.0
  H  H30  1  0.77752000  0.53226000  0.39060000  1.0
  H  H31  1  0.22247000  0.46774000  0.60939000  1.0
  C  C32  1  0.14838000  0.24436000  0.80633000  1.0
  C  C33  1  0.85162000  0.75563000  0.19366000  1.0
  C  C34  1  0.39657000  0.33702000  0.94801000  1.0
  C  C35  1  0.60342000  0.66298000  0.05199000  1.0
  C  C36  1  0.04454000  0.28072000  0.89781000  1.0
  C  C37  1  0.95546000  0.71928000  0.10218000  1.0
  C  C38  1  0.12212000  0.35033000  0.02054000  1.0
  C  C39  1  0.87787000  0.64967000  0.97946000  1.0
  C  C40  1  0.30333000  0.37908000  0.04407000  1.0
  C  C41  1  0.69666000  0.62092000  0.95593000  1.0
  C  C42  1  0.02221000  0.39306000  0.12319000  1.0
  C  C43  1  0.97778000  0.60693000  0.87681000  1.0
  C  C44  1  0.84104000  0.35322000  0.10605000  1.0
  C  C45  1  0.15895000  0.64678000  0.89395000  1.0
  C  C46  1  0.75339000  0.40093000  0.20451000  1.0
  C  C47  1  0.24659000  0.59907000  0.79548000  1.0
  C  C48  1  0.01399000  0.52102000  0.33765000  1.0
  C  C49  1  0.98599000  0.47897000  0.66233000  1.0
  C  C50  1  0.10760000  0.47585000  0.24240000  1.0
  C  C51  1  0.89238000  0.52415000  0.75759000  1.0
  C  C52  1  0.41490000  0.11454000  0.26335000  1.0
  C  C53  1  0.58511000  0.88547000  0.73666000  1.0
  C  C54  1  0.17942000  0.08283000  0.12023000  1.0
  C  C55  1  0.82059000  0.91718000  0.87977000  1.0
  C  C56  1  0.51882000  0.06898000  0.17322000  1.0
  C  C57  1  0.48119000  0.93102000  0.82679000  1.0
  C  C58  1  0.27392000  0.03561000  0.02499000  1.0
  C  C59  1  0.72610000  0.96440000  0.97502000  1.0
  C  C60  1  0.44835000  0.02610000  0.04992000  1.0
  C  C61  1  0.55166000  0.97390000  0.95008000  1.0
  N  N62  1  0.32212000  0.27148000  0.83059000  1.0
  N  N63  1  0.67788000  0.72851000  0.16941000  1.0
  N  N64  1  0.84086000  0.48517000  0.31662000  1.0
  N  N65  1  0.15912000  0.51483000  0.68337000  1.0
  N  N66  1  0.24680000  0.12031000  0.23746000  1.0
  N  N67  1  0.75321000  0.87969000  0.76255000  1.0
  O  O68  1  0.62801000  0.15905000  0.55471000  1.0
  O  O69  1  0.37200000  0.84094000  0.44529000  1.0
  O  O70  1  0.92730000  0.15093000  0.49685000  1.0
  O  O71  1  0.07270000  0.84907000  0.50315000  1.0
  O  O72  1  0.81810000  0.99614000  0.60746000  1.0
  O  O73  1  0.18191000  0.00386000  0.39254000  1.0
  O  O74  1  0.68562000  0.93417000  0.38689000  1.0
  O  O75  1  0.31438000  0.06583000  0.61311000  1.0
  O  O76  1  0.65153000  0.25046000  0.80242000  1.0
  O  O77  1  0.34847000  0.74953000  0.19758000  1.0
  O  O78  1  0.48367000  0.39410000  0.68826000  1.0
  O  O79  1  0.51633000  0.60589000  0.31174000  1.0
  O  O80  1  0.17068000  0.33501000  0.44886000  1.0
  O  O81  1  0.82932000  0.66499000  0.55114000  1.0
  O  O82  1  0.92167000  0.14771000  0.26749000  1.0
  O  O83  1  0.07834000  0.85229000  0.73251000  1.0
