# generated using pymatgen
data_CsH8C7NO6
_symmetry_space_group_name_H-M   'P 1'
_cell_length_a   6.00898000
_cell_length_b   7.08163000
_cell_length_c   24.40990000
_cell_angle_alpha   89.99780000
_cell_angle_beta   93.52640000
_cell_angle_gamma   89.99980000
_symmetry_Int_Tables_number   1
_chemical_formula_structural   CsH8C7NO6
_chemical_formula_sum   'Cs4 H32 C28 N4 O24'
_cell_volume   1036.75682240
_cell_formula_units_Z   4
loop_
 _symmetry_equiv_pos_site_id
 _symmetry_equiv_pos_as_xyz
  1  'x, y, z'
loop_
 _atom_site_type_symbol
 _atom_site_label
 _atom_site_symmetry_multiplicity
 _atom_site_fract_x
 _atom_site_fract_y
 _atom_site_fract_z
 _atom_site_occupancy
  Cs  Cs0  1  0.25209000  0.19204000  0.47251000  1.0
  Cs  Cs1  1  0.24791000  0.69204000  0.02749000  1.0
  Cs  Cs2  1  0.74792000  0.80796000  0.52749000  1.0
  Cs  Cs3  1  0.75209000  0.30796000  0.97251000  1.0
  H  H4  1  0.69343000  0.11748000  0.17390000  1.0
  H  H5  1  0.80659000  0.61748000  0.32610000  1.0
  H  H6  1  0.30658000  0.88250000  0.82610000  1.0
  H  H7  1  0.19341000  0.38252000  0.67390000  1.0
  H  H8  1  0.88700000  0.13805000  0.26743000  1.0
  H  H9  1  0.61301000  0.63805000  0.23257000  1.0
  H  H10  1  0.11300000  0.86194000  0.73257000  1.0
  H  H11  1  0.38695000  0.36194000  0.76743000  1.0
  H  H12  1  0.31818000  0.88241000  0.33706000  1.0
  H  H13  1  0.18185000  0.38240000  0.16295000  1.0
  H  H14  1  0.68184000  0.11759000  0.66295000  1.0
  H  H15  1  0.81815000  0.61763000  0.83706000  1.0
  H  H16  1  0.12580000  0.86206000  0.24263000  1.0
  H  H17  1  0.37423000  0.36205000  0.25737000  1.0
  H  H18  1  0.87423000  0.13793000  0.75737000  1.0
  H  H19  1  0.62579000  0.63797000  0.74263000  1.0
  H  H20  1  0.39131000  0.52769000  0.59352000  1.0
  H  H21  1  0.10866000  0.02767000  0.90648000  1.0
  H  H22  1  0.60870000  0.47231000  0.40648000  1.0
  H  H23  1  0.89133000  0.97233000  0.09352000  1.0
  H  H24  1  0.13217000  0.47910000  0.58427000  1.0
  H  H25  1  0.36780000  0.97909000  0.91573000  1.0
  H  H26  1  0.86783000  0.52091000  0.41573000  1.0
  H  H27  1  0.63220000  0.02091000  0.08427000  1.0
  H  H28  1  0.75266000  0.33159000  0.48462000  1.0
  H  H29  1  0.74735000  0.83159000  0.01538000  1.0
  H  H30  1  0.24735000  0.66841000  0.51537000  1.0
  H  H31  1  0.25264000  0.16842000  0.98462000  1.0
  H  H32  1  0.77990000  0.30902000  0.54913000  1.0
  H  H33  1  0.72009000  0.80901000  0.95087000  1.0
  H  H34  1  0.22011000  0.69099000  0.45087000  1.0
  H  H35  1  0.27991000  0.19099000  0.04913000  1.0
  C  C36  1  0.39642000  0.99036000  0.20288000  1.0
  C  C37  1  0.10360000  0.49036000  0.29712000  1.0
  C  C38  1  0.60359000  0.00962000  0.79712000  1.0
  C  C39  1  0.89640000  0.50965000  0.70288000  1.0
  C  C40  1  0.61159000  0.06672000  0.20957000  1.0
  C  C41  1  0.88844000  0.56671000  0.29042000  1.0
  C  C42  1  0.38842000  0.93327000  0.79042000  1.0
  C  C43  1  0.11155000  0.43328000  0.70958000  1.0
  C  C44  1  0.72063000  0.07821000  0.26139000  1.0
  C  C45  1  0.77940000  0.57822000  0.23861000  1.0
  C  C46  1  0.27939000  0.92179000  0.73861000  1.0
  C  C47  1  0.22058000  0.42177000  0.76139000  1.0
  C  C48  1  0.61110000  0.01236000  0.30643000  1.0
  C  C49  1  0.88892000  0.51236000  0.19356000  1.0
  C  C50  1  0.38892000  0.98764000  0.69357000  1.0
  C  C51  1  0.11106000  0.48764000  0.80644000  1.0
  C  C52  1  0.39796000  0.93295000  0.30103000  1.0
  C  C53  1  0.10208000  0.43296000  0.19898000  1.0
  C  C54  1  0.60205000  0.06704000  0.69897000  1.0
  C  C55  1  0.89792000  0.56706000  0.80102000  1.0
  C  C56  1  0.29223000  0.92209000  0.24881000  1.0
  C  C57  1  0.20781000  0.42209000  0.25120000  1.0
  C  C58  1  0.70778000  0.07790000  0.75119000  1.0
  C  C59  1  0.79220000  0.57793000  0.74880000  1.0
  C  C60  1  0.27211000  0.98723000  0.14705000  1.0
  C  C61  1  0.22789000  0.48722000  0.35295000  1.0
  C  C62  1  0.72787000  0.01276000  0.85295000  1.0
  C  C63  1  0.77210000  0.51278000  0.64705000  1.0
  N  N64  1  0.72501000  0.02564000  0.36103000  1.0
  N  N65  1  0.77502000  0.52560000  0.13897000  1.0
  N  N66  1  0.27501000  0.97439000  0.63897000  1.0
  N  N67  1  0.22497000  0.47439000  0.86103000  1.0
  O  O68  1  0.26989000  0.50002000  0.56457000  1.0
  O  O69  1  0.23008000  0.00003000  0.93543000  1.0
  O  O70  1  0.73011000  0.49997000  0.43543000  1.0
  O  O71  1  0.76992000  0.99997000  0.06457000  1.0
  O  O72  1  0.76243000  0.23517000  0.51463000  1.0
  O  O73  1  0.73757000  0.73516000  0.98537000  1.0
  O  O74  1  0.23758000  0.76484000  0.48536000  1.0
  O  O75  1  0.26243000  0.26485000  0.01463000  1.0
  O  O76  1  0.37073000  0.05820000  0.10693000  1.0
  O  O77  1  0.12929000  0.55821000  0.39307000  1.0
  O  O78  1  0.62926000  0.94179000  0.89307000  1.0
  O  O79  1  0.87070000  0.44179000  0.60692000  1.0
  O  O80  1  0.07823000  0.91683000  0.14409000  1.0
  O  O81  1  0.42176000  0.41678000  0.35592000  1.0
  O  O82  1  0.92176000  0.08316000  0.85591000  1.0
  O  O83  1  0.57823000  0.58320000  0.64409000  1.0
  O  O84  1  0.62124000  0.97578000  0.40114000  1.0
  O  O85  1  0.87875000  0.47572000  0.09886000  1.0
  O  O86  1  0.37875000  0.02424000  0.59887000  1.0
  O  O87  1  0.12123000  0.52427000  0.90114000  1.0
  O  O88  1  0.92052000  0.08429000  0.36467000  1.0
  O  O89  1  0.57950000  0.58426000  0.13533000  1.0
  O  O90  1  0.07947000  0.91574000  0.63533000  1.0
  O  O91  1  0.42048000  0.41572000  0.86467000  1.0
