# generated using pymatgen
data_CdH8C6(IN)2
_symmetry_space_group_name_H-M   'P 1'
_cell_length_a   6.46673000
_cell_length_b   7.84799000
_cell_length_c   19.91600000
_cell_angle_alpha   79.02700000
_cell_angle_beta   89.99970000
_cell_angle_gamma   89.99980000
_symmetry_Int_Tables_number   1
_chemical_formula_structural   CdH8C6(IN)2
_chemical_formula_sum   'Cd4 H32 C24 I8 N8'
_cell_volume   992.27396084
_cell_formula_units_Z   4
loop_
 _symmetry_equiv_pos_site_id
 _symmetry_equiv_pos_as_xyz
  1  'x, y, z'
loop_
 _atom_site_type_symbol
 _atom_site_label
 _atom_site_symmetry_multiplicity
 _atom_site_fract_x
 _atom_site_fract_y
 _atom_site_fract_z
 _atom_site_occupancy
  Cd  Cd0  1  0.70307000  0.56133000  0.27172000  1.0
  Cd  Cd1  1  0.20306000  0.93868000  0.22829000  1.0
  Cd  Cd2  1  0.29694000  0.43867000  0.72828000  1.0
  Cd  Cd3  1  0.79693000  0.06133000  0.77172000  1.0
  H  H4  1  0.61548000  0.20449000  0.32125000  1.0
  H  H5  1  0.11548000  0.29552000  0.17875000  1.0
  H  H6  1  0.38452000  0.79551000  0.67875000  1.0
  H  H7  1  0.88452000  0.70448000  0.82125000  1.0
  H  H8  1  0.86993000  0.22253000  0.32040000  1.0
  H  H9  1  0.36993000  0.27747000  0.17960000  1.0
  H  H10  1  0.13007000  0.77747000  0.67960000  1.0
  H  H11  1  0.63007000  0.72253000  0.82040000  1.0
  H  H12  1  0.73306000  0.85224000  0.36831000  1.0
  H  H13  1  0.23306000  0.64776000  0.13169000  1.0
  H  H14  1  0.26694000  0.14776000  0.63169000  1.0
  H  H15  1  0.76694000  0.35225000  0.86831000  1.0
  H  H16  1  0.75046000  0.87321000  0.49273000  1.0
  H  H17  1  0.25045000  0.62679000  0.00727000  1.0
  H  H18  1  0.24955000  0.12679000  0.50727000  1.0
  H  H19  1  0.74955000  0.37321000  0.99273000  1.0
  H  H20  1  0.76138000  0.59598000  0.58021000  1.0
  H  H21  1  0.26139000  0.90401000  0.91979000  1.0
  H  H22  1  0.23860000  0.40402000  0.41979000  1.0
  H  H23  1  0.73862000  0.09598000  0.08021000  1.0
  H  H24  1  0.75625000  0.31305000  0.54057000  1.0
  H  H25  1  0.25625000  0.18695000  0.95943000  1.0
  H  H26  1  0.24375000  0.68696000  0.45943000  1.0
  H  H27  1  0.74376000  0.81305000  0.04057000  1.0
  H  H28  1  0.86840000  0.18500000  0.43240000  1.0
  H  H29  1  0.36840000  0.31500000  0.06760000  1.0
  H  H30  1  0.13159000  0.81499000  0.56760000  1.0
  H  H31  1  0.63159000  0.68501000  0.93240000  1.0
  H  H32  1  0.59530000  0.19310000  0.43088000  1.0
  H  H33  1  0.09529000  0.30690000  0.06912000  1.0
  H  H34  1  0.40470000  0.80690000  0.56912000  1.0
  H  H35  1  0.90470000  0.69310000  0.93088000  1.0
  C  C36  1  0.73819000  0.73678000  0.40858000  1.0
  C  C37  1  0.23819000  0.76321000  0.09142000  1.0
  C  C38  1  0.26181000  0.26321000  0.59142000  1.0
  C  C39  1  0.76181000  0.23679000  0.90858000  1.0
  C  C40  1  0.74765000  0.74717000  0.47728000  1.0
  C  C41  1  0.24765000  0.75283000  0.02272000  1.0
  C  C42  1  0.25234000  0.25283000  0.52272000  1.0
  C  C43  1  0.75235000  0.24717000  0.97728000  1.0
  C  C44  1  0.75387000  0.59321000  0.52570000  1.0
  C  C45  1  0.25387000  0.90679000  0.97430000  1.0
  C  C46  1  0.24612000  0.40679000  0.47430000  1.0
  C  C47  1  0.74613000  0.09320000  0.02570000  1.0
  C  C48  1  0.75086000  0.43542000  0.50383000  1.0
  C  C49  1  0.25086000  0.06457000  0.99617000  1.0
  C  C50  1  0.24913000  0.56458000  0.49617000  1.0
  C  C51  1  0.74915000  0.93543000  0.00383000  1.0
  C  C52  1  0.74119000  0.43496000  0.43369000  1.0
  C  C53  1  0.24119000  0.06504000  0.06631000  1.0
  C  C54  1  0.25881000  0.56504000  0.56631000  1.0
  C  C55  1  0.75881000  0.93497000  0.93369000  1.0
  C  C56  1  0.73546000  0.26309000  0.40954000  1.0
  C  C57  1  0.23546000  0.23691000  0.09046000  1.0
  C  C58  1  0.26454000  0.73691000  0.59046000  1.0
  C  C59  1  0.76454000  0.76309000  0.90954000  1.0
  I  I60  1  0.73780000  0.46395000  0.14059000  1.0
  I  I61  1  0.23779000  0.03605000  0.35942000  1.0
  I  I62  1  0.26221000  0.53605000  0.85941000  1.0
  I  I63  1  0.76221000  0.96395000  0.64059000  1.0
  I  I64  1  0.73292000  0.93384000  0.22138000  1.0
  I  I65  1  0.23293000  0.56616000  0.27862000  1.0
  I  I66  1  0.26707000  0.06616000  0.77862000  1.0
  I  I67  1  0.76708000  0.43384000  0.72138000  1.0
  N  N68  1  0.73491000  0.58364000  0.38753000  1.0
  N  N69  1  0.23491000  0.91635000  0.11247000  1.0
  N  N70  1  0.26509000  0.41636000  0.61246000  1.0
  N  N71  1  0.76509000  0.08365000  0.88753000  1.0
  N  N72  1  0.73612000  0.27558000  0.33514000  1.0
  N  N73  1  0.23612000  0.22443000  0.16486000  1.0
  N  N74  1  0.26387000  0.72442000  0.66486000  1.0
  N  N75  1  0.76388000  0.77557000  0.83514000  1.0
