# generated using pymatgen
data_CuH12C15SN4O5
_symmetry_space_group_name_H-M   'P 1'
_cell_length_a   8.56097000
_cell_length_b   10.37730000
_cell_length_c   10.88060000
_cell_angle_alpha   84.06520000
_cell_angle_beta   72.71600000
_cell_angle_gamma   69.65000000
_symmetry_Int_Tables_number   1
_chemical_formula_structural   CuH12C15SN4O5
_chemical_formula_sum   'Cu2 H24 C30 S2 N8 O10'
_cell_volume   865.37342701
_cell_formula_units_Z   2
loop_
 _symmetry_equiv_pos_site_id
 _symmetry_equiv_pos_as_xyz
  1  'x, y, z'
loop_
 _atom_site_type_symbol
 _atom_site_label
 _atom_site_symmetry_multiplicity
 _atom_site_fract_x
 _atom_site_fract_y
 _atom_site_fract_z
 _atom_site_occupancy
  Cu  Cu0  1  0.00000000  0.49999000  0.50000000  1.0
  Cu  Cu1  1  0.50001000  0.00000000  0.50000000  1.0
  H  H2  1  0.18746000  0.17159000  0.61138000  1.0
  H  H3  1  0.81253000  0.82841000  0.38861000  1.0
  H  H4  1  0.17514000  0.04988000  0.71628000  1.0
  H  H5  1  0.82484000  0.95013000  0.28372000  1.0
  H  H6  1  0.06188000  0.44069000  0.75209000  1.0
  H  H7  1  0.93815000  0.55930000  0.24791000  1.0
  H  H8  1  0.07755000  0.91104000  0.66483000  1.0
  H  H9  1  0.92243000  0.08895000  0.33518000  1.0
  H  H10  1  0.37049000  0.08969000  0.06387000  1.0
  H  H11  1  0.62950000  0.91031000  0.93613000  1.0
  H  H12  1  0.14110000  0.54928000  0.90877000  1.0
  H  H13  1  0.85893000  0.45071000  0.09122000  1.0
  H  H14  1  0.47549000  0.12561000  0.24528000  1.0
  H  H15  1  0.52451000  0.87440000  0.75471000  1.0
  H  H16  1  0.00498000  0.78542000  0.51874000  1.0
  H  H17  1  0.99501000  0.21457000  0.48128000  1.0
  H  H18  1  0.56147000  0.40058000  0.35959000  1.0
  H  H19  1  0.43852000  0.59943000  0.64041000  1.0
  H  H20  1  0.38225000  0.49740000  0.48644000  1.0
  H  H21  1  0.61776000  0.50260000  0.51356000  1.0
  H  H22  1  0.20998000  0.76621000  0.28990000  1.0
  H  H23  1  0.79002000  0.23379000  0.71010000  1.0
  H  H24  1  0.31834000  0.81875000  0.46139000  1.0
  H  H25  1  0.68165000  0.18126000  0.53861000  1.0
  C  C26  1  0.23874000  0.89171000  0.05080000  1.0
  C  C27  1  0.76125000  0.10829000  0.94920000  1.0
  C  C28  1  0.16193000  0.81086000  0.88721000  1.0
  C  C29  1  0.83807000  0.18914000  0.11278000  1.0
  C  C30  1  0.11526000  0.74101000  0.80066000  1.0
  C  C31  1  0.88474000  0.25898000  0.19934000  1.0
  C  C32  1  0.32590000  0.50636000  0.30761000  1.0
  C  C33  1  0.67410000  0.49365000  0.69241000  1.0
  C  C34  1  0.06796000  0.54440000  0.73762000  1.0
  C  C35  1  0.93205000  0.45559000  0.26239000  1.0
  C  C36  1  0.28906000  0.92022000  0.15934000  1.0
  C  C37  1  0.71094000  0.07978000  0.84067000  1.0
  C  C38  1  0.38014000  0.29889000  0.46214000  1.0
  C  C39  1  0.61987000  0.70111000  0.53787000  1.0
  C  C40  1  0.07526000  0.80714000  0.68898000  1.0
  C  C41  1  0.92473000  0.19286000  0.31103000  1.0
  C  C42  1  0.35906000  0.02600000  0.14977000  1.0
  C  C43  1  0.64094000  0.97401000  0.85022000  1.0
  C  C44  1  0.10961000  0.60681000  0.82463000  1.0
  C  C45  1  0.89042000  0.39319000  0.17537000  1.0
  C  C46  1  0.41693000  0.04685000  0.24989000  1.0
  C  C47  1  0.58306000  0.95317000  0.75010000  1.0
  C  C48  1  0.03603000  0.73725000  0.60640000  1.0
  C  C49  1  0.96397000  0.26275000  0.39361000  1.0
  C  C50  1  0.42219000  0.42687000  0.40570000  1.0
  C  C51  1  0.57782000  0.57311000  0.59432000  1.0
  C  C52  1  0.27080000  0.84525000  0.27431000  1.0
  C  C53  1  0.72919000  0.15476000  0.72570000  1.0
  C  C54  1  0.33001000  0.87400000  0.37050000  1.0
  C  C55  1  0.66999000  0.12600000  0.62950000  1.0
  S  S56  1  0.20883000  0.74012000  0.02835000  1.0
  S  S57  1  0.79118000  0.25989000  0.97164000  1.0
  N  N58  1  0.40594000  0.97057000  0.35806000  1.0
  N  N59  1  0.59405000  0.02944000  0.64193000  1.0
  N  N60  1  0.03416000  0.60765000  0.62923000  1.0
  N  N61  1  0.96585000  0.39234000  0.37077000  1.0
  N  N62  1  0.17341000  0.93612000  0.86433000  1.0
  N  N63  1  0.82659000  0.06388000  0.13567000  1.0
  N  N64  1  0.21698000  0.98153000  0.95614000  1.0
  N  N65  1  0.78301000  0.01848000  0.04386000  1.0
  O  O66  1  0.50312000  0.18444000  0.42650000  1.0
  O  O67  1  0.49689000  0.81557000  0.57349000  1.0
  O  O68  1  0.23306000  0.31137000  0.53971000  1.0
  O  O69  1  0.76696000  0.68863000  0.46028000  1.0
  O  O70  1  0.41225000  0.52021000  0.19592000  1.0
  O  O71  1  0.58774000  0.47977000  0.80409000  1.0
  O  O72  1  0.15854000  0.56341000  0.34954000  1.0
  O  O73  1  0.84146000  0.43658000  0.65047000  1.0
  O  O74  1  0.17832000  0.07795000  0.62637000  1.0
  O  O75  1  0.82165000  0.92206000  0.37363000  1.0
