# generated using pymatgen
data_CuH3C5N2
_symmetry_space_group_name_H-M   'P 1'
_cell_length_a   6.73512000
_cell_length_b   9.45272000
_cell_length_c   15.34920000
_cell_angle_alpha   83.84400000
_cell_angle_beta   81.44110000
_cell_angle_gamma   72.24910000
_symmetry_Int_Tables_number   1
_chemical_formula_structural   CuH3C5N2
_chemical_formula_sum   'Cu8 H24 C40 N16'
_cell_volume   918.33371243
_cell_formula_units_Z   8
loop_
 _symmetry_equiv_pos_site_id
 _symmetry_equiv_pos_as_xyz
  1  'x, y, z'
loop_
 _atom_site_type_symbol
 _atom_site_label
 _atom_site_symmetry_multiplicity
 _atom_site_fract_x
 _atom_site_fract_y
 _atom_site_fract_z
 _atom_site_occupancy
  Cu  Cu0  1  0.54312000  0.74077000  0.64817000  1.0
  Cu  Cu1  1  0.45688000  0.25922000  0.35183000  1.0
  Cu  Cu2  1  0.35597000  0.91556000  0.14870000  1.0
  Cu  Cu3  1  0.64404000  0.08444000  0.85130000  1.0
  Cu  Cu4  1  0.65829000  0.51694000  0.94757000  1.0
  Cu  Cu5  1  0.34172000  0.48306000  0.05243000  1.0
  Cu  Cu6  1  0.09720000  0.08436000  0.44810000  1.0
  Cu  Cu7  1  0.90280000  0.91564000  0.55190000  1.0
  H  H8  1  0.93603000  0.30301000  0.32255000  1.0
  H  H9  1  0.06396000  0.69699000  0.67745000  1.0
  H  H10  1  0.76681000  0.43471000  0.69228000  1.0
  H  H11  1  0.23319000  0.56529000  0.30771000  1.0
  H  H12  1  0.08179000  0.20903000  0.18668000  1.0
  H  H13  1  0.91822000  0.79097000  0.81332000  1.0
  H  H14  1  0.90753000  0.32881000  0.82194000  1.0
  H  H15  1  0.09247000  0.67118000  0.17807000  1.0
  H  H16  1  0.39428000  0.88580000  0.96586000  1.0
  H  H17  1  0.60572000  0.11420000  0.03415000  1.0
  H  H18  1  0.54067000  0.77914000  0.46231000  1.0
  H  H19  1  0.45933000  0.22086000  0.53769000  1.0
  H  H20  1  0.96830000  0.19726000  0.62064000  1.0
  H  H21  1  0.03171000  0.80274000  0.37936000  1.0
  H  H22  1  0.13034000  0.11468000  0.73279000  1.0
  H  H23  1  0.86965000  0.88532000  0.26721000  1.0
  H  H24  1  0.76101000  0.53116000  0.22980000  1.0
  H  H25  1  0.23898000  0.46883000  0.77020000  1.0
  H  H26  1  0.83187000  0.42876000  0.11396000  1.0
  H  H27  1  0.16814000  0.57125000  0.88604000  1.0
  H  H28  1  0.56475000  0.76515000  0.30031000  1.0
  H  H29  1  0.43526000  0.23485000  0.69969000  1.0
  H  H30  1  0.37154000  0.89696000  0.80471000  1.0
  H  H31  1  0.62846000  0.10304000  0.19529000  1.0
  C  C32  1  0.02779000  0.22785000  0.94292000  1.0
  C  C33  1  0.97220000  0.77215000  0.05708000  1.0
  C  C34  1  0.16786000  0.10112000  0.98468000  1.0
  C  C35  1  0.83214000  0.89888000  0.01532000  1.0
  C  C36  1  0.71747000  0.54861000  0.48465000  1.0
  C  C37  1  0.28252000  0.45139000  0.51534000  1.0
  C  C38  1  0.84675000  0.40768000  0.35128000  1.0
  C  C39  1  0.15325000  0.59231000  0.64872000  1.0
  C  C40  1  0.83129000  0.41240000  0.44389000  1.0
  C  C41  1  0.16871000  0.58760000  0.55611000  1.0
  C  C42  1  0.78538000  0.43042000  0.62079000  1.0
  C  C43  1  0.21462000  0.56958000  0.37921000  1.0
  C  C44  1  0.06774000  0.21260000  0.11666000  1.0
  C  C45  1  0.93226000  0.78740000  0.88334000  1.0
  C  C46  1  0.01524000  0.23092000  0.85158000  1.0
  C  C47  1  0.98476000  0.76908000  0.14842000  1.0
  C  C48  1  0.29123000  0.98228000  0.93332000  1.0
  C  C49  1  0.70877000  0.01772000  0.06668000  1.0
  C  C50  1  0.62495000  0.67609000  0.43104000  1.0
  C  C51  1  0.37504000  0.32391000  0.56896000  1.0
  C  C52  1  0.89870000  0.29773000  0.58084000  1.0
  C  C53  1  0.10130000  0.70227000  0.41915000  1.0
  C  C54  1  0.13812000  0.11357000  0.80318000  1.0
  C  C55  1  0.86187000  0.88643000  0.19682000  1.0
  C  C56  1  0.75216000  0.53340000  0.30107000  1.0
  C  C57  1  0.24783000  0.46660000  0.69893000  1.0
  C  C58  1  0.92945000  0.33615000  0.07582000  1.0
  C  C59  1  0.07055000  0.66385000  0.92418000  1.0
  C  C60  1  0.64076000  0.66759000  0.34101000  1.0
  C  C61  1  0.35924000  0.33241000  0.65899000  1.0
  C  C62  1  0.27698000  0.98898000  0.84397000  1.0
  C  C63  1  0.72302000  0.01102000  0.15603000  1.0
  C  C64  1  0.54053000  0.63626000  0.04927000  1.0
  C  C65  1  0.45946000  0.36375000  0.95073000  1.0
  C  C66  1  0.21237000  0.03351000  0.33265000  1.0
  C  C67  1  0.78763000  0.96649000  0.66735000  1.0
  C  C68  1  0.64245000  0.60472000  0.83191000  1.0
  C  C69  1  0.35756000  0.39528000  0.16810000  1.0
  C  C70  1  0.22556000  0.96958000  0.54782000  1.0
  C  C71  1  0.77444000  0.03043000  0.45217000  1.0
  N  N72  1  0.90540000  0.34467000  0.99092000  1.0
  N  N73  1  0.09460000  0.65533000  0.00908000  1.0
  N  N74  1  0.92579000  0.28773000  0.49401000  1.0
  N  N75  1  0.07421000  0.71227000  0.50599000  1.0
  N  N76  1  0.69916000  0.55561000  0.57458000  1.0
  N  N77  1  0.30083000  0.44438000  0.42542000  1.0
  N  N78  1  0.18401000  0.09525000  0.07312000  1.0
  N  N79  1  0.81599000  0.90475000  0.92688000  1.0
  N  N80  1  0.48912000  0.73797000  0.09473000  1.0
  N  N81  1  0.51088000  0.26202000  0.90526000  1.0
  N  N82  1  0.35028000  0.89415000  0.59300000  1.0
  N  N83  1  0.64973000  0.10584000  0.40700000  1.0
  N  N84  1  0.27541000  0.98234000  0.26352000  1.0
  N  N85  1  0.72460000  0.01766000  0.73648000  1.0
  N  N86  1  0.61181000  0.66364000  0.76143000  1.0
  N  N87  1  0.38820000  0.33636000  0.23857000  1.0
