# generated using pymatgen
data_CdH17C12N2ClO2
_symmetry_space_group_name_H-M   'P 1'
_cell_length_a   14.58400000
_cell_length_b   16.37710000
_cell_length_c   16.37480000
_cell_angle_alpha   119.99100000
_cell_angle_beta   90.00000000
_cell_angle_gamma   90.00000000
_symmetry_Int_Tables_number   1
_chemical_formula_structural   CdH17C12N2ClO2
_chemical_formula_sum   'Cd6 H102 C72 N12 Cl6 O12'
_cell_volume   3387.34687072
_cell_formula_units_Z   6
loop_
 _symmetry_equiv_pos_site_id
 _symmetry_equiv_pos_as_xyz
  1  'x, y, z'
loop_
 _atom_site_type_symbol
 _atom_site_label
 _atom_site_symmetry_multiplicity
 _atom_site_fract_x
 _atom_site_fract_y
 _atom_site_fract_z
 _atom_site_occupancy
  Cd  Cd0  1  0.02881000  0.34738000  0.74024000  1.0
  Cd  Cd1  1  0.86209000  0.74025000  0.39283000  1.0
  Cd  Cd2  1  0.69542000  0.39282000  0.65260000  1.0
  Cd  Cd3  1  0.52882000  0.65262000  0.25976000  1.0
  Cd  Cd4  1  0.36209000  0.25975000  0.60717000  1.0
  Cd  Cd5  1  0.19542000  0.60718000  0.34740000  1.0
  H  H6  1  0.15597000  0.05888000  0.34945000  1.0
  H  H7  1  0.98945000  0.34955000  0.29061000  1.0
  H  H8  1  0.82282000  0.29048000  0.94092000  1.0
  H  H9  1  0.65597000  0.94112000  0.65055000  1.0
  H  H10  1  0.48945000  0.65045000  0.70939000  1.0
  H  H11  1  0.32282000  0.70952000  0.05908000  1.0
  H  H12  1  0.03450000  0.05223000  0.33835000  1.0
  H  H13  1  0.86796000  0.33847000  0.28612000  1.0
  H  H14  1  0.70136000  0.28612000  0.94773000  1.0
  H  H15  1  0.53450000  0.94777000  0.66165000  1.0
  H  H16  1  0.36796000  0.66153000  0.71388000  1.0
  H  H17  1  0.20136000  0.71388000  0.05227000  1.0
  H  H18  1  0.08699000  0.06461000  0.44183000  1.0
  H  H19  1  0.92045000  0.44192000  0.37722000  1.0
  H  H20  1  0.75385000  0.37718000  0.93529000  1.0
  H  H21  1  0.58699000  0.93539000  0.55817000  1.0
  H  H22  1  0.42045000  0.55808000  0.62279000  1.0
  H  H23  1  0.25385000  0.62283000  0.06472000  1.0
  H  H24  1  0.14653000  0.22289000  0.48057000  1.0
  H  H25  1  0.97994000  0.48074000  0.25768000  1.0
  H  H26  1  0.81319000  0.25767000  0.77691000  1.0
  H  H27  1  0.64653000  0.77711000  0.51943000  1.0
  H  H28  1  0.47994000  0.51926000  0.74232000  1.0
  H  H29  1  0.31319000  0.74233000  0.22309000  1.0
  H  H30  1  0.15709000  0.19557000  0.31720000  1.0
  H  H31  1  0.99060000  0.31733000  0.12166000  1.0
  H  H32  1  0.82381000  0.12161000  0.80429000  1.0
  H  H33  1  0.65709000  0.80443000  0.68280000  1.0
  H  H34  1  0.49060000  0.68267000  0.87834000  1.0
  H  H35  1  0.32381000  0.87839000  0.19571000  1.0
  H  H36  1  0.09592000  0.30046000  0.38987000  1.0
  H  H37  1  0.92944000  0.38999000  0.08941000  1.0
  H  H38  1  0.76261000  0.08945000  0.69941000  1.0
  H  H39  1  0.59592000  0.69954000  0.61013000  1.0
  H  H40  1  0.42944000  0.61001000  0.91059000  1.0
  H  H41  1  0.26261000  0.91055000  0.30059000  1.0
  H  H42  1  0.03515000  0.19679000  0.30991000  1.0
  H  H43  1  0.86864000  0.31005000  0.11314000  1.0
  H  H44  1  0.70185000  0.11315000  0.80310000  1.0
  H  H45  1  0.53515000  0.80321000  0.69009000  1.0
  H  H46  1  0.36864000  0.68995000  0.88686000  1.0
  H  H47  1  0.20185000  0.88685000  0.19690000  1.0
  H  H48  1  0.99514000  0.20278000  0.54165000  1.0
  H  H49  1  0.82848000  0.54161000  0.33881000  1.0
  H  H50  1  0.66168000  0.33877000  0.79714000  1.0
  H  H51  1  0.49514000  0.79722000  0.45835000  1.0
  H  H52  1  0.32848000  0.45839000  0.66119000  1.0
  H  H53  1  0.16168000  0.66123000  0.20286000  1.0
  H  H54  1  0.93887000  0.19953000  0.44403000  1.0
  H  H55  1  0.77234000  0.44392000  0.24446000  1.0
  H  H56  1  0.60558000  0.24435000  0.80043000  1.0
  H  H57  1  0.43887000  0.80047000  0.55597000  1.0
  H  H58  1  0.27234000  0.55608000  0.75554000  1.0
  H  H59  1  0.10558000  0.75565000  0.19957000  1.0
  H  H60  1  0.98411000  0.36453000  0.49813000  1.0
  H  H61  1  0.81744000  0.49809000  0.13354000  1.0
  H  H62  1  0.65071000  0.13355000  0.63536000  1.0
  H  H63  1  0.48411000  0.63547000  0.50186000  1.0
  H  H64  1  0.31744000  0.50191000  0.86646000  1.0
  H  H65  1  0.15071000  0.86645000  0.36464000  1.0
  H  H66  1  0.11400000  0.51354000  0.71428000  1.0
  H  H67  1  0.94724000  0.71420000  0.20050000  1.0
  H  H68  1  0.78051000  0.20059000  0.48629000  1.0
  H  H69  1  0.61400000  0.48646000  0.28572000  1.0
  H  H70  1  0.44724000  0.28580000  0.79950000  1.0
  H  H71  1  0.28051000  0.79941000  0.51371000  1.0
  H  H72  1  0.99669000  0.51570000  0.68836000  1.0
  H  H73  1  0.82991000  0.68829000  0.17248000  1.0
  H  H74  1  0.66319000  0.17254000  0.48419000  1.0
  H  H75  1  0.49669000  0.48430000  0.31164000  1.0
  H  H76  1  0.32991000  0.31171000  0.82752000  1.0
  H  H77  1  0.16319000  0.82746000  0.51581000  1.0
  H  H78  1  0.96882000  0.59836000  0.60273000  1.0
  H  H79  1  0.80208000  0.60274000  0.00421000  1.0
  H  H80  1  0.63544000  0.00422000  0.40153000  1.0
  H  H81  1  0.46882000  0.40164000  0.39727000  1.0
  H  H82  1  0.30208000  0.39726000  0.99579000  1.0
  H  H83  1  0.13544000  0.99578000  0.59847000  1.0
  H  H84  1  0.01760000  0.63724000  0.48097000  1.0
  H  H85  1  0.85090000  0.48108000  0.84359000  1.0
  H  H86  1  0.68435000  0.84370000  0.36273000  1.0
  H  H87  1  0.51760000  0.36276000  0.51903000  1.0
  H  H88  1  0.35090000  0.51893000  0.15641000  1.0
  H  H89  1  0.18435000  0.15630000  0.63727000  1.0
  H  H90  1  0.25473000  0.47707000  0.42363000  1.0
  H  H91  1  0.08789000  0.42355000  0.94649000  1.0
  H  H92  1  0.92129000  0.94674000  0.52320000  1.0
  H  H93  1  0.75473000  0.52293000  0.57636000  1.0
  H  H94  1  0.58789000  0.57645000  0.05351000  1.0
  H  H95  1  0.42129000  0.05326000  0.47680000  1.0
  H  H96  1  0.21601000  0.42931000  0.54028000  1.0
  H  H97  1  0.04915000  0.54014000  0.11089000  1.0
  H  H98  1  0.88243000  0.11108000  0.57088000  1.0
  H  H99  1  0.71601000  0.57068000  0.45972000  1.0
  H  H100  1  0.54915000  0.45986000  0.88911000  1.0
  H  H101  1  0.38243000  0.88892000  0.42912000  1.0
  H  H102  1  0.12056000  0.35153000  0.59192000  1.0
  H  H103  1  0.95384000  0.59197000  0.24034000  1.0
  H  H104  1  0.78710000  0.24037000  0.64837000  1.0
  H  H105  1  0.62056000  0.64846000  0.40808000  1.0
  H  H106  1  0.45384000  0.40803000  0.75966000  1.0
  H  H107  1  0.28710000  0.75963000  0.35163000  1.0
  C  C108  1  0.09144000  0.08629000  0.38833000  1.0
  C  C109  1  0.92492000  0.38843000  0.30205000  1.0
  C  C110  1  0.75827000  0.30200000  0.91359000  1.0
  C  C111  1  0.59144000  0.91371000  0.61167000  1.0
  C  C112  1  0.42492000  0.61157000  0.69795000  1.0
  C  C113  1  0.25827000  0.69800000  0.08641000  1.0
  C  C114  1  0.08659000  0.19373000  0.43330000  1.0
  C  C115  1  0.92006000  0.43340000  0.23956000  1.0
  C  C116  1  0.75330000  0.23955000  0.80615000  1.0
  C  C117  1  0.58659000  0.80627000  0.56670000  1.0
  C  C118  1  0.42006000  0.56660000  0.76044000  1.0
  C  C119  1  0.25330000  0.76045000  0.19385000  1.0
  C  C120  1  0.09395000  0.22348000  0.35859000  1.0
  C  C121  1  0.92746000  0.35873000  0.13513000  1.0
  C  C122  1  0.76067000  0.13512000  0.77639000  1.0
  C  C123  1  0.59395000  0.77652000  0.64141000  1.0
  C  C124  1  0.42746000  0.64127000  0.86487000  1.0
  C  C125  1  0.26067000  0.86488000  0.22362000  1.0
  C  C126  1  0.99811000  0.22954000  0.49184000  1.0
  C  C127  1  0.83150000  0.49181000  0.26225000  1.0
  C  C128  1  0.66475000  0.26221000  0.77039000  1.0
  C  C129  1  0.49811000  0.77046000  0.50816000  1.0
  C  C130  1  0.33150000  0.50819000  0.73775000  1.0
  C  C131  1  0.16475000  0.73779000  0.22961000  1.0
  C  C132  1  0.98558000  0.33703000  0.54732000  1.0
  C  C133  1  0.81890000  0.54728000  0.21022000  1.0
  C  C134  1  0.65217000  0.21024000  0.66290000  1.0
  C  C135  1  0.48558000  0.66297000  0.45268000  1.0
  C  C136  1  0.31890000  0.45272000  0.78978000  1.0
  C  C137  1  0.15217000  0.78976000  0.33710000  1.0
  C  C138  1  0.06349000  0.48506000  0.65676000  1.0
  C  C139  1  0.89671000  0.65670000  0.17155000  1.0
  C  C140  1  0.73000000  0.17162000  0.51484000  1.0
  C  C141  1  0.56349000  0.51494000  0.34324000  1.0
  C  C142  1  0.39671000  0.34330000  0.82845000  1.0
  C  C143  1  0.23000000  0.82838000  0.48516000  1.0
  C  C144  1  0.08895000  0.51174000  0.58386000  1.0
  C  C145  1  0.92215000  0.58380000  0.07200000  1.0
  C  C146  1  0.75546000  0.07210000  0.48829000  1.0
  C  C147  1  0.58895000  0.48826000  0.41614000  1.0
  C  C148  1  0.42215000  0.41620000  0.92800000  1.0
  C  C149  1  0.25546000  0.92790000  0.51171000  1.0
  C  C150  1  0.03327000  0.57000000  0.56529000  1.0
  C  C151  1  0.86652000  0.56529000  0.99515000  1.0
  C  C152  1  0.69987000  0.99523000  0.42998000  1.0
  C  C153  1  0.53327000  0.43000000  0.43471000  1.0
  C  C154  1  0.36652000  0.43471000  0.00485000  1.0
  C  C155  1  0.19987000  0.00477000  0.57002000  1.0
  C  C156  1  0.05999000  0.59212000  0.49694000  1.0
  C  C157  1  0.89326000  0.49698000  0.90469000  1.0
  C  C158  1  0.72666000  0.90481000  0.40792000  1.0
  C  C159  1  0.55999000  0.40788000  0.50306000  1.0
  C  C160  1  0.39325000  0.50302000  0.09531000  1.0
  C  C161  1  0.22666000  0.09519000  0.59208000  1.0
  C  C162  1  0.19168000  0.50193000  0.46451000  1.0
  C  C163  1  0.02486000  0.46446000  0.96250000  1.0
  C  C164  1  0.85824000  0.96270000  0.49828000  1.0
  C  C165  1  0.69168000  0.49807000  0.53549000  1.0
  C  C166  1  0.52486000  0.53554000  0.03750000  1.0
  C  C167  1  0.35824000  0.03730000  0.50172000  1.0
  C  C168  1  0.16969000  0.47670000  0.53129000  1.0
  C  C169  1  0.00287000  0.53120000  0.05450000  1.0
  C  C170  1  0.83618000  0.05466000  0.52346000  1.0
  C  C171  1  0.66969000  0.52330000  0.46871000  1.0
  C  C172  1  0.50287000  0.46880000  0.94550000  1.0
  C  C173  1  0.33618000  0.94534000  0.47654000  1.0
  C  C174  1  0.89243000  0.36073000  0.59807000  1.0
  C  C175  1  0.72577000  0.59802000  0.23726000  1.0
  C  C176  1  0.55901000  0.23729000  0.63925000  1.0
  C  C177  1  0.39243000  0.63927000  0.40193000  1.0
  C  C178  1  0.22577000  0.40198000  0.76274000  1.0
  C  C179  1  0.05901000  0.76271000  0.36074000  1.0
  N  N180  1  0.05825000  0.38214000  0.61839000  1.0
  N  N181  1  0.89152000  0.61839000  0.23617000  1.0
  N  N182  1  0.72479000  0.23623000  0.61777000  1.0
  N  N183  1  0.55825000  0.61786000  0.38161000  1.0
  N  N184  1  0.39152000  0.38161000  0.76383000  1.0
  N  N185  1  0.22479000  0.76377000  0.38223000  1.0
  N  N186  1  0.13814000  0.55893000  0.44766000  1.0
  N  N187  1  0.97137000  0.44767000  0.88864000  1.0
  N  N188  1  0.80478000  0.88880000  0.44122000  1.0
  N  N189  1  0.63814000  0.44107000  0.55234000  1.0
  N  N190  1  0.47137000  0.55233000  0.11136000  1.0
  N  N191  1  0.30478000  0.11120000  0.55878000  1.0
  Cl  Cl192  1  0.00903000  0.18461000  0.70488000  1.0
  Cl  Cl193  1  0.84236000  0.70488000  0.52029000  1.0
  Cl  Cl194  1  0.67568000  0.52023000  0.81539000  1.0
  Cl  Cl195  1  0.50903000  0.81539000  0.29512000  1.0
  Cl  Cl196  1  0.34237000  0.29512000  0.47972000  1.0
  Cl  Cl197  1  0.17568000  0.47977000  0.18461000  1.0
  O  O198  1  0.82420000  0.36788000  0.55406000  1.0
  O  O199  1  0.65753000  0.55408000  0.18605000  1.0
  O  O200  1  0.49080000  0.18606000  0.63200000  1.0
  O  O201  1  0.32420000  0.63212000  0.44594000  1.0
  O  O202  1  0.15753000  0.44592000  0.81395000  1.0
  O  O203  1  0.99080000  0.81394000  0.36800000  1.0
  O  O204  1  0.88704000  0.36929000  0.67971000  1.0
  O  O205  1  0.72037000  0.67960000  0.31039000  1.0
  O  O206  1  0.55358000  0.31047000  0.63088000  1.0
  O  O207  1  0.38704000  0.63071000  0.32029000  1.0
  O  O208  1  0.22038000  0.32040000  0.68961000  1.0
  O  O209  1  0.05358000  0.68953000  0.36912000  1.0
