# generated using pymatgen
data_CuH16C26S2N4(O2F3)2
_symmetry_space_group_name_H-M   'P 1'
_cell_length_a   8.44080000
_cell_length_b   9.14186000
_cell_length_c   9.52243000
_cell_angle_alpha   113.42200000
_cell_angle_beta   100.89200000
_cell_angle_gamma   90.55250000
_symmetry_Int_Tables_number   1
_chemical_formula_structural   CuH16C26S2N4(O2F3)2
_chemical_formula_sum   'Cu1 H16 C26 S2 N4 O4 F6'
_cell_volume   659.16718896
_cell_formula_units_Z   1
loop_
 _symmetry_equiv_pos_site_id
 _symmetry_equiv_pos_as_xyz
  1  'x, y, z'
loop_
 _atom_site_type_symbol
 _atom_site_label
 _atom_site_symmetry_multiplicity
 _atom_site_fract_x
 _atom_site_fract_y
 _atom_site_fract_z
 _atom_site_occupancy
  Cu  Cu0  1  0.00000000  0.00000000  0.50001000  1.0
  H  H1  1  0.98801000  0.50618000  0.77179000  1.0
  H  H2  1  0.01199000  0.49382000  0.22820000  1.0
  H  H3  1  0.82696000  0.64928000  0.68443000  1.0
  H  H4  1  0.17305000  0.35071000  0.31557000  1.0
  H  H5  1  0.60862000  0.74253000  0.50976000  1.0
  H  H6  1  0.39139000  0.25747000  0.49024000  1.0
  H  H7  1  0.63342000  0.11958000  0.55789000  1.0
  H  H8  1  0.36659000  0.88042000  0.44211000  1.0
  H  H9  1  0.43264000  0.12502000  0.72729000  1.0
  H  H10  1  0.56736000  0.87497000  0.27271000  1.0
  H  H11  1  0.79506000  0.94962000  0.98981000  1.0
  H  H12  1  0.20493000  0.05038000  0.01019000  1.0
  H  H13  1  0.97931000  0.94871000  0.80734000  1.0
  H  H14  1  0.02069000  0.05129000  0.19267000  1.0
  H  H15  1  0.49747000  0.50609000  0.23115000  1.0
  H  H16  1  0.50253000  0.49391000  0.76885000  1.0
  C  C17  1  0.20631000  0.38949000  0.92702000  1.0
  C  C18  1  0.79370000  0.61052000  0.07298000  1.0
  C  C19  1  0.11325000  0.30177000  0.75638000  1.0
  C  C20  1  0.88675000  0.69823000  0.24362000  1.0
  C  C21  1  0.00025000  0.38307000  0.69738000  1.0
  C  C22  1  0.99975000  0.61693000  0.30262000  1.0
  C  C23  1  0.90283000  0.31481000  0.54392000  1.0
  C  C24  1  0.09718000  0.68519000  0.45608000  1.0
  C  C25  1  0.79385000  0.41336000  0.49022000  1.0
  C  C26  1  0.20616000  0.58664000  0.50977000  1.0
  C  C27  1  0.76531000  0.57240000  0.56583000  1.0
  C  C28  1  0.23469000  0.42760000  0.43417000  1.0
  C  C29  1  0.64768000  0.62245000  0.47198000  1.0
  C  C30  1  0.35232000  0.37754000  0.52802000  1.0
  C  C31  1  0.58803000  0.50143000  0.32637000  1.0
  C  C32  1  0.41197000  0.49856000  0.67363000  1.0
  C  C33  1  0.66433000  0.08278000  0.65491000  1.0
  C  C34  1  0.33568000  0.91722000  0.34509000  1.0
  C  C35  1  0.55381000  0.08715000  0.74797000  1.0
  C  C36  1  0.44619000  0.91285000  0.25203000  1.0
  C  C37  1  0.60149000  0.03757000  0.86986000  1.0
  C  C38  1  0.39850000  0.96243000  0.13014000  1.0
  C  C39  1  0.75697000  0.98762000  0.89481000  1.0
  C  C40  1  0.24303000  0.01239000  0.10519000  1.0
  C  C41  1  0.85762000  0.98810000  0.79507000  1.0
  C  C42  1  0.14238000  0.01190000  0.20494000  1.0
  S  S43  1  0.67448000  0.32759000  0.30350000  1.0
  S  S44  1  0.32552000  0.67241000  0.69650000  1.0
  N  N45  1  0.81303000  0.03442000  0.67691000  1.0
  N  N46  1  0.18697000  0.96558000  0.32310000  1.0
  N  N47  1  0.49019000  0.04767000  0.96667000  1.0
  N  N48  1  0.50981000  0.95233000  0.03333000  1.0
  O  O49  1  0.90114000  0.16900000  0.44569000  1.0
  O  O50  1  0.09886000  0.83099000  0.55432000  1.0
  O  O51  1  0.15046000  0.15839000  0.69156000  1.0
  O  O52  1  0.84953000  0.84161000  0.30845000  1.0
  F  F53  1  0.18702000  0.54865000  0.99252000  1.0
  F  F54  1  0.81298000  0.45136000  0.00747000  1.0
  F  F55  1  0.15446000  0.32264000  0.01877000  1.0
  F  F56  1  0.84555000  0.67737000  0.98124000  1.0
  F  F57  1  0.36846000  0.37590000  0.94162000  1.0
  F  F58  1  0.63154000  0.62410000  0.05838000  1.0
