# generated using pymatgen
data_LaCuPH10C6NO11
_symmetry_space_group_name_H-M   'P 1'
_cell_length_a   8.34478000
_cell_length_b   9.55293000
_cell_length_c   20.18120000
_cell_angle_alpha   90.00030000
_cell_angle_beta   90.00100000
_cell_angle_gamma   70.66600000
_symmetry_Int_Tables_number   1
_chemical_formula_structural   LaCuPH10C6NO11
_chemical_formula_sum   'La4 Cu4 P4 H40 C24 N4 O44'
_cell_volume   1518.05863877
_cell_formula_units_Z   4
loop_
 _symmetry_equiv_pos_site_id
 _symmetry_equiv_pos_as_xyz
  1  'x, y, z'
loop_
 _atom_site_type_symbol
 _atom_site_label
 _atom_site_symmetry_multiplicity
 _atom_site_fract_x
 _atom_site_fract_y
 _atom_site_fract_z
 _atom_site_occupancy
  La  La0  1  0.61843000  0.38334000  0.35231000  1.0
  La  La1  1  0.38158000  0.11665000  0.85231000  1.0
  La  La2  1  0.38158000  0.61665000  0.64770000  1.0
  La  La3  1  0.61843000  0.88334000  0.14769000  1.0
  Cu  Cu4  1  0.95824000  0.92890000  0.29631000  1.0
  Cu  Cu5  1  0.04176000  0.57110000  0.79632000  1.0
  Cu  Cu6  1  0.04177000  0.07109000  0.70369000  1.0
  Cu  Cu7  1  0.95824000  0.42890000  0.20369000  1.0
  P  P8  1  0.79275000  0.67632000  0.30180000  1.0
  P  P9  1  0.20726000  0.82367000  0.80180000  1.0
  P  P10  1  0.20725000  0.32368000  0.69820000  1.0
  P  P11  1  0.79274000  0.17633000  0.19820000  1.0
  H  H12  1  0.22747000  0.72961000  0.41240000  1.0
  H  H13  1  0.13744000  0.58756000  0.40316000  1.0
  H  H14  1  0.90044000  0.87892000  0.48158000  1.0
  H  H15  1  0.06856000  0.93085000  0.44776000  1.0
  H  H16  1  0.85182000  0.65818000  0.42128000  1.0
  H  H17  1  0.71178000  0.83350000  0.39486000  1.0
  H  H18  1  0.00744000  0.24102000  0.33605000  1.0
  H  H19  1  0.97732000  0.40792000  0.34065000  1.0
  H  H20  1  0.51954000  0.16565000  0.26638000  1.0
  H  H21  1  0.33980000  0.25467000  0.29231000  1.0
  H  H22  1  0.77254000  0.77039000  0.91239000  1.0
  H  H23  1  0.86257000  0.91244000  0.90316000  1.0
  H  H24  1  0.09958000  0.62108000  0.98158000  1.0
  H  H25  1  0.93145000  0.56914000  0.94776000  1.0
  H  H26  1  0.14819000  0.84182000  0.92128000  1.0
  H  H27  1  0.28822000  0.66650000  0.89486000  1.0
  H  H28  1  0.99257000  0.25898000  0.83605000  1.0
  H  H29  1  0.02269000  0.09208000  0.84065000  1.0
  H  H30  1  0.48046000  0.33435000  0.76638000  1.0
  H  H31  1  0.66020000  0.24533000  0.79231000  1.0
  H  H32  1  0.77254000  0.27039000  0.58760000  1.0
  H  H33  1  0.86256000  0.41244000  0.59684000  1.0
  H  H34  1  0.09957000  0.12109000  0.51842000  1.0
  H  H35  1  0.93145000  0.06915000  0.55224000  1.0
  H  H36  1  0.14817000  0.34183000  0.57872000  1.0
  H  H37  1  0.28822000  0.16652000  0.60514000  1.0
  H  H38  1  0.99256000  0.75898000  0.66395000  1.0
  H  H39  1  0.02268000  0.59208000  0.65935000  1.0
  H  H40  1  0.48046000  0.83435000  0.73363000  1.0
  H  H41  1  0.66020000  0.74533000  0.70768000  1.0
  H  H42  1  0.22745000  0.22961000  0.08760000  1.0
  H  H43  1  0.13743000  0.08756000  0.09684000  1.0
  H  H44  1  0.90041000  0.37892000  0.01842000  1.0
  H  H45  1  0.06854000  0.43085000  0.05224000  1.0
  H  H46  1  0.85181000  0.15818000  0.07872000  1.0
  H  H47  1  0.71178000  0.33349000  0.10514000  1.0
  H  H48  1  0.00744000  0.74102000  0.16395000  1.0
  H  H49  1  0.97731000  0.90792000  0.15935000  1.0
  H  H50  1  0.51954000  0.66565000  0.23362000  1.0
  H  H51  1  0.33980000  0.75467000  0.20769000  1.0
  C  C52  1  0.21860000  0.66329000  0.31243000  1.0
  C  C53  1  0.14084000  0.69195000  0.38162000  1.0
  C  C54  1  0.94579000  0.91731000  0.43614000  1.0
  C  C55  1  0.82431000  0.06770000  0.41446000  1.0
  C  C56  1  0.83061000  0.74431000  0.38280000  1.0
  C  C57  1  0.42478000  0.46850000  0.49733000  1.0
  C  C58  1  0.78141000  0.83671000  0.81243000  1.0
  C  C59  1  0.85916000  0.80805000  0.88162000  1.0
  C  C60  1  0.05422000  0.58268000  0.93614000  1.0
  C  C61  1  0.17570000  0.43230000  0.91446000  1.0
  C  C62  1  0.16939000  0.75569000  0.88280000  1.0
  C  C63  1  0.57522000  0.03150000  0.99733000  1.0
  C  C64  1  0.78141000  0.33670000  0.68757000  1.0
  C  C65  1  0.85916000  0.30804000  0.61837000  1.0
  C  C66  1  0.05422000  0.08269000  0.56386000  1.0
  C  C67  1  0.17571000  0.93230000  0.58554000  1.0
  C  C68  1  0.16938000  0.25570000  0.61720000  1.0
  C  C69  1  0.57521000  0.53152000  0.50267000  1.0
  C  C70  1  0.21859000  0.16329000  0.18757000  1.0
  C  C71  1  0.14083000  0.19195000  0.11838000  1.0
  C  C72  1  0.94577000  0.41732000  0.06386000  1.0
  C  C73  1  0.82428000  0.56770000  0.08554000  1.0
  C  C74  1  0.83060000  0.24430000  0.11720000  1.0
  C  C75  1  0.42479000  0.96849000  0.00267000  1.0
  N  N76  1  0.97106000  0.80786000  0.38208000  1.0
  N  N77  1  0.02894000  0.69214000  0.88209000  1.0
  N  N78  1  0.02894000  0.19214000  0.61791000  1.0
  N  N79  1  0.97105000  0.30786000  0.11791000  1.0
  O  O80  1  0.15719000  0.76408000  0.26762000  1.0
  O  O81  1  0.34378000  0.54975000  0.30256000  1.0
  O  O82  1  0.81209000  0.09151000  0.35064000  1.0
  O  O83  1  0.74708000  0.16514000  0.45478000  1.0
  O  O84  1  0.64392000  0.61760000  0.30886000  1.0
  O  O85  1  0.95950000  0.54895000  0.28314000  1.0
  O  O86  1  0.75686000  0.81211000  0.25657000  1.0
  O  O87  1  0.95533000  0.32548000  0.36515000  1.0
  O  O88  1  0.45973000  0.21990000  0.30604000  1.0
  O  O89  1  0.40386000  0.41427000  0.44211000  1.0
  O  O90  1  0.33475000  0.47791000  0.54871000  1.0
  O  O91  1  0.84281000  0.73592000  0.76762000  1.0
  O  O92  1  0.65623000  0.95026000  0.80256000  1.0
  O  O93  1  0.18790000  0.40849000  0.85064000  1.0
  O  O94  1  0.25293000  0.33488000  0.95478000  1.0
  O  O95  1  0.35609000  0.88240000  0.80886000  1.0
  O  O96  1  0.04051000  0.95105000  0.78314000  1.0
  O  O97  1  0.24314000  0.68788000  0.75657000  1.0
  O  O98  1  0.04468000  0.17453000  0.86515000  1.0
  O  O99  1  0.54027000  0.28010000  0.80604000  1.0
  O  O100  1  0.59614000  0.08572000  0.94211000  1.0
  O  O101  1  0.66527000  0.02209000  0.04872000  1.0
  O  O102  1  0.84281000  0.23592000  0.73237000  1.0
  O  O103  1  0.65622000  0.45025000  0.69744000  1.0
  O  O104  1  0.18791000  0.90848000  0.64936000  1.0
  O  O105  1  0.25293000  0.83487000  0.54522000  1.0
  O  O106  1  0.35608000  0.38240000  0.69114000  1.0
  O  O107  1  0.04051000  0.45105000  0.71686000  1.0
  O  O108  1  0.24313000  0.18789000  0.74343000  1.0
  O  O109  1  0.04467000  0.67453000  0.63485000  1.0
  O  O110  1  0.54027000  0.78009000  0.69397000  1.0
  O  O111  1  0.59613000  0.58573000  0.55790000  1.0
  O  O112  1  0.66525000  0.52212000  0.45129000  1.0
  O  O113  1  0.15719000  0.26408000  0.23238000  1.0
  O  O114  1  0.34378000  0.04974000  0.19744000  1.0
  O  O115  1  0.81209000  0.59152000  0.14936000  1.0
  O  O116  1  0.74703000  0.66514000  0.04522000  1.0
  O  O117  1  0.64391000  0.11760000  0.19114000  1.0
  O  O118  1  0.95948000  0.04895000  0.21686000  1.0
  O  O119  1  0.75686000  0.31211000  0.24343000  1.0
  O  O120  1  0.95533000  0.82547000  0.13485000  1.0
  O  O121  1  0.45973000  0.71990000  0.19396000  1.0
  O  O122  1  0.40386000  0.91426000  0.05789000  1.0
  O  O123  1  0.33476000  0.97790000  0.95128000  1.0
