# generated using pymatgen
data_ZnH24C30(NO2)2
_symmetry_space_group_name_H-M   'P 1'
_cell_length_a   5.33972000
_cell_length_b   12.65440000
_cell_length_c   21.42350000
_cell_angle_alpha   92.02130000
_cell_angle_beta   90.01850000
_cell_angle_gamma   102.15700000
_symmetry_Int_Tables_number   1
_chemical_formula_structural   ZnH24C30(NO2)2
_chemical_formula_sum   'Zn2 H48 C60 N4 O8'
_cell_volume   1414.21756987
_cell_formula_units_Z   2
loop_
 _symmetry_equiv_pos_site_id
 _symmetry_equiv_pos_as_xyz
  1  'x, y, z'
loop_
 _atom_site_type_symbol
 _atom_site_label
 _atom_site_symmetry_multiplicity
 _atom_site_fract_x
 _atom_site_fract_y
 _atom_site_fract_z
 _atom_site_occupancy
  Zn  Zn0  1  0.38271000  0.99993000  0.74999000  1.0
  Zn  Zn1  1  0.61727000  0.00007000  0.25001000  1.0
  H  H2  1  0.37788000  0.91743000  0.61921000  1.0
  H  H3  1  0.46102000  0.08232000  0.88080000  1.0
  H  H4  1  0.62213000  0.08255000  0.38080000  1.0
  H  H5  1  0.53896000  0.91768000  0.11920000  1.0
  H  H6  1  0.08632000  0.79094000  0.54701000  1.0
  H  H7  1  0.29664000  0.20889000  0.95307000  1.0
  H  H8  1  0.91371000  0.20904000  0.45299000  1.0
  H  H9  1  0.70331000  0.79112000  0.04692000  1.0
  H  H10  1  0.54353000  0.73225000  0.69889000  1.0
  H  H11  1  0.81231000  0.26819000  0.80127000  1.0
  H  H12  1  0.45645000  0.26774000  0.30110000  1.0
  H  H13  1  0.18764000  0.73180000  0.19872000  1.0
  H  H14  1  0.86064000  0.85817000  0.76472000  1.0
  H  H15  1  0.00281000  0.14213000  0.73539000  1.0
  H  H16  1  0.13932000  0.14183000  0.23528000  1.0
  H  H17  1  0.99715000  0.85786000  0.26461000  1.0
  H  H18  1  0.68237000  0.67518000  0.52495000  1.0
  H  H19  1  0.00886000  0.32519000  0.97522000  1.0
  H  H20  1  0.31769000  0.32481000  0.47504000  1.0
  H  H21  1  0.99111000  0.67481000  0.02477000  1.0
  H  H22  1  0.30451000  0.62490000  0.63394000  1.0
  H  H23  1  0.68048000  0.37499000  0.86616000  1.0
  H  H24  1  0.69551000  0.37509000  0.36606000  1.0
  H  H25  1  0.31949000  0.62503000  0.13383000  1.0
  H  H26  1  0.40421000  0.60660000  0.45685000  1.0
  H  H27  1  0.79758000  0.39336000  0.04320000  1.0
  H  H28  1  0.59584000  0.39338000  0.54315000  1.0
  H  H29  1  0.20242000  0.60664000  0.95680000  1.0
  H  H30  1  0.92233000  0.49927000  0.61411000  1.0
  H  H31  1  0.42339000  0.50090000  0.88586000  1.0
  H  H32  1  0.07773000  0.50070000  0.38590000  1.0
  H  H33  1  0.57661000  0.49911000  0.11414000  1.0
  H  H34  1  0.73784000  0.24443000  0.58127000  1.0
  H  H35  1  0.49357000  0.75558000  0.91880000  1.0
  H  H36  1  0.26222000  0.75557000  0.41873000  1.0
  H  H37  1  0.50642000  0.24442000  0.08119000  1.0
  H  H38  1  0.93836000  0.15579000  0.60529000  1.0
  H  H39  1  0.78262000  0.84416000  0.89480000  1.0
  H  H40  1  0.06164000  0.84421000  0.39472000  1.0
  H  H41  1  0.21739000  0.15584000  0.10520000  1.0
  H  H42  1  0.88513000  0.97505000  0.55744000  1.0
  H  H43  1  0.91024000  0.02480000  0.94270000  1.0
  H  H44  1  0.11489000  0.02495000  0.44257000  1.0
  H  H45  1  0.08975000  0.97521000  0.05730000  1.0
  H  H46  1  0.32410000  0.16381000  0.52152000  1.0
  H  H47  1  0.16023000  0.83634000  0.97834000  1.0
  H  H48  1  0.67590000  0.83619000  0.47849000  1.0
  H  H49  1  0.83976000  0.16367000  0.02166000  1.0
  C  C50  1  0.19181000  0.87375000  0.63491000  1.0
  C  C51  1  0.31873000  0.12614000  0.86515000  1.0
  C  C52  1  0.80820000  0.12623000  0.36510000  1.0
  C  C53  1  0.68124000  0.87387000  0.13485000  1.0
  C  C54  1  0.02753000  0.80262000  0.59503000  1.0
  C  C55  1  0.22587000  0.19731000  0.90508000  1.0
  C  C56  1  0.97249000  0.19737000  0.40497000  1.0
  C  C57  1  0.77409000  0.80270000  0.09492000  1.0
  C  C58  1  0.78579000  0.74868000  0.61606000  1.0
  C  C59  1  0.03831000  0.25150000  0.88410000  1.0
  C  C60  1  0.21421000  0.25131000  0.38394000  1.0
  C  C61  1  0.96165000  0.74850000  0.11590000  1.0
  C  C62  1  0.72707000  0.76945000  0.67883000  1.0
  C  C63  1  0.95852000  0.23082000  0.82133000  1.0
  C  C64  1  0.27293000  0.23054000  0.32117000  1.0
  C  C65  1  0.04143000  0.76918000  0.17867000  1.0
  C  C66  1  0.90222000  0.84051000  0.71626000  1.0
  C  C67  1  0.06215000  0.15965000  0.78387000  1.0
  C  C68  1  0.09778000  0.15949000  0.28374000  1.0
  C  C69  1  0.93779000  0.84035000  0.21613000  1.0
  C  C70  1  0.61073000  0.67942000  0.57255000  1.0
  C  C71  1  0.93282000  0.32091000  0.92762000  1.0
  C  C72  1  0.38930000  0.32056000  0.42745000  1.0
  C  C73  1  0.06714000  0.67909000  0.07237000  1.0
  C  C74  1  0.37250000  0.62345000  0.58582000  1.0
  C  C75  1  0.75010000  0.37666000  0.91428000  1.0
  C  C76  1  0.62752000  0.37654000  0.41417000  1.0
  C  C77  1  0.24989000  0.62335000  0.08572000  1.0
  C  C78  1  0.18941000  0.56074000  0.54149000  1.0
  C  C79  1  0.62910000  0.43937000  0.95852000  1.0
  C  C80  1  0.81062000  0.43925000  0.45850000  1.0
  C  C81  1  0.37088000  0.56064000  0.04148000  1.0
  C  C82  1  0.22792000  0.56021000  0.47632000  1.0
  C  C83  1  0.66765000  0.43979000  0.02372000  1.0
  C  C84  1  0.77212000  0.43977000  0.52367000  1.0
  C  C85  1  0.33233000  0.56021000  0.97628000  1.0
  C  C86  1  0.95678000  0.49923000  0.56388000  1.0
  C  C87  1  0.45781000  0.50084000  0.93609000  1.0
  C  C88  1  0.04327000  0.50075000  0.43612000  1.0
  C  C89  1  0.54218000  0.49917000  0.06391000  1.0
  C  C90  1  0.57365000  0.13651000  0.65291000  1.0
  C  C91  1  0.43712000  0.86342000  0.84713000  1.0
  C  C92  1  0.42636000  0.86351000  0.34709000  1.0
  C  C93  1  0.56288000  0.13660000  0.15287000  1.0
  C  C94  1  0.74058000  0.16189000  0.59483000  1.0
  C  C95  1  0.57876000  0.83809000  0.90522000  1.0
  C  C96  1  0.25945000  0.83812000  0.40518000  1.0
  C  C97  1  0.42124000  0.16192000  0.09479000  1.0
  C  C98  1  0.71611000  0.98630000  0.53225000  1.0
  C  C99  1  0.72997000  0.01364000  0.96784000  1.0
  C  C100  1  0.28389000  0.01370000  0.46776000  1.0
  C  C101  1  0.27003000  0.98636000  0.03216000  1.0
  C  C102  1  0.62281000  0.08045000  0.54422000  1.0
  C  C103  1  0.54237000  0.91960000  0.95577000  1.0
  C  C104  1  0.37723000  0.91956000  0.45579000  1.0
  C  C105  1  0.45763000  0.08040000  0.04423000  1.0
  C  C106  1  0.40360000  0.09245000  0.51151000  1.0
  C  C107  1  0.31109000  0.90763000  0.98841000  1.0
  C  C108  1  0.59640000  0.90754000  0.48850000  1.0
  C  C109  1  0.68891000  0.09237000  0.01159000  1.0
  N  N110  1  0.13102000  0.89288000  0.69478000  1.0
  N  N111  1  0.23849000  0.10709000  0.80530000  1.0
  N  N112  1  0.86896000  0.10712000  0.30522000  1.0
  N  N113  1  0.76148000  0.89291000  0.19470000  1.0
  O  O114  1  0.63563000  0.06215000  0.68682000  1.0
  O  O115  1  0.57362000  0.93756000  0.81312000  1.0
  O  O116  1  0.36433000  0.93784000  0.31317000  1.0
  O  O117  1  0.42640000  0.06246000  0.18689000  1.0
  O  O118  1  0.38885000  0.18054000  0.66256000  1.0
  O  O119  1  0.20812000  0.81965000  0.83756000  1.0
  O  O120  1  0.61123000  0.81950000  0.33745000  1.0
  O  O121  1  0.79188000  0.18038000  0.16244000  1.0
