# generated using pymatgen
data_Cd3H42C60(N3O4)4
_symmetry_space_group_name_H-M   'P 1'
_cell_length_a   8.19792000
_cell_length_b   13.61610000
_cell_length_c   14.29410309
_cell_angle_alpha   94.12795907
_cell_angle_beta   106.52391681
_cell_angle_gamma   90.01060000
_symmetry_Int_Tables_number   1
_chemical_formula_structural   Cd3H42C60(N3O4)4
_chemical_formula_sum   'Cd3 H42 C60 N12 O16'
_cell_volume   1525.34134865
_cell_formula_units_Z   1
loop_
 _symmetry_equiv_pos_site_id
 _symmetry_equiv_pos_as_xyz
  1  'x, y, z'
loop_
 _atom_site_type_symbol
 _atom_site_label
 _atom_site_symmetry_multiplicity
 _atom_site_fract_x
 _atom_site_fract_y
 _atom_site_fract_z
 _atom_site_occupancy
  Cd  Cd0  1  0.79739000  0.56090000  0.63918000  1.0
  Cd  Cd1  1  0.15778000  0.43963000  0.36068000  1.0
  Cd  Cd2  1  0.17765000  0.99963000  0.00048000  1.0
  H  H3  1  0.04703000  0.94885000  0.46762000  1.0
  H  H4  1  0.57868000  0.05153000  0.53234000  1.0
  H  H5  1  0.32281000  0.01523000  0.57554000  1.0
  H  H6  1  0.74728000  0.98485000  0.42443000  1.0
  H  H7  1  0.57450000  0.90441000  0.61835000  1.0
  H  H8  1  0.95676000  0.09549000  0.38146000  1.0
  H  H9  1  0.00782000  0.90382000  0.27470000  1.0
  H  H10  1  0.73275000  0.09677000  0.72505000  1.0
  H  H11  1  0.74947000  0.98700000  0.17502000  1.0
  H  H12  1  0.57437000  0.01321000  0.82513000  1.0
  H  H13  1  0.42769000  0.80835000  0.28796000  1.0
  H  H14  1  0.13943000  0.19110000  0.71269000  1.0
  H  H15  1  0.68465000  0.73012000  0.39315000  1.0
  H  H16  1  0.29096000  0.26964000  0.60705000  1.0
  H  H17  1  0.75955000  0.42435000  0.82427000  1.0
  H  H18  1  0.93462000  0.57599000  0.17526000  1.0
  H  H19  1  0.34706000  0.53200000  0.61027000  1.0
  H  H20  1  0.73632000  0.46862000  0.39010000  1.0
  H  H21  1  0.21791000  0.42403000  0.73146000  1.0
  H  H22  1  0.48584000  0.57577000  0.26874000  1.0
  H  H23  1  0.26418000  0.42562000  0.90859000  1.0
  H  H24  1  0.35514000  0.57380000  0.09144000  1.0
  H  H25  1  0.51290000  0.22379000  0.12240000  1.0
  H  H26  1  0.39049000  0.77590000  0.87748000  1.0
  H  H27  1  0.72210000  0.28241000  0.88649000  1.0
  H  H28  1  0.83435000  0.71755000  0.11295000  1.0
  H  H29  1  0.84365000  0.13571000  0.92155000  1.0
  H  H30  1  0.92073000  0.86376000  0.07841000  1.0
  H  H31  1  0.09709000  0.11269000  0.22049000  1.0
  H  H32  1  0.87836000  0.88772000  0.77970000  1.0
  H  H33  1  0.81049000  0.22157000  0.20773000  1.0
  H  H34  1  0.60378000  0.77893000  0.79194000  1.0
  H  H35  1  0.42181000  0.36630000  0.22297000  1.0
  H  H36  1  0.19948000  0.63343000  0.77692000  1.0
  H  H37  1  0.02548000  0.34740000  0.95595000  1.0
  H  H38  1  0.06903000  0.65212000  0.04418000  1.0
  H  H39  1  0.89384000  0.40360000  0.11113000  1.0
  H  H40  1  0.78289000  0.59655000  0.88917000  1.0
  H  H41  1  0.98298000  0.69960000  0.57857000  1.0
  H  H42  1  0.40448000  0.30126000  0.42156000  1.0
  H  H43  1  0.08864000  0.61256000  0.54703000  1.0
  H  H44  1  0.54163000  0.38812000  0.45291000  1.0
  C  C45  1  0.58916000  0.71397000  0.56178000  1.0
  C  C46  1  0.02807000  0.28581000  0.43798000  1.0
  C  C47  1  0.25860000  0.63884000  0.41881000  1.0
  C  C48  1  0.84003000  0.36131000  0.58110000  1.0
  C  C49  1  0.44192000  0.78082000  0.52756000  1.0
  C  C50  1  0.91465000  0.21914000  0.47232000  1.0
  C  C51  1  0.28777000  0.74387000  0.46254000  1.0
  C  C52  1  0.82512000  0.25627000  0.53730000  1.0
  C  C53  1  0.14672000  0.80540000  0.44333000  1.0
  C  C54  1  0.70298000  0.19484000  0.55650000  1.0
  C  C55  1  0.15860000  0.90282000  0.48247000  1.0
  C  C56  1  0.67574000  0.09739000  0.51745000  1.0
  C  C57  1  0.31414000  0.93954000  0.54380000  1.0
  C  C58  1  0.77034000  0.06053000  0.45612000  1.0
  C  C59  1  0.45400000  0.87861000  0.56722000  1.0
  C  C60  1  0.88710000  0.12136000  0.43264000  1.0
  C  C61  1  0.85891000  0.81275000  0.33946000  1.0
  C  C62  1  0.51900000  0.18748000  0.66060000  1.0
  C  C63  1  0.88065000  0.88453000  0.27830000  1.0
  C  C64  1  0.60200000  0.11580000  0.72168000  1.0
  C  C65  1  0.73729000  0.93027000  0.22281000  1.0
  C  C66  1  0.51433000  0.06987000  0.77739000  1.0
  C  C67  1  0.57370000  0.90277000  0.22526000  1.0
  C  C68  1  0.34831000  0.09707000  0.77514000  1.0
  C  C69  1  0.55477000  0.83042000  0.28659000  1.0
  C  C70  1  0.26790000  0.16930000  0.71387000  1.0
  C  C71  1  0.69725000  0.78653000  0.34510000  1.0
  C  C72  1  0.35171000  0.21337000  0.65514000  1.0
  C  C73  1  0.42219000  0.94572000  0.15722000  1.0
  C  C74  1  0.26478000  0.05393000  0.84328000  1.0
  C  C75  1  0.63127000  0.44056000  0.78265000  1.0
  C  C76  1  0.84796000  0.55973000  0.21706000  1.0
  C  C77  1  0.41378000  0.49632000  0.67546000  1.0
  C  C78  1  0.73783000  0.50416000  0.32475000  1.0
  C  C79  1  0.34830000  0.44436000  0.73592000  1.0
  C  C80  1  0.61177000  0.55561000  0.26415000  1.0
  C  C81  1  0.49031000  0.35722000  0.88716000  1.0
  C  C82  1  0.60235000  0.64245000  0.11257000  1.0
  C  C83  1  0.36553000  0.37412000  0.93530000  1.0
  C  C84  1  0.42973000  0.62537000  0.06461000  1.0
  C  C85  1  0.37838000  0.32756000  0.02099000  1.0
  C  C86  1  0.35713000  0.67194000  0.97894000  1.0
  C  C87  1  0.51077000  0.26450000  0.05918000  1.0
  C  C88  1  0.45132000  0.73517000  0.94064000  1.0
  C  C89  1  0.63595000  0.25077000  0.01095000  1.0
  C  C90  1  0.62436000  0.74910000  0.98870000  1.0
  C  C91  1  0.62585000  0.29557000  0.92463000  1.0
  C  C92  1  0.70026000  0.70427000  0.07495000  1.0
  C  C93  1  0.87519000  0.14361000  0.00073000  1.0
  C  C94  1  0.87389000  0.85612000  0.99921000  1.0
  C  C95  1  0.99988000  0.13179000  0.15578000  1.0
  C  C96  1  0.84514000  0.86839000  0.84429000  1.0
  C  C97  1  0.85661000  0.18543000  0.15058000  1.0
  C  C98  1  0.70663000  0.81487000  0.84924000  1.0
  C  C99  1  0.29496000  0.36879000  0.17278000  1.0
  C  C100  1  0.12266000  0.63094000  0.82721000  1.0
  C  C101  1  0.08517000  0.36181000  0.03368000  1.0
  C  C102  1  0.05133000  0.63783000  0.96643000  1.0
  C  C103  1  0.02365000  0.38890000  0.11135000  1.0
  C  C104  1  0.91249000  0.61106000  0.88884000  1.0
  N  N105  1  0.58991000  0.49427000  0.70639000  1.0
  N  N106  1  0.88304000  0.50637000  0.29360000  1.0
  N  N107  1  0.48846000  0.40895000  0.80452000  1.0
  N  N108  1  0.68319000  0.59091000  0.19522000  1.0
  N  N109  1  0.77752000  0.19241000  0.05141000  1.0
  N  N110  1  0.72575000  0.80762000  0.94835000  1.0
  N  N111  1  0.00908000  0.10608000  0.06213000  1.0
  N  N112  1  0.94726000  0.89372000  0.93803000  1.0
  N  N113  1  0.25800000  0.34872000  0.07349000  1.0
  N  N114  1  0.18462000  0.65075000  0.92653000  1.0
  N  N115  1  0.15571000  0.39397000  0.19718000  1.0
  N  N116  1  0.95907000  0.60607000  0.80289000  1.0
  O  O117  1  0.58286000  0.62929000  0.51585000  1.0
  O  O118  1  0.06757000  0.37053000  0.48385000  1.0
  O  O119  1  0.71002000  0.74183000  0.63724000  1.0
  O  O120  1  0.07384000  0.25782000  0.36252000  1.0
  O  O121  1  0.20658000  0.57822000  0.47012000  1.0
  O  O122  1  0.73721000  0.42210000  0.53002000  1.0
  O  O123  1  0.27120000  0.61538000  0.33448000  1.0
  O  O124  1  0.93680000  0.38452000  0.66534000  1.0
  O  O125  1  0.99288000  0.75951000  0.39208000  1.0
  O  O126  1  0.60010000  0.24082000  0.60774000  1.0
  O  O127  1  0.27912000  0.89925000  0.13642000  1.0
  O  O128  1  0.14217000  0.10007000  0.86416000  1.0
  O  O129  1  0.44302000  0.02461000  0.11784000  1.0
  O  O130  1  0.32534000  0.97514000  0.88266000  1.0
  O  O131  1  0.03099000  0.63614000  0.59762000  1.0
  O  O132  1  0.43379000  0.36462000  0.40236000  1.0
