# generated using pymatgen
data_ZnH11C11N5O3
_symmetry_space_group_name_H-M   'P 1'
_cell_length_a   9.75128000
_cell_length_b   10.04880000
_cell_length_c   26.69000000
_cell_angle_alpha   89.99990000
_cell_angle_beta   90.00000000
_cell_angle_gamma   89.99990000
_symmetry_Int_Tables_number   1
_chemical_formula_structural   ZnH11C11N5O3
_chemical_formula_sum   'Zn8 H88 C88 N40 O24'
_cell_volume   2615.31740116
_cell_formula_units_Z   8
loop_
 _symmetry_equiv_pos_site_id
 _symmetry_equiv_pos_as_xyz
  1  'x, y, z'
loop_
 _atom_site_type_symbol
 _atom_site_label
 _atom_site_symmetry_multiplicity
 _atom_site_fract_x
 _atom_site_fract_y
 _atom_site_fract_z
 _atom_site_occupancy
  Zn  Zn0  1  0.08411000  0.88388000  0.54361000  1.0
  Zn  Zn1  1  0.58411000  0.61612000  0.45639000  1.0
  Zn  Zn2  1  0.91589000  0.11612000  0.04361000  1.0
  Zn  Zn3  1  0.41589000  0.38388000  0.95639000  1.0
  Zn  Zn4  1  0.91589000  0.11612000  0.45639000  1.0
  Zn  Zn5  1  0.41589000  0.38388000  0.54361000  1.0
  Zn  Zn6  1  0.08411000  0.88388000  0.95639000  1.0
  Zn  Zn7  1  0.58411000  0.61612000  0.04361000  1.0
  H  H8  1  0.98651000  0.63949000  0.65661000  1.0
  H  H9  1  0.48651000  0.86051000  0.34339000  1.0
  H  H10  1  0.01349000  0.36051000  0.15661000  1.0
  H  H11  1  0.51349000  0.13949000  0.84339000  1.0
  H  H12  1  0.01349000  0.36051000  0.34339000  1.0
  H  H13  1  0.51349000  0.13949000  0.65661000  1.0
  H  H14  1  0.98651000  0.63949000  0.84339000  1.0
  H  H15  1  0.48651000  0.86051000  0.15661000  1.0
  H  H16  1  0.87653000  0.45719000  0.70307000  1.0
  H  H17  1  0.37653000  0.04281000  0.29693000  1.0
  H  H18  1  0.12347000  0.54281000  0.20307000  1.0
  H  H19  1  0.62347000  0.95719000  0.79693000  1.0
  H  H20  1  0.12347000  0.54281000  0.29693000  1.0
  H  H21  1  0.62347000  0.95719000  0.70308000  1.0
  H  H22  1  0.87654000  0.45719000  0.79693000  1.0
  H  H23  1  0.37653000  0.04281000  0.20307000  1.0
  H  H24  1  0.24243000  0.02897000  0.70343000  1.0
  H  H25  1  0.74243000  0.47103000  0.29657000  1.0
  H  H26  1  0.75757000  0.97102000  0.20343000  1.0
  H  H27  1  0.25757000  0.52897000  0.79657000  1.0
  H  H28  1  0.75758000  0.97102000  0.29657000  1.0
  H  H29  1  0.25757000  0.52897000  0.70343000  1.0
  H  H30  1  0.24243000  0.02897000  0.79657000  1.0
  H  H31  1  0.74243000  0.47103000  0.20343000  1.0
  H  H32  1  0.35390000  0.84758000  0.46855000  1.0
  H  H33  1  0.85390000  0.65242000  0.53145000  1.0
  H  H34  1  0.64609000  0.15242000  0.96856000  1.0
  H  H35  1  0.14609000  0.34758000  0.03144000  1.0
  H  H36  1  0.64610000  0.15242000  0.53144000  1.0
  H  H37  1  0.14610000  0.34758000  0.46855000  1.0
  H  H38  1  0.35390000  0.84758000  0.03145000  1.0
  H  H39  1  0.85391000  0.65242000  0.96856000  1.0
  H  H40  1  0.16283000  0.58179000  0.56897000  1.0
  H  H41  1  0.66283000  0.91822000  0.43103000  1.0
  H  H42  1  0.83717000  0.41821000  0.06897000  1.0
  H  H43  1  0.33717000  0.08179000  0.93103000  1.0
  H  H44  1  0.83717000  0.41821000  0.43103000  1.0
  H  H45  1  0.33717000  0.08179000  0.56897000  1.0
  H  H46  1  0.16283000  0.58179000  0.93103000  1.0
  H  H47  1  0.66283000  0.91821000  0.06897000  1.0
  H  H48  1  0.94741000  0.87764000  0.36245000  1.0
  H  H49  1  0.44741000  0.62236000  0.63755000  1.0
  H  H50  1  0.05259000  0.12235000  0.86245000  1.0
  H  H51  1  0.55260000  0.37764000  0.13755000  1.0
  H  H52  1  0.05259000  0.12236000  0.63755000  1.0
  H  H53  1  0.55259000  0.37765000  0.36245000  1.0
  H  H54  1  0.94741000  0.87764000  0.13755000  1.0
  H  H55  1  0.44741000  0.62236000  0.86245000  1.0
  H  H56  1  0.96582000  0.74657000  0.31785000  1.0
  H  H57  1  0.46582000  0.75343000  0.68215000  1.0
  H  H58  1  0.03418000  0.25343000  0.81785000  1.0
  H  H59  1  0.53418000  0.24657000  0.18215000  1.0
  H  H60  1  0.03418000  0.25343000  0.68215000  1.0
  H  H61  1  0.53418000  0.24657000  0.31785000  1.0
  H  H62  1  0.96582000  0.74657000  0.18215000  1.0
  H  H63  1  0.46582000  0.75343000  0.81785000  1.0
  H  H64  1  0.19745000  0.83091000  0.31399000  1.0
  H  H65  1  0.69745000  0.66909000  0.68601000  1.0
  H  H66  1  0.80255000  0.16909000  0.81399000  1.0
  H  H67  1  0.30255000  0.33091000  0.18601000  1.0
  H  H68  1  0.80255000  0.16909000  0.68601000  1.0
  H  H69  1  0.30255000  0.33091000  0.31399000  1.0
  H  H70  1  0.19745000  0.83091000  0.18601000  1.0
  H  H71  1  0.69745000  0.66909000  0.81399000  1.0
  H  H72  1  0.19269000  0.89138000  0.37682000  1.0
  H  H73  1  0.69269000  0.60862000  0.62318000  1.0
  H  H74  1  0.80731000  0.10862000  0.87683000  1.0
  H  H75  1  0.30731000  0.39138000  0.12317000  1.0
  H  H76  1  0.80731000  0.10862000  0.62318000  1.0
  H  H77  1  0.30731000  0.39138000  0.37683000  1.0
  H  H78  1  0.19269000  0.89138000  0.12317000  1.0
  H  H79  1  0.69269000  0.60862000  0.87682000  1.0
  H  H80  1  0.90212000  0.63662000  0.39556000  1.0
  H  H81  1  0.40212000  0.86338000  0.60444000  1.0
  H  H82  1  0.09788000  0.36338000  0.89556000  1.0
  H  H83  1  0.59788000  0.13662000  0.10444000  1.0
  H  H84  1  0.09788000  0.36338000  0.60444000  1.0
  H  H85  1  0.59788000  0.13662000  0.39556000  1.0
  H  H86  1  0.90212000  0.63662000  0.10444000  1.0
  H  H87  1  0.40212000  0.86338000  0.89557000  1.0
  H  H88  1  0.31371000  0.66765000  0.37729000  1.0
  H  H89  1  0.81371000  0.83235000  0.62271000  1.0
  H  H90  1  0.68629000  0.33234000  0.87729000  1.0
  H  H91  1  0.18629000  0.16766000  0.12271000  1.0
  H  H92  1  0.68629000  0.33235000  0.62271000  1.0
  H  H93  1  0.18630000  0.16765000  0.37729000  1.0
  H  H94  1  0.31371000  0.66765000  0.12271000  1.0
  H  H95  1  0.81371000  0.83234000  0.87729000  1.0
  C  C96  1  0.12371000  0.86961000  0.64125000  1.0
  C  C97  1  0.62371000  0.63039000  0.35874000  1.0
  C  C98  1  0.87629000  0.13039000  0.14126000  1.0
  C  C99  1  0.37629000  0.36961000  0.85875000  1.0
  C  C100  1  0.87629000  0.13038000  0.35875000  1.0
  C  C101  1  0.37629000  0.36961000  0.64125000  1.0
  C  C102  1  0.12371000  0.86961000  0.85874000  1.0
  C  C103  1  0.62372000  0.63039000  0.14125000  1.0
  C  C104  1  0.11851000  0.85433000  0.69699000  1.0
  C  C105  1  0.61851000  0.64567000  0.30301000  1.0
  C  C106  1  0.88149000  0.14567000  0.19699000  1.0
  C  C107  1  0.38149000  0.35433000  0.80301000  1.0
  C  C108  1  0.88149000  0.14567000  0.30301000  1.0
  C  C109  1  0.38149000  0.35433000  0.69699000  1.0
  C  C110  1  0.11851000  0.85433000  0.80301000  1.0
  C  C111  1  0.61851000  0.64567000  0.19699000  1.0
  C  C112  1  0.05011000  0.74844000  0.72288000  1.0
  C  C113  1  0.55011000  0.75156000  0.27712000  1.0
  C  C114  1  0.94990000  0.25155000  0.22288000  1.0
  C  C115  1  0.44989000  0.24845000  0.77712000  1.0
  C  C116  1  0.94989000  0.25156000  0.27712000  1.0
  C  C117  1  0.44989000  0.24845000  0.72288000  1.0
  C  C118  1  0.05011000  0.74844000  0.77712000  1.0
  C  C119  1  0.55011000  0.75156000  0.22288000  1.0
  C  C120  1  0.98709000  0.64040000  0.69739000  1.0
  C  C121  1  0.48708000  0.85960000  0.30261000  1.0
  C  C122  1  0.01292000  0.35960000  0.19739000  1.0
  C  C123  1  0.51291000  0.14040000  0.80261000  1.0
  C  C124  1  0.01292000  0.35959000  0.30261000  1.0
  C  C125  1  0.51292000  0.14041000  0.69739000  1.0
  C  C126  1  0.98708000  0.64040000  0.80261000  1.0
  C  C127  1  0.48708000  0.85960000  0.19739000  1.0
  C  C128  1  0.92614000  0.53782000  0.72358000  1.0
  C  C129  1  0.42614000  0.96218000  0.27642000  1.0
  C  C130  1  0.07386000  0.46217000  0.22358000  1.0
  C  C131  1  0.57386000  0.03783000  0.77642000  1.0
  C  C132  1  0.07386000  0.46217000  0.27642000  1.0
  C  C133  1  0.57386000  0.03783000  0.72358000  1.0
  C  C134  1  0.92614000  0.53782000  0.77642000  1.0
  C  C135  1  0.42614000  0.96218000  0.22358000  1.0
  C  C136  1  0.18750000  0.95178000  0.72380000  1.0
  C  C137  1  0.68750000  0.54822000  0.27620000  1.0
  C  C138  1  0.81250000  0.04822000  0.22380000  1.0
  C  C139  1  0.31250000  0.45178000  0.77620000  1.0
  C  C140  1  0.81250000  0.04822000  0.27620000  1.0
  C  C141  1  0.31250000  0.45178000  0.72380000  1.0
  C  C142  1  0.18750000  0.95178000  0.77620000  1.0
  C  C143  1  0.68750000  0.54822000  0.22380000  1.0
  C  C144  1  0.33085000  0.76014000  0.49129000  1.0
  C  C145  1  0.83085000  0.73986000  0.50871000  1.0
  C  C146  1  0.66914000  0.23986000  0.99129000  1.0
  C  C147  1  0.16914000  0.26014000  0.00871000  1.0
  C  C148  1  0.66915000  0.23986000  0.50871000  1.0
  C  C149  1  0.16915000  0.26014000  0.49129000  1.0
  C  C150  1  0.33086000  0.76014000  0.00871000  1.0
  C  C151  1  0.83086000  0.73986000  0.99129000  1.0
  C  C152  1  0.23385000  0.62527000  0.54239000  1.0
  C  C153  1  0.73385000  0.87473000  0.45761000  1.0
  C  C154  1  0.76614000  0.37473000  0.04239000  1.0
  C  C155  1  0.26614000  0.12527000  0.95761000  1.0
  C  C156  1  0.76615000  0.37473000  0.45761000  1.0
  C  C157  1  0.26615000  0.12527000  0.54239000  1.0
  C  C158  1  0.23386000  0.62527000  0.95761000  1.0
  C  C159  1  0.73386000  0.87473000  0.04239000  1.0
  C  C160  1  0.11329000  0.61768000  0.39834000  1.0
  C  C161  1  0.61329000  0.88232000  0.60166000  1.0
  C  C162  1  0.88671000  0.38232000  0.89834000  1.0
  C  C163  1  0.38671000  0.11768000  0.10166000  1.0
  C  C164  1  0.88671000  0.38232000  0.60166000  1.0
  C  C165  1  0.38671000  0.11768000  0.39834000  1.0
  C  C166  1  0.11329000  0.61768000  0.10166000  1.0
  C  C167  1  0.61329000  0.88232000  0.89834000  1.0
  C  C168  1  0.00467000  0.78676000  0.35369000  1.0
  C  C169  1  0.50467000  0.71324000  0.64631000  1.0
  C  C170  1  0.99533000  0.21324000  0.85369000  1.0
  C  C171  1  0.49534000  0.28676000  0.14631000  1.0
  C  C172  1  0.99533000  0.21324000  0.64631000  1.0
  C  C173  1  0.49533000  0.28676000  0.35369000  1.0
  C  C174  1  0.00467000  0.78676000  0.14631000  1.0
  C  C175  1  0.50467000  0.71324000  0.85369000  1.0
  C  C176  1  0.16047000  0.80953000  0.35195000  1.0
  C  C177  1  0.66047000  0.69047000  0.64805000  1.0
  C  C178  1  0.83953000  0.19047000  0.85195000  1.0
  C  C179  1  0.33953000  0.30953000  0.14805000  1.0
  C  C180  1  0.83953000  0.19048000  0.64805000  1.0
  C  C181  1  0.33953000  0.30953000  0.35195000  1.0
  C  C182  1  0.16047000  0.80953000  0.14805000  1.0
  C  C183  1  0.66047000  0.69047000  0.85195000  1.0
  N  N184  1  0.22080000  0.74742000  0.52189000  1.0
  N  N185  1  0.72080000  0.75258000  0.47811000  1.0
  N  N186  1  0.77919000  0.25258000  0.02190000  1.0
  N  N187  1  0.27919000  0.24742000  0.97810000  1.0
  N  N188  1  0.77920000  0.25258000  0.47810000  1.0
  N  N189  1  0.27920000  0.24742000  0.52189000  1.0
  N  N190  1  0.22080000  0.74742000  0.97810000  1.0
  N  N191  1  0.72081000  0.75258000  0.02190000  1.0
  N  N192  1  0.34627000  0.56477000  0.52575000  1.0
  N  N193  1  0.84627000  0.93523000  0.47425000  1.0
  N  N194  1  0.65373000  0.43522000  0.02575000  1.0
  N  N195  1  0.15373000  0.06477000  0.97425000  1.0
  N  N196  1  0.65373000  0.43523000  0.47425000  1.0
  N  N197  1  0.15373000  0.06477000  0.52575000  1.0
  N  N198  1  0.34627000  0.56477000  0.97425000  1.0
  N  N199  1  0.84627000  0.93523000  0.02575000  1.0
  N  N200  1  0.40769000  0.65082000  0.49283000  1.0
  N  N201  1  0.90769000  0.84918000  0.50717000  1.0
  N  N202  1  0.59230000  0.34918000  0.99283000  1.0
  N  N203  1  0.09230000  0.15082000  0.00717000  1.0
  N  N204  1  0.59231000  0.34918000  0.50717000  1.0
  N  N205  1  0.09231000  0.15082000  0.49283000  1.0
  N  N206  1  0.40769000  0.65082000  0.00717000  1.0
  N  N207  1  0.90769000  0.84918000  0.99283000  1.0
  N  N208  1  0.99239000  0.68810000  0.39365000  1.0
  N  N209  1  0.49239000  0.81190000  0.60635000  1.0
  N  N210  1  0.00761000  0.31190000  0.89365000  1.0
  N  N211  1  0.50761000  0.18810000  0.10635000  1.0
  N  N212  1  0.00761000  0.31190000  0.60635000  1.0
  N  N213  1  0.50761000  0.18810000  0.39365000  1.0
  N  N214  1  0.99239000  0.68810000  0.10635000  1.0
  N  N215  1  0.49239000  0.81190000  0.89365000  1.0
  N  N216  1  0.21174000  0.68158000  0.37026000  1.0
  N  N217  1  0.71174000  0.81842000  0.62974000  1.0
  N  N218  1  0.78826000  0.31842000  0.87026000  1.0
  N  N219  1  0.28826000  0.18158000  0.12974000  1.0
  N  N220  1  0.78826000  0.31842000  0.62974000  1.0
  N  N221  1  0.28826000  0.18158000  0.37026000  1.0
  N  N222  1  0.21174000  0.68158000  0.12974000  1.0
  N  N223  1  0.71174000  0.81842000  0.87026000  1.0
  O  O224  1  0.02004000  0.83409000  0.61380000  1.0
  O  O225  1  0.52004000  0.66591000  0.38620000  1.0
  O  O226  1  0.97996000  0.16591000  0.11380000  1.0
  O  O227  1  0.47996000  0.33409000  0.88620000  1.0
  O  O228  1  0.97996000  0.16591000  0.38620000  1.0
  O  O229  1  0.47996000  0.33409000  0.61380000  1.0
  O  O230  1  0.02004000  0.83409000  0.88620000  1.0
  O  O231  1  0.52004000  0.66592000  0.11380000  1.0
  O  O232  1  0.22798000  0.92290000  0.62177000  1.0
  O  O233  1  0.72798000  0.57710000  0.37823000  1.0
  O  O234  1  0.77202000  0.07710000  0.12177000  1.0
  O  O235  1  0.27201000  0.42291000  0.87823000  1.0
  O  O236  1  0.77202000  0.07710000  0.37823000  1.0
  O  O237  1  0.27201000  0.42290000  0.62177000  1.0
  O  O238  1  0.22798000  0.92290000  0.87823000  1.0
  O  O239  1  0.72799000  0.57709000  0.12177000  1.0
  O  O240  1  0.12914000  0.51389000  0.42326000  1.0
  O  O241  1  0.62914000  0.98611000  0.57674000  1.0
  O  O242  1  0.87086000  0.48611000  0.92326000  1.0
  O  O243  1  0.37086000  0.01389000  0.07674000  1.0
  O  O244  1  0.87086000  0.48611000  0.57673000  1.0
  O  O245  1  0.37086000  0.01389000  0.42326000  1.0
  O  O246  1  0.12914000  0.51389000  0.07674000  1.0
  O  O247  1  0.62915000  0.98612000  0.92326000  1.0
