# generated using pymatgen
data_CdCoH14C22N4O9
_symmetry_space_group_name_H-M   'P 1'
_cell_length_a   8.80379000
_cell_length_b   9.94556000
_cell_length_c   13.93900000
_cell_angle_alpha   99.96980000
_cell_angle_beta   102.63800000
_cell_angle_gamma   110.63800000
_symmetry_Int_Tables_number   1
_chemical_formula_structural   CdCoH14C22N4O9
_chemical_formula_sum   'Cd2 Co2 H28 C44 N8 O18'
_cell_volume   1071.81843597
_cell_formula_units_Z   2
loop_
 _symmetry_equiv_pos_site_id
 _symmetry_equiv_pos_as_xyz
  1  'x, y, z'
loop_
 _atom_site_type_symbol
 _atom_site_label
 _atom_site_symmetry_multiplicity
 _atom_site_fract_x
 _atom_site_fract_y
 _atom_site_fract_z
 _atom_site_occupancy
  Cd  Cd0  1  0.94458000  0.90871000  0.59945000  1.0
  Cd  Cd1  1  0.05541000  0.09129000  0.40055000  1.0
  Co  Co2  1  0.81104000  0.98653000  0.03425000  1.0
  Co  Co3  1  0.18895000  0.01347000  0.96575000  1.0
  H  H4  1  0.20042000  0.50778000  0.26737000  1.0
  H  H5  1  0.79958000  0.49222000  0.73263000  1.0
  H  H6  1  0.92697000  0.69703000  0.07358000  1.0
  H  H7  1  0.07303000  0.30297000  0.92642000  1.0
  H  H8  1  0.35244000  0.98435000  0.33753000  1.0
  H  H9  1  0.64756000  0.01564000  0.66247000  1.0
  H  H10  1  0.27023000  0.56879000  0.44308000  1.0
  H  H11  1  0.72977000  0.43121000  0.55692000  1.0
  H  H12  1  0.58076000  0.65883000  0.59213000  1.0
  H  H13  1  0.41924000  0.34117000  0.40786000  1.0
  H  H14  1  0.64092000  0.94713000  0.39993000  1.0
  H  H15  1  0.35908000  0.05287000  0.60007000  1.0
  H  H16  1  0.72709000  0.47651000  0.01302000  1.0
  H  H17  1  0.27291000  0.52349000  0.98698000  1.0
  H  H18  1  0.58440000  0.16791000  0.94643000  1.0
  H  H19  1  0.41560000  0.83208000  0.05357000  1.0
  H  H20  1  0.07419000  0.30696000  0.15358000  1.0
  H  H21  1  0.92581000  0.69305000  0.84642000  1.0
  H  H22  1  0.00275000  0.41331000  0.58323000  1.0
  H  H23  1  0.99725000  0.58669000  0.41677000  1.0
  H  H24  1  0.41061000  0.82226000  0.78205000  1.0
  H  H25  1  0.58939000  0.17774000  0.21795000  1.0
  H  H26  1  0.43473000  0.40235000  0.79341000  1.0
  H  H27  1  0.56527000  0.59765000  0.20659000  1.0
  H  H28  1  0.73347000  0.03033000  0.20578000  1.0
  H  H29  1  0.26653000  0.96967000  0.79422000  1.0
  H  H30  1  0.72386000  0.87134000  0.18011000  1.0
  H  H31  1  0.27614000  0.12866000  0.81989000  1.0
  C  C32  1  0.29195000  0.74678000  0.30848000  1.0
  C  C33  1  0.70804000  0.25322000  0.69152000  1.0
  C  C34  1  0.18317000  0.60323000  0.24696000  1.0
  C  C35  1  0.81683000  0.39677000  0.75304000  1.0
  C  C36  1  0.05065000  0.58457000  0.16260000  1.0
  C  C37  1  0.94935000  0.41543000  0.83740000  1.0
  C  C38  1  0.02909000  0.70854000  0.13917000  1.0
  C  C39  1  0.97091000  0.29146000  0.86083000  1.0
  C  C40  1  0.13909000  0.85191000  0.20204000  1.0
  C  C41  1  0.86091000  0.14809000  0.79796000  1.0
  C  C42  1  0.27169000  0.87268000  0.28735000  1.0
  C  C43  1  0.72831000  0.12732000  0.71265000  1.0
  C  C44  1  0.39301000  0.66001000  0.45734000  1.0
  C  C45  1  0.60700000  0.33999000  0.54266000  1.0
  C  C46  1  0.54683000  0.70493000  0.52986000  1.0
  C  C47  1  0.45318000  0.29506000  0.47014000  1.0
  C  C48  1  0.58465000  0.85895000  0.43399000  1.0
  C  C49  1  0.41536000  0.14105000  0.56601000  1.0
  C  C50  1  0.77627000  0.39607000  0.03340000  1.0
  C  C51  1  0.22373000  0.60393000  0.96661000  1.0
  C  C52  1  0.70757000  0.24329000  0.00026000  1.0
  C  C53  1  0.29243000  0.75671000  0.99974000  1.0
  C  C54  1  0.95906000  0.31048000  0.10905000  1.0
  C  C55  1  0.04094000  0.68952000  0.89095000  1.0
  C  C56  1  0.09926000  0.98028000  0.18021000  1.0
  C  C57  1  0.90073000  0.01972000  0.81979000  1.0
  C  C58  1  0.21256000  0.39048000  0.68146000  1.0
  C  C59  1  0.78744000  0.60952000  0.31854000  1.0
  C  C60  1  0.12608000  0.47189000  0.64137000  1.0
  C  C61  1  0.87392000  0.52811000  0.35863000  1.0
  C  C62  1  0.19539000  0.62741000  0.67862000  1.0
  C  C63  1  0.80461000  0.37259000  0.32138000  1.0
  C  C64  1  0.35458000  0.70123000  0.75292000  1.0
  C  C65  1  0.64542000  0.29877000  0.24708000  1.0
  C  C66  1  0.44169000  0.62106000  0.79439000  1.0
  C  C67  1  0.55831000  0.37894000  0.20561000  1.0
  C  C68  1  0.36973000  0.46519000  0.75871000  1.0
  C  C69  1  0.63027000  0.53482000  0.24129000  1.0
  C  C70  1  0.12728000  0.22432000  0.65010000  1.0
  C  C71  1  0.87272000  0.77568000  0.34990000  1.0
  C  C72  1  0.09534000  0.71396000  0.64555000  1.0
  C  C73  1  0.90466000  0.28604000  0.35444000  1.0
  C  C74  1  0.60216000  0.70279000  0.88337000  1.0
  C  C75  1  0.39784000  0.29721000  0.11663000  1.0
  N  N76  1  0.82301000  0.19176000  0.04785000  1.0
  N  N77  1  0.17699000  0.80824000  0.95216000  1.0
  N  N78  1  0.93586000  0.43794000  0.10307000  1.0
  N  N79  1  0.06414000  0.56206000  0.89693000  1.0
  N  N80  1  0.66480000  0.82775000  0.51421000  1.0
  N  N81  1  0.33520000  0.17225000  0.48579000  1.0
  N  N82  1  0.41846000  0.75870000  0.39695000  1.0
  N  N83  1  0.58154000  0.24130000  0.60305000  1.0
  O  O84  1  0.01704000  0.95839000  0.08587000  1.0
  O  O85  1  0.98295000  0.04160000  0.91413000  1.0
  O  O86  1  0.13869000  0.09658000  0.24991000  1.0
  O  O87  1  0.86131000  0.90342000  0.75009000  1.0
  O  O88  1  0.00625000  0.15446000  0.56533000  1.0
  O  O89  1  0.99375000  0.84554000  0.43467000  1.0
  O  O90  1  0.17138000  0.15341000  0.71040000  1.0
  O  O91  1  0.82862000  0.84658000  0.28959000  1.0
  O  O92  1  0.93763000  0.64824000  0.59904000  1.0
  O  O93  1  0.06237000  0.35177000  0.40096000  1.0
  O  O94  1  0.17561000  0.85776000  0.66893000  1.0
  O  O95  1  0.82439000  0.14224000  0.33106000  1.0
  O  O96  1  0.68117000  0.63416000  0.92361000  1.0
  O  O97  1  0.31883000  0.36584000  0.07639000  1.0
  O  O98  1  0.64366000  0.84594000  0.91256000  1.0
  O  O99  1  0.35634000  0.15406000  0.08744000  1.0
  O  O100  1  0.69456000  0.94219000  0.14540000  1.0
  O  O101  1  0.30543000  0.05781000  0.85460000  1.0
