# generated using pymatgen
data_CuH14C21(NO2)2
_symmetry_space_group_name_H-M   'P 1'
_cell_length_a   5.00663000
_cell_length_b   13.92840000
_cell_length_c   25.72270000
_cell_angle_alpha   89.99920000
_cell_angle_beta   89.99890000
_cell_angle_gamma   82.50220000
_symmetry_Int_Tables_number   1
_chemical_formula_structural   CuH14C21(NO2)2
_chemical_formula_sum   'Cu4 H56 C84 N8 O16'
_cell_volume   1778.41880372
_cell_formula_units_Z   4
loop_
 _symmetry_equiv_pos_site_id
 _symmetry_equiv_pos_as_xyz
  1  'x, y, z'
loop_
 _atom_site_type_symbol
 _atom_site_label
 _atom_site_symmetry_multiplicity
 _atom_site_fract_x
 _atom_site_fract_y
 _atom_site_fract_z
 _atom_site_occupancy
  Cu  Cu0  1  0.56410000  0.28707000  0.23736000  1.0
  Cu  Cu1  1  0.06415000  0.78707000  0.26264000  1.0
  Cu  Cu2  1  0.43591000  0.71292000  0.76264000  1.0
  Cu  Cu3  1  0.93587000  0.21293000  0.73736000  1.0
  H  H4  1  0.95632000  0.13477000  0.03371000  1.0
  H  H5  1  0.45637000  0.63475000  0.46629000  1.0
  H  H6  1  0.04362000  0.86525000  0.96629000  1.0
  H  H7  1  0.54363000  0.36525000  0.53371000  1.0
  H  H8  1  0.46683000  0.19266000  0.33416000  1.0
  H  H9  1  0.96684000  0.69266000  0.16584000  1.0
  H  H10  1  0.53318000  0.80733000  0.66585000  1.0
  H  H11  1  0.03317000  0.30735000  0.83415000  1.0
  H  H12  1  0.44682000  0.11243000  0.16789000  1.0
  H  H13  1  0.94685000  0.61243000  0.33212000  1.0
  H  H14  1  0.55318000  0.88756000  0.83211000  1.0
  H  H15  1  0.05312000  0.38757000  0.66788000  1.0
  H  H16  1  0.79341000  0.46909000  0.27904000  1.0
  H  H17  1  0.29346000  0.96910000  0.22097000  1.0
  H  H18  1  0.20660000  0.53090000  0.72097000  1.0
  H  H19  1  0.70658000  0.03090000  0.77903000  1.0
  H  H20  1  0.41640000  0.08157000  0.39940000  1.0
  H  H21  1  0.91637000  0.58157000  0.10061000  1.0
  H  H22  1  0.58361000  0.91842000  0.60061000  1.0
  H  H23  1  0.08360000  0.41844000  0.89940000  1.0
  H  H24  1  0.79276000  0.32136000  0.37931000  1.0
  H  H25  1  0.29277000  0.82139000  0.12070000  1.0
  H  H26  1  0.20727000  0.67863000  0.62069000  1.0
  H  H27  1  0.70723000  0.17863000  0.87930000  1.0
  H  H28  1  0.37460000  0.42092000  0.07690000  1.0
  H  H29  1  0.87465000  0.92091000  0.42309000  1.0
  H  H30  1  0.62536000  0.57909000  0.92309000  1.0
  H  H31  1  0.12535000  0.07909000  0.57691000  1.0
  H  H32  1  0.35422000  0.52956000  0.15898000  1.0
  H  H33  1  0.85426000  0.02955000  0.34102000  1.0
  H  H34  1  0.64577000  0.47044000  0.84101000  1.0
  H  H35  1  0.14577000  0.97044000  0.65898000  1.0
  H  H36  1  0.75126000  0.12401000  0.50685000  1.0
  H  H37  1  0.25124000  0.62403000  0.99316000  1.0
  H  H38  1  0.24872000  0.87598000  0.49315000  1.0
  H  H39  1  0.74877000  0.37598000  0.00684000  1.0
  H  H40  1  0.63043000  0.04569000  0.08299000  1.0
  H  H41  1  0.13045000  0.54568000  0.41701000  1.0
  H  H42  1  0.36954000  0.95432000  0.91700000  1.0
  H  H43  1  0.86950000  0.45433000  0.58299000  1.0
  H  H44  1  0.15093000  0.56739000  0.24527000  1.0
  H  H45  1  0.65099000  0.06740000  0.25473000  1.0
  H  H46  1  0.84907000  0.43261000  0.75473000  1.0
  H  H47  1  0.34905000  0.93261000  0.74527000  1.0
  H  H48  1  0.23522000  0.27906000  0.03210000  1.0
  H  H49  1  0.73526000  0.77905000  0.46790000  1.0
  H  H50  1  0.76473000  0.72094000  0.96789000  1.0
  H  H51  1  0.26474000  0.22094000  0.53211000  1.0
  H  H52  1  0.55535000  0.26897000  0.45614000  1.0
  H  H53  1  0.05534000  0.76899000  0.04387000  1.0
  H  H54  1  0.44464000  0.73102000  0.54385000  1.0
  H  H55  1  0.94466000  0.23102000  0.95613000  1.0
  H  H56  1  0.18682000  0.03011000  0.47786000  1.0
  H  H57  1  0.68677000  0.53012000  0.02215000  1.0
  H  H58  1  0.81318000  0.96988000  0.52215000  1.0
  H  H59  1  0.31322000  0.46989000  0.97785000  1.0
  C  C60  1  0.31356000  0.34118000  0.33598000  1.0
  C  C61  1  0.81357000  0.84119000  0.16403000  1.0
  C  C62  1  0.68647000  0.65881000  0.66402000  1.0
  C  C63  1  0.18641000  0.15882000  0.83598000  1.0
  C  C64  1  0.26285000  0.23329000  0.33602000  1.0
  C  C65  1  0.76286000  0.73329000  0.16398000  1.0
  C  C66  1  0.73718000  0.76670000  0.66398000  1.0
  C  C67  1  0.23714000  0.26672000  0.83602000  1.0
  C  C68  1  0.12329000  0.21012000  0.28515000  1.0
  C  C69  1  0.62335000  0.71012000  0.21485000  1.0
  C  C70  1  0.87673000  0.78987000  0.71485000  1.0
  C  C71  1  0.37669000  0.28988000  0.78514000  1.0
  C  C72  1  0.11910000  0.20408000  0.38351000  1.0
  C  C73  1  0.61911000  0.70410000  0.11649000  1.0
  C  C74  1  0.88092000  0.79590000  0.61649000  1.0
  C  C75  1  0.38089000  0.29592000  0.88351000  1.0
  C  C76  1  0.87749000  0.25701000  0.40054000  1.0
  C  C77  1  0.37750000  0.75703000  0.09946000  1.0
  C  C78  1  0.12252000  0.74298000  0.59946000  1.0
  C  C79  1  0.62250000  0.24299000  0.90053000  1.0
  C  C80  1  0.74658000  0.22808000  0.44453000  1.0
  C  C81  1  0.24658000  0.72809000  0.05548000  1.0
  C  C82  1  0.25342000  0.77192000  0.55547000  1.0
  C  C83  1  0.75343000  0.27192000  0.94452000  1.0
  C  C84  1  0.85530000  0.14607000  0.47247000  1.0
  C  C85  1  0.35528000  0.64608000  0.02753000  1.0
  C  C86  1  0.14469000  0.85393000  0.52753000  1.0
  C  C87  1  0.64473000  0.35393000  0.97246000  1.0
  C  C88  1  0.09619000  0.09306000  0.45593000  1.0
  C  C89  1  0.59617000  0.59307000  0.04407000  1.0
  C  C90  1  0.90381000  0.90693000  0.54407000  1.0
  C  C91  1  0.40385000  0.40694000  0.95593000  1.0
  C  C92  1  0.22609000  0.12205000  0.41166000  1.0
  C  C93  1  0.72605000  0.62206000  0.08835000  1.0
  C  C94  1  0.77394000  0.87794000  0.58835000  1.0
  C  C95  1  0.27394000  0.37795000  0.91165000  1.0
  C  C96  1  0.89244000  0.45428000  0.24157000  1.0
  C  C97  1  0.39249000  0.95429000  0.25844000  1.0
  C  C98  1  0.10758000  0.54571000  0.75843000  1.0
  C  C99  1  0.60754000  0.04571000  0.74156000  1.0
  C  C100  1  0.08915000  0.50852000  0.22242000  1.0
  C  C101  1  0.58919000  0.00852000  0.27759000  1.0
  C  C102  1  0.91085000  0.49147000  0.77758000  1.0
  C  C103  1  0.41084000  0.99148000  0.72242000  1.0
  C  C104  1  0.20394000  0.48682000  0.17422000  1.0
  C  C105  1  0.70397000  0.98682000  0.32578000  1.0
  C  C106  1  0.79606000  0.51318000  0.82578000  1.0
  C  C107  1  0.29604000  0.01318000  0.67422000  1.0
  C  C108  1  0.12482000  0.40909000  0.14514000  1.0
  C  C109  1  0.62487000  0.90909000  0.35486000  1.0
  C  C110  1  0.87516000  0.59091000  0.85486000  1.0
  C  C111  1  0.37515000  0.09091000  0.64514000  1.0
  C  C112  1  0.93064000  0.35711000  0.16797000  1.0
  C  C113  1  0.43070000  0.85710000  0.33202000  1.0
  C  C114  1  0.06936000  0.64289000  0.83202000  1.0
  C  C115  1  0.56932000  0.14290000  0.66797000  1.0
  C  C116  1  0.85003000  0.27457000  0.14232000  1.0
  C  C117  1  0.35007000  0.77456000  0.35768000  1.0
  C  C118  1  0.14997000  0.72543000  0.85768000  1.0
  C  C119  1  0.64991000  0.22544000  0.64232000  1.0
  C  C120  1  0.96071000  0.24494000  0.09338000  1.0
  C  C121  1  0.46075000  0.74493000  0.40663000  1.0
  C  C122  1  0.03927000  0.75506000  0.90662000  1.0
  C  C123  1  0.53923000  0.25507000  0.59338000  1.0
  C  C124  1  0.87592000  0.16094000  0.07126000  1.0
  C  C125  1  0.37595000  0.66093000  0.42874000  1.0
  C  C126  1  0.12404000  0.83906000  0.92873000  1.0
  C  C127  1  0.62403000  0.33907000  0.57126000  1.0
  C  C128  1  0.69344000  0.11241000  0.09769000  1.0
  C  C129  1  0.19348000  0.61241000  0.40232000  1.0
  C  C130  1  0.30652000  0.88759000  0.90231000  1.0
  C  C131  1  0.80648000  0.38760000  0.59768000  1.0
  C  C132  1  0.59291000  0.14789000  0.14607000  1.0
  C  C133  1  0.09293000  0.64789000  0.35394000  1.0
  C  C134  1  0.40709000  0.85211000  0.85393000  1.0
  C  C135  1  0.90704000  0.35212000  0.64606000  1.0
  C  C136  1  0.15096000  0.30060000  0.07011000  1.0
  C  C137  1  0.65100000  0.80059000  0.42989000  1.0
  C  C138  1  0.84901000  0.69941000  0.92989000  1.0
  C  C139  1  0.34900000  0.19941000  0.57011000  1.0
  C  C140  1  0.22926000  0.37932000  0.09493000  1.0
  C  C141  1  0.72931000  0.87931000  0.40507000  1.0
  C  C142  1  0.77071000  0.62068000  0.90506000  1.0
  C  C143  1  0.27069000  0.12069000  0.59493000  1.0
  N  N144  1  0.66922000  0.22669000  0.16767000  1.0
  N  N145  1  0.16926000  0.72669000  0.33234000  1.0
  N  N146  1  0.33078000  0.77331000  0.83233000  1.0
  N  N147  1  0.83074000  0.27332000  0.66766000  1.0
  N  N148  1  0.81642000  0.38059000  0.21493000  1.0
  N  N149  1  0.31648000  0.88059000  0.28507000  1.0
  N  N150  1  0.18359000  0.61940000  0.78507000  1.0
  N  N151  1  0.68356000  0.11941000  0.71493000  1.0
  O  O152  1  0.23243000  0.39623000  0.37213000  1.0
  O  O153  1  0.73248000  0.89624000  0.12787000  1.0
  O  O154  1  0.76758000  0.60377000  0.62787000  1.0
  O  O155  1  0.26751000  0.10378000  0.87213000  1.0
  O  O156  1  0.45089000  0.36821000  0.29697000  1.0
  O  O157  1  0.95090000  0.86821000  0.20304000  1.0
  O  O158  1  0.54915000  0.63177000  0.70304000  1.0
  O  O159  1  0.04906000  0.13180000  0.79697000  1.0
  O  O160  1  0.88808000  0.18840000  0.28593000  1.0
  O  O161  1  0.38812000  0.68839000  0.21408000  1.0
  O  O162  1  0.11193000  0.81159000  0.71407000  1.0
  O  O163  1  0.61190000  0.31161000  0.78592000  1.0
  O  O164  1  0.25837000  0.21387000  0.24253000  1.0
  O  O165  1  0.75839000  0.71387000  0.25747000  1.0
  O  O166  1  0.74166000  0.78613000  0.75747000  1.0
  O  O167  1  0.24162000  0.28612000  0.74252000  1.0
