# generated using pymatgen
data_CdH10C12N2O5
_symmetry_space_group_name_H-M   'P 1'
_cell_length_a   5.91634000
_cell_length_b   11.35830000
_cell_length_c   27.44590000
_cell_angle_alpha   90.00020000
_cell_angle_beta   89.99610000
_cell_angle_gamma   89.99940000
_symmetry_Int_Tables_number   1
_chemical_formula_structural   CdH10C12N2O5
_chemical_formula_sum   'Cd4 H40 C48 N8 O20'
_cell_volume   1844.35252627
_cell_formula_units_Z   4
loop_
 _symmetry_equiv_pos_site_id
 _symmetry_equiv_pos_as_xyz
  1  'x, y, z'
loop_
 _atom_site_type_symbol
 _atom_site_label
 _atom_site_symmetry_multiplicity
 _atom_site_fract_x
 _atom_site_fract_y
 _atom_site_fract_z
 _atom_site_occupancy
  Cd  Cd0  1  0.26757000  0.86859000  0.62694000  1.0
  Cd  Cd1  1  0.73244000  0.36860000  0.37306000  1.0
  Cd  Cd2  1  0.23246000  0.86859000  0.12693000  1.0
  Cd  Cd3  1  0.76751000  0.36858000  0.87307000  1.0
  H  H4  1  0.04256000  0.98944000  0.53513000  1.0
  H  H5  1  0.95746000  0.48945000  0.46487000  1.0
  H  H6  1  0.45738000  0.98941000  0.03511000  1.0
  H  H7  1  0.54258000  0.48942000  0.96490000  1.0
  H  H8  1  0.14407000  0.11623000  0.46296000  1.0
  H  H9  1  0.85594000  0.61625000  0.53704000  1.0
  H  H10  1  0.35581000  0.11620000  0.96295000  1.0
  H  H11  1  0.64414000  0.61623000  0.03705000  1.0
  H  H12  1  0.76491000  0.20313000  0.53661000  1.0
  H  H13  1  0.23509000  0.70313000  0.46338000  1.0
  H  H14  1  0.73509000  0.20314000  0.03665000  1.0
  H  H15  1  0.26491000  0.70312000  0.96334000  1.0
  H  H16  1  0.63054000  0.08063000  0.60742000  1.0
  H  H17  1  0.36947000  0.58063000  0.39258000  1.0
  H  H18  1  0.86953000  0.08063000  0.10744000  1.0
  H  H19  1  0.13046000  0.58061000  0.89256000  1.0
  H  H20  1  0.89233000  0.66568000  0.63453000  1.0
  H  H21  1  0.10771000  0.16572000  0.36547000  1.0
  H  H22  1  0.60773000  0.66569000  0.13450000  1.0
  H  H23  1  0.39224000  0.16566000  0.86550000  1.0
  H  H24  1  0.72837000  0.53368000  0.69891000  1.0
  H  H25  1  0.27166000  0.03368000  0.30109000  1.0
  H  H26  1  0.77169000  0.53369000  0.19889000  1.0
  H  H27  1  0.22829000  0.03367000  0.80111000  1.0
  H  H28  1  0.33625000  0.58911000  0.78280000  1.0
  H  H29  1  0.66376000  0.08910000  0.21721000  1.0
  H  H30  1  0.16379000  0.58913000  0.28280000  1.0
  H  H31  1  0.83623000  0.08911000  0.71721000  1.0
  H  H32  1  0.46674000  0.72697000  0.71732000  1.0
  H  H33  1  0.53326000  0.22699000  0.28268000  1.0
  H  H34  1  0.03331000  0.72699000  0.21732000  1.0
  H  H35  1  0.96671000  0.22695000  0.78270000  1.0
  H  H36  1  0.79579000  0.85061000  0.60038000  1.0
  H  H37  1  0.20422000  0.35061000  0.39962000  1.0
  H  H38  1  0.70427000  0.85059000  0.10036000  1.0
  H  H39  1  0.29568000  0.35057000  0.89964000  1.0
  H  H40  1  0.80461000  0.92640000  0.64770000  1.0
  H  H41  1  0.19540000  0.42641000  0.35230000  1.0
  H  H42  1  0.69538000  0.92639000  0.14768000  1.0
  H  H43  1  0.30461000  0.42639000  0.85232000  1.0
  C  C44  1  0.19981000  0.03938000  0.53407000  1.0
  C  C45  1  0.80021000  0.53939000  0.46593000  1.0
  C  C46  1  0.30016000  0.03937000  0.03406000  1.0
  C  C47  1  0.69981000  0.53937000  0.96594000  1.0
  C  C48  1  0.25809000  0.10798000  0.49395000  1.0
  C  C49  1  0.74192000  0.60798000  0.50605000  1.0
  C  C50  1  0.24187000  0.10795000  0.99394000  1.0
  C  C51  1  0.75811000  0.60798000  0.00606000  1.0
  C  C52  1  0.46731000  0.16549000  0.49388000  1.0
  C  C53  1  0.53270000  0.66550000  0.50612000  1.0
  C  C54  1  0.03265000  0.16549000  0.99390000  1.0
  C  C55  1  0.96733000  0.66550000  0.00611000  1.0
  C  C56  1  0.60263000  0.15791000  0.53552000  1.0
  C  C57  1  0.39738000  0.65791000  0.46447000  1.0
  C  C58  1  0.89735000  0.15791000  0.03556000  1.0
  C  C59  1  0.10263000  0.65790000  0.96444000  1.0
  C  C60  1  0.52879000  0.09018000  0.57462000  1.0
  C  C61  1  0.47123000  0.59019000  0.42538000  1.0
  C  C62  1  0.97122000  0.09019000  0.07464000  1.0
  C  C63  1  0.02876000  0.59018000  0.92536000  1.0
  C  C64  1  0.55021000  0.23176000  0.44984000  1.0
  C  C65  1  0.44979000  0.73175000  0.55016000  1.0
  C  C66  1  0.94968000  0.23176000  0.94985000  1.0
  C  C67  1  0.05028000  0.73177000  0.05015000  1.0
  C  C68  1  0.98441000  0.64720000  0.66813000  1.0
  C  C69  1  0.01562000  0.14723000  0.33186000  1.0
  C  C70  1  0.51564000  0.64722000  0.16812000  1.0
  C  C71  1  0.48436000  0.14719000  0.83189000  1.0
  C  C72  1  0.89412000  0.57376000  0.70371000  1.0
  C  C73  1  0.10591000  0.07379000  0.29628000  1.0
  C  C74  1  0.60594000  0.57379000  0.20369000  1.0
  C  C75  1  0.39406000  0.07376000  0.79631000  1.0
  C  C76  1  0.01687000  0.55439000  0.74655000  1.0
  C  C77  1  0.98313000  0.05441000  0.25345000  1.0
  C  C78  1  0.48319000  0.55441000  0.24654000  1.0
  C  C79  1  0.51682000  0.05440000  0.75345000  1.0
  C  C80  1  0.23058000  0.60595000  0.75111000  1.0
  C  C81  1  0.76943000  0.10595000  0.24889000  1.0
  C  C82  1  0.26948000  0.60597000  0.25110000  1.0
  C  C83  1  0.73055000  0.10595000  0.74891000  1.0
  C  C84  1  0.30561000  0.68079000  0.71439000  1.0
  C  C85  1  0.69441000  0.18080000  0.28560000  1.0
  C  C86  1  0.19444000  0.68081000  0.21438000  1.0
  C  C87  1  0.80557000  0.18078000  0.78563000  1.0
  C  C88  1  0.91462000  0.48567000  0.78788000  1.0
  C  C89  1  0.08538000  0.98568000  0.21211000  1.0
  C  C90  1  0.58547000  0.48571000  0.28787000  1.0
  C  C91  1  0.41456000  0.98570000  0.71212000  1.0
  N  N92  1  0.33381000  0.02926000  0.57353000  1.0
  N  N93  1  0.66621000  0.52927000  0.42647000  1.0
  N  N94  1  0.16619000  0.02926000  0.07353000  1.0
  N  N95  1  0.83377000  0.52925000  0.92647000  1.0
  N  N96  1  0.18407000  0.70240000  0.67396000  1.0
  N  N97  1  0.81595000  0.20243000  0.32603000  1.0
  N  N98  1  0.31597000  0.70240000  0.17396000  1.0
  N  N99  1  0.68403000  0.20236000  0.82605000  1.0
  O  O100  1  0.75778000  0.25979000  0.44851000  1.0
  O  O101  1  0.24221000  0.75978000  0.55149000  1.0
  O  O102  1  0.74210000  0.25979000  0.94854000  1.0
  O  O103  1  0.25787000  0.75980000  0.05147000  1.0
  O  O104  1  0.88965000  0.91040000  0.61738000  1.0
  O  O105  1  0.11036000  0.41041000  0.38262000  1.0
  O  O106  1  0.61038000  0.91038000  0.11736000  1.0
  O  O107  1  0.38960000  0.41038000  0.88264000  1.0
  O  O108  1  0.40994000  0.25496000  0.41581000  1.0
  O  O109  1  0.59006000  0.75495000  0.58419000  1.0
  O  O110  1  0.08997000  0.25495000  0.91581000  1.0
  O  O111  1  0.90999000  0.75495000  0.08419000  1.0
  O  O112  1  0.05025000  0.43855000  0.81903000  1.0
  O  O113  1  0.94973000  0.93857000  0.18097000  1.0
  O  O114  1  0.44985000  0.43858000  0.31901000  1.0
  O  O115  1  0.55019000  0.93859000  0.68098000  1.0
  O  O116  1  0.70277000  0.47915000  0.79102000  1.0
  O  O117  1  0.29723000  0.97916000  0.20898000  1.0
  O  O118  1  0.79732000  0.47920000  0.29099000  1.0
  O  O119  1  0.20272000  0.97922000  0.70900000  1.0
