# generated using pymatgen
data_Co2H24C37(NO2)4
_symmetry_space_group_name_H-M   'P 1'
_cell_length_a   11.33930000
_cell_length_b   17.54320000
_cell_length_c   26.33890000
_cell_angle_alpha   90.00040000
_cell_angle_beta   89.99900000
_cell_angle_gamma   89.99940000
_symmetry_Int_Tables_number   1
_chemical_formula_structural   Co2H24C37(NO2)4
_chemical_formula_sum   'Co8 H96 C148 N16 O32'
_cell_volume   5239.53436682
_cell_formula_units_Z   4
loop_
 _symmetry_equiv_pos_site_id
 _symmetry_equiv_pos_as_xyz
  1  'x, y, z'
loop_
 _atom_site_type_symbol
 _atom_site_label
 _atom_site_symmetry_multiplicity
 _atom_site_fract_x
 _atom_site_fract_y
 _atom_site_fract_z
 _atom_site_occupancy
  Co  Co0  1  0.93525000  0.26378000  0.64320000  1.0
  Co  Co1  1  0.06474000  0.76378000  0.35680000  1.0
  Co  Co2  1  0.93526000  0.76378000  0.85680000  1.0
  Co  Co3  1  0.06474000  0.26378000  0.14320000  1.0
  Co  Co4  1  0.02290000  0.48438000  0.60690000  1.0
  Co  Co5  1  0.97708000  0.98438000  0.39310000  1.0
  Co  Co6  1  0.02292000  0.98438000  0.89310000  1.0
  Co  Co7  1  0.97709000  0.48438000  0.10691000  1.0
  H  H8  1  0.04771000  0.19522000  0.00617000  1.0
  H  H9  1  0.95231000  0.69523000  0.99383000  1.0
  H  H10  1  0.04769000  0.69523000  0.49383000  1.0
  H  H11  1  0.95230000  0.19522000  0.50617000  1.0
  H  H12  1  0.98620000  0.55682000  0.74427000  1.0
  H  H13  1  0.01385000  0.05683000  0.25575000  1.0
  H  H14  1  0.98617000  0.05684000  0.75574000  1.0
  H  H15  1  0.01383000  0.55683000  0.24426000  1.0
  H  H16  1  0.87190000  0.40566000  0.97007000  1.0
  H  H17  1  0.12810000  0.90567000  0.02993000  1.0
  H  H18  1  0.87191000  0.90567000  0.52993000  1.0
  H  H19  1  0.12809000  0.40566000  0.47007000  1.0
  H  H20  1  0.87545000  0.22091000  0.86178000  1.0
  H  H21  1  0.12454000  0.72091000  0.13822000  1.0
  H  H22  1  0.87546000  0.72092000  0.63822000  1.0
  H  H23  1  0.12454000  0.22091000  0.36178000  1.0
  H  H24  1  0.71938000  0.39715000  0.90202000  1.0
  H  H25  1  0.28061000  0.89716000  0.09798000  1.0
  H  H26  1  0.71939000  0.89717000  0.59798000  1.0
  H  H27  1  0.28061000  0.39715000  0.40201000  1.0
  H  H28  1  0.72506000  0.32353000  0.85620000  1.0
  H  H29  1  0.27495000  0.82354000  0.14380000  1.0
  H  H30  1  0.72506000  0.82355000  0.64380000  1.0
  H  H31  1  0.27493000  0.32353000  0.35620000  1.0
  H  H32  1  0.43723000  0.45977000  0.52979000  1.0
  H  H33  1  0.56277000  0.95978000  0.47021000  1.0
  H  H34  1  0.43723000  0.95978000  0.97020000  1.0
  H  H35  1  0.56278000  0.45977000  0.02980000  1.0
  H  H36  1  0.86398000  0.33178000  0.78288000  1.0
  H  H37  1  0.13600000  0.83179000  0.21712000  1.0
  H  H38  1  0.86401000  0.83179000  0.71712000  1.0
  H  H39  1  0.13600000  0.33178000  0.28288000  1.0
  H  H40  1  0.74402000  0.22142000  0.56936000  1.0
  H  H41  1  0.25598000  0.72143000  0.43064000  1.0
  H  H42  1  0.74401000  0.72142000  0.93064000  1.0
  H  H43  1  0.25599000  0.22142000  0.06936000  1.0
  H  H44  1  0.12783000  0.19637000  0.57720000  1.0
  H  H45  1  0.87216000  0.69640000  0.42280000  1.0
  H  H46  1  0.12784000  0.69640000  0.92280000  1.0
  H  H47  1  0.87216000  0.19638000  0.07720000  1.0
  H  H48  1  0.83616000  0.51548000  0.89152000  1.0
  H  H49  1  0.16387000  0.01550000  0.10848000  1.0
  H  H50  1  0.83613000  0.01550000  0.60849000  1.0
  H  H51  1  0.16387000  0.51549000  0.39152000  1.0
  H  H52  1  0.34843000  0.33292000  0.70877000  1.0
  H  H53  1  0.65156000  0.83294000  0.29123000  1.0
  H  H54  1  0.34845000  0.83295000  0.79123000  1.0
  H  H55  1  0.65156000  0.33294000  0.20877000  1.0
  H  H56  1  0.34576000  0.19404000  0.57272000  1.0
  H  H57  1  0.65424000  0.69408000  0.42728000  1.0
  H  H58  1  0.34576000  0.69408000  0.92728000  1.0
  H  H59  1  0.65424000  0.19406000  0.07273000  1.0
  H  H60  1  0.60414000  0.40939000  0.54422000  1.0
  H  H61  1  0.39585000  0.90941000  0.45578000  1.0
  H  H62  1  0.60415000  0.90942000  0.95577000  1.0
  H  H63  1  0.39586000  0.40940000  0.04423000  1.0
  H  H64  1  0.52514000  0.22063000  0.56372000  1.0
  H  H65  1  0.47486000  0.72065000  0.43628000  1.0
  H  H66  1  0.52513000  0.72065000  0.93628000  1.0
  H  H67  1  0.47487000  0.22064000  0.06372000  1.0
  H  H68  1  0.51987000  0.30980000  0.71710000  1.0
  H  H69  1  0.48013000  0.80980000  0.28289000  1.0
  H  H70  1  0.51988000  0.80980000  0.78289000  1.0
  H  H71  1  0.48011000  0.30980000  0.21711000  1.0
  H  H72  1  0.73785000  0.30976000  0.71440000  1.0
  H  H73  1  0.26214000  0.80976000  0.28560000  1.0
  H  H74  1  0.73787000  0.80975000  0.78560000  1.0
  H  H75  1  0.26212000  0.30976000  0.21440000  1.0
  H  H76  1  0.13236000  0.32477000  0.70882000  1.0
  H  H77  1  0.86763000  0.82479000  0.29118000  1.0
  H  H78  1  0.13238000  0.82480000  0.79118000  1.0
  H  H79  1  0.86763000  0.32479000  0.20882000  1.0
  H  H80  1  0.61316000  0.55623000  0.67627000  1.0
  H  H81  1  0.38681000  0.05625000  0.32372000  1.0
  H  H82  1  0.61320000  0.05624000  0.82371000  1.0
  H  H83  1  0.38683000  0.55622000  0.17629000  1.0
  H  H84  1  0.43404000  0.51292000  0.69026000  1.0
  H  H85  1  0.56596000  0.01294000  0.30974000  1.0
  H  H86  1  0.43404000  0.01294000  0.80973000  1.0
  H  H87  1  0.56595000  0.51292000  0.19027000  1.0
  H  H88  1  0.21830000  0.46401000  0.53229000  1.0
  H  H89  1  0.78169000  0.96401000  0.46771000  1.0
  H  H90  1  0.21831000  0.96402000  0.96770000  1.0
  H  H91  1  0.78169000  0.46401000  0.03229000  1.0
  H  H92  1  0.21452000  0.51652000  0.68487000  1.0
  H  H93  1  0.78548000  0.01653000  0.31513000  1.0
  H  H94  1  0.21452000  0.01653000  0.81513000  1.0
  H  H95  1  0.78547000  0.51652000  0.18487000  1.0
  H  H96  1  0.82131000  0.41390000  0.54367000  1.0
  H  H97  1  0.17868000  0.91391000  0.45633000  1.0
  H  H98  1  0.82132000  0.91393000  0.95633000  1.0
  H  H99  1  0.17869000  0.41391000  0.04367000  1.0
  H  H100  1  0.83155000  0.55052000  0.67149000  1.0
  H  H101  1  0.16843000  0.05053000  0.32850000  1.0
  H  H102  1  0.83158000  0.05054000  0.82850000  1.0
  H  H103  1  0.16844000  0.55052000  0.17150000  1.0
  C  C104  1  0.99879000  0.23044000  0.97935000  1.0
  C  C105  1  0.00122000  0.73045000  0.02064000  1.0
  C  C106  1  0.99878000  0.73045000  0.52064000  1.0
  C  C107  1  0.00121000  0.23044000  0.47935000  1.0
  C  C108  1  0.96582000  0.30478000  0.99251000  1.0
  C  C109  1  0.03419000  0.80479000  0.00749000  1.0
  C  C110  1  0.96582000  0.80478000  0.50749000  1.0
  C  C111  1  0.03418000  0.30478000  0.49251000  1.0
  C  C112  1  0.93002000  0.44082000  0.75886000  1.0
  C  C113  1  0.07000000  0.94083000  0.24114000  1.0
  C  C114  1  0.93002000  0.94083000  0.74114000  1.0
  C  C115  1  0.06998000  0.44083000  0.25886000  1.0
  C  C116  1  0.86141000  0.31839000  0.91218000  1.0
  C  C117  1  0.13859000  0.81840000  0.08782000  1.0
  C  C118  1  0.86142000  0.81840000  0.58782000  1.0
  C  C119  1  0.13858000  0.31839000  0.41218000  1.0
  C  C120  1  0.94762000  0.51744000  0.77166000  1.0
  C  C121  1  0.05242000  0.01746000  0.22835000  1.0
  C  C122  1  0.94759000  0.01747000  0.72835000  1.0
  C  C123  1  0.05241000  0.51745000  0.27165000  1.0
  C  C124  1  0.45696000  0.48536000  0.61025000  1.0
  C  C125  1  0.54303000  0.98538000  0.38975000  1.0
  C  C126  1  0.45697000  0.98538000  0.88974000  1.0
  C  C127  1  0.54303000  0.48536000  0.11026000  1.0
  C  C128  1  0.58693000  0.48316000  0.61031000  1.0
  C  C129  1  0.41306000  0.98318000  0.38968000  1.0
  C  C130  1  0.58695000  0.98318000  0.88967000  1.0
  C  C131  1  0.41306000  0.48316000  0.11033000  1.0
  C  C132  1  0.96302000  0.41210000  0.70744000  1.0
  C  C133  1  0.03698000  0.91211000  0.29256000  1.0
  C  C134  1  0.96303000  0.91212000  0.79256000  1.0
  C  C135  1  0.03697000  0.41211000  0.20744000  1.0
  C  C136  1  0.92704000  0.62563000  0.83341000  1.0
  C  C137  1  0.07299000  0.12564000  0.16660000  1.0
  C  C138  1  0.92701000  0.12564000  0.66660000  1.0
  C  C139  1  0.07299000  0.62564000  0.33333333  1.0
  C  C140  1  0.89750000  0.34815000  0.95887000  1.0
  C  C141  1  0.10250000  0.84817000  0.04113000  1.0
  C  C142  1  0.89750000  0.84817000  0.54113000  1.0
  C  C143  1  0.10249000  0.34816000  0.45887000  1.0
  C  C144  1  0.89979000  0.24544000  0.89840000  1.0
  C  C145  1  0.10022000  0.74545000  0.10160000  1.0
  C  C146  1  0.89979000  0.74545000  0.60160000  1.0
  C  C147  1  0.10021000  0.24544000  0.39840000  1.0
  C  C148  1  0.77969000  0.36362000  0.87809000  1.0
  C  C149  1  0.22032000  0.86363000  0.12191000  1.0
  C  C150  1  0.77969000  0.86364000  0.62191000  1.0
  C  C151  1  0.22031000  0.36362000  0.37809000  1.0
  C  C152  1  0.99916000  0.33643000  0.04317000  1.0
  C  C153  1  0.00084000  0.83645000  0.95684000  1.0
  C  C154  1  0.99916000  0.83644000  0.45683000  1.0
  C  C155  1  0.00084000  0.33643000  0.54316000  1.0
  C  C156  1  0.36980000  0.26408000  0.64039000  1.0
  C  C157  1  0.63020000  0.76411000  0.35961000  1.0
  C  C158  1  0.36980000  0.76411000  0.85961000  1.0
  C  C159  1  0.63020000  0.26410000  0.14040000  1.0
  C  C160  1  0.39258000  0.47163000  0.56556000  1.0
  C  C161  1  0.60741000  0.97164000  0.43444000  1.0
  C  C162  1  0.39260000  0.97164000  0.93443000  1.0
  C  C163  1  0.60741000  0.47164000  0.06557000  1.0
  C  C164  1  0.87710000  0.39120000  0.79382000  1.0
  C  C165  1  0.12290000  0.89121000  0.20618000  1.0
  C  C166  1  0.87711000  0.89121000  0.70618000  1.0
  C  C167  1  0.12289000  0.39120000  0.29382000  1.0
  C  C168  1  0.96726000  0.20122000  0.93191000  1.0
  C  C169  1  0.03275000  0.70123000  0.06809000  1.0
  C  C170  1  0.96726000  0.70123000  0.56809000  1.0
  C  C171  1  0.03274000  0.20123000  0.43191000  1.0
  C  C172  1  0.50000000  0.26499000  0.64031000  1.0
  C  C173  1  0.50000000  0.76501000  0.35969000  1.0
  C  C174  1  0.50000000  0.76501000  0.85969000  1.0
  C  C175  1  0.49999000  0.26500000  0.14032000  1.0
  C  C176  1  0.68971000  0.24073000  0.60099000  1.0
  C  C177  1  0.31029000  0.74074000  0.39901000  1.0
  C  C178  1  0.68970000  0.74073000  0.89901000  1.0
  C  C179  1  0.31029000  0.24074000  0.10100000  1.0
  C  C180  1  0.18082000  0.22605000  0.60555000  1.0
  C  C181  1  0.81917000  0.72608000  0.39445000  1.0
  C  C182  1  0.18082000  0.72609000  0.89445000  1.0
  C  C183  1  0.81918000  0.22607000  0.10556000  1.0
  C  C184  1  0.99876000  0.12144000  0.91769000  1.0
  C  C185  1  0.00125000  0.62145000  0.08231000  1.0
  C  C186  1  0.99875000  0.62145000  0.58231000  1.0
  C  C187  1  0.00124000  0.12145000  0.41769000  1.0
  C  C188  1  0.86196000  0.49323000  0.85445000  1.0
  C  C189  1  0.13808000  0.99324000  0.14556000  1.0
  C  C190  1  0.86193000  0.99325000  0.64556000  1.0
  C  C191  1  0.13807000  0.49323000  0.35444000  1.0
  C  C192  1  0.30505000  0.30089000  0.67873000  1.0
  C  C193  1  0.69494000  0.80091000  0.32127000  1.0
  C  C194  1  0.30507000  0.80092000  0.82127000  1.0
  C  C195  1  0.69494000  0.30091000  0.17874000  1.0
  C  C196  1  0.91363000  0.54358000  0.81963000  1.0
  C  C197  1  0.08642000  0.04359000  0.18039000  1.0
  C  C198  1  0.91359000  0.04359000  0.68038000  1.0
  C  C199  1  0.08641000  0.54359000  0.31962000  1.0
  C  C200  1  0.84148000  0.41699000  0.84161000  1.0
  C  C201  1  0.15853000  0.91700000  0.15839000  1.0
  C  C202  1  0.84148000  0.91700000  0.65839000  1.0
  C  C203  1  0.15852000  0.41699000  0.34161000  1.0
  C  C204  1  0.30333000  0.22554000  0.60332000  1.0
  C  C205  1  0.69667000  0.72557000  0.39669000  1.0
  C  C206  1  0.30333000  0.72557000  0.89668000  1.0
  C  C207  1  0.69667000  0.22556000  0.10332000  1.0
  C  C208  1  0.64974000  0.44284000  0.57300000  1.0
  C  C209  1  0.35024000  0.94286000  0.42700000  1.0
  C  C210  1  0.64976000  0.94286000  0.92699000  1.0
  C  C211  1  0.35025000  0.44284000  0.07301000  1.0
  C  C212  1  0.56722000  0.24021000  0.59854000  1.0
  C  C213  1  0.43278000  0.74023000  0.40146000  1.0
  C  C214  1  0.56722000  0.74023000  0.90146000  1.0
  C  C215  1  0.43278000  0.24022000  0.09854000  1.0
  C  C216  1  0.56407000  0.29024000  0.68281000  1.0
  C  C217  1  0.43592000  0.79025000  0.31719000  1.0
  C  C218  1  0.56408000  0.79025000  0.81718000  1.0
  C  C219  1  0.43591000  0.29025000  0.18282000  1.0
  C  C220  1  0.68638000  0.28970000  0.68215000  1.0
  C  C221  1  0.31361000  0.78970000  0.31784000  1.0
  C  C222  1  0.68639000  0.78969000  0.81784000  1.0
  C  C223  1  0.31360000  0.28970000  0.18216000  1.0
  C  C224  1  0.18296000  0.29770000  0.67879000  1.0
  C  C225  1  0.81703000  0.79772000  0.32121000  1.0
  C  C226  1  0.18298000  0.79773000  0.82121000  1.0
  C  C227  1  0.81703000  0.29771000  0.17879000  1.0
  C  C228  1  0.65477000  0.52233000  0.64659000  1.0
  C  C229  1  0.34521000  0.02235000  0.35341000  1.0
  C  C230  1  0.65480000  0.02234000  0.85340000  1.0
  C  C231  1  0.34521000  0.52232000  0.14660000  1.0
  C  C232  1  0.39081000  0.50222000  0.65399000  1.0
  C  C233  1  0.60918000  0.00223000  0.34601000  1.0
  C  C234  1  0.39082000  0.00223000  0.84600000  1.0
  C  C235  1  0.60918000  0.50221000  0.15400000  1.0
  C  C236  1  0.27037000  0.47467000  0.56627000  1.0
  C  C237  1  0.72962000  0.97468000  0.43373000  1.0
  C  C238  1  0.27038000  0.97468000  0.93372000  1.0
  C  C239  1  0.72963000  0.47467000  0.06628000  1.0
  C  C240  1  0.26833000  0.50421000  0.65156000  1.0
  C  C241  1  0.73166000  0.00421000  0.34844000  1.0
  C  C242  1  0.26834000  0.00421000  0.84843000  1.0
  C  C243  1  0.73166000  0.50420000  0.15157000  1.0
  C  C244  1  0.77205000  0.44404000  0.57281000  1.0
  C  C245  1  0.22794000  0.94406000  0.42719000  1.0
  C  C246  1  0.77207000  0.94407000  0.92719000  1.0
  C  C247  1  0.22795000  0.44405000  0.07281000  1.0
  C  C248  1  0.77714000  0.51983000  0.64418000  1.0
  C  C249  1  0.22284000  0.01985000  0.35582000  1.0
  C  C250  1  0.77717000  0.01985000  0.85581000  1.0
  C  C251  1  0.22285000  0.51983000  0.14419000  1.0
  N  N252  1  0.12018000  0.26190000  0.64257000  1.0
  N  N253  1  0.87981000  0.76192000  0.35743000  1.0
  N  N254  1  0.12019000  0.76193000  0.85743000  1.0
  N  N255  1  0.87981000  0.26192000  0.14258000  1.0
  N  N256  1  0.74949000  0.26522000  0.64206000  1.0
  N  N257  1  0.25051000  0.76522000  0.35794000  1.0
  N  N258  1  0.74949000  0.76522000  0.85794000  1.0
  N  N259  1  0.25051000  0.26522000  0.14206000  1.0
  N  N260  1  0.83638000  0.48134000  0.60784000  1.0
  N  N261  1  0.16360000  0.98135000  0.39216000  1.0
  N  N262  1  0.83640000  0.98136000  0.89215000  1.0
  N  N263  1  0.16362000  0.48134000  0.10785000  1.0
  N  N264  1  0.20790000  0.49010000  0.60854000  1.0
  N  N265  1  0.79210000  0.99011000  0.39146000  1.0
  N  N266  1  0.20790000  0.99011000  0.89146000  1.0
  N  N267  1  0.79210000  0.49010000  0.10854000  1.0
  O  O268  1  0.95862000  0.40149000  0.05535000  1.0
  O  O269  1  0.04139000  0.90151000  0.94465000  1.0
  O  O270  1  0.95861000  0.90150000  0.44465000  1.0
  O  O271  1  0.04137000  0.40149000  0.55535000  1.0
  O  O272  1  0.94331000  0.67552000  0.79881000  1.0
  O  O273  1  0.05673000  0.17554000  0.20120000  1.0
  O  O274  1  0.94327000  0.17554000  0.70119000  1.0
  O  O275  1  0.05672000  0.67553000  0.29881000  1.0
  O  O276  1  0.02790000  0.45452000  0.67966000  1.0
  O  O277  1  0.97209000  0.95454000  0.32034000  1.0
  O  O278  1  0.02791000  0.95456000  0.82034000  1.0
  O  O279  1  0.97208000  0.45453000  0.17966000  1.0
  O  O280  1  0.92553000  0.34651000  0.69479000  1.0
  O  O281  1  0.07446000  0.84652000  0.30522000  1.0
  O  O282  1  0.92555000  0.84654000  0.80522000  1.0
  O  O283  1  0.07445000  0.34652000  0.19478000  1.0
  O  O284  1  0.06758000  0.29624000  0.07091000  1.0
  O  O285  1  0.93241000  0.79627000  0.92910000  1.0
  O  O286  1  0.06759000  0.79626000  0.42909000  1.0
  O  O287  1  0.93241000  0.29624000  0.57090000  1.0
  O  O288  1  0.91929000  0.64590000  0.88000000  1.0
  O  O289  1  0.08072000  0.14591000  0.12001000  1.0
  O  O290  1  0.91927000  0.14591000  0.62001000  1.0
  O  O291  1  0.08073000  0.64591000  0.37999000  1.0
  O  O292  1  0.00743000  0.10329000  0.87080000  1.0
  O  O293  1  0.99258000  0.60330000  0.12919000  1.0
  O  O294  1  0.00742000  0.60330000  0.62920000  1.0
  O  O295  1  0.99257000  0.10330000  0.37080000  1.0
  O  O296  1  0.01197000  0.07105000  0.95222000  1.0
  O  O297  1  0.98805000  0.57106000  0.04778000  1.0
  O  O298  1  0.01196000  0.57106000  0.54778000  1.0
  O  O299  1  0.98804000  0.07106000  0.45222000  1.0
