# generated using pymatgen
data_CaP2H16C8O9
_symmetry_space_group_name_H-M   'P 1'
_cell_length_a   7.06268000
_cell_length_b   9.06664000
_cell_length_c   11.80728470
_cell_angle_alpha   76.32298410
_cell_angle_beta   72.61894302
_cell_angle_gamma   89.99830000
_symmetry_Int_Tables_number   1
_chemical_formula_structural   CaP2H16C8O9
_chemical_formula_sum   'Ca2 P4 H32 C16 O18'
_cell_volume   699.05817814
_cell_formula_units_Z   2
loop_
 _symmetry_equiv_pos_site_id
 _symmetry_equiv_pos_as_xyz
  1  'x, y, z'
loop_
 _atom_site_type_symbol
 _atom_site_label
 _atom_site_symmetry_multiplicity
 _atom_site_fract_x
 _atom_site_fract_y
 _atom_site_fract_z
 _atom_site_occupancy
  Ca  Ca0  1  0.78305000  0.24997000  0.00002000  1.0
  Ca  Ca1  1  0.21695000  0.75003000  0.99998000  1.0
  P  P2  1  0.32704000  0.40473000  0.18799000  1.0
  P  P3  1  0.51450000  0.09532000  0.81212000  1.0
  P  P4  1  0.67296000  0.59527000  0.81201000  1.0
  P  P5  1  0.48550000  0.90469000  0.18788000  1.0
  H  H6  1  0.05872000  0.23467000  0.32361000  1.0
  H  H7  1  0.38143000  0.26527000  0.67647000  1.0
  H  H8  1  0.94128000  0.76532000  0.67639000  1.0
  H  H9  1  0.61857000  0.73473000  0.32353000  1.0
  H  H10  1  0.26788000  0.22291000  0.37846000  1.0
  H  H11  1  0.64541000  0.27722000  0.62175000  1.0
  H  H12  1  0.73212000  0.77708000  0.62154000  1.0
  H  H13  1  0.35459000  0.72278000  0.37825000  1.0
  H  H14  1  0.31542000  0.38396000  0.50691000  1.0
  H  H15  1  0.82188000  0.11642000  0.49334000  1.0
  H  H16  1  0.68458000  0.61604000  0.49309000  1.0
  H  H17  1  0.17812000  0.88358000  0.50666000  1.0
  H  H18  1  0.17156000  0.55279000  0.64351000  1.0
  H  H19  1  0.81531000  0.94773000  0.35653000  1.0
  H  H20  1  0.82844000  0.44721000  0.35649000  1.0
  H  H21  1  0.18469000  0.05227000  0.64347000  1.0
  H  H22  1  0.46267000  0.63257000  0.17450000  1.0
  H  H23  1  0.63681000  0.86750000  0.82542000  1.0
  H  H24  1  0.53733000  0.36743000  0.82550000  1.0
  H  H25  1  0.36319000  0.13250000  0.17458000  1.0
  H  H26  1  0.19335000  0.32297000  0.02580000  1.0
  H  H27  1  0.21902000  0.17699000  0.97426000  1.0
  H  H28  1  0.80665000  0.67703000  0.97420000  1.0
  H  H29  1  0.78098000  0.82301000  0.02574000  1.0
  H  H30  1  0.89430000  0.06249000  0.82282000  1.0
  H  H31  1  0.71722000  0.43735000  0.17734000  1.0
  H  H32  1  0.10570000  0.93751000  0.17718000  1.0
  H  H33  1  0.28278000  0.56265000  0.82266000  1.0
  H  H34  1  0.09666000  0.07702000  0.85486000  1.0
  H  H35  1  0.95153000  0.42279000  0.14532000  1.0
  H  H36  1  0.90334000  0.92298000  0.14514000  1.0
  H  H37  1  0.04847000  0.57721000  0.85468000  1.0
  C  C38  1  0.17321000  0.30249000  0.33934000  1.0
  C  C39  1  0.51174000  0.19757000  0.66081000  1.0
  C  C40  1  0.82680000  0.69751000  0.66066000  1.0
  C  C41  1  0.48825000  0.80243000  0.33919000  1.0
  C  C42  1  0.08195000  0.40326000  0.42252000  1.0
  C  C43  1  0.50408000  0.09673000  0.57759000  1.0
  C  C44  1  0.91805000  0.59673000  0.57748000  1.0
  C  C45  1  0.49592000  0.90328000  0.42241000  1.0
  C  C46  1  0.17641000  0.43468000  0.50405000  1.0
  C  C47  1  0.68018000  0.06554000  0.49611000  1.0
  C  C48  1  0.82359000  0.56532000  0.49595000  1.0
  C  C49  1  0.31982000  0.93446000  0.50389000  1.0
  C  C50  1  0.09589000  0.52966000  0.58067000  1.0
  C  C51  1  0.67666000  0.97061000  0.41936000  1.0
  C  C52  1  0.90411000  0.47034000  0.41933000  1.0
  C  C53  1  0.32334000  0.02939000  0.58064000  1.0
  O  O54  1  0.44340000  0.28719000  0.12601000  1.0
  O  O55  1  0.56886000  0.21283000  0.87414000  1.0
  O  O56  1  0.55661000  0.71281000  0.87398000  1.0
  O  O57  1  0.43113000  0.78717000  0.12586000  1.0
  O  O58  1  0.48150000  0.51605000  0.20702000  1.0
  O  O59  1  0.68801000  0.98403000  0.79304000  1.0
  O  O60  1  0.51850000  0.48395000  0.79298000  1.0
  O  O61  1  0.31199000  0.01597000  0.20696000  1.0
  O  O62  1  0.19857000  0.49546000  0.11669000  1.0
  O  O63  1  0.31484000  0.00453000  0.88334000  1.0
  O  O64  1  0.80142000  0.50454000  0.88332000  1.0
  O  O65  1  0.68516000  0.99547000  0.11666000  1.0
  O  O66  1  0.12359000  0.25002000  0.00001000  1.0
  O  O67  1  0.87641000  0.74998000  0.99999000  1.0
  O  O68  1  0.97897000  0.13089000  0.84431000  1.0
  O  O69  1  0.82333000  0.36888000  0.15591000  1.0
  O  O70  1  0.02103000  0.86911000  0.15569000  1.0
  O  O71  1  0.17668000  0.63111000  0.84409000  1.0
