# generated using pymatgen
data_ZnH7C12N2(O2F)2
_symmetry_space_group_name_H-M   'P 1'
_cell_length_a   12.23380000
_cell_length_b   15.06330000
_cell_length_c   15.17480000
_cell_angle_alpha   90.00010000
_cell_angle_beta   89.99990000
_cell_angle_gamma   90.00000000
_symmetry_Int_Tables_number   1
_chemical_formula_structural   ZnH7C12N2(O2F)2
_chemical_formula_sum   'Zn8 H56 C96 N16 O32 F16'
_cell_volume   2796.43338173
_cell_formula_units_Z   8
loop_
 _symmetry_equiv_pos_site_id
 _symmetry_equiv_pos_as_xyz
  1  'x, y, z'
loop_
 _atom_site_type_symbol
 _atom_site_label
 _atom_site_symmetry_multiplicity
 _atom_site_fract_x
 _atom_site_fract_y
 _atom_site_fract_z
 _atom_site_occupancy
  Zn  Zn0  1  0.78381000  0.38493000  0.86069000  1.0
  Zn  Zn1  1  0.71619000  0.61506000  0.36069000  1.0
  Zn  Zn2  1  0.21619000  0.88494000  0.63931000  1.0
  Zn  Zn3  1  0.28381000  0.11507000  0.13931000  1.0
  Zn  Zn4  1  0.85313000  0.73993000  0.79497000  1.0
  Zn  Zn5  1  0.64687000  0.26006000  0.29497000  1.0
  Zn  Zn6  1  0.14687000  0.23993000  0.70503000  1.0
  Zn  Zn7  1  0.35313000  0.76007000  0.20503000  1.0
  H  H8  1  0.72212000  0.26935000  0.69358000  1.0
  H  H9  1  0.77789000  0.73065000  0.19358000  1.0
  H  H10  1  0.27788000  0.76934000  0.80642000  1.0
  H  H11  1  0.22212000  0.23066000  0.30642000  1.0
  H  H12  1  0.57669000  0.15626000  0.65501000  1.0
  H  H13  1  0.92331000  0.84374000  0.15502000  1.0
  H  H14  1  0.42331000  0.65626000  0.84498000  1.0
  H  H15  1  0.07669000  0.34374000  0.34498000  1.0
  H  H16  1  0.43905000  0.11485000  0.77033000  1.0
  H  H17  1  0.06095000  0.88515000  0.27034000  1.0
  H  H18  1  0.56095000  0.61485000  0.72966000  1.0
  H  H19  1  0.93905000  0.38515000  0.22966000  1.0
  H  H20  1  0.45596000  0.18393000  0.92146000  1.0
  H  H21  1  0.04404000  0.81607000  0.42147000  1.0
  H  H22  1  0.54405000  0.68393000  0.57853000  1.0
  H  H23  1  0.95596000  0.31607000  0.07853000  1.0
  H  H24  1  0.54711000  0.29311000  0.02053000  1.0
  H  H25  1  0.95288000  0.70689000  0.52053000  1.0
  H  H26  1  0.45289000  0.79311000  0.47947000  1.0
  H  H27  1  0.04711000  0.20689000  0.97947000  1.0
  H  H28  1  0.76407000  0.37615000  0.10103000  1.0
  H  H29  1  0.73592000  0.62385000  0.60103000  1.0
  H  H30  1  0.23593000  0.87615000  0.39897000  1.0
  H  H31  1  0.26407000  0.12385000  0.89897000  1.0
  H  H32  1  0.62175000  0.39460000  0.10607000  1.0
  H  H33  1  0.87825000  0.60540000  0.60607000  1.0
  H  H34  1  0.37825000  0.89460000  0.39393000  1.0
  H  H35  1  0.12175000  0.10540000  0.89393000  1.0
  H  H36  1  0.73519000  0.82670000  0.04054000  1.0
  H  H37  1  0.76481000  0.17330000  0.54054000  1.0
  H  H38  1  0.26481000  0.32670000  0.45946000  1.0
  H  H39  1  0.23519000  0.67330000  0.95946000  1.0
  H  H40  1  0.87145000  0.79467000  0.00993000  1.0
  H  H41  1  0.62856000  0.20532000  0.50993000  1.0
  H  H42  1  0.12855000  0.29467000  0.49007000  1.0
  H  H43  1  0.37145000  0.70533000  0.99007000  1.0
  H  H44  1  0.64261000  0.89225000  0.93283000  1.0
  H  H45  1  0.85739000  0.10775000  0.43283000  1.0
  H  H46  1  0.35739000  0.39226000  0.56717000  1.0
  H  H47  1  0.14261000  0.60774000  0.06717000  1.0
  H  H48  1  0.53161000  0.95982000  0.81276000  1.0
  H  H49  1  0.96839000  0.04019000  0.31276000  1.0
  H  H50  1  0.46839000  0.45982000  0.68724000  1.0
  H  H51  1  0.03161000  0.54019000  0.18724000  1.0
  H  H52  1  0.50007000  0.98519000  0.65194000  1.0
  H  H53  1  0.99993000  0.01481000  0.15194000  1.0
  H  H54  1  0.49993000  0.48519000  0.84806000  1.0
  H  H55  1  0.00007000  0.51481000  0.34806000  1.0
  H  H56  1  0.63055000  0.91487000  0.54323000  1.0
  H  H57  1  0.86945000  0.08513000  0.04323000  1.0
  H  H58  1  0.36945000  0.41487000  0.95677000  1.0
  H  H59  1  0.13055000  0.58514000  0.45677000  1.0
  H  H60  1  0.78137000  0.81760000  0.60186000  1.0
  H  H61  1  0.71862000  0.18240000  0.10186000  1.0
  H  H62  1  0.21862000  0.31760000  0.89814000  1.0
  H  H63  1  0.28138000  0.68240000  0.39814000  1.0
  C  C64  1  0.66073000  0.24782000  0.74102000  1.0
  C  C65  1  0.83928000  0.75218000  0.24102000  1.0
  C  C66  1  0.33927000  0.74781000  0.75897000  1.0
  C  C67  1  0.16073000  0.25218000  0.25898000  1.0
  C  C68  1  0.58048000  0.18502000  0.72076000  1.0
  C  C69  1  0.91952000  0.81497000  0.22077000  1.0
  C  C70  1  0.41952000  0.68502000  0.77923000  1.0
  C  C71  1  0.08048000  0.31498000  0.27923000  1.0
  C  C72  1  0.50475000  0.16126000  0.78512000  1.0
  C  C73  1  0.99525000  0.83874000  0.28513000  1.0
  C  C74  1  0.49526000  0.66126000  0.71487000  1.0
  C  C75  1  0.00474000  0.33874000  0.21487000  1.0
  C  C76  1  0.51212000  0.20071000  0.86822000  1.0
  C  C77  1  0.98788000  0.79929000  0.36822000  1.0
  C  C78  1  0.48789000  0.70071000  0.63178000  1.0
  C  C79  1  0.01211000  0.29929000  0.13178000  1.0
  C  C80  1  0.59412000  0.26336000  0.88294000  1.0
  C  C81  1  0.90587000  0.73664000  0.38294000  1.0
  C  C82  1  0.40588000  0.76336000  0.61706000  1.0
  C  C83  1  0.09412000  0.23664000  0.11706000  1.0
  C  C84  1  0.60605000  0.30844000  0.96799000  1.0
  C  C85  1  0.89395000  0.69156000  0.46799000  1.0
  C  C86  1  0.39395000  0.80844000  0.53201000  1.0
  C  C87  1  0.10605000  0.19156000  0.03201000  1.0
  C  C88  1  0.69493000  0.40621000  0.06578000  1.0
  C  C89  1  0.80506000  0.59379000  0.56578000  1.0
  C  C90  1  0.30507000  0.90621000  0.43422000  1.0
  C  C91  1  0.19494000  0.09379000  0.93421000  1.0
  C  C92  1  0.71611000  0.50359000  0.05432000  1.0
  C  C93  1  0.78388000  0.49640000  0.55432000  1.0
  C  C94  1  0.28389000  0.00360000  0.44568000  1.0
  C  C95  1  0.21611000  0.99641000  0.94568000  1.0
  C  C96  1  0.63509000  0.56082000  0.02390000  1.0
  C  C97  1  0.86491000  0.43918000  0.52390000  1.0
  C  C98  1  0.36491000  0.06082000  0.47610000  1.0
  C  C99  1  0.13509000  0.93918000  0.97610000  1.0
  C  C100  1  0.65624000  0.64983000  0.00743000  1.0
  C  C101  1  0.84376000  0.35017000  0.50743000  1.0
  C  C102  1  0.34376000  0.14983000  0.49257000  1.0
  C  C103  1  0.15624000  0.85017000  0.99257000  1.0
  C  C104  1  0.75985000  0.68640000  0.02085000  1.0
  C  C105  1  0.74015000  0.31360000  0.52085000  1.0
  C  C106  1  0.24015000  0.18640000  0.47915000  1.0
  C  C107  1  0.25985000  0.81360000  0.97915000  1.0
  C  C108  1  0.84007000  0.62941000  0.05338000  1.0
  C  C109  1  0.65993000  0.37059000  0.55338000  1.0
  C  C110  1  0.15993000  0.12941000  0.44662000  1.0
  C  C111  1  0.34007000  0.87059000  0.94662000  1.0
  C  C112  1  0.81865000  0.54033000  0.06935000  1.0
  C  C113  1  0.68135000  0.45967000  0.56935000  1.0
  C  C114  1  0.18135000  0.04033000  0.43065000  1.0
  C  C115  1  0.31865000  0.95967000  0.93065000  1.0
  C  C116  1  0.78413000  0.78198000  0.99841000  1.0
  C  C117  1  0.71587000  0.21802000  0.49841000  1.0
  C  C118  1  0.21587000  0.28198000  0.50159000  1.0
  C  C119  1  0.28413000  0.71803000  0.00159000  1.0
  C  C120  1  0.69145000  0.85636000  0.88352000  1.0
  C  C121  1  0.80856000  0.14364000  0.38352000  1.0
  C  C122  1  0.30855000  0.35636000  0.61648000  1.0
  C  C123  1  0.19145000  0.64364000  0.11648000  1.0
  C  C124  1  0.67096000  0.87513000  0.79008000  1.0
  C  C125  1  0.82904000  0.12487000  0.29008000  1.0
  C  C126  1  0.32904000  0.37513000  0.70992000  1.0
  C  C127  1  0.17096000  0.62487000  0.20992000  1.0
  C  C128  1  0.58526000  0.93026000  0.76371000  1.0
  C  C129  1  0.91474000  0.06974000  0.26371000  1.0
  C  C130  1  0.41474000  0.43026000  0.73629000  1.0
  C  C131  1  0.08526000  0.56974000  0.23629000  1.0
  C  C132  1  0.56888000  0.94484000  0.67387000  1.0
  C  C133  1  0.93112000  0.05516000  0.17387000  1.0
  C  C134  1  0.43112000  0.44484000  0.82613000  1.0
  C  C135  1  0.06888000  0.55516000  0.32613000  1.0
  C  C136  1  0.64015000  0.90516000  0.61398000  1.0
  C  C137  1  0.85984000  0.09484000  0.11398000  1.0
  C  C138  1  0.35985000  0.40516000  0.88602000  1.0
  C  C139  1  0.14015000  0.59484000  0.38602000  1.0
  C  C140  1  0.72395000  0.85065000  0.64596000  1.0
  C  C141  1  0.77605000  0.14935000  0.14596000  1.0
  C  C142  1  0.27605000  0.35065000  0.85404000  1.0
  C  C143  1  0.22395000  0.64935000  0.35405000  1.0
  C  C144  1  0.75801000  0.56582000  0.80810000  1.0
  C  C145  1  0.74199000  0.43418000  0.30810000  1.0
  C  C146  1  0.24199000  0.06582000  0.69190000  1.0
  C  C147  1  0.25801000  0.93418000  0.19190000  1.0
  C  C148  1  0.87019000  0.56038000  0.85673000  1.0
  C  C149  1  0.62981000  0.43962000  0.35673000  1.0
  C  C150  1  0.12981000  0.06038000  0.64327000  1.0
  C  C151  1  0.37020000  0.93961000  0.14328000  1.0
  C  C152  1  0.94801000  0.33168000  0.73739000  1.0
  C  C153  1  0.55199000  0.66832000  0.23738000  1.0
  C  C154  1  0.05199000  0.83168000  0.76261000  1.0
  C  C155  1  0.44801000  0.16832000  0.26262000  1.0
  C  C156  1  0.97428000  0.28125000  0.82515000  1.0
  C  C157  1  0.52572000  0.71875000  0.32515000  1.0
  C  C158  1  0.02572000  0.78125000  0.67485000  1.0
  C  C159  1  0.47428000  0.21875000  0.17485000  1.0
  N  N160  1  0.66653000  0.28657000  0.81994000  1.0
  N  N161  1  0.83347000  0.71343000  0.31994000  1.0
  N  N162  1  0.33347000  0.78657000  0.68006000  1.0
  N  N163  1  0.16653000  0.21343000  0.18006000  1.0
  N  N164  1  0.68523000  0.36320000  0.97952000  1.0
  N  N165  1  0.81477000  0.63680000  0.47952000  1.0
  N  N166  1  0.31477000  0.86320000  0.52048000  1.0
  N  N167  1  0.18523000  0.13680000  0.02048000  1.0
  N  N168  1  0.76355000  0.79891000  0.90537000  1.0
  N  N169  1  0.73645000  0.20109000  0.40537000  1.0
  N  N170  1  0.23645000  0.29891000  0.59463000  1.0
  N  N171  1  0.26355000  0.70109000  0.09463000  1.0
  N  N172  1  0.73859000  0.83540000  0.73183000  1.0
  N  N173  1  0.76141000  0.16460000  0.23183000  1.0
  N  N174  1  0.26141000  0.33540000  0.76817000  1.0
  N  N175  1  0.23859000  0.66460000  0.26817000  1.0
  O  O176  1  0.89459000  0.48714000  0.89274000  1.0
  O  O177  1  0.60542000  0.51285000  0.39274000  1.0
  O  O178  1  0.10542000  0.98715000  0.60726000  1.0
  O  O179  1  0.39458000  0.01285000  0.10726000  1.0
  O  O180  1  0.92734000  0.63053000  0.85862000  1.0
  O  O181  1  0.57266000  0.36947000  0.35862000  1.0
  O  O182  1  0.07266000  0.13053000  0.64138000  1.0
  O  O183  1  0.42734000  0.86947000  0.14138000  1.0
  O  O184  1  0.69566000  0.49865000  0.81116000  1.0
  O  O185  1  0.80434000  0.50134000  0.31116000  1.0
  O  O186  1  0.30434000  0.99866000  0.68884000  1.0
  O  O187  1  0.19566000  0.00135000  0.18884000  1.0
  O  O188  1  0.73601000  0.63845000  0.76947000  1.0
  O  O189  1  0.76398000  0.36155000  0.26947000  1.0
  O  O190  1  0.26398000  0.13845000  0.73053000  1.0
  O  O191  1  0.23601000  0.86155000  0.23053000  1.0
  O  O192  1  0.85978000  0.37526000  0.73420000  1.0
  O  O193  1  0.64023000  0.62474000  0.23420000  1.0
  O  O194  1  0.14023000  0.87526000  0.76580000  1.0
  O  O195  1  0.35977000  0.12474000  0.26580000  1.0
  O  O196  1  0.01652000  0.32447000  0.67519000  1.0
  O  O197  1  0.48349000  0.67553000  0.17519000  1.0
  O  O198  1  0.98349000  0.82447000  0.82481000  1.0
  O  O199  1  0.51651000  0.17553000  0.32481000  1.0
  O  O200  1  0.90903000  0.29010000  0.88943000  1.0
  O  O201  1  0.59098000  0.70990000  0.38943000  1.0
  O  O202  1  0.09098000  0.79010000  0.61057000  1.0
  O  O203  1  0.40902000  0.20990000  0.11057000  1.0
  O  O204  1  0.06017000  0.23381000  0.82616000  1.0
  O  O205  1  0.43984000  0.76619000  0.32616000  1.0
  O  O206  1  0.93984000  0.73381000  0.67384000  1.0
  O  O207  1  0.56016000  0.26619000  0.17384000  1.0
  F  F208  1  0.57447000  0.70184000  0.97649000  1.0
  F  F209  1  0.92553000  0.29816000  0.47649000  1.0
  F  F210  1  0.42553000  0.20184000  0.52352000  1.0
  F  F211  1  0.07447000  0.79816000  0.02352000  1.0
  F  F212  1  0.53300000  0.52883000  0.00853000  1.0
  F  F213  1  0.96699000  0.47117000  0.50853000  1.0
  F  F214  1  0.46699000  0.02883000  0.49147000  1.0
  F  F215  1  0.03300000  0.97117000  0.99147000  1.0
  F  F216  1  0.94247000  0.66021000  0.06883000  1.0
  F  F217  1  0.55753000  0.33979000  0.56883000  1.0
  F  F218  1  0.05753000  0.16021000  0.43117000  1.0
  F  F219  1  0.44247000  0.83979000  0.93117000  1.0
  F  F220  1  0.90169000  0.48789000  0.09776000  1.0
  F  F221  1  0.59831000  0.51211000  0.59775000  1.0
  F  F222  1  0.09831000  0.98789000  0.40224000  1.0
  F  F223  1  0.40169000  0.01211000  0.90225000  1.0
