# generated using pymatgen
data_ZnH18C28(NO3)4
_symmetry_space_group_name_H-M   'P 1'
_cell_length_a   9.74058000
_cell_length_b   11.89400000
_cell_length_c   13.16000000
_cell_angle_alpha   113.87300000
_cell_angle_beta   93.41820000
_cell_angle_gamma   108.24200000
_symmetry_Int_Tables_number   1
_chemical_formula_structural   ZnH18C28(NO3)4
_chemical_formula_sum   'Zn2 H36 C56 N8 O24'
_cell_volume   1293.30738514
_cell_formula_units_Z   2
loop_
 _symmetry_equiv_pos_site_id
 _symmetry_equiv_pos_as_xyz
  1  'x, y, z'
loop_
 _atom_site_type_symbol
 _atom_site_label
 _atom_site_symmetry_multiplicity
 _atom_site_fract_x
 _atom_site_fract_y
 _atom_site_fract_z
 _atom_site_occupancy
  Zn  Zn0  1  0.62807000  0.98734000  0.60233000  1.0
  Zn  Zn1  1  0.37193000  0.01266000  0.39767000  1.0
  H  H2  1  0.52922000  0.82735000  0.83483000  1.0
  H  H3  1  0.47078000  0.17266000  0.16517000  1.0
  H  H4  1  0.48119000  0.65772000  0.65661000  1.0
  H  H5  1  0.51881000  0.34228000  0.34339000  1.0
  H  H6  1  0.16880000  0.85545000  0.99115000  1.0
  H  H7  1  0.83120000  0.14455000  0.00884000  1.0
  H  H8  1  0.30729000  0.99886000  0.90764000  1.0
  H  H9  1  0.69271000  0.00114000  0.09236000  1.0
  H  H10  1  0.16452000  0.04786000  0.77505000  1.0
  H  H11  1  0.83548000  0.95214000  0.22495000  1.0
  H  H12  1  0.79451000  0.55606000  0.60506000  1.0
  H  H13  1  0.20550000  0.44394000  0.39495000  1.0
  H  H14  1  0.78162000  0.66615000  0.48082000  1.0
  H  H15  1  0.21838000  0.33385000  0.51918000  1.0
  H  H16  1  0.01802000  0.80221000  0.45294000  1.0
  H  H17  1  0.98199000  0.19779000  0.54706000  1.0
  H  H18  1  0.82720000  0.93616000  0.42832000  1.0
  H  H19  1  0.17280000  0.06384000  0.57168000  1.0
  H  H20  1  0.83253000  0.75825000  0.25153000  1.0
  H  H21  1  0.16747000  0.24175000  0.74847000  1.0
  H  H22  1  0.40284000  0.51494000  0.26480000  1.0
  H  H23  1  0.59716000  0.48506000  0.73520000  1.0
  H  H24  1  0.41952000  0.70307000  0.44569000  1.0
  H  H25  1  0.58048000  0.29693000  0.55431000  1.0
  H  H26  1  0.49644000  0.42192000  0.10804000  1.0
  H  H27  1  0.50356000  0.57808000  0.89196000  1.0
  H  H28  1  0.80860000  0.57577000  0.09332000  1.0
  H  H29  1  0.19140000  0.42423000  0.90668000  1.0
  H  H30  1  0.84697000  0.27169000  0.74025000  1.0
  H  H31  1  0.15303000  0.72831000  0.25975000  1.0
  H  H32  1  0.88567000  0.46937000  0.92231000  1.0
  H  H33  1  0.11433000  0.53063000  0.07769000  1.0
  H  H34  1  0.47570000  0.24364000  0.97487000  1.0
  H  H35  1  0.52430000  0.75636000  0.02513000  1.0
  H  H36  1  0.45697000  0.05590000  0.79151000  1.0
  H  H37  1  0.54303000  0.94410000  0.20849000  1.0
  C  C38  1  0.95358000  0.93286000  0.78552000  1.0
  C  C39  1  0.04642000  0.06714000  0.21448000  1.0
  C  C40  1  0.87377000  0.85101000  0.83165000  1.0
  C  C41  1  0.12623000  0.14899000  0.16835000  1.0
  C  C42  1  0.95664000  0.82550000  0.90531000  1.0
  C  C43  1  0.04336000  0.17450000  0.09469000  1.0
  C  C44  1  0.11104000  0.87782000  0.93294000  1.0
  C  C45  1  0.88896000  0.12218000  0.06706000  1.0
  C  C46  1  0.18726000  0.95825000  0.88631000  1.0
  C  C47  1  0.81274000  0.04175000  0.11369000  1.0
  C  C48  1  0.10854000  0.98487000  0.81301000  1.0
  C  C49  1  0.89145000  0.01514000  0.18699000  1.0
  C  C50  1  0.87663000  0.96929000  0.70714000  1.0
  C  C51  1  0.12337000  0.03071000  0.29286000  1.0
  C  C52  1  0.70639000  0.79294000  0.79870000  1.0
  C  C53  1  0.29361000  0.20706000  0.20130000  1.0
  C  C54  1  0.15747000  0.76499000  0.55763000  1.0
  C  C55  1  0.84253000  0.23501000  0.44237000  1.0
  C  C56  1  0.16633000  0.70009000  0.62525000  1.0
  C  C57  1  0.83368000  0.29991000  0.37475000  1.0
  C  C58  1  0.03203000  0.62596000  0.64002000  1.0
  C  C59  1  0.96797000  0.37404000  0.35998000  1.0
  C  C60  1  0.89463000  0.61408000  0.59002000  1.0
  C  C61  1  0.10537000  0.38592000  0.40998000  1.0
  C  C62  1  0.88840000  0.67630000  0.52133000  1.0
  C  C63  1  0.11160000  0.32370000  0.47868000  1.0
  C  C64  1  0.01923000  0.75133000  0.50555000  1.0
  C  C65  1  0.98077000  0.24867000  0.49445000  1.0
  C  C66  1  0.29324000  0.85312000  0.53995000  1.0
  C  C67  1  0.70676000  0.14688000  0.46005000  1.0
  C  C68  1  0.31426000  0.71434000  0.68246000  1.0
  C  C69  1  0.68574000  0.28566000  0.31754000  1.0
  C  C70  1  0.73394000  0.84183000  0.38911000  1.0
  C  C71  1  0.26606000  0.15817000  0.61088000  1.0
  C  C72  1  0.73601000  0.74008000  0.28901000  1.0
  C  C73  1  0.26398000  0.25992000  0.71098000  1.0
  C  C74  1  0.61496000  0.61834000  0.23946000  1.0
  C  C75  1  0.38504000  0.38166000  0.76054000  1.0
  C  C76  1  0.49879000  0.60690000  0.29780000  1.0
  C  C77  1  0.50121000  0.39310000  0.70220000  1.0
  C  C78  1  0.50669000  0.71244000  0.39842000  1.0
  C  C79  1  0.49331000  0.28756000  0.60158000  1.0
  C  C80  1  0.60155000  0.50465000  0.13450000  1.0
  C  C81  1  0.39845000  0.49534000  0.86551000  1.0
  C  C82  1  0.70383000  0.49329000  0.07003000  1.0
  C  C83  1  0.29616000  0.50671000  0.92997000  1.0
  C  C84  1  0.76807000  0.26978000  0.79531000  1.0
  C  C85  1  0.23193000  0.73022000  0.20469000  1.0
  C  C86  1  0.78886000  0.37957000  0.89726000  1.0
  C  C87  1  0.21114000  0.62043000  0.10275000  1.0
  C  C88  1  0.68344000  0.37582000  0.96549000  1.0
  C  C89  1  0.31656000  0.62418000  0.03451000  1.0
  C  C90  1  0.56147000  0.25552000  0.92639000  1.0
  C  C91  1  0.43853000  0.74448000  0.07361000  1.0
  C  C92  1  0.54956000  0.15023000  0.82417000  1.0
  C  C93  1  0.45044000  0.84977000  0.17583000  1.0
  N  N94  1  0.88315000  0.74385000  0.95934000  1.0
  N  N95  1  0.11685000  0.25615000  0.04066000  1.0
  N  N96  1  0.03134000  0.55451000  0.70848000  1.0
  N  N97  1  0.96866000  0.44550000  0.29152000  1.0
  N  N98  1  0.62073000  0.82975000  0.44368000  1.0
  N  N99  1  0.37927000  0.17025000  0.55632000  1.0
  N  N100  1  0.64966000  0.15643000  0.75793000  1.0
  N  N101  1  0.35034000  0.84357000  0.24207000  1.0
  O  O102  1  0.95160000  0.03832000  0.66480000  1.0
  O  O103  1  0.04840000  0.96168000  0.33520000  1.0
  O  O104  1  0.73451000  0.92424000  0.69135000  1.0
  O  O105  1  0.26548000  0.07576000  0.30865000  1.0
  O  O106  1  0.64028000  0.68580000  0.71275000  1.0
  O  O107  1  0.35972000  0.31420000  0.28724000  1.0
  O  O108  1  0.64147000  0.86350000  0.86873000  1.0
  O  O109  1  0.35853000  0.13650000  0.13127000  1.0
  O  O110  1  0.74567000  0.69402000  0.93516000  1.0
  O  O111  1  0.25433000  0.30599000  0.06485000  1.0
  O  O112  1  0.96135000  0.72914000  0.02734000  1.0
  O  O113  1  0.03865000  0.27086000  0.97266000  1.0
  O  O114  1  0.27456000  0.87817000  0.45677000  1.0
  O  O115  1  0.72544000  0.12183000  0.54323000  1.0
  O  O116  1  0.41449000  0.89438000  0.60959000  1.0
  O  O117  1  0.58551000  0.10562000  0.39041000  1.0
  O  O118  1  0.37804000  0.64087000  0.61407000  1.0
  O  O119  1  0.62196000  0.35913000  0.38593000  1.0
  O  O120  1  0.36650000  0.79068000  0.78500000  1.0
  O  O121  1  0.63350000  0.20932000  0.21500000  1.0
  O  O122  1  0.14478000  0.53424000  0.72921000  1.0
  O  O123  1  0.85523000  0.46576000  0.27079000  1.0
  O  O124  1  0.91615000  0.51695000  0.74139000  1.0
  O  O125  1  0.08385000  0.48305000  0.25861000  1.0
