# generated using pymatgen
data_HgH12(C3N2)2
_symmetry_space_group_name_H-M   'P 1'
_cell_length_a   8.86059000
_cell_length_b   10.05060000
_cell_length_c   10.81820000
_cell_angle_alpha   90.00000000
_cell_angle_beta   90.00000000
_cell_angle_gamma   89.99990000
_symmetry_Int_Tables_number   1
_chemical_formula_structural   HgH12(C3N2)2
_chemical_formula_sum   'Hg4 H48 C24 N16'
_cell_volume   963.40664250
_cell_formula_units_Z   4
loop_
 _symmetry_equiv_pos_site_id
 _symmetry_equiv_pos_as_xyz
  1  'x, y, z'
loop_
 _atom_site_type_symbol
 _atom_site_label
 _atom_site_symmetry_multiplicity
 _atom_site_fract_x
 _atom_site_fract_y
 _atom_site_fract_z
 _atom_site_occupancy
  Hg  Hg0  1  0.93242000  0.20496000  0.39816000  1.0
  Hg  Hg1  1  0.43242000  0.79504000  0.60184000  1.0
  Hg  Hg2  1  0.93242000  0.70496000  0.10184000  1.0
  Hg  Hg3  1  0.43242000  0.29505000  0.89816000  1.0
  H  H4  1  0.03747000  0.11553000  0.14469000  1.0
  H  H5  1  0.53747000  0.88447000  0.85531000  1.0
  H  H6  1  0.03747000  0.61554000  0.35531000  1.0
  H  H7  1  0.53747000  0.38446000  0.64469000  1.0
  H  H8  1  0.93824000  0.25378000  0.13316000  1.0
  H  H9  1  0.43824000  0.74622000  0.86683000  1.0
  H  H10  1  0.93824000  0.75378000  0.36684000  1.0
  H  H11  1  0.43824000  0.24622000  0.63316000  1.0
  H  H12  1  0.67152000  0.38595000  0.38921000  1.0
  H  H13  1  0.17151000  0.61405000  0.61079000  1.0
  H  H14  1  0.67152000  0.88595000  0.11079000  1.0
  H  H15  1  0.17152000  0.11405000  0.88920000  1.0
  H  H16  1  0.72814000  0.35926000  0.24555000  1.0
  H  H17  1  0.22814000  0.64074000  0.75445000  1.0
  H  H18  1  0.72814000  0.85926000  0.25445000  1.0
  H  H19  1  0.22814000  0.14074000  0.74555000  1.0
  H  H20  1  0.14553000  0.38160000  0.21859000  1.0
  H  H21  1  0.64553000  0.61840000  0.78141000  1.0
  H  H22  1  0.14553000  0.88160000  0.28141000  1.0
  H  H23  1  0.64553000  0.11840000  0.71859000  1.0
  H  H24  1  0.19077000  0.30595000  0.07612000  1.0
  H  H25  1  0.69077000  0.69405000  0.92388000  1.0
  H  H26  1  0.19076000  0.80595000  0.42388000  1.0
  H  H27  1  0.69077000  0.19405000  0.57612000  1.0
  H  H28  1  0.25743000  0.17220000  0.32513000  1.0
  H  H29  1  0.75743000  0.82780000  0.67487000  1.0
  H  H30  1  0.25743000  0.67220000  0.17487000  1.0
  H  H31  1  0.75743000  0.32780000  0.82513000  1.0
  H  H32  1  0.32554000  0.12506000  0.17798000  1.0
  H  H33  1  0.82553000  0.87494000  0.82202000  1.0
  H  H34  1  0.32554000  0.62506000  0.32202000  1.0
  H  H35  1  0.82554000  0.37494000  0.67798000  1.0
  H  H36  1  0.40074000  0.38129000  0.32071000  1.0
  H  H37  1  0.90074000  0.61872000  0.67929000  1.0
  H  H38  1  0.40074000  0.88129000  0.17929000  1.0
  H  H39  1  0.90074000  0.11871000  0.82071000  1.0
  H  H40  1  0.46187000  0.35185000  0.16768000  1.0
  H  H41  1  0.96187000  0.64815000  0.83232000  1.0
  H  H42  1  0.46187000  0.85185000  0.33232000  1.0
  H  H43  1  0.96187000  0.14815000  0.66768000  1.0
  H  H44  1  0.53882000  0.17404000  0.38959000  1.0
  H  H45  1  0.03883000  0.82596000  0.61041000  1.0
  H  H46  1  0.53882000  0.67404000  0.11041000  1.0
  H  H47  1  0.03883000  0.32596000  0.88959000  1.0
  H  H48  1  0.60138000  0.14925000  0.23623000  1.0
  H  H49  1  0.10138000  0.85076000  0.76377000  1.0
  H  H50  1  0.60138000  0.64924000  0.26377000  1.0
  H  H51  1  0.10138000  0.35075000  0.73623000  1.0
  C  C52  1  0.85513000  0.01150000  0.42695000  1.0
  C  C53  1  0.35513000  0.98850000  0.57306000  1.0
  C  C54  1  0.85512000  0.51150000  0.07305000  1.0
  C  C55  1  0.35513000  0.48850000  0.92694000  1.0
  C  C56  1  0.05111000  0.37220000  0.46052000  1.0
  C  C57  1  0.55111000  0.62781000  0.53948000  1.0
  C  C58  1  0.05112000  0.87219000  0.03948000  1.0
  C  C59  1  0.55111000  0.12781000  0.96052000  1.0
  C  C60  1  0.16324000  0.28465000  0.17361000  1.0
  C  C61  1  0.66324000  0.71535000  0.82639000  1.0
  C  C62  1  0.16324000  0.78465000  0.32639000  1.0
  C  C63  1  0.66324000  0.21534000  0.67361000  1.0
  C  C64  1  0.29411000  0.21173000  0.23491000  1.0
  C  C65  1  0.79411000  0.78827000  0.76509000  1.0
  C  C66  1  0.29411000  0.71173000  0.26509000  1.0
  C  C67  1  0.79411000  0.28827000  0.73491000  1.0
  C  C68  1  0.43068000  0.30187000  0.25483000  1.0
  C  C69  1  0.93068000  0.69814000  0.74517000  1.0
  C  C70  1  0.43068000  0.80186000  0.24518000  1.0
  C  C71  1  0.93068000  0.19813000  0.75483000  1.0
  C  C72  1  0.56777000  0.22609000  0.30334000  1.0
  C  C73  1  0.06777000  0.77391000  0.69666000  1.0
  C  C74  1  0.56777000  0.72609000  0.19666000  1.0
  C  C75  1  0.06777000  0.27391000  0.80334000  1.0
  N  N76  1  0.80595000  0.90382000  0.43645000  1.0
  N  N77  1  0.30595000  0.09618000  0.56355000  1.0
  N  N78  1  0.80595000  0.40382000  0.06355000  1.0
  N  N79  1  0.30595000  0.59618000  0.93645000  1.0
  N  N80  1  0.11297000  0.47028000  0.48932000  1.0
  N  N81  1  0.61297000  0.52972000  0.51068000  1.0
  N  N82  1  0.11297000  0.97027000  0.01068000  1.0
  N  N83  1  0.61297000  0.02973000  0.98932000  1.0
  N  N84  1  0.02204000  0.20779000  0.18310000  1.0
  N  N85  1  0.52203000  0.79221000  0.81690000  1.0
  N  N86  1  0.02204000  0.70778000  0.31690000  1.0
  N  N87  1  0.52204000  0.29222000  0.68310000  1.0
  N  N88  1  0.69890000  0.31273000  0.32648000  1.0
  N  N89  1  0.19889000  0.68727000  0.67352000  1.0
  N  N90  1  0.69889000  0.81273000  0.17352000  1.0
  N  N91  1  0.19890000  0.18727000  0.82648000  1.0
