# generated using pymatgen
data_Cu3H8C12I3N2
_symmetry_space_group_name_H-M   'P 1'
_cell_length_a   4.08140000
_cell_length_b   13.16910000
_cell_length_c   15.64440000
_cell_angle_alpha   112.82500000
_cell_angle_beta   92.45980000
_cell_angle_gamma   97.49410000
_symmetry_Int_Tables_number   1
_chemical_formula_structural   Cu3H8C12I3N2
_chemical_formula_sum   'Cu6 H16 C24 I6 N4'
_cell_volume   764.36271113
_cell_formula_units_Z   2
loop_
 _symmetry_equiv_pos_site_id
 _symmetry_equiv_pos_as_xyz
  1  'x, y, z'
loop_
 _atom_site_type_symbol
 _atom_site_label
 _atom_site_symmetry_multiplicity
 _atom_site_fract_x
 _atom_site_fract_y
 _atom_site_fract_z
 _atom_site_occupancy
  Cu  Cu0  1  0.94428000  0.93006000  0.40624000  1.0
  Cu  Cu1  1  0.05573000  0.06994000  0.59376000  1.0
  Cu  Cu2  1  0.47923000  0.03267000  0.36096000  1.0
  Cu  Cu3  1  0.52078000  0.96733000  0.63904000  1.0
  Cu  Cu4  1  0.98655000  0.18995000  0.20193000  1.0
  Cu  Cu5  1  0.01345000  0.81005000  0.79806000  1.0
  H  H6  1  0.05703000  0.38482000  0.40664000  1.0
  H  H7  1  0.94296000  0.61518000  0.59336000  1.0
  H  H8  1  0.38032000  0.57926000  0.47629000  1.0
  H  H9  1  0.61966000  0.42074000  0.52371000  1.0
  H  H10  1  0.69868000  0.65278000  0.37335000  1.0
  H  H11  1  0.30129000  0.34722000  0.62666000  1.0
  H  H12  1  0.85909000  0.62019000  0.21231000  1.0
  H  H13  1  0.14089000  0.37981000  0.78770000  1.0
  H  H14  1  0.80463000  0.49897000  0.04389000  1.0
  H  H15  1  0.19538000  0.50104000  0.95612000  1.0
  H  H16  1  0.55067000  0.31728000  0.90952000  1.0
  H  H17  1  0.44935000  0.68273000  0.09048000  1.0
  H  H18  1  0.17521000  0.13386000  0.85762000  1.0
  H  H19  1  0.82481000  0.86614000  0.14238000  1.0
  H  H20  1  0.90289000  0.07868000  0.97623000  1.0
  H  H21  1  0.09711000  0.92132000  0.02377000  1.0
  C  C22  1  0.19216000  0.42038000  0.36336000  1.0
  C  C23  1  0.80783000  0.57961000  0.63664000  1.0
  C  C24  1  0.37551000  0.52866000  0.40205000  1.0
  C  C25  1  0.62447000  0.47133000  0.59795000  1.0
  C  C26  1  0.55034000  0.56968000  0.34523000  1.0
  C  C27  1  0.44964000  0.43032000  0.65477000  1.0
  C  C28  1  0.53342000  0.50251000  0.24912000  1.0
  C  C29  1  0.46658000  0.49749000  0.75088000  1.0
  C  C30  1  0.70417000  0.53810000  0.18500000  1.0
  C  C31  1  0.29583000  0.46190000  0.81501000  1.0
  C  C32  1  0.67446000  0.47098000  0.09214000  1.0
  C  C33  1  0.32555000  0.52902000  0.90786000  1.0
  C  C34  1  0.47028000  0.36344000  0.05549000  1.0
  C  C35  1  0.52973000  0.63655000  0.94451000  1.0
  C  C36  1  0.42435000  0.29212000  0.95991000  1.0
  C  C37  1  0.57567000  0.70788000  0.04009000  1.0
  C  C38  1  0.21849000  0.19023000  0.93095000  1.0
  C  C39  1  0.78152000  0.80978000  0.06905000  1.0
  C  C40  1  0.06530000  0.15886000  0.99762000  1.0
  C  C41  1  0.93471000  0.84114000  0.00238000  1.0
  C  C42  1  0.30216000  0.32539000  0.11768000  1.0
  C  C43  1  0.69784000  0.67461000  0.88232000  1.0
  C  C44  1  0.33579000  0.39532000  0.21559000  1.0
  C  C45  1  0.66420000  0.60467000  0.78441000  1.0
  I  I46  1  0.04264000  0.14851000  0.46004000  1.0
  I  I47  1  0.95737000  0.85149000  0.53996000  1.0
  I  I48  1  0.37989000  0.81783000  0.30040000  1.0
  I  I49  1  0.62011000  0.18217000  0.69960000  1.0
  I  I50  1  0.45669000  0.07788000  0.21126000  1.0
  I  I51  1  0.54331000  0.92212000  0.78874000  1.0
  N  N52  1  0.10503000  0.22389000  0.08859000  1.0
  N  N53  1  0.89498000  0.77611000  0.91141000  1.0
  N  N54  1  0.17174000  0.35450000  0.27271000  1.0
  N  N55  1  0.82825000  0.64550000  0.72729000  1.0
