# generated using pymatgen
data_ZnH9C13N3O4
_symmetry_space_group_name_H-M   'P 1'
_cell_length_a   8.55560000
_cell_length_b   8.94102000
_cell_length_c   9.06574000
_cell_angle_alpha   113.85800000
_cell_angle_beta   100.08100000
_cell_angle_gamma   98.43950000
_symmetry_Int_Tables_number   1
_chemical_formula_structural   ZnH9C13N3O4
_chemical_formula_sum   'Zn2 H18 C26 N6 O8'
_cell_volume   605.93902601
_cell_formula_units_Z   2
loop_
 _symmetry_equiv_pos_site_id
 _symmetry_equiv_pos_as_xyz
  1  'x, y, z'
loop_
 _atom_site_type_symbol
 _atom_site_label
 _atom_site_symmetry_multiplicity
 _atom_site_fract_x
 _atom_site_fract_y
 _atom_site_fract_z
 _atom_site_occupancy
  Zn  Zn0  1  0.22976000  0.75322000  0.76655000  1.0
  Zn  Zn1  1  0.77024000  0.24678000  0.23346000  1.0
  H  H2  1  0.21341000  0.15321000  0.23296000  1.0
  H  H3  1  0.78659000  0.84679000  0.76704000  1.0
  H  H4  1  0.39630000  0.58898000  0.93950000  1.0
  H  H5  1  0.60370000  0.41102000  0.06050000  1.0
  H  H6  1  0.45793000  0.59149000  0.22107000  1.0
  H  H7  1  0.54207000  0.40851000  0.77893000  1.0
  H  H8  1  0.39338000  0.82310000  0.45769000  1.0
  H  H9  1  0.60662000  0.17690000  0.54231000  1.0
  H  H10  1  0.28065000  0.04447000  0.40378000  1.0
  H  H11  1  0.71935000  0.95553000  0.59622000  1.0
  H  H12  1  0.13879000  0.33270000  0.14332000  1.0
  H  H13  1  0.86121000  0.66730000  0.85667000  1.0
  H  H14  1  0.08393000  0.41650000  0.91087000  1.0
  H  H15  1  0.91607000  0.58350000  0.08913000  1.0
  H  H16  1  0.10774000  0.22441000  0.62821000  1.0
  H  H17  1  0.89226000  0.77559000  0.37179000  1.0
  H  H18  1  0.17223000  0.94781000  0.58791000  1.0
  H  H19  1  0.82776000  0.05219000  0.41209000  1.0
  C  C20  1  0.37374000  0.68751000  0.04723000  1.0
  C  C21  1  0.62626000  0.31249000  0.95277000  1.0
  C  C22  1  0.40769000  0.68943000  0.20268000  1.0
  C  C23  1  0.59230000  0.31056000  0.79732000  1.0
  C  C24  1  0.37215000  0.81896000  0.33408000  1.0
  C  C25  1  0.62785000  0.18104000  0.66592000  1.0
  C  C26  1  0.30855000  0.94079000  0.30509000  1.0
  C  C27  1  0.69145000  0.05921000  0.69491000  1.0
  C  C28  1  0.27795000  0.93111000  0.14273000  1.0
  C  C29  1  0.72205000  0.06889000  0.85727000  1.0
  C  C30  1  0.18832000  0.09585000  0.98771000  1.0
  C  C31  1  0.81168000  0.90416000  0.01229000  1.0
  C  C32  1  0.14813000  0.25204000  0.01903000  1.0
  C  C33  1  0.85187000  0.74796000  0.98097000  1.0
  C  C34  1  0.11742000  0.29814000  0.89063000  1.0
  C  C35  1  0.88258000  0.70186000  0.10937000  1.0
  C  C36  1  0.12918000  0.19090000  0.73156000  1.0
  C  C37  1  0.87082000  0.80910000  0.26844000  1.0
  C  C38  1  0.16711000  0.03976000  0.70920000  1.0
  C  C39  1  0.83289000  0.96024000  0.29080000  1.0
  C  C40  1  0.47156000  0.59345000  0.59795000  1.0
  C  C41  1  0.52844000  0.40655000  0.40205000  1.0
  C  C42  1  0.38259000  0.42193000  0.46857000  1.0
  C  C43  1  0.61741000  0.57807000  0.53143000  1.0
  C  C44  1  0.02254000  0.53693000  0.44049000  1.0
  C  C45  1  0.97746000  0.46307000  0.55951000  1.0
  N  N46  1  0.30867000  0.80401000  0.01598000  1.0
  N  N47  1  0.69133000  0.19599000  0.98402000  1.0
  N  N48  1  0.21471000  0.05551000  0.11996000  1.0
  N  N49  1  0.78529000  0.94449000  0.88004000  1.0
  N  N50  1  0.19539000  0.99058000  0.83299000  1.0
  N  N51  1  0.80461000  0.00942000  0.16701000  1.0
  O  O52  1  0.44575000  0.71174000  0.72061000  1.0
  O  O53  1  0.55425000  0.28826000  0.27939000  1.0
  O  O54  1  0.24378000  0.32547000  0.42877000  1.0
  O  O55  1  0.75622000  0.67453000  0.57123000  1.0
  O  O56  1  0.13199000  0.67249000  0.50326000  1.0
  O  O57  1  0.86801000  0.32750000  0.49674000  1.0
  O  O58  1  0.94582000  0.45613000  0.28669000  1.0
  O  O59  1  0.05418000  0.54387000  0.71331000  1.0
