# generated using pymatgen
data_ZnH4C4N2O3
_symmetry_space_group_name_H-M   'P 1'
_cell_length_a   5.92063000
_cell_length_b   8.90071000
_cell_length_c   12.53130000
_cell_angle_alpha   110.79100000
_cell_angle_beta   103.65000000
_cell_angle_gamma   90.01070000
_symmetry_Int_Tables_number   1
_chemical_formula_structural   ZnH4C4N2O3
_chemical_formula_sum   'Zn4 H16 C16 N8 O12'
_cell_volume   597.36507787
_cell_formula_units_Z   4
loop_
 _symmetry_equiv_pos_site_id
 _symmetry_equiv_pos_as_xyz
  1  'x, y, z'
loop_
 _atom_site_type_symbol
 _atom_site_label
 _atom_site_symmetry_multiplicity
 _atom_site_fract_x
 _atom_site_fract_y
 _atom_site_fract_z
 _atom_site_occupancy
  Zn  Zn0  1  0.64690000  0.78569000  0.76867000  1.0
  Zn  Zn1  1  0.35302000  0.01693000  0.23130000  1.0
  Zn  Zn2  1  0.62205000  0.28583000  0.76875000  1.0
  Zn  Zn3  1  0.37800000  0.51707000  0.23131000  1.0
  H  H4  1  0.49996000  0.01664000  0.99996000  1.0
  H  H5  1  0.99990000  0.51664000  0.00002000  1.0
  H  H6  1  0.49992000  0.46599000  0.00003000  1.0
  H  H7  1  0.00032000  0.96590000  0.99993000  1.0
  H  H8  1  0.63567000  0.57344000  0.49988000  1.0
  H  H9  1  0.36411000  0.07347000  0.50006000  1.0
  H  H10  1  0.93773000  0.86797000  0.50006000  1.0
  H  H11  1  0.06219000  0.36786000  0.49988000  1.0
  H  H12  1  0.07625000  0.77287000  0.75691000  1.0
  H  H13  1  0.92363000  0.01599000  0.24303000  1.0
  H  H14  1  0.18091000  0.27297000  0.75685000  1.0
  H  H15  1  0.81913000  0.51607000  0.24318000  1.0
  H  H16  1  0.99444000  0.59314000  0.75389000  1.0
  H  H17  1  0.00529000  0.83928000  0.24607000  1.0
  H  H18  1  0.25958000  0.09329000  0.75396000  1.0
  H  H19  1  0.74044000  0.33925000  0.24608000  1.0
  C  C20  1  0.50002000  0.89410000  0.00002000  1.0
  C  C21  1  0.99999000  0.39408000  0.99999000  1.0
  C  C22  1  0.53874000  0.62064000  0.90382000  1.0
  C  C23  1  0.46150000  0.71685000  0.09628000  1.0
  C  C24  1  0.86515000  0.12061000  0.90383000  1.0
  C  C25  1  0.13511000  0.21678000  0.09617000  1.0
  C  C26  1  0.49993000  0.58809000  0.99999000  1.0
  C  C27  1  0.00021000  0.08804000  0.99998000  1.0
  C  C28  1  0.47843000  0.63788000  0.49993000  1.0
  C  C29  1  0.52135000  0.13791000  0.50001000  1.0
  C  C30  1  0.24446000  0.81196000  0.60736000  1.0
  C  C31  1  0.75549000  0.20460000  0.39263000  1.0
  C  C32  1  0.86274000  0.31198000  0.60725000  1.0
  C  C33  1  0.13703000  0.70471000  0.39273000  1.0
  C  C34  1  0.09346000  0.80300000  0.50009000  1.0
  C  C35  1  0.90641000  0.30291000  0.49990000  1.0
  N  N36  1  0.54601000  0.77838000  0.90848000  1.0
  N  N37  1  0.45413000  0.86989000  0.09154000  1.0
  N  N38  1  0.86261000  0.27834000  0.90849000  1.0
  N  N39  1  0.13750000  0.36988000  0.09154000  1.0
  N  N40  1  0.44237000  0.72629000  0.60419000  1.0
  N  N41  1  0.55758000  0.12199000  0.39576000  1.0
  N  N42  1  0.66173000  0.22634000  0.60419000  1.0
  N  N43  1  0.33793000  0.62204000  0.39576000  1.0
  O  O44  1  0.57278000  0.51874000  0.80725000  1.0
  O  O45  1  0.42792000  0.71148000  0.19293000  1.0
  O  O46  1  0.73450000  0.01866000  0.80732000  1.0
  O  O47  1  0.26575000  0.21133000  0.19267000  1.0
  O  O48  1  0.21463000  0.89270000  0.71003000  1.0
  O  O49  1  0.78545000  0.18267000  0.28997000  1.0
  O  O50  1  0.99541000  0.39269000  0.70987000  1.0
  O  O51  1  0.00440000  0.68294000  0.29016000  1.0
  O  O52  1  0.97095000  0.71113000  0.78179000  1.0
  O  O53  1  0.02886000  0.92935000  0.21814000  1.0
  O  O54  1  0.31099000  0.21126000  0.78183000  1.0
  O  O55  1  0.68903000  0.42941000  0.21827000  1.0
