# generated using pymatgen
data_H4PbC3BrO2
_symmetry_space_group_name_H-M   'P 1'
_cell_length_a   9.00556000
_cell_length_b   9.00555000
_cell_length_c   14.23320000
_cell_angle_alpha   89.98240000
_cell_angle_beta   89.97070000
_cell_angle_gamma   89.98760000
_symmetry_Int_Tables_number   1
_chemical_formula_structural   H4PbC3BrO2
_chemical_formula_sum   'H32 Pb8 C24 Br8 O16'
_cell_volume   1154.31258449
_cell_formula_units_Z   8
loop_
 _symmetry_equiv_pos_site_id
 _symmetry_equiv_pos_as_xyz
  1  'x, y, z'
loop_
 _atom_site_type_symbol
 _atom_site_label
 _atom_site_symmetry_multiplicity
 _atom_site_fract_x
 _atom_site_fract_y
 _atom_site_fract_z
 _atom_site_occupancy
  H  H0  1  0.78931000  0.48413000  0.61790000  1.0
  H  H1  1  0.21044000  0.51560000  0.11807000  1.0
  H  H2  1  0.98422000  0.71066000  0.36798000  1.0
  H  H3  1  0.01571000  0.28945000  0.86800000  1.0
  H  H4  1  0.28936000  0.01584000  0.13199000  1.0
  H  H5  1  0.71057000  0.98419000  0.63203000  1.0
  H  H6  1  0.48418000  0.78943000  0.38201000  1.0
  H  H7  1  0.51581000  0.21058000  0.88199000  1.0
  H  H8  1  0.64779000  0.49775000  0.70336000  1.0
  H  H9  1  0.35208000  0.50220000  0.20346000  1.0
  H  H10  1  0.99773000  0.85230000  0.45337000  1.0
  H  H11  1  0.00216000  0.14787000  0.95337000  1.0
  H  H12  1  0.14789000  0.00221000  0.04650000  1.0
  H  H13  1  0.85214000  0.99780000  0.54663000  1.0
  H  H14  1  0.49773000  0.64794000  0.29652000  1.0
  H  H15  1  0.50222000  0.35218000  0.79660000  1.0
  H  H16  1  0.70169000  0.23711000  0.64540000  1.0
  H  H17  1  0.29825000  0.76266000  0.14541000  1.0
  H  H18  1  0.73713000  0.79829000  0.39537000  1.0
  H  H19  1  0.26269000  0.20175000  0.89541000  1.0
  H  H20  1  0.20182000  0.26284000  0.10456000  1.0
  H  H21  1  0.79825000  0.73720000  0.60450000  1.0
  H  H22  1  0.23721000  0.70178000  0.35455000  1.0
  H  H23  1  0.76285000  0.29830000  0.85455000  1.0
  H  H24  1  0.88296000  0.24898000  0.69100000  1.0
  H  H25  1  0.11697000  0.75099000  0.19098000  1.0
  H  H26  1  0.74900000  0.61702000  0.44095000  1.0
  H  H27  1  0.25101000  0.38302000  0.94103000  1.0
  H  H28  1  0.38303000  0.25107000  0.05894000  1.0
  H  H29  1  0.61698000  0.74892000  0.55890000  1.0
  H  H30  1  0.24890000  0.88303000  0.30896000  1.0
  H  H31  1  0.75095000  0.11701000  0.80894000  1.0
  Pb  Pb32  1  0.08776000  0.69828000  0.87372000  1.0
  Pb  Pb33  1  0.91212000  0.30170000  0.37387000  1.0
  Pb  Pb34  1  0.19883000  0.41191000  0.62315000  1.0
  Pb  Pb35  1  0.80163000  0.58779000  0.12389000  1.0
  Pb  Pb36  1  0.58774000  0.80105000  0.87657000  1.0
  Pb  Pb37  1  0.41243000  0.19819000  0.37604000  1.0
  Pb  Pb38  1  0.69860000  0.08803000  0.12636000  1.0
  Pb  Pb39  1  0.30159000  0.91205000  0.62647000  1.0
  C  C40  1  0.86804000  0.53722000  0.75373000  1.0
  C  C41  1  0.13202000  0.46279000  0.25395000  1.0
  C  C42  1  0.03727000  0.63218000  0.50379000  1.0
  C  C43  1  0.96276000  0.36801000  0.00384000  1.0
  C  C44  1  0.36806000  0.96276000  0.99620000  1.0
  C  C45  1  0.63198000  0.03722000  0.49619000  1.0
  C  C46  1  0.53725000  0.86810000  0.24620000  1.0
  C  C47  1  0.46280000  0.13199000  0.74615000  1.0
  C  C48  1  0.76036000  0.45573000  0.69086000  1.0
  C  C49  1  0.23954000  0.54421000  0.19096000  1.0
  C  C50  1  0.95572000  0.73976000  0.44090000  1.0
  C  C51  1  0.04424000  0.26042000  0.94092000  1.0
  C  C52  1  0.26038000  0.04428000  0.05905000  1.0
  C  C53  1  0.73958000  0.95574000  0.55909000  1.0
  C  C54  1  0.45570000  0.76048000  0.30908000  1.0
  C  C55  1  0.54426000  0.23963000  0.80905000  1.0
  C  C56  1  0.76810000  0.28682000  0.70212000  1.0
  C  C57  1  0.23179000  0.71311000  0.20217000  1.0
  C  C58  1  0.78684000  0.73188000  0.45211000  1.0
  C  C59  1  0.21312000  0.26819000  0.95216000  1.0
  C  C60  1  0.26820000  0.21317000  0.04780000  1.0
  C  C61  1  0.73181000  0.78684000  0.54778000  1.0
  C  C62  1  0.28682000  0.76821000  0.29779000  1.0
  C  C63  1  0.71315000  0.23188000  0.79782000  1.0
  Br  Br64  1  0.87283000  0.87256000  0.00036000  1.0
  Br  Br65  1  0.12749000  0.12718000  0.49973000  1.0
  Br  Br66  1  0.37249000  0.62703000  0.75014000  1.0
  Br  Br67  1  0.62694000  0.37323000  0.25006000  1.0
  Br  Br68  1  0.04484000  0.95535000  0.75023000  1.0
  Br  Br69  1  0.95524000  0.04480000  0.25018000  1.0
  Br  Br70  1  0.45572000  0.45533000  0.49973000  1.0
  Br  Br71  1  0.54438000  0.54443000  0.00038000  1.0
  O  O72  1  0.82442000  0.64279000  0.80657000  1.0
  O  O73  1  0.17567000  0.35711000  0.30665000  1.0
  O  O74  1  0.14327000  0.67565000  0.55624000  1.0
  O  O75  1  0.85696000  0.32435000  0.05647000  1.0
  O  O76  1  0.32449000  0.85713000  0.94345000  1.0
  O  O77  1  0.67570000  0.14281000  0.44342000  1.0
  O  O78  1  0.64284000  0.82444000  0.19343000  1.0
  O  O79  1  0.35709000  0.17553000  0.69342000  1.0
  O  O80  1  0.00607000  0.49959000  0.75314000  1.0
  O  O81  1  0.99400000  0.50062000  0.25358000  1.0
  O  O82  1  0.99920000  0.49424000  0.50348000  1.0
  O  O83  1  0.00063000  0.50599000  0.00350000  1.0
  O  O84  1  0.50608000  0.00044000  0.99679000  1.0
  O  O85  1  0.49395000  0.99953000  0.49665000  1.0
  O  O86  1  0.49959000  0.00617000  0.24670000  1.0
  O  O87  1  0.50060000  0.99399000  0.74666000  1.0
