# generated using pymatgen
data_Zn2H29C41N9O2
_symmetry_space_group_name_H-M   'P 1'
_cell_length_a   19.65770000
_cell_length_b   20.63360000
_cell_length_c   21.07660000
_cell_angle_alpha   106.49500000
_cell_angle_beta   107.01700000
_cell_angle_gamma   112.43300000
_symmetry_Int_Tables_number   1
_chemical_formula_structural   Zn2H29C41N9O2
_chemical_formula_sum   'Zn4 H58 C82 N18 O4'
_cell_volume   6756.82958244
_cell_formula_units_Z   2
loop_
 _symmetry_equiv_pos_site_id
 _symmetry_equiv_pos_as_xyz
  1  'x, y, z'
loop_
 _atom_site_type_symbol
 _atom_site_label
 _atom_site_symmetry_multiplicity
 _atom_site_fract_x
 _atom_site_fract_y
 _atom_site_fract_z
 _atom_site_occupancy
  Zn  Zn0  1  0.41386000  0.38654000  0.49285000  1.0
  Zn  Zn1  1  0.63247000  0.63060000  0.50794000  1.0
  Zn  Zn2  1  0.42120000  0.50284000  0.40772000  1.0
  Zn  Zn3  1  0.62335000  0.54313000  0.61978000  1.0
  H  H4  1  0.26747000  0.22202000  0.34056000  1.0
  H  H5  1  0.73972000  0.56284000  0.44714000  1.0
  H  H6  1  0.44450000  0.37477000  0.30845000  1.0
  H  H7  1  0.59207000  0.28844000  0.58914000  1.0
  H  H8  1  0.65076000  0.58167000  0.33919000  1.0
  H  H9  1  0.44260000  0.26945000  0.37966000  1.0
  H  H10  1  0.67012000  0.41009000  0.54981000  1.0
  H  H11  1  0.22815000  0.39151000  0.27680000  1.0
  H  H12  1  0.36927000  0.38785000  0.62670000  1.0
  H  H13  1  0.63020000  0.78402000  0.53370000  1.0
  H  H14  1  0.31680000  0.56746000  0.46077000  1.0
  H  H15  1  0.64048000  0.67215000  0.74730000  1.0
  H  H16  1  0.74818000  0.82434000  0.65626000  1.0
  H  H17  1  0.22385000  0.34519000  0.47073000  1.0
  H  H18  1  0.63259000  0.52602000  0.77093000  1.0
  H  H19  1  0.44924000  0.97093000  0.28477000  1.0
  H  H20  1  0.57943000  0.93824000  0.31658000  1.0
  H  H21  1  0.39647000  0.90312000  0.37394000  1.0
  H  H22  1  0.50020000  0.05347000  0.49931000  1.0
  H  H23  1  0.63056000  0.02009000  0.53087000  1.0
  H  H24  1  0.68291000  0.08777000  0.44155000  1.0
  H  H25  1  0.85773000  0.28901000  0.42524000  1.0
  H  H26  1  0.89768000  0.29371000  0.30705000  1.0
  H  H27  1  0.02228000  0.41198000  0.52919000  1.0
  H  H28  1  0.97130000  0.52364000  0.52446000  1.0
  H  H29  1  0.01009000  0.52770000  0.40502000  1.0
  H  H30  1  0.59735000  0.53030000  0.87231000  1.0
  H  H31  1  0.41292000  0.33844000  0.16965000  1.0
  H  H32  1  0.67772000  0.47749000  0.26258000  1.0
  H  H33  1  0.59041000  0.39541000  0.01131000  1.0
  H  H34  1  0.35564000  0.28012000  0.80766000  1.0
  H  H35  1  0.40209000  0.29666000  0.04381000  1.0
  H  H36  1  0.36676000  0.31936000  0.70936000  1.0
  H  H37  1  0.40260000  0.32754000  0.94992000  1.0
  H  H38  1  0.66676000  0.43721000  0.13648000  1.0
  H  H39  1  0.12052000  0.13483000  0.27687000  1.0
  H  H40  1  0.71902000  0.77511000  0.86067000  1.0
  H  H41  1  0.75790000  0.93388000  0.76138000  1.0
  H  H42  1  0.90870000  0.09051000  0.01560000  1.0
  H  H43  1  0.94739000  0.20704000  0.12160000  1.0
  H  H44  1  0.78118000  0.88442000  0.98183000  1.0
  H  H45  1  0.09337000  0.30474000  0.20736000  1.0
  H  H46  1  0.97423000  0.03841000  0.19277000  1.0
  H  H47  1  0.82247000  0.04461000  0.88449000  1.0
  H  H48  1  0.21690000  0.62039000  0.25397000  1.0
  H  H49  1  0.18524000  0.55478000  0.29250000  1.0
  H  H50  1  0.18605000  0.64463000  0.32432000  1.0
  H  H51  1  0.30907000  0.65358000  0.41620000  1.0
  H  H52  1  0.34052000  0.72040000  0.37991000  1.0
  H  H53  1  0.36097000  0.63049000  0.29118000  1.0
  H  H54  1  0.32373000  0.55787000  0.32075000  1.0
  H  H55  1  0.67203000  0.94213000  0.13055000  1.0
  H  H56  1  0.75405000  0.94608000  0.19869000  1.0
  H  H57  1  0.72157000  0.01472000  0.22384000  1.0
  H  H58  1  0.85280000  0.07868000  0.21419000  1.0
  H  H59  1  0.77154000  0.07448000  0.14619000  1.0
  H  H60  1  0.75104000  0.95323000  0.05170000  1.0
  H  H61  1  0.83263000  0.95750000  0.11978000  1.0
  C  C62  1  0.27158000  0.27270000  0.33205000  1.0
  C  C63  1  0.71845000  0.53453000  0.47919000  1.0
  C  C64  1  0.49574000  0.43251000  0.32682000  1.0
  C  C65  1  0.55318000  0.29440000  0.54508000  1.0
  C  C66  1  0.60125000  0.53851000  0.34336000  1.0
  C  C67  1  0.47694000  0.28306000  0.43694000  1.0
  C  C68  1  0.68327000  0.45541000  0.53123000  1.0
  C  C69  1  0.25133000  0.35870000  0.29916000  1.0
  C  C70  1  0.20845000  0.28182000  0.29006000  1.0
  C  C71  1  0.71981000  0.46821000  0.48451000  1.0
  C  C72  1  0.54930000  0.45742000  0.29612000  1.0
  C  C73  1  0.52491000  0.25380000  0.46720000  1.0
  C  C74  1  0.43605000  0.42409000  0.65237000  1.0
  C  C75  1  0.56942000  0.73521000  0.49195000  1.0
  C  C76  1  0.30771000  0.51476000  0.46704000  1.0
  C  C77  1  0.66408000  0.69923000  0.71535000  1.0
  C  C78  1  0.71798000  0.77620000  0.66816000  1.0
  C  C79  1  0.26037000  0.40095000  0.47209000  1.0
  C  C80  1  0.57012000  0.49585000  0.72680000  1.0
  C  C81  1  0.44182000  0.65656000  0.39940000  1.0
  C  C82  1  0.49493000  0.44840000  0.72427000  1.0
  C  C83  1  0.50813000  0.73516000  0.43685000  1.0
  C  C84  1  0.23566000  0.45340000  0.45811000  1.0
  C  C85  1  0.70523000  0.77852000  0.73117000  1.0
  C  C86  1  0.56182000  0.96429000  0.35727000  1.0
  C  C87  1  0.48920000  0.98139000  0.33958000  1.0
  C  C88  1  0.53716000  0.19230000  0.43407000  1.0
  C  C89  1  0.51393000  0.79910000  0.42231000  1.0
  C  C90  1  0.61918000  0.04650000  0.42671000  1.0
  C  C91  1  0.54626000  0.06494000  0.40934000  1.0
  C  C92  1  0.59038000  0.01026000  0.47643000  1.0
  C  C93  1  0.53247000  0.92635000  0.40716000  1.0
  C  C94  1  0.51743000  0.02641000  0.45887000  1.0
  C  C95  1  0.46003000  0.94511000  0.38912000  1.0
  C  C96  1  0.54758000  0.13619000  0.41728000  1.0
  C  C97  1  0.52351000  0.85643000  0.41147000  1.0
  C  C98  1  0.91473000  0.34451000  0.35613000  1.0
  C  C99  1  0.89315000  0.34241000  0.42177000  1.0
  C  C100  1  0.75779000  0.43157000  0.45405000  1.0
  C  C101  1  0.15552000  0.44157000  0.43760000  1.0
  C  C102  1  0.88895000  0.40645000  0.35414000  1.0
  C  C103  1  0.86530000  0.40477000  0.42061000  1.0
  C  C104  1  0.97753000  0.47548000  0.41132000  1.0
  C  C105  1  0.00634000  0.41393000  0.41421000  1.0
  C  C106  1  0.95701000  0.47294000  0.47692000  1.0
  C  C107  1  0.98274000  0.41063000  0.47945000  1.0
  C  C108  1  0.79905000  0.41000000  0.43033000  1.0
  C  C109  1  0.08377000  0.42489000  0.41925000  1.0
  C  C110  1  0.48395000  0.42689000  0.78221000  1.0
  C  C111  1  0.54442000  0.47430000  0.85629000  1.0
  C  C112  1  0.53625000  0.45209000  0.91115000  1.0
  C  C113  1  0.47000000  0.38081000  0.89626000  1.0
  C  C114  1  0.40848000  0.33552000  0.82191000  1.0
  C  C115  1  0.41484000  0.35759000  0.76648000  1.0
  C  C116  1  0.46276000  0.33667000  0.09154000  1.0
  C  C117  1  0.46886000  0.35975000  0.16249000  1.0
  C  C118  1  0.61698000  0.43873000  0.21474000  1.0
  C  C119  1  0.61088000  0.41525000  0.14367000  1.0
  C  C120  1  0.53330000  0.36897000  0.08060000  1.0
  C  C121  1  0.46416000  0.35547000  0.95329000  1.0
  C  C122  1  0.53024000  0.37017000  0.01124000  1.0
  C  C123  1  0.54556000  0.41596000  0.22514000  1.0
  C  C124  1  0.11993000  0.22651000  0.24629000  1.0
  C  C125  1  0.08307000  0.15166000  0.24336000  1.0
  C  C126  1  0.99999000  0.09709000  0.19602000  1.0
  C  C127  1  0.95060000  0.11424000  0.14806000  1.0
  C  C128  1  0.98552000  0.19106000  0.15552000  1.0
  C  C129  1  0.06811000  0.24601000  0.20385000  1.0
  C  C130  1  0.77381000  0.89606000  0.93375000  1.0
  C  C131  1  0.73894000  0.83381000  0.86458000  1.0
  C  C132  1  0.76224000  0.92240000  0.80948000  1.0
  C  C133  1  0.79804000  0.98499000  0.87901000  1.0
  C  C134  1  0.80657000  0.97404000  0.94348000  1.0
  C  C135  1  0.87029000  0.04906000  0.08522000  1.0
  C  C136  1  0.86097000  0.04156000  0.01651000  1.0
  C  C137  1  0.73390000  0.84521000  0.80091000  1.0
  C  C138  1  0.35715000  0.62181000  0.33956000  1.0
  C  C139  1  0.30815000  0.65740000  0.36487000  1.0
  C  C140  1  0.21925000  0.61715000  0.30572000  1.0
  C  C141  1  0.80994000  0.99405000  0.10218000  1.0
  C  C142  1  0.79401000  0.03786000  0.16340000  1.0
  C  C143  1  0.73207000  0.98226000  0.18005000  1.0
  N  N144  1  0.34593000  0.33890000  0.36429000  1.0
  N  N145  1  0.68472000  0.55977000  0.51980000  1.0
  N  N146  1  0.51403000  0.49419000  0.38726000  1.0
  N  N147  1  0.52482000  0.34305000  0.56057000  1.0
  N  N148  1  0.57924000  0.56012000  0.39676000  1.0
  N  N149  1  0.47748000  0.33569000  0.49360000  1.0
  N  N150  1  0.66318000  0.51098000  0.55200000  1.0
  N  N151  1  0.33229000  0.39157000  0.34289000  1.0
  N  N152  1  0.47306000  0.45393000  0.61479000  1.0
  N  N153  1  0.54311000  0.66266000  0.48743000  1.0
  N  N154  1  0.37018000  0.49960000  0.48406000  1.0
  N  N155  1  0.65501000  0.65407000  0.64949000  1.0
  N  N156  1  0.68877000  0.70177000  0.62001000  1.0
  N  N157  1  0.33978000  0.42944000  0.48727000  1.0
  N  N158  1  0.55550000  0.49776000  0.66105000  1.0
  N  N159  1  0.46487000  0.61472000  0.43023000  1.0
  N  N160  1  0.83488000  0.40507000  0.28849000  1.0
  N  N161  1  0.59838000  0.51208000  0.98785000  1.0
  O  O162  1  0.79258000  0.34279000  0.23031000  1.0
  O  O163  1  0.83314000  0.46652000  0.29709000  1.0
  O  O164  1  0.67215000  0.53801000  0.00182000  1.0
  O  O165  1  0.57320000  0.53522000  0.03183000  1.0
