# generated using pymatgen
data_Cu3H54C44S2(N4O3)6
_symmetry_space_group_name_H-M   'P 1'
_cell_length_a   12.90610000
_cell_length_b   15.64820000
_cell_length_c   16.18320000
_cell_angle_alpha   89.99980000
_cell_angle_beta   93.15900000
_cell_angle_gamma   89.99990000
_symmetry_Int_Tables_number   1
_chemical_formula_structural   Cu3H54C44S2(N4O3)6
_chemical_formula_sum   'Cu6 H108 C88 S4 N48 O36'
_cell_volume   3263.34795425
_cell_formula_units_Z   2
loop_
 _symmetry_equiv_pos_site_id
 _symmetry_equiv_pos_as_xyz
  1  'x, y, z'
loop_
 _atom_site_type_symbol
 _atom_site_label
 _atom_site_symmetry_multiplicity
 _atom_site_fract_x
 _atom_site_fract_y
 _atom_site_fract_z
 _atom_site_occupancy
  Cu  Cu0  1  0.06249000  0.47016000  0.22045000  1.0
  Cu  Cu1  1  0.93751000  0.97016000  0.27955000  1.0
  Cu  Cu2  1  0.93751000  0.52984000  0.77955000  1.0
  Cu  Cu3  1  0.06249000  0.02984000  0.72045000  1.0
  Cu  Cu4  1  0.50000000  0.50000000  0.00000000  1.0
  Cu  Cu5  1  0.50000000  0.00000000  0.50000000  1.0
  H  H6  1  0.58247000  0.17170000  0.31365000  1.0
  H  H7  1  0.41753000  0.67169000  0.18635000  1.0
  H  H8  1  0.41754000  0.82830000  0.68635000  1.0
  H  H9  1  0.58246000  0.32830000  0.81366000  1.0
  H  H10  1  0.66994000  0.43237000  0.26464000  1.0
  H  H11  1  0.33007000  0.93236000  0.23536000  1.0
  H  H12  1  0.33007000  0.56763000  0.73536000  1.0
  H  H13  1  0.66993000  0.06763000  0.76464000  1.0
  H  H14  1  0.89747000  0.23236000  0.26002000  1.0
  H  H15  1  0.10253000  0.73236000  0.23998000  1.0
  H  H16  1  0.10254000  0.76764000  0.73998000  1.0
  H  H17  1  0.89746000  0.26764000  0.76003000  1.0
  H  H18  1  0.21239000  0.03266000  0.88376000  1.0
  H  H19  1  0.78760000  0.53266000  0.61624000  1.0
  H  H20  1  0.78761000  0.96734000  0.11624000  1.0
  H  H21  1  0.21239000  0.46734000  0.38376000  1.0
  H  H22  1  0.91848000  0.92060000  0.84236000  1.0
  H  H23  1  0.08152000  0.42060000  0.65765000  1.0
  H  H24  1  0.08152000  0.07940000  0.15764000  1.0
  H  H25  1  0.91848000  0.57940000  0.34236000  1.0
  H  H26  1  0.25801000  0.96669000  0.02928000  1.0
  H  H27  1  0.74199000  0.46669000  0.47072000  1.0
  H  H28  1  0.74199000  0.03331000  0.97072000  1.0
  H  H29  1  0.25801000  0.53331000  0.52928000  1.0
  H  H30  1  0.14822000  0.93853000  0.08491000  1.0
  H  H31  1  0.85178000  0.43853000  0.41509000  1.0
  H  H32  1  0.85178000  0.06148000  0.91509000  1.0
  H  H33  1  0.14822000  0.56147000  0.58491000  1.0
  H  H34  1  0.15006000  0.79173000  0.01655000  1.0
  H  H35  1  0.84994000  0.29173000  0.48345000  1.0
  H  H36  1  0.84994000  0.20827000  0.98344000  1.0
  H  H37  1  0.15006000  0.70827000  0.51656000  1.0
  H  H38  1  0.25448000  0.81291000  0.08888000  1.0
  H  H39  1  0.74551000  0.31292000  0.41113000  1.0
  H  H40  1  0.74552000  0.18709000  0.91112000  1.0
  H  H41  1  0.25449000  0.68708000  0.58887000  1.0
  H  H42  1  0.37261000  0.84142000  0.97776000  1.0
  H  H43  1  0.62739000  0.34142000  0.52225000  1.0
  H  H44  1  0.62739000  0.15858000  0.02225000  1.0
  H  H45  1  0.37261000  0.65858000  0.47775000  1.0
  H  H46  1  0.26944000  0.82724000  0.90030000  1.0
  H  H47  1  0.73056000  0.32723000  0.59970000  1.0
  H  H48  1  0.73056000  0.17277000  0.09970000  1.0
  H  H49  1  0.26944000  0.67277000  0.40030000  1.0
  H  H50  1  0.47288000  0.71046000  0.01759000  1.0
  H  H51  1  0.52712000  0.21047000  0.48242000  1.0
  H  H52  1  0.52712000  0.28953000  0.98241000  1.0
  H  H53  1  0.47288000  0.78953000  0.51758000  1.0
  H  H54  1  0.25649000  0.52695000  0.92284000  1.0
  H  H55  1  0.74351000  0.02695000  0.57717000  1.0
  H  H56  1  0.74350000  0.47305000  0.07717000  1.0
  H  H57  1  0.25649000  0.97305000  0.42283000  1.0
  H  H58  1  0.99582000  0.31263000  0.09926000  1.0
  H  H59  1  0.00418000  0.81263000  0.40074000  1.0
  H  H60  1  0.00418000  0.68737000  0.90074000  1.0
  H  H61  1  0.99581000  0.18737000  0.59926000  1.0
  H  H62  1  0.15459000  0.54018000  0.05182000  1.0
  H  H63  1  0.84541000  0.04018000  0.44817000  1.0
  H  H64  1  0.84541000  0.45982000  0.94817000  1.0
  H  H65  1  0.15458000  0.95982000  0.55183000  1.0
  H  H66  1  0.96334000  0.31905000  0.89265000  1.0
  H  H67  1  0.03666000  0.81905000  0.60735000  1.0
  H  H68  1  0.03666000  0.68095000  0.10735000  1.0
  H  H69  1  0.96334000  0.18095000  0.39265000  1.0
  H  H70  1  0.02359000  0.23917000  0.95838000  1.0
  H  H71  1  0.97642000  0.73917000  0.54163000  1.0
  H  H72  1  0.97641000  0.76083000  0.04163000  1.0
  H  H73  1  0.02358000  0.26083000  0.45837000  1.0
  H  H74  1  0.13244000  0.35226000  0.83355000  1.0
  H  H75  1  0.86756000  0.85226000  0.66644000  1.0
  H  H76  1  0.86756000  0.64773000  0.16644000  1.0
  H  H77  1  0.13244000  0.14773000  0.33356000  1.0
  H  H78  1  0.08821000  0.24631000  0.81511000  1.0
  H  H79  1  0.91179000  0.74631000  0.68489000  1.0
  H  H80  1  0.91179000  0.75369000  0.18489000  1.0
  H  H81  1  0.08821000  0.25369000  0.31511000  1.0
  H  H82  1  0.21184000  0.19374000  0.93184000  1.0
  H  H83  1  0.78816000  0.69374000  0.56816000  1.0
  H  H84  1  0.78817000  0.80626000  0.06816000  1.0
  H  H85  1  0.21184000  0.30626000  0.43184000  1.0
  H  H86  1  0.27136000  0.23683000  0.84477000  1.0
  H  H87  1  0.72864000  0.73684000  0.65523000  1.0
  H  H88  1  0.72864000  0.76317000  0.15523000  1.0
  H  H89  1  0.27136000  0.26316000  0.34477000  1.0
  H  H90  1  0.36759000  0.38763000  0.86533000  1.0
  H  H91  1  0.63240000  0.88764000  0.63467000  1.0
  H  H92  1  0.63240000  0.61237000  0.13467000  1.0
  H  H93  1  0.36760000  0.11236000  0.36534000  1.0
  H  H94  1  0.36764000  0.37835000  0.12533000  1.0
  H  H95  1  0.63237000  0.87836000  0.37467000  1.0
  H  H96  1  0.63237000  0.62164000  0.87467000  1.0
  H  H97  1  0.36763000  0.12164000  0.62533000  1.0
  H  H98  1  0.26474000  0.45078000  0.23090000  1.0
  H  H99  1  0.73526000  0.95078000  0.26910000  1.0
  H  H100  1  0.73527000  0.54922000  0.76911000  1.0
  H  H101  1  0.26473000  0.04922000  0.73089000  1.0
  H  H102  1  0.28912000  0.35726000  0.25800000  1.0
  H  H103  1  0.71088000  0.85726000  0.24200000  1.0
  H  H104  1  0.71089000  0.64274000  0.74200000  1.0
  H  H105  1  0.28911000  0.14274000  0.75800000  1.0
  H  H106  1  0.42000000  0.53973000  0.16095000  1.0
  H  H107  1  0.58000000  0.03973000  0.33905000  1.0
  H  H108  1  0.58000000  0.46028000  0.83905000  1.0
  H  H109  1  0.42000000  0.96027000  0.66095000  1.0
  H  H110  1  0.50529000  0.48563000  0.20363000  1.0
  H  H111  1  0.49470000  0.98563000  0.29638000  1.0
  H  H112  1  0.49471000  0.51437000  0.79637000  1.0
  H  H113  1  0.50530000  0.01437000  0.70362000  1.0
  C  C114  1  0.74354000  0.19249000  0.28817000  1.0
  C  C115  1  0.25646000  0.69248000  0.21183000  1.0
  C  C116  1  0.25646000  0.80752000  0.71183000  1.0
  C  C117  1  0.74354000  0.30752000  0.78817000  1.0
  C  C118  1  0.64100000  0.21836000  0.29809000  1.0
  C  C119  1  0.35901000  0.71835000  0.20191000  1.0
  C  C120  1  0.35901000  0.78164000  0.70191000  1.0
  C  C121  1  0.64099000  0.28165000  0.79810000  1.0
  C  C122  1  0.61496000  0.30481000  0.28972000  1.0
  C  C123  1  0.38504000  0.80480000  0.21028000  1.0
  C  C124  1  0.38505000  0.69520000  0.71028000  1.0
  C  C125  1  0.61496000  0.19520000  0.78972000  1.0
  C  C126  1  0.68942000  0.36480000  0.26944000  1.0
  C  C127  1  0.31059000  0.86480000  0.23056000  1.0
  C  C128  1  0.31059000  0.63520000  0.73055000  1.0
  C  C129  1  0.68941000  0.13520000  0.76944000  1.0
  C  C130  1  0.79152000  0.33876000  0.25844000  1.0
  C  C131  1  0.20848000  0.83876000  0.24157000  1.0
  C  C132  1  0.20849000  0.66124000  0.74156000  1.0
  C  C133  1  0.79151000  0.16124000  0.75844000  1.0
  C  C134  1  0.81810000  0.25282000  0.26782000  1.0
  C  C135  1  0.18190000  0.75281000  0.23218000  1.0
  C  C136  1  0.18191000  0.74719000  0.73218000  1.0
  C  C137  1  0.81810000  0.24719000  0.76782000  1.0
  C  C138  1  0.87251000  0.40453000  0.24136000  1.0
  C  C139  1  0.12749000  0.90453000  0.25864000  1.0
  C  C140  1  0.12750000  0.59547000  0.75864000  1.0
  C  C141  1  0.87251000  0.09547000  0.74136000  1.0
  C  C142  1  0.77541000  0.10112000  0.30162000  1.0
  C  C143  1  0.22459000  0.60111000  0.19838000  1.0
  C  C144  1  0.22459000  0.89888000  0.69838000  1.0
  C  C145  1  0.77541000  0.39889000  0.80162000  1.0
  C  C146  1  0.14219000  0.99609000  0.89253000  1.0
  C  C147  1  0.85780000  0.49609000  0.60747000  1.0
  C  C148  1  0.85780000  0.00391000  0.10747000  1.0
  C  C149  1  0.14220000  0.50391000  0.39253000  1.0
  C  C150  1  0.99305000  0.93741000  0.87220000  1.0
  C  C151  1  0.00695000  0.43741000  0.62780000  1.0
  C  C152  1  0.00695000  0.06259000  0.12780000  1.0
  C  C153  1  0.99305000  0.56259000  0.37220000  1.0
  C  C154  1  0.19013000  0.92430000  0.02938000  1.0
  C  C155  1  0.80986000  0.42430000  0.47062000  1.0
  C  C156  1  0.80986000  0.07571000  0.97062000  1.0
  C  C157  1  0.19014000  0.57570000  0.52938000  1.0
  C  C158  1  0.22044000  0.83029000  0.02783000  1.0
  C  C159  1  0.77955000  0.33029000  0.47217000  1.0
  C  C160  1  0.77955000  0.16971000  0.97217000  1.0
  C  C161  1  0.22045000  0.66971000  0.52783000  1.0
  C  C162  1  0.29807000  0.80945000  0.96319000  1.0
  C  C163  1  0.70193000  0.30945000  0.53681000  1.0
  C  C164  1  0.70194000  0.19055000  0.03681000  1.0
  C  C165  1  0.29807000  0.69055000  0.46319000  1.0
  C  C166  1  0.40619000  0.67740000  0.98895000  1.0
  C  C167  1  0.59381000  0.17740000  0.51105000  1.0
  C  C168  1  0.59380000  0.32260000  0.01105000  1.0
  C  C169  1  0.40619000  0.82260000  0.48895000  1.0
  C  C170  1  0.29339000  0.58641000  0.94256000  1.0
  C  C171  1  0.70661000  0.08641000  0.55744000  1.0
  C  C172  1  0.70661000  0.41359000  0.05744000  1.0
  C  C173  1  0.29339000  0.91359000  0.44256000  1.0
  C  C174  1  0.03730000  0.36304000  0.06930000  1.0
  C  C175  1  0.96271000  0.86304000  0.43070000  1.0
  C  C176  1  0.96270000  0.63696000  0.93070000  1.0
  C  C177  1  0.03729000  0.13696000  0.56930000  1.0
  C  C178  1  0.11737000  0.47867000  0.04336000  1.0
  C  C179  1  0.88263000  0.97867000  0.45663000  1.0
  C  C180  1  0.88263000  0.52133000  0.95663000  1.0
  C  C181  1  0.11737000  0.02133000  0.54336000  1.0
  C  C182  1  0.03622000  0.29957000  0.92572000  1.0
  C  C183  1  0.96378000  0.79957000  0.57428000  1.0
  C  C184  1  0.96378000  0.70043000  0.07428000  1.0
  C  C185  1  0.03622000  0.20043000  0.42572000  1.0
  C  C186  1  0.11973000  0.29024000  0.86334000  1.0
  C  C187  1  0.88027000  0.79024000  0.63666000  1.0
  C  C188  1  0.88027000  0.70976000  0.13666000  1.0
  C  C189  1  0.11973000  0.20976000  0.36334000  1.0
  C  C190  1  0.22308000  0.25235000  0.89626000  1.0
  C  C191  1  0.77692000  0.75235000  0.60374000  1.0
  C  C192  1  0.77692000  0.74765000  0.10374000  1.0
  C  C193  1  0.22308000  0.24765000  0.39626000  1.0
  C  C194  1  0.34902000  0.37157000  0.92802000  1.0
  C  C195  1  0.65098000  0.87157000  0.57197000  1.0
  C  C196  1  0.65098000  0.62844000  0.07197000  1.0
  C  C197  1  0.34902000  0.12843000  0.42803000  1.0
  C  C198  1  0.34821000  0.36574000  0.06050000  1.0
  C  C199  1  0.65179000  0.86574000  0.43949000  1.0
  C  C200  1  0.65179000  0.63426000  0.93949000  1.0
  C  C201  1  0.34821000  0.13426000  0.56051000  1.0
  S  S202  1  0.48914000  0.34087000  0.31705000  1.0
  S  S203  1  0.51086000  0.84087000  0.18295000  1.0
  S  S204  1  0.51086000  0.65913000  0.68295000  1.0
  S  S205  1  0.48914000  0.15913000  0.81705000  1.0
  N  N206  1  0.07200000  0.43551000  0.10497000  1.0
  N  N207  1  0.92800000  0.93551000  0.39503000  1.0
  N  N208  1  0.92800000  0.56449000  0.89503000  1.0
  N  N209  1  0.07200000  0.06449000  0.60497000  1.0
  N  N210  1  0.11182000  0.43734000  0.97186000  1.0
  N  N211  1  0.88818000  0.93735000  0.52814000  1.0
  N  N212  1  0.88817000  0.56266000  0.02814000  1.0
  N  N213  1  0.11182000  0.06265000  0.47187000  1.0
  N  N214  1  0.06113000  0.36388000  0.98966000  1.0
  N  N215  1  0.93887000  0.86388000  0.51034000  1.0
  N  N216  1  0.93886000  0.63612000  0.01034000  1.0
  N  N217  1  0.06113000  0.13612000  0.48966000  1.0
  N  N218  1  0.28537000  0.30918000  0.95041000  1.0
  N  N219  1  0.71463000  0.80918000  0.54959000  1.0
  N  N220  1  0.71463000  0.69082000  0.04959000  1.0
  N  N221  1  0.28537000  0.19082000  0.45042000  1.0
  N  N222  1  0.28383000  0.30412000  0.03432000  1.0
  N  N223  1  0.71617000  0.80413000  0.46567000  1.0
  N  N224  1  0.71617000  0.69588000  0.96567000  1.0
  N  N225  1  0.28382000  0.19587000  0.53433000  1.0
  N  N226  1  0.38986000  0.40919000  0.99678000  1.0
  N  N227  1  0.61015000  0.90920000  0.50321000  1.0
  N  N228  1  0.61014000  0.59081000  0.00321000  1.0
  N  N229  1  0.38986000  0.09080000  0.49679000  1.0
  N  N230  1  0.06097000  0.99200000  0.83766000  1.0
  N  N231  1  0.93902000  0.49201000  0.66234000  1.0
  N  N232  1  0.93903000  0.00800000  0.16234000  1.0
  N  N233  1  0.06097000  0.50800000  0.33766000  1.0
  N  N234  1  0.12265000  0.94605000  0.95717000  1.0
  N  N235  1  0.87734000  0.44605000  0.54283000  1.0
  N  N236  1  0.87734000  0.05395000  0.04283000  1.0
  N  N237  1  0.12266000  0.55395000  0.45717000  1.0
  N  N238  1  0.02791000  0.90797000  0.94553000  1.0
  N  N239  1  0.97209000  0.40797000  0.55447000  1.0
  N  N240  1  0.97209000  0.09203000  0.05447000  1.0
  N  N241  1  0.02791000  0.59203000  0.44553000  1.0
  N  N242  1  0.31912000  0.71803000  0.96267000  1.0
  N  N243  1  0.68088000  0.21803000  0.53733000  1.0
  N  N244  1  0.68088000  0.28197000  0.03733000  1.0
  N  N245  1  0.31912000  0.78197000  0.46267000  1.0
  N  N246  1  0.24575000  0.66126000  0.93371000  1.0
  N  N247  1  0.75425000  0.16126000  0.56629000  1.0
  N  N248  1  0.75425000  0.33874000  0.06629000  1.0
  N  N249  1  0.24575000  0.83874000  0.43371000  1.0
  N  N250  1  0.39240000  0.59326000  0.97685000  1.0
  N  N251  1  0.60760000  0.09327000  0.52315000  1.0
  N  N252  1  0.60760000  0.40674000  0.02315000  1.0
  N  N253  1  0.39240000  0.90674000  0.47685000  1.0
  O  O254  1  0.96620000  0.37425000  0.23834000  1.0
  O  O255  1  0.03381000  0.87425000  0.26166000  1.0
  O  O256  1  0.03381000  0.62575000  0.76165000  1.0
  O  O257  1  0.96620000  0.12575000  0.73834000  1.0
  O  O258  1  0.84849000  0.48166000  0.23334000  1.0
  O  O259  1  0.15151000  0.98165000  0.26665000  1.0
  O  O260  1  0.15151000  0.51835000  0.76665000  1.0
  O  O261  1  0.84849000  0.01835000  0.73333000  1.0
  O  O262  1  0.87304000  0.08564000  0.29806000  1.0
  O  O263  1  0.12696000  0.58564000  0.20194000  1.0
  O  O264  1  0.12697000  0.91436000  0.70195000  1.0
  O  O265  1  0.87304000  0.41436000  0.79805000  1.0
  O  O266  1  0.70794000  0.04550000  0.31605000  1.0
  O  O267  1  0.29205000  0.54549000  0.18394000  1.0
  O  O268  1  0.29206000  0.95451000  0.68395000  1.0
  O  O269  1  0.70794000  0.45451000  0.81605000  1.0
  O  O270  1  0.48973000  0.43350000  0.30243000  1.0
  O  O271  1  0.51027000  0.93350000  0.19758000  1.0
  O  O272  1  0.51027000  0.56650000  0.69758000  1.0
  O  O273  1  0.48973000  0.06650000  0.80242000  1.0
  O  O274  1  0.48415000  0.31761000  0.40471000  1.0
  O  O275  1  0.51585000  0.81761000  0.09529000  1.0
  O  O276  1  0.51586000  0.68239000  0.59529000  1.0
  O  O277  1  0.48414000  0.18238000  0.90471000  1.0
  O  O278  1  0.41242000  0.29437000  0.26274000  1.0
  O  O279  1  0.58758000  0.79436000  0.23726000  1.0
  O  O280  1  0.58758000  0.70563000  0.73726000  1.0
  O  O281  1  0.41242000  0.20563000  0.76274000  1.0
  O  O282  1  0.23510000  0.40163000  0.26044000  1.0
  O  O283  1  0.76491000  0.90163000  0.23956000  1.0
  O  O284  1  0.76491000  0.59837000  0.73957000  1.0
  O  O285  1  0.23509000  0.09837000  0.76043000  1.0
  O  O286  1  0.49290000  0.52236000  0.15428000  1.0
  O  O287  1  0.50710000  0.02236000  0.34572000  1.0
  O  O288  1  0.50711000  0.47764000  0.84572000  1.0
  O  O289  1  0.49290000  0.97763000  0.65428000  1.0
