# generated using pymatgen
data_Zn5H40C72N6(O3F4)6
_symmetry_space_group_name_H-M   'P 1'
_cell_length_a   7.31545000
_cell_length_b   20.86680000
_cell_length_c   26.43300000
_cell_angle_alpha   96.09280000
_cell_angle_beta   89.99990000
_cell_angle_gamma   89.99990000
_symmetry_Int_Tables_number   1
_chemical_formula_structural   Zn5H40C72N6(O3F4)6
_chemical_formula_sum   'Zn10 H80 C144 N12 O36 F48'
_cell_volume   4012.20576147
_cell_formula_units_Z   2
loop_
 _symmetry_equiv_pos_site_id
 _symmetry_equiv_pos_as_xyz
  1  'x, y, z'
loop_
 _atom_site_type_symbol
 _atom_site_label
 _atom_site_symmetry_multiplicity
 _atom_site_fract_x
 _atom_site_fract_y
 _atom_site_fract_z
 _atom_site_occupancy
  Zn  Zn0  1  0.00000000  0.00000000  0.50000000  1.0
  Zn  Zn1  1  0.00000000  0.50000000  0.00000000  1.0
  Zn  Zn2  1  0.44883000  0.98282000  0.65416000  1.0
  Zn  Zn3  1  0.44883000  0.51718000  0.84584000  1.0
  Zn  Zn4  1  0.55117000  0.01718000  0.34584000  1.0
  Zn  Zn5  1  0.55117000  0.48282000  0.15416000  1.0
  Zn  Zn6  1  0.81860000  0.91557000  0.59080000  1.0
  Zn  Zn7  1  0.81860000  0.58443000  0.90920000  1.0
  Zn  Zn8  1  0.18140000  0.08443000  0.40920000  1.0
  Zn  Zn9  1  0.18139000  0.41557000  0.09080000  1.0
  H  H10  1  0.17291000  0.93922000  0.58288000  1.0
  H  H11  1  0.17291000  0.56078000  0.91712000  1.0
  H  H12  1  0.82709000  0.06078000  0.41712000  1.0
  H  H13  1  0.82708000  0.43922000  0.08288000  1.0
  H  H14  1  0.09829000  0.00973000  0.60157000  1.0
  H  H15  1  0.09829000  0.49027000  0.89843000  1.0
  H  H16  1  0.90171000  0.99027000  0.39843000  1.0
  H  H17  1  0.90171000  0.50973000  0.10157000  1.0
  H  H18  1  0.09809000  0.81891000  0.64319000  1.0
  H  H19  1  0.09809000  0.68109000  0.85681000  1.0
  H  H20  1  0.90191000  0.18109000  0.35681000  1.0
  H  H21  1  0.90191000  0.31891000  0.14319000  1.0
  H  H22  1  0.96915000  0.70894000  0.64091000  1.0
  H  H23  1  0.96915000  0.79106000  0.85909000  1.0
  H  H24  1  0.03085000  0.29106000  0.35909000  1.0
  H  H25  1  0.03085000  0.20894000  0.14091000  1.0
  H  H26  1  0.44929000  0.63217000  0.56054000  1.0
  H  H27  1  0.44929000  0.86783000  0.93946000  1.0
  H  H28  1  0.55071000  0.36783000  0.43946000  1.0
  H  H29  1  0.55071000  0.13217000  0.06054000  1.0
  H  H30  1  0.57923000  0.74154000  0.56557000  1.0
  H  H31  1  0.57923000  0.75846000  0.93443000  1.0
  H  H32  1  0.42077000  0.25846000  0.43443000  1.0
  H  H33  1  0.42076000  0.24153000  0.06557000  1.0
  H  H34  1  0.76149000  0.54685000  0.62304000  1.0
  H  H35  1  0.76149000  0.95315000  0.87696000  1.0
  H  H36  1  0.23851000  0.45315000  0.37696000  1.0
  H  H37  1  0.23851000  0.04685000  0.12304000  1.0
  H  H38  1  0.63741000  0.53579000  0.70801000  1.0
  H  H39  1  0.63741000  0.96421000  0.79199000  1.0
  H  H40  1  0.36259000  0.46421000  0.29199000  1.0
  H  H41  1  0.36259000  0.03579000  0.20801000  1.0
  H  H42  1  0.13576000  0.61068000  0.77700000  1.0
  H  H43  1  0.13577000  0.88932000  0.72300000  1.0
  H  H44  1  0.86423000  0.38932000  0.22300000  1.0
  H  H45  1  0.86423000  0.11068000  0.27700000  1.0
  H  H46  1  0.26131000  0.62464000  0.69185000  1.0
  H  H47  1  0.26131000  0.87536000  0.80815000  1.0
  H  H48  1  0.73869000  0.37536000  0.30815000  1.0
  H  H49  1  0.73868000  0.12464000  0.19185000  1.0
  H  H50  1  0.38468000  0.10562000  0.58172000  1.0
  H  H51  1  0.38468000  0.39438000  0.91829000  1.0
  H  H52  1  0.61532000  0.89438000  0.41828000  1.0
  H  H53  1  0.61532000  0.60562000  0.08172000  1.0
  H  H54  1  0.65015000  0.11552000  0.50636000  1.0
  H  H55  1  0.65015000  0.38448000  0.99364000  1.0
  H  H56  1  0.34986000  0.88448000  0.49364000  1.0
  H  H57  1  0.34986000  0.61552000  0.00636000  1.0
  H  H58  1  0.06694000  0.34603000  0.89389000  1.0
  H  H59  1  0.06694000  0.15397000  0.60611000  1.0
  H  H60  1  0.93306000  0.65397000  0.10611000  1.0
  H  H61  1  0.93305000  0.84603000  0.39389000  1.0
  H  H62  1  0.87127000  0.25244000  0.02074000  1.0
  H  H63  1  0.87126000  0.24756000  0.47926000  1.0
  H  H64  1  0.12874000  0.74756000  0.97926000  1.0
  H  H65  1  0.12873000  0.75244000  0.52074000  1.0
  H  H66  1  0.69772000  0.17520000  0.96276000  1.0
  H  H67  1  0.69771000  0.32480000  0.53724000  1.0
  H  H68  1  0.30229000  0.82480000  0.03724000  1.0
  H  H69  1  0.30228000  0.67520000  0.46276000  1.0
  H  H70  1  0.91547000  0.26317000  0.83464000  1.0
  H  H71  1  0.91548000  0.23683000  0.66536000  1.0
  H  H72  1  0.08453000  0.73683000  0.16536000  1.0
  H  H73  1  0.08453000  0.76317000  0.33464000  1.0
  H  H74  1  0.60606000  0.15508000  0.74952000  1.0
  H  H75  1  0.60606000  0.34492000  0.75048000  1.0
  H  H76  1  0.39394000  0.84492000  0.25048000  1.0
  H  H77  1  0.39394000  0.65508000  0.24952000  1.0
  H  H78  1  0.81233000  0.10872000  0.68144000  1.0
  H  H79  1  0.81233000  0.39128000  0.81856000  1.0
  H  H80  1  0.18767000  0.89128000  0.31856000  1.0
  H  H81  1  0.18768000  0.60872000  0.18144000  1.0
  H  H82  1  0.21075000  0.06744000  0.79268000  1.0
  H  H83  1  0.21076000  0.43256000  0.70732000  1.0
  H  H84  1  0.78925000  0.93256000  0.20732000  1.0
  H  H85  1  0.78925000  0.56744000  0.29268000  1.0
  H  H86  1  0.01377000  0.11919000  0.86144000  1.0
  H  H87  1  0.01377000  0.38081000  0.63856000  1.0
  H  H88  1  0.98623000  0.88081000  0.13856000  1.0
  H  H89  1  0.98623000  0.61919000  0.36144000  1.0
  C  C90  1  0.43120000  0.85221000  0.60749000  1.0
  C  C91  1  0.43120000  0.64779000  0.89251000  1.0
  C  C92  1  0.56880000  0.14779000  0.39251000  1.0
  C  C93  1  0.56880000  0.35221000  0.10749000  1.0
  C  C94  1  0.34743000  0.78688000  0.60478000  1.0
  C  C95  1  0.34743000  0.71312000  0.89523000  1.0
  C  C96  1  0.65257000  0.21312000  0.39523000  1.0
  C  C97  1  0.65256000  0.28688000  0.10477000  1.0
  C  C98  1  0.17472000  0.77761000  0.62569000  1.0
  C  C99  1  0.17472000  0.72239000  0.87431000  1.0
  C  C100  1  0.82528000  0.22239000  0.37431000  1.0
  C  C101  1  0.82527000  0.27761000  0.12569000  1.0
  C  C102  1  0.10243000  0.71579000  0.62393000  1.0
  C  C103  1  0.10243000  0.78421000  0.87607000  1.0
  C  C104  1  0.89757000  0.28421000  0.37607000  1.0
  C  C105  1  0.89756000  0.21579000  0.12393000  1.0
  C  C106  1  0.19934000  0.66240000  0.60074000  1.0
  C  C107  1  0.19934000  0.83760000  0.89926000  1.0
  C  C108  1  0.80065000  0.33760000  0.39926000  1.0
  C  C109  1  0.80065000  0.16240000  0.10074000  1.0
  C  C110  1  0.37089000  0.67217000  0.57918000  1.0
  C  C111  1  0.37089000  0.82783000  0.92082000  1.0
  C  C112  1  0.62910000  0.32783000  0.42082000  1.0
  C  C113  1  0.62910000  0.17217000  0.07918000  1.0
  C  C114  1  0.44494000  0.73385000  0.58171000  1.0
  C  C115  1  0.44494000  0.76615000  0.91829000  1.0
  C  C116  1  0.55505000  0.26615000  0.41829000  1.0
  C  C117  1  0.55505000  0.23385000  0.08170000  1.0
  C  C118  1  0.10792000  0.59577000  0.59917000  1.0
  C  C119  1  0.10793000  0.90423000  0.90084000  1.0
  C  C120  1  0.89207000  0.40423000  0.40084000  1.0
  C  C121  1  0.89207000  0.09577000  0.09916000  1.0
  C  C122  1  0.24675000  0.53911000  0.58796000  1.0
  C  C123  1  0.24675000  0.96089000  0.91204000  1.0
  C  C124  1  0.75325000  0.46089000  0.41204000  1.0
  C  C125  1  0.75325000  0.03911000  0.08796000  1.0
  C  C126  1  0.96527000  0.59202000  0.55494000  1.0
  C  C127  1  0.96526000  0.90799000  0.94506000  1.0
  C  C128  1  0.03473000  0.40799000  0.44506000  1.0
  C  C129  1  0.03473000  0.09201000  0.05494000  1.0
  C  C130  1  0.02039000  0.58735000  0.65105000  1.0
  C  C131  1  0.02039000  0.91265000  0.84895000  1.0
  C  C132  1  0.97961000  0.41265000  0.34895000  1.0
  C  C133  1  0.97961000  0.08735000  0.15105000  1.0
  C  C134  1  0.84497000  0.56197000  0.65610000  1.0
  C  C135  1  0.84498000  0.93803000  0.84390000  1.0
  C  C136  1  0.15502000  0.43803000  0.34390000  1.0
  C  C137  1  0.15502000  0.06197000  0.15610000  1.0
  C  C138  1  0.77372000  0.55557000  0.70411000  1.0
  C  C139  1  0.77372000  0.94443000  0.79589000  1.0
  C  C140  1  0.22628000  0.44443000  0.29589000  1.0
  C  C141  1  0.22628000  0.05557000  0.20411000  1.0
  C  C142  1  0.87709000  0.57365000  0.74779000  1.0
  C  C143  1  0.87709000  0.92634000  0.75221000  1.0
  C  C144  1  0.12290000  0.42635000  0.25221000  1.0
  C  C145  1  0.12290000  0.07365000  0.24779000  1.0
  C  C146  1  0.05416000  0.59785000  0.74297000  1.0
  C  C147  1  0.05416000  0.90215000  0.75703000  1.0
  C  C148  1  0.94584000  0.40215000  0.25703000  1.0
  C  C149  1  0.94584000  0.09785000  0.24297000  1.0
  C  C150  1  0.12452000  0.60486000  0.69505000  1.0
  C  C151  1  0.12452000  0.89514000  0.80495000  1.0
  C  C152  1  0.87548000  0.39514000  0.30495000  1.0
  C  C153  1  0.87548000  0.10486000  0.19505000  1.0
  C  C154  1  0.79801000  0.56674000  0.79890000  1.0
  C  C155  1  0.79801000  0.93326000  0.70110000  1.0
  C  C156  1  0.20199000  0.43326000  0.20110000  1.0
  C  C157  1  0.20199000  0.06674000  0.29890000  1.0
  C  C158  1  0.50478000  0.07682000  0.57148000  1.0
  C  C159  1  0.50479000  0.42318000  0.92852000  1.0
  C  C160  1  0.49522000  0.92318000  0.42852000  1.0
  C  C161  1  0.49522000  0.57682000  0.07148000  1.0
  C  C162  1  0.63503000  0.08077000  0.53370000  1.0
  C  C163  1  0.63503000  0.41923000  0.96630000  1.0
  C  C164  1  0.36497000  0.91922000  0.46630000  1.0
  C  C165  1  0.36497000  0.58078000  0.03370000  1.0
  C  C166  1  0.05996000  0.35621000  0.99752000  1.0
  C  C167  1  0.05995000  0.14379000  0.50248000  1.0
  C  C168  1  0.94004000  0.64379000  0.00248000  1.0
  C  C169  1  0.94004000  0.85621000  0.49752000  1.0
  C  C170  1  0.97886000  0.30435000  0.96130000  1.0
  C  C171  1  0.97885000  0.19565000  0.53870000  1.0
  C  C172  1  0.02115000  0.69565000  0.03870000  1.0
  C  C173  1  0.02114000  0.80435000  0.46130000  1.0
  C  C174  1  0.99147000  0.30705000  0.90869000  1.0
  C  C175  1  0.99147000  0.19295000  0.59131000  1.0
  C  C176  1  0.00853000  0.69295000  0.09131000  1.0
  C  C177  1  0.00853000  0.80705000  0.40869000  1.0
  C  C178  1  0.87778000  0.25500000  0.97991000  1.0
  C  C179  1  0.87778000  0.24500000  0.52009000  1.0
  C  C180  1  0.12222000  0.74500000  0.02009000  1.0
  C  C181  1  0.12222000  0.75500000  0.47991000  1.0
  C  C182  1  0.78114000  0.21111000  0.94674000  1.0
  C  C183  1  0.78114000  0.28889000  0.55326000  1.0
  C  C184  1  0.21886000  0.78889000  0.05326000  1.0
  C  C185  1  0.21886000  0.71111000  0.44674000  1.0
  C  C186  1  0.79150000  0.21398000  0.89416000  1.0
  C  C187  1  0.79150000  0.28602000  0.60584000  1.0
  C  C188  1  0.20850000  0.78602000  0.10584000  1.0
  C  C189  1  0.20850000  0.71398000  0.39416000  1.0
  C  C190  1  0.90229000  0.26123000  0.87550000  1.0
  C  C191  1  0.90229000  0.23877000  0.62450000  1.0
  C  C192  1  0.09772000  0.73877000  0.12450000  1.0
  C  C193  1  0.09771000  0.76123000  0.37550000  1.0
  C  C194  1  0.67711000  0.17086000  0.85534000  1.0
  C  C195  1  0.67710000  0.32914000  0.64466000  1.0
  C  C196  1  0.32290000  0.82914000  0.14466000  1.0
  C  C197  1  0.32290000  0.67086000  0.35534000  1.0
  C  C198  1  0.51986000  0.21503000  0.83874000  1.0
  C  C199  1  0.51986000  0.28497000  0.66126000  1.0
  C  C200  1  0.48015000  0.78497000  0.16126000  1.0
  C  C201  1  0.48015000  0.71503000  0.33874000  1.0
  C  C202  1  0.58776000  0.11263000  0.87842000  1.0
  C  C203  1  0.58775000  0.38737000  0.62158000  1.0
  C  C204  1  0.41225000  0.88737000  0.12158000  1.0
  C  C205  1  0.41225000  0.61263000  0.37842000  1.0
  C  C206  1  0.79654000  0.14198000  0.81057000  1.0
  C  C207  1  0.79654000  0.35802000  0.68943000  1.0
  C  C208  1  0.20346000  0.85802000  0.18943000  1.0
  C  C209  1  0.20346000  0.64198000  0.31057000  1.0
  C  C210  1  0.73958000  0.13763000  0.75970000  1.0
  C  C211  1  0.73958000  0.36237000  0.74029000  1.0
  C  C212  1  0.26042000  0.86237000  0.24030000  1.0
  C  C213  1  0.26042000  0.63763000  0.25970000  1.0
  C  C214  1  0.85470000  0.11097000  0.72110000  1.0
  C  C215  1  0.85470000  0.38903000  0.77890000  1.0
  C  C216  1  0.14531000  0.88903000  0.27890000  1.0
  C  C217  1  0.14531000  0.61097000  0.22110000  1.0
  C  C218  1  0.02548000  0.08604000  0.73269000  1.0
  C  C219  1  0.02548000  0.41396000  0.76731000  1.0
  C  C220  1  0.97452000  0.91397000  0.26731000  1.0
  C  C221  1  0.97452000  0.58603000  0.23269000  1.0
  C  C222  1  0.07951000  0.08791000  0.78365000  1.0
  C  C223  1  0.07951000  0.41209000  0.71635000  1.0
  C  C224  1  0.92049000  0.91209000  0.21635000  1.0
  C  C225  1  0.92050000  0.58791000  0.28365000  1.0
  C  C226  1  0.96753000  0.11657000  0.82209000  1.0
  C  C227  1  0.96753000  0.38343000  0.67791000  1.0
  C  C228  1  0.03247000  0.88343000  0.17791000  1.0
  C  C229  1  0.03247000  0.61657000  0.32209000  1.0
  C  C230  1  0.14672000  0.05710000  0.69093000  1.0
  C  C231  1  0.14672000  0.44290000  0.80907000  1.0
  C  C232  1  0.85329000  0.94290000  0.30907000  1.0
  C  C233  1  0.85329000  0.55710000  0.19093000  1.0
  N  N234  1  0.54863000  0.02484000  0.59540000  1.0
  N  N235  1  0.54864000  0.47516000  0.90460000  1.0
  N  N236  1  0.45137000  0.97516000  0.40460000  1.0
  N  N237  1  0.45136000  0.52484000  0.09540000  1.0
  N  N238  1  0.69805000  0.99789000  0.57321000  1.0
  N  N239  1  0.69805000  0.50211000  0.92679000  1.0
  N  N240  1  0.30195000  0.00211000  0.42679000  1.0
  N  N241  1  0.30195000  0.49789000  0.07321000  1.0
  N  N242  1  0.75266000  0.03120000  0.53600000  1.0
  N  N243  1  0.75266000  0.46880000  0.96400000  1.0
  N  N244  1  0.24734000  0.96880000  0.46400000  1.0
  N  N245  1  0.24734000  0.53120000  0.03600000  1.0
  O  O246  1  0.59544000  0.85600000  0.59388000  1.0
  O  O247  1  0.59544000  0.64400000  0.90612000  1.0
  O  O248  1  0.40456000  0.14400000  0.40612000  1.0
  O  O249  1  0.40456000  0.35600000  0.09388000  1.0
  O  O250  1  0.32968000  0.90092000  0.62397000  1.0
  O  O251  1  0.32968000  0.59908000  0.87603000  1.0
  O  O252  1  0.67032000  0.09908000  0.37603000  1.0
  O  O253  1  0.67031000  0.40092000  0.12396000  1.0
  O  O254  1  0.63767000  0.54315000  0.79961000  1.0
  O  O255  1  0.63767000  0.95685000  0.70039000  1.0
  O  O256  1  0.36233000  0.45685000  0.20039000  1.0
  O  O257  1  0.36233000  0.04315000  0.29961000  1.0
  O  O258  1  0.89639000  0.58486000  0.83770000  1.0
  O  O259  1  0.89639000  0.91514000  0.66230000  1.0
  O  O260  1  0.10360000  0.41514000  0.16231000  1.0
  O  O261  1  0.10360000  0.08486000  0.33770000  1.0
  O  O262  1  0.08201000  0.97140000  0.57426000  1.0
  O  O263  1  0.08201000  0.52860000  0.92574000  1.0
  O  O264  1  0.91799000  0.02859000  0.42574000  1.0
  O  O265  1  0.91799000  0.47140000  0.07426000  1.0
  O  O266  1  0.11599000  0.40764000  0.98055000  1.0
  O  O267  1  0.11599000  0.09236000  0.51945000  1.0
  O  O268  1  0.88401000  0.59236000  0.01945000  1.0
  O  O269  1  0.88401000  0.90764000  0.48055000  1.0
  O  O270  1  0.06308000  0.34679000  0.04468000  1.0
  O  O271  1  0.06308000  0.15321000  0.45532000  1.0
  O  O272  1  0.93692000  0.65321000  0.95531000  1.0
  O  O273  1  0.93692000  0.84679000  0.54468000  1.0
  O  O274  1  0.10592000  0.06372000  0.64528000  1.0
  O  O275  1  0.10591000  0.43628000  0.85472000  1.0
  O  O276  1  0.89409000  0.93628000  0.35472000  1.0
  O  O277  1  0.89409000  0.56372000  0.14528000  1.0
  O  O278  1  0.28870000  0.02676000  0.70477000  1.0
  O  O279  1  0.28870000  0.47325000  0.79523000  1.0
  O  O280  1  0.71130000  0.97324000  0.29523000  1.0
  O  O281  1  0.71130000  0.52676000  0.20477000  1.0
  F  F282  1  0.31523000  0.53355000  0.53977000  1.0
  F  F283  1  0.31523000  0.96645000  0.96023000  1.0
  F  F284  1  0.68477000  0.46645000  0.46024000  1.0
  F  F285  1  0.68476000  0.03355000  0.03977000  1.0
  F  F286  1  0.39267000  0.54701000  0.62020000  1.0
  F  F287  1  0.39268000  0.95299000  0.87980000  1.0
  F  F288  1  0.60732000  0.45299000  0.37980000  1.0
  F  F289  1  0.60732000  0.04701000  0.12020000  1.0
  F  F290  1  0.16905000  0.48156000  0.59485000  1.0
  F  F291  1  0.16905000  0.01844000  0.90515000  1.0
  F  F292  1  0.83094000  0.51845000  0.40515000  1.0
  F  F293  1  0.83095000  0.98155000  0.09485000  1.0
  F  F294  1  0.04126000  0.60812000  0.51115000  1.0
  F  F295  1  0.04126000  0.89188000  0.98885000  1.0
  F  F296  1  0.95874000  0.39188000  0.48885000  1.0
  F  F297  1  0.95874000  0.10812000  0.01115000  1.0
  F  F298  1  0.82464000  0.63419000  0.56644000  1.0
  F  F299  1  0.82464000  0.86581000  0.93356000  1.0
  F  F300  1  0.17535000  0.36581000  0.43356000  1.0
  F  F301  1  0.17536000  0.13419000  0.06645000  1.0
  F  F302  1  0.89009000  0.53252000  0.54434000  1.0
  F  F303  1  0.89009000  0.96748000  0.95565000  1.0
  F  F304  1  0.10991000  0.46748000  0.45566000  1.0
  F  F305  1  0.10991000  0.03252000  0.04435000  1.0
  F  F306  1  0.38551000  0.18214000  0.81135000  1.0
  F  F307  1  0.38552000  0.31786000  0.68865000  1.0
  F  F308  1  0.61449000  0.81785000  0.18865000  1.0
  F  F309  1  0.61449000  0.68214000  0.31135000  1.0
  F  F310  1  0.58544000  0.25988000  0.80948000  1.0
  F  F311  1  0.58545000  0.24012000  0.69052000  1.0
  F  F312  1  0.41456000  0.74012000  0.19052000  1.0
  F  F313  1  0.41456000  0.75988000  0.30948000  1.0
  F  F314  1  0.43740000  0.24820000  0.87967000  1.0
  F  F315  1  0.43740000  0.25180000  0.62033000  1.0
  F  F316  1  0.56260000  0.75180000  0.12033000  1.0
  F  F317  1  0.56260000  0.74820000  0.37967000  1.0
  F  F318  1  0.51077000  0.07082000  0.84144000  1.0
  F  F319  1  0.51077000  0.42918000  0.65856000  1.0
  F  F320  1  0.48923000  0.92918000  0.15856000  1.0
  F  F321  1  0.48924000  0.57082000  0.34144000  1.0
  F  F322  1  0.71425000  0.07874000  0.90239000  1.0
  F  F323  1  0.71425000  0.42127000  0.59761000  1.0
  F  F324  1  0.28575000  0.92126000  0.09761000  1.0
  F  F325  1  0.28575000  0.57873000  0.40239000  1.0
  F  F326  1  0.45337000  0.13019000  0.91294000  1.0
  F  F327  1  0.45337000  0.36981000  0.58706000  1.0
  F  F328  1  0.54663000  0.86981000  0.08706000  1.0
  F  F329  1  0.54663000  0.63019000  0.41294000  1.0
