# generated using pymatgen
data_NaH20AuC16S6(NO)4
_symmetry_space_group_name_H-M   'P 1'
_cell_length_a   7.32476000
_cell_length_b   9.16395000
_cell_length_c   10.13770000
_cell_angle_alpha   63.16180000
_cell_angle_beta   76.70040000
_cell_angle_gamma   85.63360000
_symmetry_Int_Tables_number   1
_chemical_formula_structural   NaH20AuC16S6(NO)4
_chemical_formula_sum   'Na1 H20 Au1 C16 S6 N4 O4'
_cell_volume   590.59678366
_cell_formula_units_Z   1
loop_
 _symmetry_equiv_pos_site_id
 _symmetry_equiv_pos_as_xyz
  1  'x, y, z'
loop_
 _atom_site_type_symbol
 _atom_site_label
 _atom_site_symmetry_multiplicity
 _atom_site_fract_x
 _atom_site_fract_y
 _atom_site_fract_z
 _atom_site_occupancy
  Na  Na0  1  0.00000000  0.00000000  0.00000000  1.0
  H  H1  1  0.88004000  0.60136000  0.29021000  1.0
  H  H2  1  0.11995000  0.39864000  0.70979000  1.0
  H  H3  1  0.51498000  0.39449000  0.39590000  1.0
  H  H4  1  0.48501000  0.60551000  0.60410000  1.0
  H  H5  1  0.90476000  0.68599000  0.88846000  1.0
  H  H6  1  0.09524000  0.31401000  0.11153000  1.0
  H  H7  1  0.66852000  0.62249000  0.98867000  1.0
  H  H8  1  0.33148000  0.37751000  0.01133000  1.0
  H  H9  1  0.85701000  0.54072000  0.08437000  1.0
  H  H10  1  0.14299000  0.45928000  0.91563000  1.0
  H  H11  1  0.76896000  0.28286000  0.12791000  1.0
  H  H12  1  0.23104000  0.71714000  0.87209000  1.0
  H  H13  1  0.53261000  0.20182000  0.20672000  1.0
  H  H14  1  0.46739000  0.79819000  0.79328000  1.0
  H  H15  1  0.63592000  0.25651000  0.01222000  1.0
  H  H16  1  0.36408000  0.74349000  0.98778000  1.0
  H  H17  1  0.69389000  0.76549000  0.12179000  1.0
  H  H18  1  0.30612000  0.23451000  0.87821000  1.0
  H  H19  1  0.73407000  0.98647000  0.26922000  1.0
  H  H20  1  0.26593000  0.01354000  0.73078000  1.0
  Au  Au21  1  0.00000000  0.00000000  0.50000000  1.0
  C  C22  1  0.05311000  0.39066000  0.36931000  1.0
  C  C23  1  0.94689000  0.60934000  0.63069000  1.0
  C  C24  1  0.01776000  0.55642000  0.31036000  1.0
  C  C25  1  0.98224000  0.44358000  0.68964000  1.0
  C  C26  1  0.16376000  0.66735000  0.27703000  1.0
  C  C27  1  0.83624000  0.33265000  0.72297000  1.0
  C  C28  1  0.34632000  0.60896000  0.30638000  1.0
  C  C29  1  0.65368000  0.39104000  0.69362000  1.0
  C  C30  1  0.37896000  0.43975000  0.37067000  1.0
  C  C31  1  0.62104000  0.56025000  0.62933000  1.0
  C  C32  1  0.23391000  0.33216000  0.40119000  1.0
  C  C33  1  0.76608000  0.66784000  0.59881000  1.0
  C  C34  1  0.80677000  0.65136000  0.99829000  1.0
  C  C35  1  0.19323000  0.34864000  0.00171000  1.0
  C  C36  1  0.66365000  0.20462000  0.12631000  1.0
  C  C37  1  0.33635000  0.79538000  0.87369000  1.0
  S  S38  1  0.36161000  0.90349000  0.19507000  1.0
  S  S39  1  0.63840000  0.09651000  0.80493000  1.0
  S  S40  1  0.87136000  0.25706000  0.40213000  1.0
  S  S41  1  0.12864000  0.74294000  0.59787000  1.0
  S  S42  1  0.27959000  0.12258000  0.47689000  1.0
  S  S43  1  0.72041000  0.87742000  0.52311000  1.0
  N  N44  1  0.15629000  0.83254000  0.21317000  1.0
  N  N45  1  0.84371000  0.16746000  0.78683000  1.0
  N  N46  1  0.47147000  0.73246000  0.26337000  1.0
  N  N47  1  0.52853000  0.26754000  0.73663000  1.0
  O  O48  1  0.79933000  0.78638000  0.03357000  1.0
  O  O49  1  0.20068000  0.21362000  0.96643000  1.0
  O  O50  1  0.72995000  0.04274000  0.16081000  1.0
  O  O51  1  0.27005000  0.95726000  0.83919000  1.0
