# generated using pymatgen
data_Zn4H50C61N18
_symmetry_space_group_name_H-M   'P 1'
_cell_length_a   14.87011769
_cell_length_b   14.93640000
_cell_length_c   14.97870000
_cell_angle_alpha   105.98420000
_cell_angle_beta   111.32533796
_cell_angle_gamma   110.95555773
_symmetry_Int_Tables_number   1
_chemical_formula_structural   Zn4H50C61N18
_chemical_formula_sum   'Zn4 H50 C61 N18'
_cell_volume   2560.55674140
_cell_formula_units_Z   1
loop_
 _symmetry_equiv_pos_site_id
 _symmetry_equiv_pos_as_xyz
  1  'x, y, z'
loop_
 _atom_site_type_symbol
 _atom_site_label
 _atom_site_symmetry_multiplicity
 _atom_site_fract_x
 _atom_site_fract_y
 _atom_site_fract_z
 _atom_site_occupancy
  Zn  Zn0  1  0.63233000  0.50062000  0.63299000  1.0
  Zn  Zn1  1  0.35469000  0.50129000  0.35731000  1.0
  Zn  Zn2  1  0.62839000  0.63823000  0.50029000  1.0
  Zn  Zn3  1  0.36157000  0.36410000  0.49474000  1.0
  H  H4  1  0.66092000  0.65913000  0.84716000  1.0
  H  H5  1  0.56853000  0.54775000  0.96695000  1.0
  H  H6  1  0.61486000  0.55889000  0.13782000  1.0
  H  H7  1  0.32690000  0.68157000  0.49421000  1.0
  H  H8  1  0.47747000  0.53221000  0.09967000  1.0
  H  H9  1  0.31199000  0.27230000  0.81473000  1.0
  H  H10  1  0.31918000  0.33201000  0.97929000  1.0
  H  H11  1  0.66880000  0.45732000  0.01999000  1.0
  H  H12  1  0.66374000  0.41687000  0.15174000  1.0
  H  H13  1  0.38183000  0.20235000  0.84806000  1.0
  H  H14  1  0.34743000  0.22906000  0.99117000  1.0
  H  H15  1  0.31296000  0.33439000  0.14026000  1.0
  H  H16  1  0.25049000  0.60225000  0.76477000  1.0
  H  H17  1  0.67841000  0.85554000  0.46299000  1.0
  H  H18  1  0.09791000  0.61671000  0.77918000  1.0
  H  H19  1  0.96513000  0.65643000  0.41949000  1.0
  H  H20  1  0.05841000  0.79798000  0.51108000  1.0
  H  H21  1  0.12157000  0.64214000  0.40489000  1.0
  H  H22  1  0.21551000  0.78369000  0.49628000  1.0
  H  H23  1  0.34455000  0.99502000  0.21619000  1.0
  H  H24  1  0.34056000  0.82764000  0.20540000  1.0
  H  H25  1  0.71803000  0.05080000  0.58803000  1.0
  H  H26  1  0.88881000  0.72774000  0.54124000  1.0
  H  H27  1  0.78330000  0.05589000  0.50853000  1.0
  H  H28  1  0.72233000  0.22188000  0.59844000  1.0
  H  H29  1  0.31265000  0.27660000  0.66533000  1.0
  H  H30  1  0.78714000  0.22705000  0.51861000  1.0
  H  H31  1  0.70951000  0.00328000  0.86704000  1.0
  H  H32  1  0.86173000  0.17190000  0.03112000  1.0
  H  H33  1  0.06903000  0.97048000  0.16080000  1.0
  H  H34  1  0.98416000  0.93979000  0.22006000  1.0
  H  H35  1  0.92109000  0.80733000  0.98718000  1.0
  H  H36  1  0.31562000  0.68034000  0.26774000  1.0
  H  H37  1  0.10723000  0.14964000  0.33127000  1.0
  H  H38  1  0.67474000  0.47633000  0.85584000  1.0
  H  H39  1  0.31787000  0.49503000  0.67065000  1.0
  H  H40  1  0.67638000  0.85903000  0.68450000  1.0
  H  H41  1  0.68616000  0.34091000  0.49978000  1.0
  H  H42  1  0.64268000  0.17552000  0.75656000  1.0
  H  H43  1  0.66822000  0.13008000  0.85612000  1.0
  H  H44  1  0.54121000  0.04712000  0.72836000  1.0
  H  H45  1  0.50308000  0.13555000  0.86653000  1.0
  H  H46  1  0.48551000  0.18746000  0.77239000  1.0
  H  H47  1  0.68498000  0.34262000  0.89919000  1.0
  H  H48  1  0.08435000  0.32429000  0.14432000  1.0
  H  H49  1  0.69658000  0.29604000  0.99589000  1.0
  H  H50  1  0.89722000  0.54949000  0.72521000  1.0
  H  H51  1  0.32229000  0.15023000  0.31690000  1.0
  H  H52  1  0.67669000  0.52157000  0.32353000  1.0
  H  H53  1  0.42222000  0.47556000  0.91493000  1.0
  C  C54  1  0.65844000  0.69350000  0.79175000  1.0
  C  C55  1  0.87836000  0.59096000  0.67816000  1.0
  C  C56  1  0.41071000  0.21225000  0.36834000  1.0
  C  C57  1  0.33203000  0.62802000  0.52975000  1.0
  C  C58  1  0.58715000  0.48194000  0.29380000  1.0
  C  C59  1  0.50614000  0.20306000  0.38679000  1.0
  C  C60  1  0.49519000  0.41098000  0.18764000  1.0
  C  C61  1  0.94256000  0.64934000  0.64281000  1.0
  C  C62  1  0.04669000  0.19707000  0.20056000  1.0
  C  C63  1  0.50189000  0.48051000  0.96280000  1.0
  C  C64  1  0.52565000  0.49933000  0.07686000  1.0
  C  C65  1  0.30051000  0.61087000  0.60425000  1.0
  C  C66  1  0.38504000  0.27982000  0.87884000  1.0
  C  C67  1  0.59821000  0.37385000  0.98071000  1.0
  C  C68  1  0.49379000  0.37260000  0.90197000  1.0
  C  C69  1  0.58873000  0.79809000  0.41846000  1.0
  C  C70  1  0.49449000  0.39135000  0.08334000  1.0
  C  C71  1  0.37833000  0.30321000  0.98280000  1.0
  C  C72  1  0.58227000  0.36047000  0.07552000  1.0
  C  C73  1  0.17083000  0.68311000  0.57629000  1.0
  C  C74  1  0.23145000  0.64548000  0.63485000  1.0
  C  C75  1  0.20411000  0.62734000  0.71201000  1.0
  C  C76  1  0.49924000  0.80755000  0.35535000  1.0
  C  C77  1  0.11643000  0.63549000  0.72021000  1.0
  C  C78  1  0.04792000  0.66253000  0.65210000  1.0
  C  C79  1  0.08329000  0.69100000  0.58438000  1.0
  C  C80  1  0.04924000  0.71738000  0.49071000  1.0
  C  C81  1  0.40183000  0.32701000  0.69741000  1.0
  C  C82  1  0.14834000  0.70835000  0.48140000  1.0
  C  C83  1  0.60460000  0.10201000  0.42409000  1.0
  C  C84  1  0.51154000  0.10436000  0.35795000  1.0
  C  C85  1  0.41870000  0.00064000  0.27547000  1.0
  C  C86  1  0.41643000  0.90471000  0.26935000  1.0
  C  C87  1  0.49339000  0.37064000  0.80117000  1.0
  C  C88  1  0.50684000  0.90373000  0.34500000  1.0
  C  C89  1  0.60231000  0.00645000  0.41816000  1.0
  C  C90  1  0.71754000  0.06544000  0.51978000  1.0
  C  C91  1  0.72010000  0.17370000  0.52639000  1.0
  C  C92  1  0.83789000  0.90153000  0.00621000  1.0
  C  C93  1  0.40392000  0.70834000  0.31792000  1.0
  C  C94  1  0.75998000  0.89744000  0.91540000  1.0
  C  C95  1  0.77019000  0.99945000  0.93186000  1.0
  C  C96  1  0.85741000  0.09588000  0.02573000  1.0
  C  C97  1  0.94233000  0.09920000  0.11208000  1.0
  C  C98  1  0.59638000  0.30917000  0.46278000  1.0
  C  C99  1  0.92456000  0.99705000  0.09977000  1.0
  C  C100  1  0.98410000  0.94346000  0.14777000  1.0
  C  C101  1  0.88897000  0.83449000  0.03842000  1.0
  C  C102  1  0.58618000  0.42774000  0.79372000  1.0
  C  C103  1  0.32834000  0.53355000  0.62046000  1.0
  C  C104  1  0.66416000  0.79500000  0.70802000  1.0
  C  C105  1  0.69067000  0.80079000  0.81066000  1.0
  C  C106  1  0.63613000  0.30045000  0.92998000  1.0
  C  C107  1  0.54810000  0.18493000  0.83784000  1.0
  C  C108  1  0.60278000  0.13127000  0.79205000  1.0
  C  C109  1  0.40196000  0.38660000  0.20051000  1.0
  C  C110  1  0.55107000  0.25279000  0.06730000  1.0
  C  C111  1  0.82631000  0.74388000  0.05106000  1.0
  C  C112  1  0.87323000  0.68061000  0.58325000  1.0
  C  C113  1  0.11963000  0.20687000  0.29894000  1.0
  C  C114  1  0.10726000  0.29655000  0.20438000  1.0
  N  N115  1  0.61829000  0.63051000  0.68689000  1.0
  N  N116  1  0.54982000  0.70181000  0.41836000  1.0
  N  N117  1  0.43746000  0.35540000  0.63302000  1.0
  N  N118  1  0.43462000  0.64564000  0.35593000  1.0
  N  N119  1  0.55240000  0.41774000  0.69319000  1.0
  N  N120  1  0.37011000  0.50595000  0.55834000  1.0
  N  N121  1  0.62226000  0.69272000  0.63561000  1.0
  N  N122  1  0.55679000  0.37450000  0.48849000  1.0
  N  N123  1  0.52542000  0.16684000  0.06117000  1.0
  N  N124  1  0.77840000  0.67131000  0.06305000  1.0
  N  N125  1  0.43635000  0.44083000  0.30607000  1.0
  N  N126  1  0.77643000  0.64387000  0.58334000  1.0
  N  N127  1  0.21495000  0.30355000  0.35604000  1.0
  N  N128  1  0.20792000  0.35959000  0.29728000  1.0
  N  N129  1  0.77962000  0.58799000  0.64241000  1.0
  N  N130  1  0.44270000  0.31490000  0.43068000  1.0
  N  N131  1  0.55034000  0.49936000  0.36352000  1.0
  N  N132  1  0.37251000  0.56406000  0.50270000  1.0
