# generated using pymatgen
data_TmH4(C3O4)2
_symmetry_space_group_name_H-M   'P 1'
_cell_length_a   5.76161000
_cell_length_b   8.95551000
_cell_length_c   14.76030000
_cell_angle_alpha   89.99990000
_cell_angle_beta   90.00000000
_cell_angle_gamma   93.07360000
_symmetry_Int_Tables_number   1
_chemical_formula_structural   TmH4(C3O4)2
_chemical_formula_sum   'Tm4 H16 C24 O32'
_cell_volume   760.50868018
_cell_formula_units_Z   4
loop_
 _symmetry_equiv_pos_site_id
 _symmetry_equiv_pos_as_xyz
  1  'x, y, z'
loop_
 _atom_site_type_symbol
 _atom_site_label
 _atom_site_symmetry_multiplicity
 _atom_site_fract_x
 _atom_site_fract_y
 _atom_site_fract_z
 _atom_site_occupancy
  Tm  Tm0  1  0.86641000  0.94084000  0.87073000  1.0
  Tm  Tm1  1  0.86641000  0.44084000  0.62927000  1.0
  Tm  Tm2  1  0.13359000  0.05916000  0.12926000  1.0
  Tm  Tm3  1  0.13359000  0.55917000  0.37073000  1.0
  H  H4  1  0.10941000  0.93862000  0.70060000  1.0
  H  H5  1  0.10941000  0.43862000  0.79940000  1.0
  H  H6  1  0.89060000  0.06138000  0.29940000  1.0
  H  H7  1  0.89059000  0.56139000  0.20059000  1.0
  H  H8  1  0.31627000  0.96283000  0.77141000  1.0
  H  H9  1  0.31626000  0.46283000  0.72859000  1.0
  H  H10  1  0.68374000  0.03718000  0.22858000  1.0
  H  H11  1  0.68374000  0.53718000  0.27141000  1.0
  H  H12  1  0.84920000  0.80488000  0.07006000  1.0
  H  H13  1  0.84921000  0.30489000  0.42994000  1.0
  H  H14  1  0.15080000  0.19512000  0.92994000  1.0
  H  H15  1  0.15079000  0.69512000  0.57006000  1.0
  H  H16  1  0.67935000  0.94448000  0.06580000  1.0
  H  H17  1  0.67935000  0.44448000  0.43420000  1.0
  H  H18  1  0.32066000  0.05552000  0.93420000  1.0
  H  H19  1  0.32065000  0.55552000  0.56580000  1.0
  C  C20  1  0.64743000  0.40819000  0.95276000  1.0
  C  C21  1  0.64743000  0.90819000  0.54724000  1.0
  C  C22  1  0.35256000  0.59181000  0.04724000  1.0
  C  C23  1  0.35258000  0.09181000  0.45276000  1.0
  C  C24  1  0.55844000  0.36409000  0.03794000  1.0
  C  C25  1  0.55845000  0.86410000  0.46205000  1.0
  C  C26  1  0.44154000  0.63590000  0.96206000  1.0
  C  C27  1  0.44156000  0.13591000  0.53794000  1.0
  C  C28  1  0.58988000  0.54448000  0.91435000  1.0
  C  C29  1  0.58989000  0.04448000  0.58566000  1.0
  C  C30  1  0.41011000  0.45551000  0.08566000  1.0
  C  C31  1  0.41012000  0.95553000  0.41434000  1.0
  C  C32  1  0.80911000  0.30267000  0.90852000  1.0
  C  C33  1  0.80910000  0.80267000  0.59148000  1.0
  C  C34  1  0.19089000  0.69732000  0.09148000  1.0
  C  C35  1  0.19090000  0.19733000  0.40852000  1.0
  C  C36  1  0.65020000  0.22292000  0.07632000  1.0
  C  C37  1  0.65020000  0.72293000  0.42368000  1.0
  C  C38  1  0.34980000  0.77707000  0.92368000  1.0
  C  C39  1  0.34981000  0.27707000  0.57632000  1.0
  C  C40  1  0.68450000  0.58635000  0.82213000  1.0
  C  C41  1  0.68451000  0.08633000  0.67787000  1.0
  C  C42  1  0.31549000  0.41366000  0.17787000  1.0
  C  C43  1  0.31550000  0.91366000  0.32213000  1.0
  O  O44  1  0.15171000  0.98130000  0.76140000  1.0
  O  O45  1  0.15171000  0.48130000  0.73860000  1.0
  O  O46  1  0.84829000  0.01870000  0.23860000  1.0
  O  O47  1  0.84829000  0.51871000  0.26140000  1.0
  O  O48  1  0.83091000  0.90889000  0.04532000  1.0
  O  O49  1  0.83091000  0.40889000  0.45468000  1.0
  O  O50  1  0.16909000  0.09111000  0.95468000  1.0
  O  O51  1  0.16909000  0.59111000  0.54532000  1.0
  O  O52  1  0.01832000  0.34630000  0.89253000  1.0
  O  O53  1  0.01831000  0.84629000  0.60747000  1.0
  O  O54  1  0.98168000  0.65371000  0.10747000  1.0
  O  O55  1  0.98169000  0.15371000  0.39253000  1.0
  O  O56  1  0.72612000  0.16875000  0.89860000  1.0
  O  O57  1  0.72610000  0.66874000  0.60140000  1.0
  O  O58  1  0.27389000  0.83125000  0.10140000  1.0
  O  O59  1  0.27390000  0.33126000  0.39860000  1.0
  O  O60  1  0.86791000  0.22310000  0.08460000  1.0
  O  O61  1  0.86791000  0.72310000  0.41540000  1.0
  O  O62  1  0.13209000  0.77690000  0.91540000  1.0
  O  O63  1  0.13209000  0.27690000  0.58460000  1.0
  O  O64  1  0.51457000  0.10932000  0.09471000  1.0
  O  O65  1  0.51456000  0.60932000  0.40529000  1.0
  O  O66  1  0.48544000  0.89068000  0.90529000  1.0
  O  O67  1  0.48544000  0.39068000  0.59471000  1.0
  O  O68  1  0.67118000  0.48337000  0.76221000  1.0
  O  O69  1  0.67120000  0.98337000  0.73779000  1.0
  O  O70  1  0.32879000  0.51662000  0.23779000  1.0
  O  O71  1  0.32881000  0.01662000  0.26221000  1.0
  O  O72  1  0.77283000  0.71585000  0.80894000  1.0
  O  O73  1  0.77284000  0.21586000  0.69106000  1.0
  O  O74  1  0.22716000  0.28413000  0.19106000  1.0
  O  O75  1  0.22717000  0.78414000  0.30894000  1.0
