# generated using pymatgen
data_Na2MgH24(C5O6)4
_symmetry_space_group_name_H-M   'P 1'
_cell_length_a   7.26269000
_cell_length_b   10.28970000
_cell_length_c   10.52700000
_cell_angle_alpha   85.62180000
_cell_angle_beta   69.86140000
_cell_angle_gamma   76.88270000
_symmetry_Int_Tables_number   1
_chemical_formula_structural   Na2MgH24(C5O6)4
_chemical_formula_sum   'Na2 Mg1 H24 C20 O24'
_cell_volume   719.32260849
_cell_formula_units_Z   1
loop_
 _symmetry_equiv_pos_site_id
 _symmetry_equiv_pos_as_xyz
  1  'x, y, z'
loop_
 _atom_site_type_symbol
 _atom_site_label
 _atom_site_symmetry_multiplicity
 _atom_site_fract_x
 _atom_site_fract_y
 _atom_site_fract_z
 _atom_site_occupancy
  Na  Na0  1  0.30210000  0.64011000  0.99958000  1.0
  Na  Na1  1  0.69790000  0.35989000  0.00042000  1.0
  Mg  Mg2  1  0.00000000  0.00000000  0.00000000  1.0
  H  H3  1  0.37286000  0.49903000  0.25473000  1.0
  H  H4  1  0.62715000  0.50097000  0.74527000  1.0
  H  H5  1  0.12601000  0.50027000  0.74825000  1.0
  H  H6  1  0.87399000  0.49972000  0.25176000  1.0
  H  H7  1  0.92570000  0.83358000  0.51818000  1.0
  H  H8  1  0.55593000  0.16571000  0.51915000  1.0
  H  H9  1  0.07432000  0.16642000  0.48182000  1.0
  H  H10  1  0.44406000  0.83428000  0.48085000  1.0
  H  H11  1  0.31490000  0.88449000  0.07859000  1.0
  H  H12  1  0.60810000  0.11807000  0.08137000  1.0
  H  H13  1  0.68508000  0.11551000  0.92142000  1.0
  H  H14  1  0.39190000  0.88194000  0.91864000  1.0
  H  H15  1  0.34397000  0.36767000  0.92131000  1.0
  H  H16  1  0.73537000  0.63208000  0.92037000  1.0
  H  H17  1  0.65604000  0.63234000  0.07869000  1.0
  H  H18  1  0.26463000  0.36792000  0.07964000  1.0
  H  H19  1  0.78925000  0.06605000  0.26569000  1.0
  H  H20  1  0.94784000  0.93316000  0.26525000  1.0
  H  H21  1  0.21074000  0.93395000  0.73431000  1.0
  H  H22  1  0.05216000  0.06685000  0.73475000  1.0
  H  H23  1  0.04142000  0.22565000  0.08040000  1.0
  H  H24  1  0.87892000  0.77430000  0.07979000  1.0
  H  H25  1  0.95858000  0.77435000  0.91960000  1.0
  H  H26  1  0.12108000  0.22571000  0.92021000  1.0
  C  C27  1  0.31804000  0.49929000  0.36460000  1.0
  C  C28  1  0.68196000  0.50070000  0.63539000  1.0
  C  C29  1  0.18104000  0.50005000  0.63840000  1.0
  C  C30  1  0.81895000  0.49994000  0.36160000  1.0
  C  C31  1  0.11119000  0.61429000  0.57330000  1.0
  C  C32  1  0.31579000  0.38543000  0.57352000  1.0
  C  C33  1  0.88882000  0.38571000  0.42670000  1.0
  C  C34  1  0.68420000  0.61457000  0.42648000  1.0
  C  C35  1  0.18624000  0.61490000  0.42962000  1.0
  C  C36  1  0.38480000  0.38408000  0.42979000  1.0
  C  C37  1  0.81376000  0.38510000  0.57038000  1.0
  C  C38  1  0.61519000  0.61591000  0.57022000  1.0
  C  C39  1  0.14110000  0.72685000  0.33446000  1.0
  C  C40  1  0.52515000  0.27163000  0.33492000  1.0
  C  C41  1  0.85891000  0.27315000  0.66554000  1.0
  C  C42  1  0.47486000  0.72836000  0.66507000  1.0
  C  C43  1  0.96227000  0.72149000  0.67122000  1.0
  C  C44  1  0.36584000  0.27852000  0.67176000  1.0
  C  C45  1  0.03774000  0.27851000  0.32878000  1.0
  C  C46  1  0.63417000  0.72147000  0.32824000  1.0
  O  O47  1  0.24302000  0.71571000  0.21112000  1.0
  O  O48  1  0.54663000  0.28204000  0.21148000  1.0
  O  O49  1  0.75698000  0.28428000  0.78888000  1.0
  O  O50  1  0.45338000  0.71796000  0.78852000  1.0
  O  O51  1  0.87553000  0.83149000  0.62833000  1.0
  O  O52  1  0.49540000  0.16823000  0.62909000  1.0
  O  O53  1  0.12448000  0.16851000  0.37166000  1.0
  O  O54  1  0.50459000  0.83177000  0.37092000  1.0
  O  O55  1  0.99728000  0.82809000  0.38346000  1.0
  O  O56  1  0.61988000  0.17074000  0.38410000  1.0
  O  O57  1  0.00274000  0.17192000  0.61654000  1.0
  O  O58  1  0.38010000  0.82925000  0.61590000  1.0
  O  O59  1  0.92361000  0.69923000  0.79533000  1.0
  O  O60  1  0.27975000  0.30127000  0.79580000  1.0
  O  O61  1  0.07639000  0.30076000  0.20467000  1.0
  O  O62  1  0.72027000  0.69873000  0.20419000  1.0
  O  O63  1  0.30079000  0.93493000  0.99840000  1.0
  O  O64  1  0.69919000  0.06508000  0.00161000  1.0
  O  O65  1  0.35150000  0.40891000  0.00052000  1.0
  O  O66  1  0.64849000  0.59110000  0.99948000  1.0
  O  O67  1  0.89976000  0.99992000  0.20369000  1.0
  O  O68  1  0.10025000  0.00008000  0.79631000  1.0
  O  O69  1  0.01128000  0.20351000  0.00031000  1.0
  O  O70  1  0.98871000  0.79650000  0.99969000  1.0
