# generated using pymatgen
data_MgH26C30N2(O5F)2
_symmetry_space_group_name_H-M   'P 1'
_cell_length_a   5.19215000
_cell_length_b   6.23161000
_cell_length_c   21.61830000
_cell_angle_alpha   85.10010000
_cell_angle_beta   86.46960000
_cell_angle_gamma   82.01080000
_symmetry_Int_Tables_number   1
_chemical_formula_structural   MgH26C30N2(O5F)2
_chemical_formula_sum   'Mg1 H26 C30 N2 O10 F2'
_cell_volume   689.27328049
_cell_formula_units_Z   1
loop_
 _symmetry_equiv_pos_site_id
 _symmetry_equiv_pos_as_xyz
  1  'x, y, z'
loop_
 _atom_site_type_symbol
 _atom_site_label
 _atom_site_symmetry_multiplicity
 _atom_site_fract_x
 _atom_site_fract_y
 _atom_site_fract_z
 _atom_site_occupancy
  Mg  Mg0  1  0.45370000  0.15534000  0.33704000  1.0
  H  H1  1  0.08816000  0.27562000  0.44559000  1.0
  H  H2  1  0.68141000  0.56726000  0.30396000  1.0
  H  H3  1  0.73967000  0.19006000  0.42356000  1.0
  H  H4  1  0.87661000  0.14612000  0.27144000  1.0
  H  H5  1  0.78329000  0.92847000  0.25754000  1.0
  H  H6  1  0.80163000  0.66336000  0.75097000  1.0
  H  H7  1  0.51502000  0.65328000  0.66294000  1.0
  H  H8  1  0.84794000  0.99101000  0.63987000  1.0
  H  H9  1  0.13306000  0.00102000  0.72881000  1.0
  H  H10  1  0.29946000  0.25799000  0.61074000  1.0
  H  H11  1  0.57685000  0.19282000  0.56062000  1.0
  H  H12  1  0.06264000  0.61342000  0.60766000  1.0
  H  H13  1  0.07918000  0.00643000  0.54050000  1.0
  H  H14  1  0.52874000  0.95623000  0.46699000  1.0
  H  H15  1  0.89373000  0.82540000  0.42526000  1.0
  H  H16  1  0.34492000  0.87030000  0.16434000  1.0
  H  H17  1  0.64447000  0.47350000  0.86220000  1.0
  H  H18  1  0.93586000  0.47159000  0.95002000  1.0
  H  H19  1  0.61120000  0.13099000  0.97934000  1.0
  H  H20  1  0.32171000  0.13380000  0.89026000  1.0
  H  H21  1  0.16317000  0.84852000  0.00450000  1.0
  H  H22  1  0.88932000  0.92765000  0.05458000  1.0
  H  H23  1  0.38105000  0.48774000  0.00969000  1.0
  H  H24  1  0.33742000  0.09985000  0.07658000  1.0
  H  H25  1  0.89011000  0.16487000  0.14771000  1.0
  H  H26  1  0.51763000  0.32603000  0.18767000  1.0
  C  C27  1  0.97915000  0.33220000  0.74368000  1.0
  C  C28  1  0.80907000  0.51715000  0.72632000  1.0
  C  C29  1  0.64940000  0.50931000  0.67712000  1.0
  C  C30  1  0.66023000  0.32071000  0.64557000  1.0
  C  C31  1  0.83465000  0.13802000  0.66451000  1.0
  C  C32  1  0.99552000  0.14145000  0.71383000  1.0
  C  C33  1  0.48517000  0.31060000  0.59266000  1.0
  C  C34  1  0.21000000  0.66526000  0.57398000  1.0
  C  C35  1  0.22519000  0.86420000  0.54011000  1.0
  C  C36  1  0.45630000  0.84069000  0.50268000  1.0
  C  C37  1  0.57889000  0.62635000  0.51403000  1.0
  C  C38  1  0.80830000  0.52253000  0.48232000  1.0
  C  C39  1  0.95200000  0.64884000  0.43639000  1.0
  C  C40  1  0.15738000  0.54298000  0.40379000  1.0
  C  C41  1  0.33944000  0.65409000  0.35950000  1.0
  C  C42  1  0.47133000  0.80419000  0.87246000  1.0
  C  C43  1  0.63978000  0.61643000  0.88816000  1.0
  C  C44  1  0.80186000  0.61747000  0.93728000  1.0
  C  C45  1  0.79470000  0.80203000  0.97042000  1.0
  C  C46  1  0.62139000  0.98753000  0.95325000  1.0
  C  C47  1  0.45842000  0.99111000  0.90396000  1.0
  C  C48  1  0.97327000  0.80578000  0.02301000  1.0
  C  C49  1  0.22877000  0.44320000  0.04309000  1.0
  C  C50  1  0.19976000  0.24724000  0.07704000  1.0
  C  C51  1  0.96741000  0.28149000  0.11390000  1.0
  C  C52  1  0.85835000  0.49940000  0.10210000  1.0
  C  C53  1  0.63217000  0.61651000  0.13241000  1.0
  C  C54  1  0.47301000  0.50000000  0.17673000  1.0
  C  C55  1  0.26268000  0.61284000  0.20651000  1.0
  C  C56  1  0.08187000  0.50446000  0.25250000  1.0
  N  N57  1  0.42149000  0.52103000  0.55827000  1.0
  N  N58  1  0.02434000  0.59535000  0.05816000  1.0
  O  O59  1  0.88473000  0.31788000  0.49392000  1.0
  O  O60  1  0.22000000  0.32494000  0.40975000  1.0
  O  O61  1  0.32369000  0.85390000  0.34945000  1.0
  O  O62  1  0.51628000  0.51098000  0.33383000  1.0
  O  O63  1  0.73076000  0.08510000  0.39350000  1.0
  O  O64  1  0.71936000  0.08362000  0.26194000  1.0
  O  O65  1  0.57513000  0.82257000  0.12104000  1.0
  O  O66  1  0.19982000  0.82720000  0.19678000  1.0
  O  O67  1  0.14492000  0.31085000  0.27478000  1.0
  O  O68  1  0.86891000  0.62657000  0.26556000  1.0
  F  F69  1  0.13657000  0.33875000  0.79183000  1.0
  F  F70  1  0.31198000  0.80406000  0.82433000  1.0
