# generated using pymatgen
data_CdH7C8I2N5
_symmetry_space_group_name_H-M   'P 1'
_cell_length_a   6.18587000
_cell_length_b   11.47800000
_cell_length_c   19.34990000
_cell_angle_alpha   89.99990000
_cell_angle_beta   90.00010000
_cell_angle_gamma   89.99980000
_symmetry_Int_Tables_number   1
_chemical_formula_structural   CdH7C8I2N5
_chemical_formula_sum   'Cd4 H28 C32 I8 N20'
_cell_volume   1373.87029674
_cell_formula_units_Z   4
loop_
 _symmetry_equiv_pos_site_id
 _symmetry_equiv_pos_as_xyz
  1  'x, y, z'
loop_
 _atom_site_type_symbol
 _atom_site_label
 _atom_site_symmetry_multiplicity
 _atom_site_fract_x
 _atom_site_fract_y
 _atom_site_fract_z
 _atom_site_occupancy
  Cd  Cd0  1  0.44046000  0.04199000  0.64146000  1.0
  Cd  Cd1  1  0.05954000  0.95802000  0.14146000  1.0
  Cd  Cd2  1  0.55954000  0.54199000  0.85854000  1.0
  Cd  Cd3  1  0.94046000  0.45801000  0.35854000  1.0
  H  H4  1  0.05509000  0.95514000  0.88505000  1.0
  H  H5  1  0.44491000  0.04486000  0.38505000  1.0
  H  H6  1  0.94490000  0.45514000  0.61494000  1.0
  H  H7  1  0.55509000  0.54486000  0.11495000  1.0
  H  H8  1  0.33158000  0.93731000  0.79130000  1.0
  H  H9  1  0.16842000  0.06269000  0.29130000  1.0
  H  H10  1  0.66843000  0.43731000  0.70870000  1.0
  H  H11  1  0.83157000  0.56269000  0.20871000  1.0
  H  H12  1  0.03585000  0.19732000  0.67504000  1.0
  H  H13  1  0.46415000  0.80268000  0.17504000  1.0
  H  H14  1  0.96415000  0.69731000  0.82495000  1.0
  H  H15  1  0.53585000  0.30268000  0.32496000  1.0
  H  H16  1  0.74568000  0.22367000  0.76282000  1.0
  H  H17  1  0.75433000  0.77633000  0.26281000  1.0
  H  H18  1  0.25433000  0.72367000  0.73718000  1.0
  H  H19  1  0.24567000  0.27633000  0.23719000  1.0
  H  H20  1  0.58805000  0.17597000  0.87130000  1.0
  H  H21  1  0.91195000  0.82403000  0.37130000  1.0
  H  H22  1  0.41195000  0.67597000  0.62870000  1.0
  H  H23  1  0.08804000  0.32403000  0.12870000  1.0
  H  H24  1  0.42019000  0.24395000  0.95936000  1.0
  H  H25  1  0.07981000  0.75605000  0.45936000  1.0
  H  H26  1  0.57981000  0.74395000  0.54064000  1.0
  H  H27  1  0.92019000  0.25605000  0.04064000  1.0
  H  H28  1  0.54844000  0.90656000  0.03944000  1.0
  H  H29  1  0.95155000  0.09344000  0.53944000  1.0
  H  H30  1  0.45155000  0.40657000  0.46056000  1.0
  H  H31  1  0.04844000  0.59344000  0.96056000  1.0
  C  C32  1  0.04748000  0.01101000  0.83960000  1.0
  C  C33  1  0.45252000  0.98899000  0.33960000  1.0
  C  C34  1  0.95252000  0.51101000  0.66039000  1.0
  C  C35  1  0.54748000  0.48899000  0.16040000  1.0
  C  C36  1  0.20036000  0.00078000  0.78760000  1.0
  C  C37  1  0.29964000  0.99922000  0.28760000  1.0
  C  C38  1  0.79964000  0.50078000  0.71240000  1.0
  C  C39  1  0.70036000  0.49922000  0.21240000  1.0
  C  C40  1  0.03533000  0.14523000  0.72223000  1.0
  C  C41  1  0.46467000  0.85477000  0.22223000  1.0
  C  C42  1  0.96468000  0.64523000  0.77777000  1.0
  C  C43  1  0.53533000  0.35477000  0.27777000  1.0
  C  C44  1  0.87418000  0.16027000  0.77155000  1.0
  C  C45  1  0.62582000  0.83973000  0.27155000  1.0
  C  C46  1  0.12582000  0.66026000  0.72845000  1.0
  C  C47  1  0.37418000  0.33973000  0.22845000  1.0
  C  C48  1  0.88028000  0.09290000  0.83186000  1.0
  C  C49  1  0.61972000  0.90710000  0.33186000  1.0
  C  C50  1  0.11972000  0.59290000  0.66814000  1.0
  C  C51  1  0.38027000  0.40710000  0.16814000  1.0
  C  C52  1  0.71058000  0.10954000  0.88316000  1.0
  C  C53  1  0.78942000  0.89046000  0.38316000  1.0
  C  C54  1  0.28942000  0.60954000  0.61684000  1.0
  C  C55  1  0.21057000  0.39046000  0.11684000  1.0
  C  C56  1  0.40279000  0.16437000  0.98923000  1.0
  C  C57  1  0.09721000  0.83563000  0.48923000  1.0
  C  C58  1  0.59721000  0.66437000  0.51077000  1.0
  C  C59  1  0.90279000  0.33563000  0.01077000  1.0
  C  C60  1  0.47125000  0.99058000  0.03144000  1.0
  C  C61  1  0.02875000  0.00942000  0.53144000  1.0
  C  C62  1  0.52875000  0.49058000  0.46856000  1.0
  C  C63  1  0.97125000  0.50942000  0.96856000  1.0
  I  I64  1  0.58637000  0.24969000  0.59166000  1.0
  I  I65  1  0.91363000  0.75031000  0.09166000  1.0
  I  I66  1  0.41364000  0.74969000  0.90834000  1.0
  I  I67  1  0.08637000  0.25031000  0.40834000  1.0
  I  I68  1  0.69928000  0.86034000  0.67917000  1.0
  I  I69  1  0.80073000  0.13966000  0.17917000  1.0
  I  I70  1  0.30074000  0.36034000  0.82083000  1.0
  I  I71  1  0.19927000  0.63967000  0.32083000  1.0
  N  N72  1  0.19536000  0.06731000  0.73006000  1.0
  N  N73  1  0.30464000  0.93269000  0.23006000  1.0
  N  N74  1  0.80464000  0.56731000  0.76994000  1.0
  N  N75  1  0.69536000  0.43269000  0.26994000  1.0
  N  N76  1  0.70713000  0.04674000  0.93842000  1.0
  N  N77  1  0.79287000  0.95326000  0.43842000  1.0
  N  N78  1  0.29287000  0.54675000  0.56158000  1.0
  N  N79  1  0.20712000  0.45326000  0.06158000  1.0
  N  N80  1  0.53842000  0.06923000  0.98301000  1.0
  N  N81  1  0.96158000  0.93077000  0.48301000  1.0
  N  N82  1  0.46158000  0.56923000  0.51699000  1.0
  N  N83  1  0.03841000  0.43077000  0.01699000  1.0
  N  N84  1  0.26056000  0.14459000  0.03821000  1.0
  N  N85  1  0.23944000  0.85541000  0.53821000  1.0
  N  N86  1  0.73944000  0.64459000  0.46179000  1.0
  N  N87  1  0.76056000  0.35541000  0.96179000  1.0
  N  N88  1  0.30280000  0.03442000  0.06402000  1.0
  N  N89  1  0.19720000  0.96558000  0.56402000  1.0
  N  N90  1  0.69720000  0.53443000  0.43598000  1.0
  N  N91  1  0.80280000  0.46557000  0.93598000  1.0
