# generated using pymatgen
data_CuH10C20N2(OF2)6
_symmetry_space_group_name_H-M   'P 1'
_cell_length_a   8.49390000
_cell_length_b   11.11450000
_cell_length_c   12.71020000
_cell_angle_alpha   90.00070000
_cell_angle_beta   90.00170000
_cell_angle_gamma   78.32900000
_symmetry_Int_Tables_number   1
_chemical_formula_structural   CuH10C20N2(OF2)6
_chemical_formula_sum   'Cu2 H20 C40 N4 O12 F24'
_cell_volume   1175.10437567
_cell_formula_units_Z   2
loop_
 _symmetry_equiv_pos_site_id
 _symmetry_equiv_pos_as_xyz
  1  'x, y, z'
loop_
 _atom_site_type_symbol
 _atom_site_label
 _atom_site_symmetry_multiplicity
 _atom_site_fract_x
 _atom_site_fract_y
 _atom_site_fract_z
 _atom_site_occupancy
  Cu  Cu0  1  0.00000000  0.00000000  0.00000000  1.0
  Cu  Cu1  1  0.99999000  0.50000000  0.50000000  1.0
  H  H2  1  0.96958000  0.25389000  0.26951000  1.0
  H  H3  1  0.96958000  0.75389000  0.23050000  1.0
  H  H4  1  0.03041000  0.74611000  0.73049000  1.0
  H  H5  1  0.03042000  0.24611000  0.76950000  1.0
  H  H6  1  0.90858000  0.21098000  0.45357000  1.0
  H  H7  1  0.90858000  0.71097000  0.04643000  1.0
  H  H8  1  0.09141000  0.78902000  0.54642000  1.0
  H  H9  1  0.09141000  0.28902000  0.95358000  1.0
  H  H10  1  0.12821000  0.82878000  0.39475000  1.0
  H  H11  1  0.12822000  0.32878000  0.10525000  1.0
  H  H12  1  0.87179000  0.17122000  0.60525000  1.0
  H  H13  1  0.87179000  0.67122000  0.89476000  1.0
  H  H14  1  0.18286000  0.89063000  0.21355000  1.0
  H  H15  1  0.18287000  0.39063000  0.28645000  1.0
  H  H16  1  0.81714000  0.10937000  0.78644000  1.0
  H  H17  1  0.81714000  0.60937000  0.71356000  1.0
  H  H18  1  0.50613000  0.15045000  0.10048000  1.0
  H  H19  1  0.50612000  0.65046000  0.39951000  1.0
  H  H20  1  0.49388000  0.84955000  0.89951000  1.0
  H  H21  1  0.49387000  0.34955000  0.60050000  1.0
  C  C22  1  0.00207000  0.16247000  0.30298000  1.0
  C  C23  1  0.00207000  0.66246000  0.19702000  1.0
  C  C24  1  0.99792000  0.83753000  0.69702000  1.0
  C  C25  1  0.99793000  0.33753000  0.80298000  1.0
  C  C26  1  0.96937000  0.13489000  0.40533000  1.0
  C  C27  1  0.96937000  0.63489000  0.09468000  1.0
  C  C28  1  0.03062000  0.86510000  0.59466000  1.0
  C  C29  1  0.03063000  0.36511000  0.90533000  1.0
  C  C30  1  0.01502000  0.01484000  0.44511000  1.0
  C  C31  1  0.01503000  0.51483000  0.05489000  1.0
  C  C32  1  0.98498000  0.98516000  0.55488000  1.0
  C  C33  1  0.98498000  0.48516000  0.94512000  1.0
  C  C34  1  0.09205000  0.92542000  0.37338000  1.0
  C  C35  1  0.09206000  0.42542000  0.12662000  1.0
  C  C36  1  0.90795000  0.07458000  0.62662000  1.0
  C  C37  1  0.90795000  0.57458000  0.87338000  1.0
  C  C38  1  0.12360000  0.95610000  0.27146000  1.0
  C  C39  1  0.12361000  0.45610000  0.22854000  1.0
  C  C40  1  0.87640000  0.04389000  0.72853000  1.0
  C  C41  1  0.87640000  0.54390000  0.77146000  1.0
  C  C42  1  0.71110000  0.00378000  0.12017000  1.0
  C  C43  1  0.71108000  0.50379000  0.37982000  1.0
  C  C44  1  0.28891000  0.99621000  0.87983000  1.0
  C  C45  1  0.28891000  0.49621000  0.62018000  1.0
  C  C46  1  0.62908000  0.11414000  0.07625000  1.0
  C  C47  1  0.62906000  0.61415000  0.42373000  1.0
  C  C48  1  0.37093000  0.88586000  0.92374000  1.0
  C  C49  1  0.37092000  0.38586000  0.57627000  1.0
  C  C50  1  0.70234000  0.17916000  0.00317000  1.0
  C  C51  1  0.70234000  0.67916000  0.49682000  1.0
  C  C52  1  0.29767000  0.82084000  0.99682000  1.0
  C  C53  1  0.29765000  0.32084000  0.50318000  1.0
  C  C54  1  0.37458000  0.05409000  0.79196000  1.0
  C  C55  1  0.37459000  0.55409000  0.70804000  1.0
  C  C56  1  0.62543000  0.94591000  0.20803000  1.0
  C  C57  1  0.62541000  0.44592000  0.29195000  1.0
  C  C58  1  0.39659000  0.69997000  0.04237000  1.0
  C  C59  1  0.39657000  0.19997000  0.45763000  1.0
  C  C60  1  0.60342000  0.30003000  0.95762000  1.0
  C  C61  1  0.60342000  0.80004000  0.54238000  1.0
  N  N62  1  0.08035000  0.07442000  0.23595000  1.0
  N  N63  1  0.08035000  0.57442000  0.26405000  1.0
  N  N64  1  0.91964000  0.92558000  0.76404000  1.0
  N  N65  1  0.91965000  0.42558000  0.73595000  1.0
  O  O66  1  0.11214000  0.10355000  0.13946000  1.0
  O  O67  1  0.11214000  0.60354000  0.36055000  1.0
  O  O68  1  0.88786000  0.89645000  0.86053000  1.0
  O  O69  1  0.88786000  0.39646000  0.63946000  1.0
  O  O70  1  0.85234000  0.94474000  0.10103000  1.0
  O  O71  1  0.85232000  0.44475000  0.39897000  1.0
  O  O72  1  0.14766000  0.05525000  0.89897000  1.0
  O  O73  1  0.14766000  0.55526000  0.60103000  1.0
  O  O74  1  0.84437000  0.15260000  0.96719000  1.0
  O  O75  1  0.84437000  0.65260000  0.53280000  1.0
  O  O76  1  0.15564000  0.84740000  0.03280000  1.0
  O  O77  1  0.15562000  0.34740000  0.46720000  1.0
  F  F78  1  0.32070000  0.02347000  0.69655000  1.0
  F  F79  1  0.32072000  0.52345000  0.80345000  1.0
  F  F80  1  0.67931000  0.97653000  0.30344000  1.0
  F  F81  1  0.67929000  0.47655000  0.19655000  1.0
  F  F82  1  0.34279000  0.17866000  0.79839000  1.0
  F  F83  1  0.34280000  0.67866000  0.70163000  1.0
  F  F84  1  0.65721000  0.82134000  0.20161000  1.0
  F  F85  1  0.65719000  0.32136000  0.29838000  1.0
  F  F86  1  0.53670000  0.01532000  0.79403000  1.0
  F  F87  1  0.53671000  0.51531000  0.70597000  1.0
  F  F88  1  0.46331000  0.98470000  0.20597000  1.0
  F  F89  1  0.46329000  0.48470000  0.29401000  1.0
  F  F90  1  0.55367000  0.67929000  0.01286000  1.0
  F  F91  1  0.55365000  0.17929000  0.48715000  1.0
  F  F92  1  0.44635000  0.32072000  0.98714000  1.0
  F  F93  1  0.44634000  0.82072000  0.51286000  1.0
  F  F94  1  0.33516000  0.60238000  0.01072000  1.0
  F  F95  1  0.33515000  0.10238000  0.48928000  1.0
  F  F96  1  0.66486000  0.39762000  0.98927000  1.0
  F  F97  1  0.66485000  0.89763000  0.51073000  1.0
  F  F98  1  0.39116000  0.70314000  0.14958000  1.0
  F  F99  1  0.39115000  0.20314000  0.35043000  1.0
  F  F100  1  0.60885000  0.29686000  0.85042000  1.0
  F  F101  1  0.60884000  0.79686000  0.64958000  1.0
