# generated using pymatgen
data_NaB2H15C16O13
_symmetry_space_group_name_H-M   'P 1'
_cell_length_a   6.59803000
_cell_length_b   7.08759000
_cell_length_c   19.34480000
_cell_angle_alpha   79.61030000
_cell_angle_beta   81.40800000
_cell_angle_gamma   83.91990000
_symmetry_Int_Tables_number   1
_chemical_formula_structural   NaB2H15C16O13
_chemical_formula_sum   'Na2 B4 H30 C32 O26'
_cell_volume   876.91843815
_cell_formula_units_Z   2
loop_
 _symmetry_equiv_pos_site_id
 _symmetry_equiv_pos_as_xyz
  1  'x, y, z'
loop_
 _atom_site_type_symbol
 _atom_site_label
 _atom_site_symmetry_multiplicity
 _atom_site_fract_x
 _atom_site_fract_y
 _atom_site_fract_z
 _atom_site_occupancy
  Na  Na0  1  0.52486000  0.73472000  0.00916000  1.0
  Na  Na1  1  0.47516000  0.26528000  0.99084000  1.0
  B  B2  1  0.81113000  0.50555000  0.16159000  1.0
  B  B3  1  0.18888000  0.49444000  0.83840000  1.0
  B  B4  1  0.75727000  0.12412000  0.14498000  1.0
  B  B5  1  0.24273000  0.87587000  0.85502000  1.0
  H  H6  1  0.01493000  0.27619000  0.13706000  1.0
  H  H7  1  0.98507000  0.72381000  0.86294000  1.0
  H  H8  1  0.02732000  0.35693000  0.29524000  1.0
  H  H9  1  0.97268000  0.64307000  0.70476000  1.0
  H  H10  1  0.08333000  0.63581000  0.15585000  1.0
  H  H11  1  0.91667000  0.36419000  0.84414000  1.0
  H  H12  1  0.48038000  0.46501000  0.43964000  1.0
  H  H13  1  0.51962000  0.53500000  0.56036000  1.0
  H  H14  1  0.87702000  0.30451000  0.53569000  1.0
  H  H15  1  0.12297000  0.69550000  0.46431000  1.0
  H  H16  1  0.28474000  0.59781000  0.33734000  1.0
  H  H17  1  0.71526000  0.40220000  0.66266000  1.0
  H  H18  1  0.89456000  0.86646000  0.11684000  1.0
  H  H19  1  0.10544000  0.13354000  0.88316000  1.0
  H  H20  1  0.97688000  0.91800000  0.27259000  1.0
  H  H21  1  0.02311000  0.08200000  0.72741000  1.0
  H  H22  1  0.82088000  0.81243000  0.51450000  1.0
  H  H23  1  0.17911000  0.18757000  0.48551000  1.0
  H  H24  1  0.82124000  0.40639000  0.03113000  1.0
  H  H25  1  0.17876000  0.59360000  0.96887000  1.0
  H  H26  1  0.86296000  0.43017000  0.94812000  1.0
  H  H27  1  0.13704000  0.56983000  0.05188000  1.0
  H  H28  1  0.42370000  0.94881000  0.42150000  1.0
  H  H29  1  0.57630000  0.05121000  0.57851000  1.0
  H  H30  1  0.85090000  0.98701000  0.94214000  1.0
  H  H31  1  0.14912000  0.01298000  0.05786000  1.0
  H  H32  1  0.78920000  0.00356000  0.02168000  1.0
  H  H33  1  0.21081000  0.99643000  0.97831000  1.0
  H  H34  1  0.21669000  0.08020000  0.32279000  1.0
  H  H35  1  0.78331000  0.91980000  0.67722000  1.0
  C  C36  1  0.75737000  0.47850000  0.24620000  1.0
  C  C37  1  0.24263000  0.52150000  0.75380000  1.0
  C  C38  1  0.86557000  0.40896000  0.30316000  1.0
  C  C39  1  0.13444000  0.59104000  0.69684000  1.0
  C  C40  1  0.76385000  0.40572000  0.37263000  1.0
  C  C41  1  0.23614000  0.59428000  0.62737000  1.0
  C  C42  1  0.55507000  0.47091000  0.38534000  1.0
  C  C43  1  0.44493000  0.52909000  0.61466000  1.0
  C  C44  1  0.44569000  0.54366000  0.32876000  1.0
  C  C45  1  0.55431000  0.45634000  0.67124000  1.0
  C  C46  1  0.55024000  0.54654000  0.26046000  1.0
  C  C47  1  0.44976000  0.45345000  0.73954000  1.0
  C  C48  1  0.46436000  0.61762000  0.19331000  1.0
  C  C49  1  0.53564000  0.38238000  0.80669000  1.0
  C  C50  1  0.88107000  0.33185000  0.43289000  1.0
  C  C51  1  0.11894000  0.66815000  0.56711000  1.0
  C  C52  1  0.69978000  0.04009000  0.22737000  1.0
  C  C53  1  0.30021000  0.95991000  0.77263000  1.0
  C  C54  1  0.81162000  0.95542000  0.28226000  1.0
  C  C55  1  0.18838000  0.04458000  0.71774000  1.0
  C  C56  1  0.70901000  0.92431000  0.35198000  1.0
  C  C57  1  0.29098000  0.07570000  0.64802000  1.0
  C  C58  1  0.49627000  0.97194000  0.36670000  1.0
  C  C59  1  0.50373000  0.02806000  0.63330000  1.0
  C  C60  1  0.38155000  0.04581000  0.31184000  1.0
  C  C61  1  0.61844000  0.95420000  0.68816000  1.0
  C  C62  1  0.48658000  0.07844000  0.24330000  1.0
  C  C63  1  0.51342000  0.92156000  0.75671000  1.0
  C  C64  1  0.39695000  0.16373000  0.17786000  1.0
  C  C65  1  0.60305000  0.83626000  0.82214000  1.0
  C  C66  1  0.82747000  0.84596000  0.41159000  1.0
  C  C67  1  0.17254000  0.15404000  0.58841000  1.0
  O  O68  1  0.86561000  0.31529000  0.13022000  1.0
  O  O69  1  0.13438000  0.68470000  0.86978000  1.0
  O  O70  1  0.60729000  0.59314000  0.13724000  1.0
  O  O71  1  0.39271000  0.40685000  0.86277000  1.0
  O  O72  1  0.97077000  0.62976000  0.12755000  1.0
  O  O73  1  0.02923000  0.37023000  0.87245000  1.0
  O  O74  1  0.28888000  0.69125000  0.18682000  1.0
  O  O75  1  0.71113000  0.30876000  0.81318000  1.0
  O  O76  1  0.78758000  0.36239000  0.49566000  1.0
  O  O77  1  0.21241000  0.63762000  0.50434000  1.0
  O  O78  1  0.05687000  0.24719000  0.42387000  1.0
  O  O79  1  0.94312000  0.75281000  0.57614000  1.0
  O  O80  1  0.54298000  0.18653000  0.12198000  1.0
  O  O81  1  0.45702000  0.81345000  0.87802000  1.0
  O  O82  1  0.87976000  0.00761000  0.09858000  1.0
  O  O83  1  0.12025000  0.99239000  0.90142000  1.0
  O  O84  1  0.21228000  0.21101000  0.17456000  1.0
  O  O85  1  0.78771000  0.78898000  0.82545000  1.0
  O  O86  1  0.72872000  0.86364000  0.47490000  1.0
  O  O87  1  0.27127000  0.13637000  0.52511000  1.0
  O  O88  1  0.00770000  0.77098000  0.40174000  1.0
  O  O89  1  0.99228000  0.22903000  0.59826000  1.0
  O  O90  1  0.75881000  0.46012000  0.98812000  1.0
  O  O91  1  0.24120000  0.53988000  0.01188000  1.0
  O  O92  1  0.72917000  0.99478000  0.97812000  1.0
  O  O93  1  0.27085000  0.00521000  0.02187000  1.0
