# generated using pymatgen
data_CdH7C7NO6
_symmetry_space_group_name_H-M   'P 1'
_cell_length_a   7.86204000
_cell_length_b   8.11038000
_cell_length_c   15.91820000
_cell_angle_alpha   90.00000000
_cell_angle_beta   89.99990000
_cell_angle_gamma   114.90500000
_symmetry_Int_Tables_number   1
_chemical_formula_structural   CdH7C7NO6
_chemical_formula_sum   'Cd4 H28 C28 N4 O24'
_cell_volume   920.62163412
_cell_formula_units_Z   4
loop_
 _symmetry_equiv_pos_site_id
 _symmetry_equiv_pos_as_xyz
  1  'x, y, z'
loop_
 _atom_site_type_symbol
 _atom_site_label
 _atom_site_symmetry_multiplicity
 _atom_site_fract_x
 _atom_site_fract_y
 _atom_site_fract_z
 _atom_site_occupancy
  Cd  Cd0  1  0.84367000  0.07990000  0.44351000  1.0
  Cd  Cd1  1  0.15634000  0.42010000  0.94351000  1.0
  Cd  Cd2  1  0.15634000  0.92010000  0.55649000  1.0
  Cd  Cd3  1  0.84366000  0.57990000  0.05649000  1.0
  H  H4  1  0.34396000  0.84832000  0.30826000  1.0
  H  H5  1  0.65605000  0.65168000  0.80826000  1.0
  H  H6  1  0.65604000  0.15169000  0.69174000  1.0
  H  H7  1  0.34396000  0.34831000  0.19174000  1.0
  H  H8  1  0.47673000  0.61766000  0.31482000  1.0
  H  H9  1  0.52327000  0.88234000  0.81482000  1.0
  H  H10  1  0.52327000  0.38235000  0.68518000  1.0
  H  H11  1  0.47673000  0.11766000  0.18518000  1.0
  H  H12  1  0.28064000  0.31100000  0.37641000  1.0
  H  H13  1  0.71936000  0.18900000  0.87641000  1.0
  H  H14  1  0.71936000  0.68900000  0.62359000  1.0
  H  H15  1  0.28064000  0.81100000  0.12359000  1.0
  H  H16  1  0.78592000  0.93191000  0.29271000  1.0
  H  H17  1  0.21408000  0.56809000  0.79271000  1.0
  H  H18  1  0.21408000  0.06809000  0.70729000  1.0
  H  H19  1  0.78592000  0.43191000  0.20729000  1.0
  H  H20  1  0.78983000  0.12245000  0.27060000  1.0
  H  H21  1  0.21017000  0.37756000  0.77060000  1.0
  H  H22  1  0.21017000  0.87756000  0.72940000  1.0
  H  H23  1  0.78983000  0.62244000  0.22940000  1.0
  H  H24  1  0.65315000  0.70082000  0.46596000  1.0
  H  H25  1  0.34684000  0.79918000  0.96596000  1.0
  H  H26  1  0.34684000  0.29918000  0.53403000  1.0
  H  H27  1  0.65315000  0.20081000  0.03404000  1.0
  H  H28  1  0.51145000  0.77391000  0.50939000  1.0
  H  H29  1  0.48855000  0.72609000  0.00939000  1.0
  H  H30  1  0.48855000  0.22609000  0.49061000  1.0
  H  H31  1  0.51145000  0.27391000  0.99061000  1.0
  C  C32  1  0.97535000  0.48902000  0.39307000  1.0
  C  C33  1  0.02465000  0.01098000  0.89307000  1.0
  C  C34  1  0.02465000  0.51098000  0.60692000  1.0
  C  C35  1  0.97535000  0.98902000  0.10693000  1.0
  C  C36  1  0.07575000  0.66428000  0.36064000  1.0
  C  C37  1  0.92426000  0.83572000  0.86064000  1.0
  C  C38  1  0.92425000  0.33572000  0.63936000  1.0
  C  C39  1  0.07575000  0.16428000  0.13936000  1.0
  C  C40  1  0.25891000  0.71198000  0.33192000  1.0
  C  C41  1  0.74109000  0.78802000  0.83192000  1.0
  C  C42  1  0.74109000  0.28802000  0.66808000  1.0
  C  C43  1  0.25891000  0.21198000  0.16808000  1.0
  C  C44  1  0.33430000  0.58480000  0.33579000  1.0
  C  C45  1  0.66571000  0.91521000  0.83579000  1.0
  C  C46  1  0.66571000  0.41521000  0.66421000  1.0
  C  C47  1  0.33430000  0.08479000  0.16421000  1.0
  C  C48  1  0.22609000  0.41355000  0.36950000  1.0
  C  C49  1  0.77391000  0.08644000  0.86950000  1.0
  C  C50  1  0.77391000  0.58645000  0.63050000  1.0
  C  C51  1  0.22609000  0.91355000  0.13050000  1.0
  C  C52  1  0.77675000  0.42935000  0.42515000  1.0
  C  C53  1  0.22324000  0.07065000  0.92515000  1.0
  C  C54  1  0.22325000  0.57065000  0.57485000  1.0
  C  C55  1  0.77675000  0.92935000  0.07485000  1.0
  C  C56  1  0.99329000  0.80151000  0.35639000  1.0
  C  C57  1  0.00671000  0.69849000  0.85639000  1.0
  C  C58  1  0.00671000  0.19849000  0.64361000  1.0
  C  C59  1  0.99329000  0.30151000  0.14361000  1.0
  N  N60  1  0.05167000  0.36852000  0.39771000  1.0
  N  N61  1  0.94833000  0.13148000  0.89771000  1.0
  N  N62  1  0.94833000  0.63148000  0.60229000  1.0
  N  N63  1  0.05167000  0.86851000  0.10229000  1.0
  O  O64  1  0.69702000  0.27072000  0.45880000  1.0
  O  O65  1  0.30298000  0.22928000  0.95880000  1.0
  O  O66  1  0.30298000  0.72928000  0.54120000  1.0
  O  O67  1  0.69702000  0.77072000  0.04120000  1.0
  O  O68  1  0.70205000  0.53758000  0.41709000  1.0
  O  O69  1  0.29796000  0.96242000  0.91709000  1.0
  O  O70  1  0.29795000  0.46242000  0.58291000  1.0
  O  O71  1  0.70205000  0.03758000  0.08291000  1.0
  O  O72  1  0.91094000  0.81032000  0.28950000  1.0
  O  O73  1  0.08906000  0.68968000  0.78950000  1.0
  O  O74  1  0.08905000  0.18968000  0.71050000  1.0
  O  O75  1  0.91094000  0.31032000  0.21050000  1.0
  O  O76  1  0.02546000  0.91105000  0.41857000  1.0
  O  O77  1  0.97454000  0.58895000  0.91857000  1.0
  O  O78  1  0.97454000  0.08895000  0.58143000  1.0
  O  O79  1  0.02546000  0.41105000  0.08143000  1.0
  O  O80  1  0.72172000  0.01252000  0.30595000  1.0
  O  O81  1  0.27828000  0.48748000  0.80595000  1.0
  O  O82  1  0.27827000  0.98748000  0.69405000  1.0
  O  O83  1  0.72172000  0.51252000  0.19405000  1.0
  O  O84  1  0.64570000  0.80724000  0.49324000  1.0
  O  O85  1  0.35430000  0.69276000  0.99324000  1.0
  O  O86  1  0.35430000  0.19276000  0.50676000  1.0
  O  O87  1  0.64570000  0.30724000  0.00676000  1.0
