# generated using pymatgen
data_CuH8C9S2IN4
_symmetry_space_group_name_H-M   'P 1'
_cell_length_a   7.57094000
_cell_length_b   8.58140000
_cell_length_c   20.24620000
_cell_angle_alpha   90.00020000
_cell_angle_beta   90.00030000
_cell_angle_gamma   112.02600000
_symmetry_Int_Tables_number   1
_chemical_formula_structural   CuH8C9S2IN4
_chemical_formula_sum   'Cu4 H32 C36 S8 I4 N16'
_cell_volume   1219.37604061
_cell_formula_units_Z   4
loop_
 _symmetry_equiv_pos_site_id
 _symmetry_equiv_pos_as_xyz
  1  'x, y, z'
loop_
 _atom_site_type_symbol
 _atom_site_label
 _atom_site_symmetry_multiplicity
 _atom_site_fract_x
 _atom_site_fract_y
 _atom_site_fract_z
 _atom_site_occupancy
  Cu  Cu0  1  0.53916000  0.57880000  0.56803000  1.0
  Cu  Cu1  1  0.46084000  0.92121000  0.06803000  1.0
  Cu  Cu2  1  0.46083000  0.42121000  0.43197000  1.0
  Cu  Cu3  1  0.53917000  0.07879000  0.93197000  1.0
  H  H4  1  0.94402000  0.66966000  0.53076000  1.0
  H  H5  1  0.05598000  0.83033000  0.03075000  1.0
  H  H6  1  0.05597000  0.33032000  0.46924000  1.0
  H  H7  1  0.94403000  0.16968000  0.96924000  1.0
  H  H8  1  0.25090000  0.92288000  0.54366000  1.0
  H  H9  1  0.74910000  0.57712000  0.04366000  1.0
  H  H10  1  0.74911000  0.07709000  0.45634000  1.0
  H  H11  1  0.25090000  0.42290000  0.95634000  1.0
  H  H12  1  0.23090000  0.17480000  0.60361000  1.0
  H  H13  1  0.76909000  0.32521000  0.10361000  1.0
  H  H14  1  0.76911000  0.82518000  0.39639000  1.0
  H  H15  1  0.23090000  0.67481000  0.89639000  1.0
  H  H16  1  0.77351000  0.17335000  0.67864000  1.0
  H  H17  1  0.22648000  0.32665000  0.17864000  1.0
  H  H18  1  0.22651000  0.82665000  0.32137000  1.0
  H  H19  1  0.77350000  0.67335000  0.82137000  1.0
  H  H20  1  0.53214000  0.16426000  0.67873000  1.0
  H  H21  1  0.46785000  0.33573000  0.17873000  1.0
  H  H22  1  0.46787000  0.83573000  0.32127000  1.0
  H  H23  1  0.53214000  0.66427000  0.82127000  1.0
  H  H24  1  0.12359000  0.97286000  0.93128000  1.0
  H  H25  1  0.87640000  0.52715000  0.43128000  1.0
  H  H26  1  0.87641000  0.02713000  0.06872000  1.0
  H  H27  1  0.12358000  0.47286000  0.56872000  1.0
  H  H28  1  0.87765000  0.96800000  0.84733000  1.0
  H  H29  1  0.12235000  0.53203000  0.34733000  1.0
  H  H30  1  0.12236000  0.03199000  0.15266000  1.0
  H  H31  1  0.87764000  0.46798000  0.65267000  1.0
  H  H32  1  0.98450000  0.01089000  0.72687000  1.0
  H  H33  1  0.01551000  0.48917000  0.22687000  1.0
  H  H34  1  0.01552000  0.98909000  0.27313000  1.0
  H  H35  1  0.98448000  0.51084000  0.77313000  1.0
  C  C36  1  0.94814000  0.78457000  0.55508000  1.0
  C  C37  1  0.05186000  0.71542000  0.05508000  1.0
  C  C38  1  0.05185000  0.21542000  0.44492000  1.0
  C  C39  1  0.94815000  0.28458000  0.94492000  1.0
  C  C40  1  0.11642000  0.92340000  0.56242000  1.0
  C  C41  1  0.88358000  0.57661000  0.06241000  1.0
  C  C42  1  0.88358000  0.07659000  0.43758000  1.0
  C  C43  1  0.11642000  0.42340000  0.93758000  1.0
  C  C44  1  0.10435000  0.06148000  0.59540000  1.0
  C  C45  1  0.89565000  0.43853000  0.09540000  1.0
  C  C46  1  0.89566000  0.93851000  0.40460000  1.0
  C  C47  1  0.10434000  0.56149000  0.90460000  1.0
  C  C48  1  0.78277000  0.92365000  0.60902000  1.0
  C  C49  1  0.21723000  0.57636000  0.10902000  1.0
  C  C50  1  0.21724000  0.07635000  0.39098000  1.0
  C  C51  1  0.78277000  0.42365000  0.89098000  1.0
  C  C52  1  0.62460000  0.09556000  0.68996000  1.0
  C  C53  1  0.37540000  0.40443000  0.18996000  1.0
  C  C54  1  0.37542000  0.90444000  0.31004000  1.0
  C  C55  1  0.62458000  0.59556000  0.81004000  1.0
  C  C56  1  0.37746000  0.02420000  0.79615000  1.0
  C  C57  1  0.62254000  0.47582000  0.29615000  1.0
  C  C58  1  0.62255000  0.97578000  0.20385000  1.0
  C  C59  1  0.37745000  0.52419000  0.70385000  1.0
  C  C60  1  0.15611000  0.98580000  0.87863000  1.0
  C  C61  1  0.84389000  0.51422000  0.37864000  1.0
  C  C62  1  0.84390000  0.01418000  0.12136000  1.0
  C  C63  1  0.15610000  0.48579000  0.62137000  1.0
  C  C64  1  0.02138000  0.98460000  0.83208000  1.0
  C  C65  1  0.97862000  0.51544000  0.33208000  1.0
  C  C66  1  0.97863000  0.01538000  0.16792000  1.0
  C  C67  1  0.02137000  0.48458000  0.66793000  1.0
  C  C68  1  0.07994000  0.00610000  0.76648000  1.0
  C  C69  1  0.92007000  0.49395000  0.26648000  1.0
  C  C70  1  0.92008000  0.99388000  0.23351000  1.0
  C  C71  1  0.07992000  0.50606000  0.73352000  1.0
  S  S72  1  0.55859000  0.91348000  0.63639000  1.0
  S  S73  1  0.44140000  0.58651000  0.13639000  1.0
  S  S74  1  0.44142000  0.08653000  0.36361000  1.0
  S  S75  1  0.55859000  0.41348000  0.86361000  1.0
  S  S76  1  0.61389000  0.05316000  0.77774000  1.0
  S  S77  1  0.38610000  0.44684000  0.27774000  1.0
  S  S78  1  0.38613000  0.94682000  0.22226000  1.0
  S  S79  1  0.61388000  0.55316000  0.72227000  1.0
  I  I80  1  0.63046000  0.32330000  0.53384000  1.0
  I  I81  1  0.36954000  0.17671000  0.03384000  1.0
  I  I82  1  0.36953000  0.67670000  0.46616000  1.0
  I  I83  1  0.63047000  0.82330000  0.96616000  1.0
  N  N84  1  0.77995000  0.78152000  0.57837000  1.0
  N  N85  1  0.22005000  0.71847000  0.07836000  1.0
  N  N86  1  0.22005000  0.21848000  0.42163000  1.0
  N  N87  1  0.77995000  0.28153000  0.92163000  1.0
  N  N88  1  0.33673000  0.01011000  0.86200000  1.0
  N  N89  1  0.66327000  0.48990000  0.36200000  1.0
  N  N90  1  0.66328000  0.98987000  0.13800000  1.0
  N  N91  1  0.33672000  0.51011000  0.63800000  1.0
  N  N92  1  0.93826000  0.06217000  0.61826000  1.0
  N  N93  1  0.06173000  0.43784000  0.11826000  1.0
  N  N94  1  0.06174000  0.93783000  0.38174000  1.0
  N  N95  1  0.93826000  0.56217000  0.88174000  1.0
  N  N96  1  0.25654000  0.02260000  0.74808000  1.0
  N  N97  1  0.74346000  0.47745000  0.24808000  1.0
  N  N98  1  0.74347000  0.97737000  0.25192000  1.0
  N  N99  1  0.25653000  0.52257000  0.75192000  1.0
