# generated using pymatgen
data_CuH5C5IBrN2
_symmetry_space_group_name_H-M   'P 1'
_cell_length_a   4.11478000
_cell_length_b   8.65373000
_cell_length_c   21.76120000
_cell_angle_alpha   82.13460000
_cell_angle_beta   90.00170000
_cell_angle_gamma   90.00010000
_symmetry_Int_Tables_number   1
_chemical_formula_structural   CuH5C5IBrN2
_chemical_formula_sum   'Cu4 H20 C20 I4 Br4 N8'
_cell_volume   767.58723160
_cell_formula_units_Z   4
loop_
 _symmetry_equiv_pos_site_id
 _symmetry_equiv_pos_as_xyz
  1  'x, y, z'
loop_
 _atom_site_type_symbol
 _atom_site_label
 _atom_site_symmetry_multiplicity
 _atom_site_fract_x
 _atom_site_fract_y
 _atom_site_fract_z
 _atom_site_occupancy
  Cu  Cu0  1  0.83887000  0.96189000  0.70762000  1.0
  Cu  Cu1  1  0.33877000  0.03811000  0.79238000  1.0
  Cu  Cu2  1  0.16116000  0.03810000  0.29238000  1.0
  Cu  Cu3  1  0.66122000  0.96189000  0.20762000  1.0
  H  H4  1  0.47808000  0.70923000  0.73301000  1.0
  H  H5  1  0.97807000  0.29077000  0.76699000  1.0
  H  H6  1  0.52192000  0.29077000  0.26699000  1.0
  H  H7  1  0.02194000  0.70923000  0.23301000  1.0
  H  H8  1  0.42073000  0.52074000  0.71817000  1.0
  H  H9  1  0.92072000  0.47926000  0.78182000  1.0
  H  H10  1  0.57927000  0.47926000  0.28183000  1.0
  H  H11  1  0.07928000  0.52074000  0.21817000  1.0
  H  H12  1  0.11839000  0.47408000  0.54968000  1.0
  H  H13  1  0.61841000  0.52593000  0.95032000  1.0
  H  H14  1  0.88160000  0.52591000  0.45032000  1.0
  H  H15  1  0.38159000  0.47408000  0.04968000  1.0
  H  H16  1  0.77140000  0.41059000  0.64313000  1.0
  H  H17  1  0.27139000  0.58942000  0.85687000  1.0
  H  H18  1  0.22860000  0.58941000  0.35688000  1.0
  H  H19  1  0.72860000  0.41059000  0.14313000  1.0
  H  H20  1  0.12770000  0.95303000  0.58535000  1.0
  H  H21  1  0.62771000  0.04698000  0.91465000  1.0
  H  H22  1  0.87228000  0.04697000  0.41465000  1.0
  H  H23  1  0.37230000  0.95303000  0.08535000  1.0
  C  C24  1  0.04430000  0.56551000  0.57652000  1.0
  C  C25  1  0.54430000  0.43449000  0.92348000  1.0
  C  C26  1  0.95570000  0.43450000  0.42348000  1.0
  C  C27  1  0.45569000  0.56550000  0.07652000  1.0
  C  C28  1  0.13539000  0.72121000  0.55909000  1.0
  C  C29  1  0.63541000  0.27880000  0.94091000  1.0
  C  C30  1  0.86460000  0.27878000  0.44091000  1.0
  C  C31  1  0.36460000  0.72121000  0.05909000  1.0
  C  C32  1  0.85442000  0.52978000  0.62887000  1.0
  C  C33  1  0.35443000  0.47023000  0.87113000  1.0
  C  C34  1  0.14558000  0.47022000  0.37113000  1.0
  C  C35  1  0.64558000  0.52977000  0.12887000  1.0
  C  C36  1  0.05224000  0.83177000  0.59666000  1.0
  C  C37  1  0.55224000  0.16823000  0.90334000  1.0
  C  C38  1  0.94777000  0.16823000  0.40334000  1.0
  C  C39  1  0.44778000  0.83176000  0.09666000  1.0
  C  C40  1  0.76332000  0.64857000  0.66382000  1.0
  C  C41  1  0.26331000  0.35143000  0.83617000  1.0
  C  C42  1  0.23668000  0.35143000  0.33618000  1.0
  C  C43  1  0.73669000  0.64857000  0.16382000  1.0
  I  I44  1  0.34865000  0.15055000  0.67451000  1.0
  I  I45  1  0.84858000  0.84945000  0.82549000  1.0
  I  I46  1  0.65137000  0.84945000  0.32549000  1.0
  I  I47  1  0.15141000  0.15055000  0.17450000  1.0
  Br  Br48  1  0.35467000  0.78251000  0.48249000  1.0
  Br  Br49  1  0.85472000  0.21750000  0.01751000  1.0
  Br  Br50  1  0.64532000  0.21749000  0.51751000  1.0
  Br  Br51  1  0.14528000  0.78251000  0.98249000  1.0
  N  N52  1  0.57064000  0.61555000  0.71522000  1.0
  N  N53  1  0.07064000  0.38445000  0.78478000  1.0
  N  N54  1  0.42936000  0.38445000  0.28478000  1.0
  N  N55  1  0.92937000  0.61555000  0.21522000  1.0
  N  N56  1  0.87611000  0.79668000  0.64931000  1.0
  N  N57  1  0.37611000  0.20332000  0.85069000  1.0
  N  N58  1  0.12388000  0.20332000  0.35069000  1.0
  N  N59  1  0.62389000  0.79668000  0.14931000  1.0
