# generated using pymatgen
data_AlH12C25O5F
_symmetry_space_group_name_H-M   'P 1'
_cell_length_a   6.69253000
_cell_length_b   19.21090000
_cell_length_c   21.64750000
_cell_angle_alpha   93.08950000
_cell_angle_beta   89.99940000
_cell_angle_gamma   90.00000000
_symmetry_Int_Tables_number   1
_chemical_formula_structural   AlH12C25O5F
_chemical_formula_sum   'Al4 H48 C100 O20 F4'
_cell_volume   2779.16356734
_cell_formula_units_Z   4
loop_
 _symmetry_equiv_pos_site_id
 _symmetry_equiv_pos_as_xyz
  1  'x, y, z'
loop_
 _atom_site_type_symbol
 _atom_site_label
 _atom_site_symmetry_multiplicity
 _atom_site_fract_x
 _atom_site_fract_y
 _atom_site_fract_z
 _atom_site_occupancy
  Al  Al0  1  0.21195000  0.75003000  0.74922000  1.0
  Al  Al1  1  0.78804000  0.24997000  0.25077000  1.0
  Al  Al2  1  0.71195000  0.74998000  0.75079000  1.0
  Al  Al3  1  0.28805000  0.25004000  0.24923000  1.0
  H  H4  1  0.36203000  0.56153000  0.11419000  1.0
  H  H5  1  0.63798000  0.43847000  0.88580000  1.0
  H  H6  1  0.86204000  0.93846000  0.38580000  1.0
  H  H7  1  0.13800000  0.06154000  0.61420000  1.0
  H  H8  1  0.55727000  0.42985000  0.12563000  1.0
  H  H9  1  0.77935000  0.44636000  0.21633000  1.0
  H  H10  1  0.63988000  0.48125000  0.32029000  1.0
  H  H11  1  0.27330000  0.50286000  0.33144000  1.0
  H  H12  1  0.05168000  0.48793000  0.24017000  1.0
  H  H13  1  0.94833000  0.51207000  0.75983000  1.0
  H  H14  1  0.72671000  0.49713000  0.66856000  1.0
  H  H15  1  0.36013000  0.51874000  0.67972000  1.0
  H  H16  1  0.22066000  0.55363000  0.78367000  1.0
  H  H17  1  0.44275000  0.57016000  0.87437000  1.0
  H  H18  1  0.05729000  0.07015000  0.37436000  1.0
  H  H19  1  0.27934000  0.05363000  0.28366000  1.0
  H  H20  1  0.13985000  0.01873000  0.17970000  1.0
  H  H21  1  0.77327000  0.99713000  0.16856000  1.0
  H  H22  1  0.55167000  0.01206000  0.25984000  1.0
  H  H23  1  0.44834000  0.98793000  0.74017000  1.0
  H  H24  1  0.22670000  0.00287000  0.83144000  1.0
  H  H25  1  0.86012000  0.98126000  0.82028000  1.0
  H  H26  1  0.72068000  0.94637000  0.71632000  1.0
  H  H27  1  0.94278000  0.92985000  0.62563000  1.0
  H  H28  1  0.15538000  0.72731000  0.07646000  1.0
  H  H29  1  0.36964000  0.83305000  0.08348000  1.0
  H  H30  1  0.72179000  0.82685000  0.04560000  1.0
  H  H31  1  0.85934000  0.71380000  0.00339000  1.0
  H  H32  1  0.64464000  0.60805000  0.99651000  1.0
  H  H33  1  0.35541000  0.39196000  0.00350000  1.0
  H  H34  1  0.14068000  0.28621000  0.99662000  1.0
  H  H35  1  0.27822000  0.17316000  0.95440000  1.0
  H  H36  1  0.63037000  0.16695000  0.91651000  1.0
  H  H37  1  0.84464000  0.27269000  0.92354000  1.0
  H  H38  1  0.65541000  0.77268000  0.42354000  1.0
  H  H39  1  0.86968000  0.66694000  0.41653000  1.0
  H  H40  1  0.22182000  0.67315000  0.45442000  1.0
  H  H41  1  0.35934000  0.78620000  0.49663000  1.0
  H  H42  1  0.14464000  0.89196000  0.50350000  1.0
  H  H43  1  0.85542000  0.10803000  0.49651000  1.0
  H  H44  1  0.64069000  0.21378000  0.50339000  1.0
  H  H45  1  0.77822000  0.32683000  0.54559000  1.0
  H  H46  1  0.13037000  0.33306000  0.58347000  1.0
  H  H47  1  0.34466000  0.22732000  0.57645000  1.0
  H  H48  1  0.46075000  0.65937000  0.75771000  1.0
  H  H49  1  0.53927000  0.34063000  0.24230000  1.0
  H  H50  1  0.96074000  0.84063000  0.74229000  1.0
  H  H51  1  0.03927000  0.15937000  0.25771000  1.0
  C  C52  1  0.46111000  0.83484000  0.83700000  1.0
  C  C53  1  0.53884000  0.16517000  0.16300000  1.0
  C  C54  1  0.96115000  0.66516000  0.66301000  1.0
  C  C55  1  0.03881000  0.33485000  0.33700000  1.0
  C  C56  1  0.46211000  0.83255000  0.67054000  1.0
  C  C57  1  0.53793000  0.16745000  0.32946000  1.0
  C  C58  1  0.96209000  0.66746000  0.82947000  1.0
  C  C59  1  0.03791000  0.33254000  0.17053000  1.0
  C  C60  1  0.89957000  0.37132000  0.07124000  1.0
  C  C61  1  0.10045000  0.62867000  0.92876000  1.0
  C  C62  1  0.39957000  0.12867000  0.42876000  1.0
  C  C63  1  0.60046000  0.87133000  0.57124000  1.0
  C  C64  1  0.03082000  0.38380000  0.12081000  1.0
  C  C65  1  0.96920000  0.61619000  0.87919000  1.0
  C  C66  1  0.53080000  0.11619000  0.37919000  1.0
  C  C67  1  0.46922000  0.88380000  0.62081000  1.0
  C  C68  1  0.15287000  0.44342000  0.12295000  1.0
  C  C69  1  0.84714000  0.55658000  0.87705000  1.0
  C  C70  1  0.65287000  0.05659000  0.37704000  1.0
  C  C71  1  0.34717000  0.94342000  0.62295000  1.0
  C  C72  1  0.14045000  0.48990000  0.07456000  1.0
  C  C73  1  0.85957000  0.51010000  0.92543000  1.0
  C  C74  1  0.64047000  0.01010000  0.42543000  1.0
  C  C75  1  0.35958000  0.98990000  0.57456000  1.0
  C  C76  1  0.00509000  0.47616000  0.02410000  1.0
  C  C77  1  0.99494000  0.52383000  0.97589000  1.0
  C  C78  1  0.50510000  0.02383000  0.47589000  1.0
  C  C79  1  0.49494000  0.97617000  0.52410000  1.0
  C  C80  1  0.88068000  0.41518000  0.02172000  1.0
  C  C81  1  0.11935000  0.58481000  0.97828000  1.0
  C  C82  1  0.38069000  0.08482000  0.47828000  1.0
  C  C83  1  0.61935000  0.91519000  0.52172000  1.0
  C  C84  1  0.26087000  0.55141000  0.07530000  1.0
  C  C85  1  0.73915000  0.44859000  0.92470000  1.0
  C  C86  1  0.76087000  0.94858000  0.42470000  1.0
  C  C87  1  0.23916000  0.05142000  0.57530000  1.0
  C  C88  1  0.25404000  0.59809000  0.02971000  1.0
  C  C89  1  0.74598000  0.40191000  0.97028000  1.0
  C  C90  1  0.75405000  0.90190000  0.47029000  1.0
  C  C91  1  0.24600000  0.09810000  0.52972000  1.0
  C  C92  1  0.03682000  0.38468000  0.38932000  1.0
  C  C93  1  0.96306000  0.61532000  0.61069000  1.0
  C  C94  1  0.53684000  0.11533000  0.11067000  1.0
  C  C95  1  0.46298000  0.88467000  0.88933000  1.0
  C  C96  1  0.02364000  0.42873000  0.43229000  1.0
  C  C97  1  0.97617000  0.57127000  0.56773000  1.0
  C  C98  1  0.52361000  0.07128000  0.06772000  1.0
  C  C99  1  0.47606000  0.92872000  0.93229000  1.0
  C  C100  1  0.00797000  0.47738000  0.47881000  1.0
  C  C101  1  0.99181000  0.52262000  0.52120000  1.0
  C  C102  1  0.50792000  0.02263000  0.02120000  1.0
  C  C103  1  0.49171000  0.97737000  0.97881000  1.0
  C  C104  1  0.28886000  0.45759000  0.17665000  1.0
  C  C105  1  0.49535000  0.44736000  0.17040000  1.0
  C  C106  1  0.62038000  0.45662000  0.22181000  1.0
  C  C107  1  0.54197000  0.47620000  0.28004000  1.0
  C  C108  1  0.33696000  0.48787000  0.28632000  1.0
  C  C109  1  0.21173000  0.47879000  0.23495000  1.0
  C  C110  1  0.71114000  0.54241000  0.82335000  1.0
  C  C111  1  0.78829000  0.52122000  0.76505000  1.0
  C  C112  1  0.66305000  0.51212000  0.71368000  1.0
  C  C113  1  0.45803000  0.52379000  0.71996000  1.0
  C  C114  1  0.37963000  0.54338000  0.77819000  1.0
  C  C115  1  0.50465000  0.55263000  0.82959000  1.0
  C  C116  1  0.78887000  0.04240000  0.32335000  1.0
  C  C117  1  0.99536000  0.05264000  0.32959000  1.0
  C  C118  1  0.12038000  0.04338000  0.27818000  1.0
  C  C119  1  0.04196000  0.02379000  0.21995000  1.0
  C  C120  1  0.83694000  0.01212000  0.21368000  1.0
  C  C121  1  0.71173000  0.02121000  0.26505000  1.0
  C  C122  1  0.21116000  0.95760000  0.67665000  1.0
  C  C123  1  0.28830000  0.97879000  0.73495000  1.0
  C  C124  1  0.16305000  0.98788000  0.78632000  1.0
  C  C125  1  0.95803000  0.97621000  0.78004000  1.0
  C  C126  1  0.87964000  0.95662000  0.72181000  1.0
  C  C127  1  0.00467000  0.94737000  0.67041000  1.0
  C  C128  1  0.38516000  0.66099000  0.03533000  1.0
  C  C129  1  0.31005000  0.72448000  0.06052000  1.0
  C  C130  1  0.43070000  0.78379000  0.06442000  1.0
  C  C131  1  0.62821000  0.78026000  0.04345000  1.0
  C  C132  1  0.70519000  0.71683000  0.01960000  1.0
  C  C133  1  0.58457000  0.65738000  0.01567000  1.0
  C  C134  1  0.61486000  0.33901000  0.96467000  1.0
  C  C135  1  0.41546000  0.34262000  0.98433000  1.0
  C  C136  1  0.29483000  0.28317000  0.98041000  1.0
  C  C137  1  0.37180000  0.21974000  0.95654000  1.0
  C  C138  1  0.56931000  0.21621000  0.93558000  1.0
  C  C139  1  0.68997000  0.27551000  0.93947000  1.0
  C  C140  1  0.88518000  0.83901000  0.46467000  1.0
  C  C141  1  0.81008000  0.77551000  0.43948000  1.0
  C  C142  1  0.93074000  0.71621000  0.43559000  1.0
  C  C143  1  0.12825000  0.71973000  0.45656000  1.0
  C  C144  1  0.20521000  0.78316000  0.48041000  1.0
  C  C145  1  0.08460000  0.84262000  0.48434000  1.0
  C  C146  1  0.11487000  0.16099000  0.53532000  1.0
  C  C147  1  0.91546000  0.15737000  0.51567000  1.0
  C  C148  1  0.79484000  0.21682000  0.51959000  1.0
  C  C149  1  0.87179000  0.28025000  0.54345000  1.0
  C  C150  1  0.06932000  0.28379000  0.56441000  1.0
  C  C151  1  0.18998000  0.22449000  0.56051000  1.0
  O  O152  1  0.62965000  0.81475000  0.69218000  1.0
  O  O153  1  0.37035000  0.18527000  0.30782000  1.0
  O  O154  1  0.12964000  0.68525000  0.80782000  1.0
  O  O155  1  0.87035000  0.31474000  0.19217000  1.0
  O  O156  1  0.29116000  0.81627000  0.81581000  1.0
  O  O157  1  0.70879000  0.18373000  0.18418000  1.0
  O  O158  1  0.79120000  0.68372000  0.68420000  1.0
  O  O159  1  0.20877000  0.31629000  0.31581000  1.0
  O  O160  1  0.29145000  0.81210000  0.68744000  1.0
  O  O161  1  0.70854000  0.18790000  0.31255000  1.0
  O  O162  1  0.79145000  0.68792000  0.81257000  1.0
  O  O163  1  0.20855000  0.31210000  0.18744000  1.0
  O  O164  1  0.13283000  0.68378000  0.68293000  1.0
  O  O165  1  0.86716000  0.31623000  0.31706000  1.0
  O  O166  1  0.63278000  0.81624000  0.81708000  1.0
  O  O167  1  0.36717000  0.18378000  0.18294000  1.0
  O  O168  1  0.46217000  0.70861000  0.74923000  1.0
  O  O169  1  0.53783000  0.29140000  0.25077000  1.0
  O  O170  1  0.96216000  0.79140000  0.75077000  1.0
  O  O171  1  0.03784000  0.20861000  0.24923000  1.0
  F  F172  1  0.79066000  0.31174000  0.07055000  1.0
  F  F173  1  0.20936000  0.68825000  0.92945000  1.0
  F  F174  1  0.29067000  0.18826000  0.42945000  1.0
  F  F175  1  0.70935000  0.81175000  0.57055000  1.0
