# generated using pymatgen
data_NdH9C10O9
_symmetry_space_group_name_H-M   'P 1'
_cell_length_a   6.86455000
_cell_length_b   9.96294000
_cell_length_c   10.93260877
_cell_angle_alpha   117.11020892
_cell_angle_beta   101.93531516
_cell_angle_gamma   89.98510000
_symmetry_Int_Tables_number   1
_chemical_formula_structural   NdH9C10O9
_chemical_formula_sum   'Nd2 H18 C20 O18'
_cell_volume   647.35460398
_cell_formula_units_Z   2
loop_
 _symmetry_equiv_pos_site_id
 _symmetry_equiv_pos_as_xyz
  1  'x, y, z'
loop_
 _atom_site_type_symbol
 _atom_site_label
 _atom_site_symmetry_multiplicity
 _atom_site_fract_x
 _atom_site_fract_y
 _atom_site_fract_z
 _atom_site_occupancy
  Nd  Nd0  1  0.55337000  0.09666000  0.71119000  1.0
  Nd  Nd1  1  0.05320000  0.61451000  0.71120000  1.0
  H  H2  1  0.53904000  0.34074000  0.32097000  1.0
  H  H3  1  0.03877000  0.98006000  0.32074000  1.0
  H  H4  1  0.35459000  0.15067000  0.07778000  1.0
  H  H5  1  0.85449000  0.92722000  0.07760000  1.0
  H  H6  1  0.47937000  0.79324000  0.18938000  1.0
  H  H7  1  0.97989000  0.39626000  0.18951000  1.0
  H  H8  1  0.83818000  0.81795000  0.35073000  1.0
  H  H9  1  0.33811000  0.53268000  0.35082000  1.0
  H  H10  1  0.61199000  0.74323000  0.36672000  1.0
  H  H11  1  0.11197000  0.62347000  0.36705000  1.0
  H  H12  1  0.11931000  0.06055000  0.74773000  1.0
  H  H13  1  0.61909000  0.68750000  0.74784000  1.0
  H  H14  1  0.24907000  0.00102000  0.84135000  1.0
  H  H15  1  0.74920000  0.84051000  0.84128000  1.0
  H  H16  1  0.37037000  0.38364000  0.78864000  1.0
  H  H17  1  0.87038000  0.40508000  0.78871000  1.0
  H  H18  1  0.57505000  0.44298000  0.90535000  1.0
  H  H19  1  0.07485000  0.46280000  0.90563000  1.0
  C  C20  1  0.58245000  0.02145000  0.35744000  1.0
  C  C21  1  0.08252000  0.33590000  0.35746000  1.0
  C  C22  1  0.59803000  0.17772000  0.39611000  1.0
  C  C23  1  0.09794000  0.21822000  0.39606000  1.0
  C  C24  1  0.51969000  0.22051000  0.29167000  1.0
  C  C25  1  0.01952000  0.07107000  0.29156000  1.0
  C  C26  1  0.42049000  0.11471000  0.15600000  1.0
  C  C27  1  0.92033000  0.04137000  0.15591000  1.0
  C  C28  1  0.40608000  0.96047000  0.12027000  1.0
  C  C29  1  0.90625000  0.15993000  0.12024000  1.0
  C  C30  1  0.49123000  0.91393000  0.22037000  1.0
  C  C31  1  0.99151000  0.30650000  0.22041000  1.0
  C  C32  1  0.73495000  0.83560000  0.42037000  1.0
  C  C33  1  0.23502000  0.58466000  0.42056000  1.0
  C  C34  1  0.84509000  0.83725000  0.55759000  1.0
  C  C35  1  0.34526000  0.72014000  0.55780000  1.0
  C  C36  1  0.69993000  0.29729000  0.54116000  1.0
  C  C37  1  0.19975000  0.24373000  0.54114000  1.0
  C  C38  1  0.29342000  0.84260000  0.97822000  1.0
  C  C39  1  0.79365000  0.13585000  0.97817000  1.0
  O  O40  1  0.66251000  0.98089000  0.46006000  1.0
  O  O41  1  0.16270000  0.47899000  0.46018000  1.0
  O  O42  1  0.85702000  0.95882000  0.67182000  1.0
  O  O43  1  0.35704000  0.71276000  0.67200000  1.0
  O  O44  1  0.91603000  0.71634000  0.54627000  1.0
  O  O45  1  0.41634000  0.82970000  0.54654000  1.0
  O  O46  1  0.71106000  0.27152000  0.64726000  1.0
  O  O47  1  0.21076000  0.37560000  0.64723000  1.0
  O  O48  1  0.77225000  0.42128000  0.55357000  1.0
  O  O49  1  0.27222000  0.13217000  0.55358000  1.0
  O  O50  1  0.17078000  0.88449000  0.89935000  1.0
  O  O51  1  0.67081000  0.01521000  0.89936000  1.0
  O  O52  1  0.31329000  0.70273000  0.93918000  1.0
  O  O53  1  0.81381000  0.23657000  0.93908000  1.0
  O  O54  1  0.25916000  0.06806000  0.79691000  1.0
  O  O55  1  0.75903000  0.72901000  0.79691000  1.0
  O  O56  1  0.46497000  0.36201000  0.85929000  1.0
  O  O57  1  0.96472000  0.49750000  0.85936000  1.0
