# generated using pymatgen
data_FeH14Pt(C2N)10
_symmetry_space_group_name_H-M   'P 1'
_cell_length_a   8.65936000
_cell_length_b   8.73280000
_cell_length_c   14.74070000
_cell_angle_alpha   81.21140000
_cell_angle_beta   81.50820000
_cell_angle_gamma   72.85980000
_symmetry_Int_Tables_number   1
_chemical_formula_structural   FeH14Pt(C2N)10
_chemical_formula_sum   'Fe2 H28 Pt2 C40 N20'
_cell_volume   1046.44825531
_cell_formula_units_Z   2
loop_
 _symmetry_equiv_pos_site_id
 _symmetry_equiv_pos_as_xyz
  1  'x, y, z'
loop_
 _atom_site_type_symbol
 _atom_site_label
 _atom_site_symmetry_multiplicity
 _atom_site_fract_x
 _atom_site_fract_y
 _atom_site_fract_z
 _atom_site_occupancy
  Fe  Fe0  1  0.82678000  0.16917000  0.74835000  1.0
  Fe  Fe1  1  0.16399000  0.81896000  0.24668000  1.0
  H  H2  1  0.87221000  0.81865000  0.88204000  1.0
  H  H3  1  0.18196000  0.12747000  0.61698000  1.0
  H  H4  1  0.12998000  0.17973000  0.11640000  1.0
  H  H5  1  0.81166000  0.87471000  0.38369000  1.0
  H  H6  1  0.91381000  0.52043000  0.69503000  1.0
  H  H7  1  0.47972000  0.08671000  0.80348000  1.0
  H  H8  1  0.09725000  0.48927000  0.30401000  1.0
  H  H9  1  0.52624000  0.91783000  0.19684000  1.0
  H  H10  1  0.10882000  0.65178000  0.73988000  1.0
  H  H11  1  0.34654000  0.89197000  0.76161000  1.0
  H  H12  1  0.90483000  0.35185000  0.26430000  1.0
  H  H13  1  0.65291000  0.11603000  0.24124000  1.0
  H  H14  1  0.30537000  0.49311000  0.85343000  1.0
  H  H15  1  0.50347000  0.69560000  0.64909000  1.0
  H  H16  1  0.70128000  0.50227000  0.15249000  1.0
  H  H17  1  0.48981000  0.30733000  0.35488000  1.0
  H  H18  1  0.29598000  0.21493000  0.91800000  1.0
  H  H19  1  0.78285000  0.70521000  0.58281000  1.0
  H  H20  1  0.70363000  0.78179000  0.08473000  1.0
  H  H21  1  0.21163000  0.29160000  0.41878000  1.0
  H  H22  1  0.28302000  0.91770000  0.96034000  1.0
  H  H23  1  0.08527000  0.71716000  0.54026000  1.0
  H  H24  1  0.71261000  0.09059000  0.03890000  1.0
  H  H25  1  0.92034000  0.27925000  0.45934000  1.0
  H  H26  1  0.11637000  0.69092000  0.97285000  1.0
  H  H27  1  0.31220000  0.88457000  0.52735000  1.0
  H  H28  1  0.88419000  0.31315000  0.02705000  1.0
  H  H29  1  0.68767000  0.11835000  0.47384000  1.0
  Pt  Pt30  1  0.49632000  0.50035000  0.49880000  1.0
  Pt  Pt31  1  0.50185000  0.49632000  0.99870000  1.0
  C  C32  1  0.64212000  0.39399000  0.59549000  1.0
  C  C33  1  0.60745000  0.35413000  0.90140000  1.0
  C  C34  1  0.35013000  0.60258000  0.40172000  1.0
  C  C35  1  0.39225000  0.63786000  0.09561000  1.0
  C  C36  1  0.35597000  0.36235000  0.55796000  1.0
  C  C37  1  0.63875000  0.63918000  0.94147000  1.0
  C  C38  1  0.63689000  0.63880000  0.44041000  1.0
  C  C39  1  0.36568000  0.35347000  0.05669000  1.0
  C  C40  1  0.00255000  0.45719000  0.74286000  1.0
  C  C41  1  0.54272000  0.99790000  0.75644000  1.0
  C  C42  1  0.00614000  0.55020000  0.25726000  1.0
  C  C43  1  0.46065000  0.00489000  0.24445000  1.0
  C  C44  1  0.11040000  0.52920000  0.76883000  1.0
  C  C45  1  0.46960000  0.89017000  0.73197000  1.0
  C  C46  1  0.89919000  0.47466000  0.23392000  1.0
  C  C47  1  0.53037000  0.11434000  0.27019000  1.0
  C  C48  1  0.21896000  0.44102000  0.83139000  1.0
  C  C49  1  0.55674000  0.78167000  0.67002000  1.0
  C  C50  1  0.78675000  0.55791000  0.17240000  1.0
  C  C51  1  0.43963000  0.22005000  0.33273000  1.0
  C  C52  1  0.21624000  0.28441000  0.86660000  1.0
  C  C53  1  0.71390000  0.78441000  0.63396000  1.0
  C  C54  1  0.78543000  0.71478000  0.13567000  1.0
  C  C55  1  0.28289000  0.21361000  0.36758000  1.0
  C  C56  1  0.10569000  0.21891000  0.83714000  1.0
  C  C57  1  0.78108000  0.89411000  0.66222000  1.0
  C  C58  1  0.89439000  0.78503000  0.16228000  1.0
  C  C59  1  0.21977000  0.10210000  0.33768000  1.0
  C  C60  1  0.08812000  0.05869000  0.87025000  1.0
  C  C61  1  0.94220000  0.91091000  0.62881000  1.0
  C  C62  1  0.90837000  0.94522000  0.12741000  1.0
  C  C63  1  0.05804000  0.08426000  0.37028000  1.0
  C  C64  1  0.17602000  0.92715000  0.92765000  1.0
  C  C65  1  0.07510000  0.82372000  0.57239000  1.0
  C  C66  1  0.82079000  0.07847000  0.07112000  1.0
  C  C67  1  0.92727000  0.17340000  0.42735000  1.0
  C  C68  1  0.09443000  0.81023000  0.93465000  1.0
  C  C69  1  0.19202000  0.90589000  0.56518000  1.0
  C  C70  1  0.90500000  0.19330000  0.06455000  1.0
  C  C71  1  0.80745000  0.09459000  0.43551000  1.0
  N  N72  1  0.71991000  0.31830000  0.65434000  1.0
  N  N73  1  0.67860000  0.27615000  0.84230000  1.0
  N  N74  1  0.27033000  0.67085000  0.34221000  1.0
  N  N75  1  0.31444000  0.71389000  0.15411000  1.0
  N  N76  1  0.27735000  0.27652000  0.59327000  1.0
  N  N77  1  0.72358000  0.71984000  0.90768000  1.0
  N  N78  1  0.71599000  0.72485000  0.40622000  1.0
  N  N79  1  0.28104000  0.27332000  0.09159000  1.0
  N  N80  1  0.00150000  0.30629000  0.77562000  1.0
  N  N81  1  0.69461000  0.99901000  0.72306000  1.0
  N  N82  1  0.00446000  0.70253000  0.22324000  1.0
  N  N83  1  0.30987000  0.99991000  0.27693000  1.0
  N  N84  1  0.96131000  0.02079000  0.84382000  1.0
  N  N85  1  0.97919000  0.03773000  0.65448000  1.0
  N  N86  1  0.03713000  0.97981000  0.15331000  1.0
  N  N87  1  0.01669000  0.95964000  0.34516000  1.0
  N  N88  1  0.96746000  0.87027000  0.88331000  1.0
  N  N89  1  0.13065000  0.03239000  0.61554000  1.0
  N  N90  1  0.03299000  0.13034000  0.11508000  1.0
  N  N91  1  0.86521000  0.96810000  0.38507000  1.0
