# generated using pymatgen
data_CuH5C4N2OF2
_symmetry_space_group_name_H-M   'P 1'
_cell_length_a   7.60205000
_cell_length_b   8.04094000
_cell_length_c   9.91636000
_cell_angle_alpha   110.61800000
_cell_angle_beta   89.99950000
_cell_angle_gamma   89.99980000
_symmetry_Int_Tables_number   1
_chemical_formula_structural   CuH5C4N2OF2
_chemical_formula_sum   'Cu4 H20 C16 N8 O4 F8'
_cell_volume   567.33815483
_cell_formula_units_Z   4
loop_
 _symmetry_equiv_pos_site_id
 _symmetry_equiv_pos_as_xyz
  1  'x, y, z'
loop_
 _atom_site_type_symbol
 _atom_site_label
 _atom_site_symmetry_multiplicity
 _atom_site_fract_x
 _atom_site_fract_y
 _atom_site_fract_z
 _atom_site_occupancy
  Cu  Cu0  1  0.10062000  0.20185000  0.08697000  1.0
  Cu  Cu1  1  0.60061000  0.29815000  0.41303000  1.0
  Cu  Cu2  1  0.89939000  0.79815000  0.91303000  1.0
  Cu  Cu3  1  0.39938000  0.70185000  0.58697000  1.0
  H  H4  1  0.15513000  0.02625000  0.77281000  1.0
  H  H5  1  0.65514000  0.47374000  0.72719000  1.0
  H  H6  1  0.84487000  0.97374000  0.22719000  1.0
  H  H7  1  0.34487000  0.52626000  0.27281000  1.0
  H  H8  1  0.14008000  0.12192000  0.55478000  1.0
  H  H9  1  0.64009000  0.37807000  0.94521000  1.0
  H  H10  1  0.85992000  0.87808000  0.44522000  1.0
  H  H11  1  0.35992000  0.62192000  0.05479000  1.0
  H  H12  1  0.05379000  0.44192000  0.59976000  1.0
  H  H13  1  0.55378000  0.05807000  0.90024000  1.0
  H  H14  1  0.94622000  0.55808000  0.40024000  1.0
  H  H15  1  0.44621000  0.94192000  0.09976000  1.0
  H  H16  1  0.01483000  0.20328000  0.32840000  1.0
  H  H17  1  0.51483000  0.29673000  0.17161000  1.0
  H  H18  1  0.98517000  0.79672000  0.67160000  1.0
  H  H19  1  0.48516000  0.70328000  0.82840000  1.0
  H  H20  1  0.22264000  0.25350000  0.33265000  1.0
  H  H21  1  0.72264000  0.24650000  0.16735000  1.0
  H  H22  1  0.77736000  0.74650000  0.66735000  1.0
  H  H23  1  0.27736000  0.75350000  0.83265000  1.0
  C  C24  1  0.11602000  0.15949000  0.78076000  1.0
  C  C25  1  0.61602000  0.34051000  0.71924000  1.0
  C  C26  1  0.88398000  0.84051000  0.21924000  1.0
  C  C27  1  0.38398000  0.65949000  0.28076000  1.0
  C  C28  1  0.10882000  0.21345000  0.66222000  1.0
  C  C29  1  0.60882000  0.28654000  0.83778000  1.0
  C  C30  1  0.89119000  0.78655000  0.33778000  1.0
  C  C31  1  0.39119000  0.71345000  0.16222000  1.0
  C  C32  1  0.05922000  0.38833000  0.68626000  1.0
  C  C33  1  0.55921000  0.11166000  0.81374000  1.0
  C  C34  1  0.94079000  0.61167000  0.31374000  1.0
  C  C35  1  0.44079000  0.88833000  0.18626000  1.0
  C  C36  1  0.02407000  0.43754000  0.92699000  1.0
  C  C37  1  0.52407000  0.06246000  0.57301000  1.0
  C  C38  1  0.97593000  0.56246000  0.07301000  1.0
  C  C39  1  0.47593000  0.93754000  0.42699000  1.0
  N  N40  1  0.07440000  0.27187000  0.91332000  1.0
  N  N41  1  0.57439000  0.22813000  0.58668000  1.0
  N  N42  1  0.92561000  0.72813000  0.08668000  1.0
  N  N43  1  0.42560000  0.77187000  0.41332000  1.0
  N  N44  1  0.01494000  0.49840000  0.81829000  1.0
  N  N45  1  0.51493000  0.00160000  0.68170000  1.0
  N  N46  1  0.98507000  0.50160000  0.18171000  1.0
  N  N47  1  0.48506000  0.99840000  0.31829000  1.0
  O  O48  1  0.12961000  0.16899000  0.27318000  1.0
  O  O49  1  0.62961000  0.33102000  0.22682000  1.0
  O  O50  1  0.87038000  0.83102000  0.72682000  1.0
  O  O51  1  0.37039000  0.66899000  0.77319000  1.0
  F  F52  1  0.14332000  0.88679000  0.92949000  1.0
  F  F53  1  0.64332000  0.61321000  0.57051000  1.0
  F  F54  1  0.85668000  0.11322000  0.07051000  1.0
  F  F55  1  0.35668000  0.38679000  0.42949000  1.0
  F  F56  1  0.34972000  0.25423000  0.08263000  1.0
  F  F57  1  0.84972000  0.24577000  0.41737000  1.0
  F  F58  1  0.65027000  0.74576000  0.91737000  1.0
  F  F59  1  0.15027000  0.75423000  0.58263000  1.0
