# generated using pymatgen
data_CdH8C8(NO)6
_symmetry_space_group_name_H-M   'P 1'
_cell_length_a   10.66900000
_cell_length_b   10.66970000
_cell_length_c   13.96030000
_cell_angle_alpha   112.42800000
_cell_angle_beta   112.42900000
_cell_angle_gamma   90.01600000
_symmetry_Int_Tables_number   1
_chemical_formula_structural   CdH8C8(NO)6
_chemical_formula_sum   'Cd4 H32 C32 N24 O24'
_cell_volume   1337.91602798
_cell_formula_units_Z   4
loop_
 _symmetry_equiv_pos_site_id
 _symmetry_equiv_pos_as_xyz
  1  'x, y, z'
loop_
 _atom_site_type_symbol
 _atom_site_label
 _atom_site_symmetry_multiplicity
 _atom_site_fract_x
 _atom_site_fract_y
 _atom_site_fract_z
 _atom_site_occupancy
  Cd  Cd0  1  0.62628000  0.37628000  0.75250000  1.0
  Cd  Cd1  1  0.87626000  0.12626000  0.25251000  1.0
  Cd  Cd2  1  0.37372000  0.62372000  0.24750000  1.0
  Cd  Cd3  1  0.12374000  0.87374000  0.74749000  1.0
  H  H4  1  0.62537000  0.04416000  0.60231000  1.0
  H  H5  1  0.54413000  0.97701000  0.10227000  1.0
  H  H6  1  0.05822000  0.12537000  0.10231000  1.0
  H  H7  1  0.47699000  0.55815000  0.60222000  1.0
  H  H8  1  0.37463000  0.95584000  0.39769000  1.0
  H  H9  1  0.45587000  0.02299000  0.89773000  1.0
  H  H10  1  0.94178000  0.87463000  0.89769000  1.0
  H  H11  1  0.52301000  0.44185000  0.39778000  1.0
  H  H12  1  0.79228000  0.87779000  0.60019000  1.0
  H  H13  1  0.37775000  0.80793000  0.10016000  1.0
  H  H14  1  0.22250000  0.29228000  0.10014000  1.0
  H  H15  1  0.30795000  0.72247000  0.60010000  1.0
  H  H16  1  0.20772000  0.12221000  0.39981000  1.0
  H  H17  1  0.62225000  0.19207000  0.89984000  1.0
  H  H18  1  0.77750000  0.70772000  0.89986000  1.0
  H  H19  1  0.69205000  0.27753000  0.39990000  1.0
  H  H20  1  0.11204000  0.19729000  0.85322000  1.0
  H  H21  1  0.69729000  0.74109000  0.35328000  1.0
  H  H22  1  0.15589000  0.61207000  0.35323000  1.0
  H  H23  1  0.24110000  0.65592000  0.85332000  1.0
  H  H24  1  0.88795000  0.80271000  0.14678000  1.0
  H  H25  1  0.30271000  0.25891000  0.64672000  1.0
  H  H26  1  0.84411000  0.38793000  0.64677000  1.0
  H  H27  1  0.75890000  0.34408000  0.14668000  1.0
  H  H28  1  0.94533000  0.36232000  0.85680000  1.0
  H  H29  1  0.86234000  0.91145000  0.35682000  1.0
  H  H30  1  0.99441000  0.44532000  0.35685000  1.0
  H  H31  1  0.41147000  0.49444000  0.85690000  1.0
  H  H32  1  0.05467000  0.63768000  0.14320000  1.0
  H  H33  1  0.13766000  0.08855000  0.64318000  1.0
  H  H34  1  0.00559000  0.55468000  0.64315000  1.0
  H  H35  1  0.58853000  0.50556000  0.14310000  1.0
  C  C36  1  0.73407000  0.07873000  0.65857000  1.0
  C  C37  1  0.57871000  0.92455000  0.15857000  1.0
  C  C38  1  0.07990000  0.23407000  0.15858000  1.0
  C  C39  1  0.42453000  0.57987000  0.65854000  1.0
  C  C40  1  0.26593000  0.92127000  0.34143000  1.0
  C  C41  1  0.42129000  0.07545000  0.84143000  1.0
  C  C42  1  0.92010000  0.76593000  0.84142000  1.0
  C  C43  1  0.57547000  0.42013000  0.34147000  1.0
  C  C44  1  0.82672000  0.98637000  0.65711000  1.0
  C  C45  1  0.48634000  0.83040000  0.15712000  1.0
  C  C46  1  0.17081000  0.32675000  0.15709000  1.0
  C  C47  1  0.33042000  0.67079000  0.65708000  1.0
  C  C48  1  0.17328000  0.01363000  0.34289000  1.0
  C  C49  1  0.51366000  0.16960000  0.84288000  1.0
  C  C50  1  0.82919000  0.67325000  0.84291000  1.0
  C  C51  1  0.66958000  0.32921000  0.34292000  1.0
  C  C52  1  0.00325000  0.16240000  0.79704000  1.0
  C  C53  1  0.66240000  0.79376000  0.29710000  1.0
  C  C54  1  0.13462000  0.50327000  0.29704000  1.0
  C  C55  1  0.29376000  0.63465000  0.79710000  1.0
  C  C56  1  0.99675000  0.83761000  0.20296000  1.0
  C  C57  1  0.33760000  0.20624000  0.70290000  1.0
  C  C58  1  0.86538000  0.49673000  0.70296000  1.0
  C  C59  1  0.70624000  0.36535000  0.20290000  1.0
  C  C60  1  0.91099000  0.25410000  0.79890000  1.0
  C  C61  1  0.75411000  0.88791000  0.29892000  1.0
  C  C62  1  0.04475000  0.41098000  0.29891000  1.0
  C  C63  1  0.38789000  0.54480000  0.79897000  1.0
  C  C64  1  0.08901000  0.74590000  0.20110000  1.0
  C  C65  1  0.24589000  0.11209000  0.70108000  1.0
  C  C66  1  0.95525000  0.58902000  0.70109000  1.0
  C  C67  1  0.61211000  0.45520000  0.20103000  1.0
  N  N68  1  0.75583000  0.50586000  0.01168000  1.0
  N  N69  1  0.00589000  0.25582000  0.51168000  1.0
  N  N70  1  0.24417000  0.49414000  0.98832000  1.0
  N  N71  1  0.99412000  0.74418000  0.48832000  1.0
  N  N72  1  0.49673000  0.24670000  0.49338000  1.0
  N  N73  1  0.74671000  0.99674000  0.99339000  1.0
  N  N74  1  0.50327000  0.75330000  0.50662000  1.0
  N  N75  1  0.25329000  0.00326000  0.00661000  1.0
  N  N76  1  0.77655000  0.21220000  0.72961000  1.0
  N  N77  1  0.71220000  0.95310000  0.22960000  1.0
  N  N78  1  0.01741000  0.27654000  0.22965000  1.0
  N  N79  1  0.45309000  0.51742000  0.72963000  1.0
  N  N80  1  0.22345000  0.78779000  0.27039000  1.0
  N  N81  1  0.28780000  0.04690000  0.77040000  1.0
  N  N82  1  0.98258000  0.72346000  0.77035000  1.0
  N  N83  1  0.54692000  0.48258000  0.27037000  1.0
  N  N84  1  0.96089000  0.02840000  0.72623000  1.0
  N  N85  1  0.52839000  0.76531000  0.22626000  1.0
  N  N86  1  0.19786000  0.46092000  0.22619000  1.0
  N  N87  1  0.26533000  0.69786000  0.72623000  1.0
  N  N88  1  0.03911000  0.97160000  0.27377000  1.0
  N  N89  1  0.47161000  0.23469000  0.77374000  1.0
  N  N90  1  0.80214000  0.53909000  0.77381000  1.0
  N  N91  1  0.73467000  0.30214000  0.27377000  1.0
  O  O92  1  0.78445000  0.39187000  0.95574000  1.0
  O  O93  1  0.89186000  0.17129000  0.45573000  1.0
  O  O94  1  0.06404000  0.28446000  0.45575000  1.0
  O  O95  1  0.67131000  0.56396000  0.95572000  1.0
  O  O96  1  0.21555000  0.60813000  0.04426000  1.0
  O  O97  1  0.10814000  0.82871000  0.54427000  1.0
  O  O98  1  0.93597000  0.71554000  0.54425000  1.0
  O  O99  1  0.32868000  0.43604000  0.04428000  1.0
  O  O100  1  0.80900000  0.55901000  0.11813000  1.0
  O  O101  1  0.05897000  0.30897000  0.61813000  1.0
  O  O102  1  0.19100000  0.44099000  0.88187000  1.0
  O  O103  1  0.94103000  0.69103000  0.38187000  1.0
  O  O104  1  0.46361000  0.19243000  0.54985000  1.0
  O  O105  1  0.69246000  0.08629000  0.04985000  1.0
  O  O106  1  0.85741000  0.96364000  0.04984000  1.0
  O  O107  1  0.58627000  0.35739000  0.54980000  1.0
  O  O108  1  0.53639000  0.80757000  0.45015000  1.0
  O  O109  1  0.30753000  0.91371000  0.95015000  1.0
  O  O110  1  0.14259000  0.03636000  0.95016000  1.0
  O  O111  1  0.41373000  0.64261000  0.45020000  1.0
  O  O112  1  0.44371000  0.19371000  0.38721000  1.0
  O  O113  1  0.69364000  0.94365000  0.88722000  1.0
  O  O114  1  0.55630000  0.80629000  0.61279000  1.0
  O  O115  1  0.30636000  0.05635000  0.11278000  1.0
