# generated using pymatgen
data_Zn2H14C30Br5N2Cl5O8
_symmetry_space_group_name_H-M   'P 1'
_cell_length_a   9.93970000
_cell_length_b   10.85710000
_cell_length_c   10.86480000
_cell_angle_alpha   75.28600000
_cell_angle_beta   79.94620000
_cell_angle_gamma   69.08400000
_symmetry_Int_Tables_number   1
_chemical_formula_structural   Zn2H14C30Br5N2Cl5O8
_chemical_formula_sum   'Zn2 H14 C30 Br5 N2 Cl5 O8'
_cell_volume   1054.73342055
_cell_formula_units_Z   1
loop_
 _symmetry_equiv_pos_site_id
 _symmetry_equiv_pos_as_xyz
  1  'x, y, z'
loop_
 _atom_site_type_symbol
 _atom_site_label
 _atom_site_symmetry_multiplicity
 _atom_site_fract_x
 _atom_site_fract_y
 _atom_site_fract_z
 _atom_site_occupancy
  Zn  Zn0  1  0.32879000  0.53846000  0.54517000  1.0
  Zn  Zn1  1  0.63754000  0.44858000  0.51746000  1.0
  H  H2  1  0.37697000  0.97668000  0.37927000  1.0
  H  H3  1  0.30756000  0.92329000  0.61494000  1.0
  H  H4  1  0.31130000  0.13611000  0.61311000  1.0
  H  H5  1  0.70337000  0.78259000  0.64123000  1.0
  H  H6  1  0.75834000  0.80653000  0.47642000  1.0
  H  H7  1  0.75651000  0.02253000  0.46821000  1.0
  H  H8  1  0.44364000  0.84861000  0.72146000  1.0
  H  H9  1  0.62165000  0.35424000  0.18329000  1.0
  H  H10  1  0.09116000  0.91245000  0.82999000  1.0
  H  H11  1  0.24096000  0.69523000  0.77545000  1.0
  H  H12  1  0.55988000  0.92649000  0.31461000  1.0
  H  H13  1  0.98689000  0.94134000  0.25935000  1.0
  H  H14  1  0.11071000  0.79763000  0.45231000  1.0
  H  H15  1  0.58359000  0.12540000  0.33263000  1.0
  C  C16  1  0.45272000  0.54417000  0.29131000  1.0
  C  C17  1  0.37137000  0.65274000  0.06156000  1.0
  C  C18  1  0.46053000  0.54855000  0.15095000  1.0
  C  C19  1  0.52037000  0.72517000  0.51592000  1.0
  C  C20  1  0.55295000  0.43166000  0.11423000  1.0
  C  C21  1  0.55771000  0.41039000  0.99106000  1.0
  C  C22  1  0.46133000  0.50114000  0.90543000  1.0
  C  C23  1  0.89628000  0.66171000  0.27676000  1.0
  C  C24  1  0.90461000  0.79136000  0.23382000  1.0
  C  C25  1  0.98059000  0.84049000  0.29803000  1.0
  C  C26  1  0.04856000  0.76143000  0.40495000  1.0
  C  C27  1  0.53300000  0.09924000  0.53899000  1.0
  C  C28  1  0.03524000  0.63270000  0.45472000  1.0
  C  C29  1  0.95490000  0.58337000  0.39350000  1.0
  C  C30  1  0.98505000  0.39629000  0.55611000  1.0
  C  C31  1  0.46585000  0.48094000  0.77271000  1.0
  C  C32  1  0.06671000  0.44336000  0.61930000  1.0
  C  C33  1  0.53363000  0.24054000  0.54009000  1.0
  C  C34  1  0.48742000  0.96375000  0.39564000  1.0
  C  C35  1  0.49852000  0.10009000  0.40242000  1.0
  C  C36  1  0.41582000  0.91833000  0.62995000  1.0
  C  C37  1  0.67739000  0.85113000  0.54886000  1.0
  C  C38  1  0.41544000  0.05873000  0.63582000  1.0
  C  C39  1  0.52608000  0.86299000  0.52247000  1.0
  C  C40  1  0.68439000  0.99039000  0.54821000  1.0
  C  C41  1  0.29673000  0.78680000  0.08158000  1.0
  C  C42  1  0.19702000  0.87837000  0.99894000  1.0
  C  C43  1  0.17211000  0.84074000  0.89226000  1.0
  C  C44  1  0.25558000  0.71887000  0.86227000  1.0
  C  C45  1  0.36147000  0.62286000  0.94218000  1.0
  Br  Br46  1  0.79023000  0.97301000  0.69538000  1.0
  Br  Br47  1  0.69580000  0.24618000  0.95670000  1.0
  Br  Br48  1  0.94783000  0.23165000  0.62671000  1.0
  Br  Br49  1  0.12417000  0.35062000  0.78162000  1.0
  Br  Br50  1  0.32097000  0.24563000  0.34168000  1.0
  N  N51  1  0.93422000  0.46305000  0.44677000  1.0
  N  N52  1  0.09899000  0.55400000  0.56341000  1.0
  Cl  Cl53  1  0.43262000  0.06396000  0.79674000  1.0
  Cl  Cl54  1  0.34278000  0.84135000  0.19878000  1.0
  Cl  Cl55  1  0.10715000  0.04100000  0.01898000  1.0
  Cl  Cl56  1  0.81640000  0.59721000  0.19426000  1.0
  Cl  Cl57  1  0.81929000  0.89492000  0.10248000  1.0
  O  O58  1  0.32833000  0.56951000  0.35447000  1.0
  O  O59  1  0.57267000  0.50282000  0.33825000  1.0
  O  O60  1  0.39715000  0.71178000  0.52347000  1.0
  O  O61  1  0.64275000  0.63337000  0.50419000  1.0
  O  O62  1  0.34413000  0.50851000  0.73078000  1.0
  O  O63  1  0.58891000  0.44323000  0.71096000  1.0
  O  O64  1  0.41301000  0.32762000  0.56180000  1.0
  O  O65  1  0.65580000  0.26021000  0.51440000  1.0
