# generated using pymatgen
data_ZnH17C27NO10
_symmetry_space_group_name_H-M   'P 1'
_cell_length_a   14.71010000
_cell_length_b   15.52100000
_cell_length_c   16.12000000
_cell_angle_alpha   88.64300000
_cell_angle_beta   87.53570000
_cell_angle_gamma   64.69200000
_symmetry_Int_Tables_number   1
_chemical_formula_structural   ZnH17C27NO10
_chemical_formula_sum   'Zn2 H34 C54 N2 O20'
_cell_volume   3324.07243433
_cell_formula_units_Z   2
loop_
 _symmetry_equiv_pos_site_id
 _symmetry_equiv_pos_as_xyz
  1  'x, y, z'
loop_
 _atom_site_type_symbol
 _atom_site_label
 _atom_site_symmetry_multiplicity
 _atom_site_fract_x
 _atom_site_fract_y
 _atom_site_fract_z
 _atom_site_occupancy
  Zn  Zn0  1  0.40834000  0.50399000  0.50657000  1.0
  Zn  Zn1  1  0.60546000  0.48680000  0.49325000  1.0
  H  H2  1  0.23114000  0.12504000  0.46480000  1.0
  H  H3  1  0.62704000  0.96640000  0.74615000  1.0
  H  H4  1  0.34195000  0.19628000  0.50786000  1.0
  H  H5  1  0.53376000  0.88373000  0.70078000  1.0
  H  H6  1  0.38374000  0.46303000  0.92178000  1.0
  H  H7  1  0.60654000  0.56284000  0.07668000  1.0
  H  H8  1  0.90944000  0.53775000  0.36786000  1.0
  H  H9  1  0.09329000  0.47610000  0.63020000  1.0
  H  H10  1  0.62704000  0.05022000  0.38946000  1.0
  H  H11  1  0.51168000  0.04128000  0.40900000  1.0
  H  H12  1  0.52834000  0.10087000  0.31845000  1.0
  H  H13  1  0.42298000  0.22233000  0.42393000  1.0
  H  H14  1  0.53580000  0.22898000  0.39842000  1.0
  H  H15  1  0.64153000  0.69236000  0.54645000  1.0
  H  H16  1  0.64298000  0.79180000  0.59845000  1.0
  H  H17  1  0.67081000  0.68296000  0.65327000  1.0
  H  H18  1  0.49342000  0.79288000  0.69133000  1.0
  H  H19  1  0.50032000  0.69622000  0.63532000  1.0
  H  H20  1  0.76531000  0.29957000  0.69783000  1.0
  H  H21  1  0.32971000  0.67314000  0.34352000  1.0
  H  H22  1  0.14610000  0.99200000  0.29979000  1.0
  H  H23  1  0.73565000  0.04417000  0.84599000  1.0
  H  H24  1  0.27756000  0.58872000  0.16581000  1.0
  H  H25  1  0.21689000  0.59782000  0.07108000  1.0
  H  H26  1  0.19983000  0.52716000  0.15296000  1.0
  H  H27  1  0.32253000  0.42124000  0.04715000  1.0
  H  H28  1  0.38298000  0.41393000  0.14137000  1.0
  H  H29  1  0.52975000  0.67709000  0.82848000  1.0
  H  H30  1  0.55100000  0.72444000  0.92134000  1.0
  H  H31  1  0.64298000  0.69058000  0.83844000  1.0
  H  H32  1  0.69699000  0.56594000  0.95073000  1.0
  H  H33  1  0.67497000  0.51976000  0.85801000  1.0
  H  H34  1  0.18667000  0.57524000  0.29297000  1.0
  H  H35  1  0.79878000  0.47505000  0.71012000  1.0
  C  C36  1  0.49172000  0.50617000  0.33887000  1.0
  C  C37  1  0.51884000  0.49013000  0.66042000  1.0
  C  C38  1  0.43654000  0.67814000  0.51080000  1.0
  C  C39  1  0.57533000  0.31461000  0.50849000  1.0
  C  C40  1  0.39639000  0.78510000  0.51487000  1.0
  C  C41  1  0.59506000  0.21814000  0.54463000  1.0
  C  C42  1  0.28109000  0.93706000  0.45980000  1.0
  C  C43  1  0.65645000  0.10992000  0.66241000  1.0
  C  C44  1  0.31739000  0.83857000  0.46193000  1.0
  C  C45  1  0.65978000  0.18318000  0.61207000  1.0
  C  C46  1  0.43822000  0.82735000  0.56795000  1.0
  C  C47  1  0.53666000  0.17195000  0.52008000  1.0
  C  C48  1  0.40980000  0.92784000  0.56005000  1.0
  C  C49  1  0.52494000  0.10416000  0.57538000  1.0
  C  C50  1  0.32903000  0.98219000  0.50598000  1.0
  C  C51  1  0.58798000  0.07007000  0.64521000  1.0
  C  C52  1  0.46428000  0.97712000  0.59592000  1.0
  C  C53  1  0.45209000  0.06633000  0.56166000  1.0
  C  C54  1  0.36257000  0.12100000  0.51910000  1.0
  C  C55  1  0.52972000  0.94469000  0.66436000  1.0
  C  C56  1  0.30085000  0.08176000  0.49515000  1.0
  C  C57  1  0.58386000  0.99155000  0.69052000  1.0
  C  C58  1  0.43144000  0.48576000  0.95682000  1.0
  C  C59  1  0.55738000  0.54198000  0.04164000  1.0
  C  C60  1  0.50131000  0.51090000  0.91239000  1.0
  C  C61  1  0.48848000  0.51548000  0.08610000  1.0
  C  C62  1  0.56495000  0.54085000  0.95534000  1.0
  C  C63  1  0.42310000  0.48779000  0.04306000  1.0
  C  C64  1  0.50857000  0.50378000  0.82491000  1.0
  C  C65  1  0.48751000  0.51410000  0.17391000  1.0
  C  C66  1  0.48897000  0.51081000  0.24949000  1.0
  C  C67  1  0.51502000  0.49605000  0.74961000  1.0
  C  C68  1  0.04152000  0.52982000  0.42444000  1.0
  C  C69  1  0.95954000  0.48731000  0.57422000  1.0
  C  C70  1  0.09420000  0.51096000  0.49900000  1.0
  C  C71  1  0.90842000  0.50298000  0.49903000  1.0
  C  C72  1  0.05288000  0.49017000  0.57267000  1.0
  C  C73  1  0.94932000  0.52457000  0.42560000  1.0
  C  C74  1  0.19043000  0.51085000  0.50468000  1.0
  C  C75  1  0.81632000  0.49500000  0.49225000  1.0
  C  C76  1  0.50456000  0.18408000  0.43032000  1.0
  C  C77  1  0.54503000  0.08824000  0.38461000  1.0
  C  C78  1  0.51232000  0.76121000  0.62915000  1.0
  C  C79  1  0.62379000  0.73098000  0.60537000  1.0
  C  C80  1  0.73701000  0.22086000  0.62659000  1.0
  C  C81  1  0.27470000  0.78450000  0.41208000  1.0
  C  C82  1  0.19661000  0.99449000  0.40498000  1.0
  C  C83  1  0.72644000  0.07705000  0.73271000  1.0
  C  C84  1  0.34705000  0.46150000  0.08901000  1.0
  C  C85  1  0.25486000  0.54892000  0.12190000  1.0
  C  C86  1  0.63800000  0.57062000  0.90879000  1.0
  C  C87  1  0.58733000  0.67170000  0.87207000  1.0
  C  C88  1  0.07715000  0.55501000  0.34253000  1.0
  C  C89  1  0.92017000  0.46907000  0.65710000  1.0
  N  N90  1  0.74304000  0.48723000  0.48031000  1.0
  N  N91  1  0.26913000  0.50749000  0.51609000  1.0
  O  O92  1  0.40665000  0.53083000  0.37826000  1.0
  O  O93  1  0.58938000  0.50374000  0.62185000  1.0
  O  O94  1  0.57730000  0.47868000  0.37017000  1.0
  O  O95  1  0.45076000  0.47297000  0.62831000  1.0
  O  O96  1  0.37497000  0.64248000  0.53028000  1.0
  O  O97  1  0.64184000  0.34587000  0.51329000  1.0
  O  O98  1  0.52755000  0.63277000  0.48593000  1.0
  O  O99  1  0.48674000  0.36280000  0.48238000  1.0
  O  O100  1  0.81533000  0.19804000  0.58628000  1.0
  O  O101  1  0.70974000  0.28129000  0.69259000  1.0
  O  O102  1  0.19025000  0.78874000  0.42149000  1.0
  O  O103  1  0.34623000  0.72604000  0.35794000  1.0
  O  O104  1  0.12541000  0.06984000  0.42304000  1.0
  O  O105  1  0.20770000  0.95339000  0.32900000  1.0
  O  O106  1  0.81365000  0.06658000  0.72927000  1.0
  O  O107  1  0.68272000  0.06272000  0.80532000  1.0
  O  O108  1  0.02927000  0.56997000  0.27969000  1.0
  O  O109  1  0.16658000  0.55850000  0.34766000  1.0
  O  O110  1  0.97053000  0.44485000  0.71870000  1.0
  O  O111  1  0.82255000  0.48529000  0.65466000  1.0
