# generated using pymatgen
data_CoH7C5N5O6
_symmetry_space_group_name_H-M   'P 1'
_cell_length_a   8.17833000
_cell_length_b   9.96349000
_cell_length_c   10.97100000
_cell_angle_alpha   89.99360000
_cell_angle_beta   106.01200000
_cell_angle_gamma   89.99370000
_symmetry_Int_Tables_number   1
_chemical_formula_structural   CoH7C5N5O6
_chemical_formula_sum   'Co4 H28 C20 N20 O24'
_cell_volume   859.28626962
_cell_formula_units_Z   4
loop_
 _symmetry_equiv_pos_site_id
 _symmetry_equiv_pos_as_xyz
  1  'x, y, z'
loop_
 _atom_site_type_symbol
 _atom_site_label
 _atom_site_symmetry_multiplicity
 _atom_site_fract_x
 _atom_site_fract_y
 _atom_site_fract_z
 _atom_site_occupancy
  Co  Co0  1  0.23513000  0.13488000  0.25601000  1.0
  Co  Co1  1  0.76486000  0.63492000  0.24398000  1.0
  Co  Co2  1  0.76488000  0.86518000  0.74392000  1.0
  Co  Co3  1  0.23518000  0.36518000  0.75611000  1.0
  H  H4  1  0.22198000  0.13067000  0.50691000  1.0
  H  H5  1  0.77810000  0.63066000  0.99312000  1.0
  H  H6  1  0.77813000  0.86934000  0.49308000  1.0
  H  H7  1  0.22190000  0.36927000  0.00690000  1.0
  H  H8  1  0.26252000  0.27785000  0.47654000  1.0
  H  H9  1  0.73753000  0.77785000  0.02343000  1.0
  H  H10  1  0.73758000  0.72218000  0.52352000  1.0
  H  H11  1  0.26234000  0.22207000  0.97648000  1.0
  H  H12  1  0.45955000  0.33755000  0.22688000  1.0
  H  H13  1  0.54039000  0.83756000  0.27312000  1.0
  H  H14  1  0.54029000  0.66248000  0.77299000  1.0
  H  H15  1  0.45963000  0.16250000  0.72696000  1.0
  H  H16  1  0.39555000  0.93062000  0.39361000  1.0
  H  H17  1  0.60449000  0.43066000  0.10640000  1.0
  H  H18  1  0.60426000  0.06933000  0.60624000  1.0
  H  H19  1  0.39562000  0.56928000  0.89373000  1.0
  H  H20  1  0.08893000  0.68144000  0.15799000  1.0
  H  H21  1  0.91108000  0.18143000  0.34201000  1.0
  H  H22  1  0.91111000  0.31858000  0.84197000  1.0
  H  H23  1  0.08893000  0.81859000  0.65806000  1.0
  H  H24  1  0.51341000  0.18809000  0.19932000  1.0
  H  H25  1  0.48655000  0.68808000  0.30064000  1.0
  H  H26  1  0.48642000  0.81194000  0.80046000  1.0
  H  H27  1  0.51356000  0.31197000  0.69954000  1.0
  H  H28  1  0.53199000  0.03768000  0.37699000  1.0
  H  H29  1  0.46803000  0.53772000  0.12300000  1.0
  H  H30  1  0.46790000  0.96225000  0.62293000  1.0
  H  H31  1  0.53201000  0.46218000  0.87710000  1.0
  C  C32  1  0.23590000  0.96116000  0.03694000  1.0
  C  C33  1  0.76407000  0.46114000  0.46306000  1.0
  C  C34  1  0.76411000  0.03886000  0.96299000  1.0
  C  C35  1  0.23592000  0.53886000  0.53706000  1.0
  C  C36  1  0.19501000  0.83368000  0.08327000  1.0
  C  C37  1  0.80496000  0.33368000  0.41672000  1.0
  C  C38  1  0.80508000  0.16634000  0.91671000  1.0
  C  C39  1  0.19493000  0.66633000  0.58331000  1.0
  C  C40  1  0.28268000  0.75952000  0.00655000  1.0
  C  C41  1  0.71730000  0.25950000  0.49343000  1.0
  C  C42  1  0.71747000  0.24049000  0.99347000  1.0
  C  C43  1  0.28252000  0.74047000  0.50651000  1.0
  C  C44  1  0.32133000  0.88983000  0.95093000  1.0
  C  C45  1  0.67864000  0.38978000  0.54907000  1.0
  C  C46  1  0.67875000  0.11019000  0.04904000  1.0
  C  C47  1  0.32123000  0.61014000  0.45098000  1.0
  C  C48  1  0.03003000  0.85987000  0.23461000  1.0
  C  C49  1  0.96998000  0.35987000  0.26539000  1.0
  C  C50  1  0.97007000  0.14017000  0.76534000  1.0
  C  C51  1  0.02998000  0.64014000  0.73468000  1.0
  N  N52  1  0.05502000  0.99041000  0.26574000  1.0
  N  N53  1  0.94499000  0.49043000  0.23427000  1.0
  N  N54  1  0.94515000  0.00960000  0.73426000  1.0
  N  N55  1  0.05491000  0.50956000  0.76571000  1.0
  N  N56  1  0.95368000  0.01505000  0.34211000  1.0
  N  N57  1  0.04633000  0.51506000  0.15789000  1.0
  N  N58  1  0.04647000  0.98501000  0.65792000  1.0
  N  N59  1  0.95361000  0.48491000  0.84208000  1.0
  N  N60  1  0.87302000  0.90678000  0.35718000  1.0
  N  N61  1  0.12699000  0.40678000  0.14282000  1.0
  N  N62  1  0.12712000  0.09330000  0.64284000  1.0
  N  N63  1  0.87297000  0.59320000  0.85719000  1.0
  N  N64  1  0.91671000  0.80575000  0.28984000  1.0
  N  N65  1  0.08330000  0.30575000  0.21017000  1.0
  N  N66  1  0.08338000  0.19432000  0.71011000  1.0
  N  N67  1  0.91667000  0.69424000  0.78994000  1.0
  N  N68  1  0.10912000  0.78638000  0.16187000  1.0
  N  N69  1  0.89088000  0.28638000  0.33813000  1.0
  N  N70  1  0.89094000  0.21363000  0.83807000  1.0
  N  N71  1  0.10908000  0.71363000  0.66193000  1.0
  O  O72  1  0.21215000  0.08302000  0.06045000  1.0
  O  O73  1  0.78779000  0.58301000  0.43956000  1.0
  O  O74  1  0.78769000  0.91700000  0.93938000  1.0
  O  O75  1  0.21240000  0.41697000  0.56071000  1.0
  O  O76  1  0.27050000  0.18381000  0.44851000  1.0
  O  O77  1  0.72953000  0.68381000  0.05148000  1.0
  O  O78  1  0.72952000  0.81625000  0.55147000  1.0
  O  O79  1  0.27050000  0.31616000  0.94851000  1.0
  O  O80  1  0.31216000  0.63730000  0.99617000  1.0
  O  O81  1  0.68783000  0.13727000  0.50379000  1.0
  O  O82  1  0.68804000  0.36272000  0.00391000  1.0
  O  O83  1  0.31190000  0.86269000  0.49602000  1.0
  O  O84  1  0.44804000  0.24205000  0.24749000  1.0
  O  O85  1  0.55188000  0.74206000  0.25246000  1.0
  O  O86  1  0.55175000  0.75795000  0.75229000  1.0
  O  O87  1  0.44825000  0.25797000  0.74775000  1.0
  O  O88  1  0.39048000  0.92444000  0.86877000  1.0
  O  O89  1  0.60954000  0.42439000  0.63123000  1.0
  O  O90  1  0.60951000  0.07558000  0.13114000  1.0
  O  O91  1  0.39046000  0.57553000  0.36886000  1.0
  O  O92  1  0.43568000  0.98244000  0.32811000  1.0
  O  O93  1  0.56436000  0.48247000  0.17190000  1.0
  O  O94  1  0.56424000  0.01749000  0.67177000  1.0
  O  O95  1  0.43568000  0.51744000  0.82822000  1.0
