# generated using pymatgen
data_Zn3H40C66N2O15
_symmetry_space_group_name_H-M   'P 1'
_cell_length_a   9.17347000
_cell_length_b   18.00510000
_cell_length_c   23.69280000
_cell_angle_alpha   81.54070000
_cell_angle_beta   78.83770000
_cell_angle_gamma   75.25270000
_symmetry_Int_Tables_number   1
_chemical_formula_structural   Zn3H40C66N2O15
_chemical_formula_sum   'Zn6 H80 C132 N4 O30'
_cell_volume   3693.02867805
_cell_formula_units_Z   2
loop_
 _symmetry_equiv_pos_site_id
 _symmetry_equiv_pos_as_xyz
  1  'x, y, z'
loop_
 _atom_site_type_symbol
 _atom_site_label
 _atom_site_symmetry_multiplicity
 _atom_site_fract_x
 _atom_site_fract_y
 _atom_site_fract_z
 _atom_site_occupancy
  Zn  Zn0  1  0.50000000  0.00000000  0.50000000  1.0
  Zn  Zn1  1  0.00000000  0.50000000  0.00000000  1.0
  Zn  Zn2  1  0.81609000  0.85525000  0.49083000  1.0
  Zn  Zn3  1  0.16230000  0.64477000  0.00922000  1.0
  Zn  Zn4  1  0.18391000  0.14475000  0.50917000  1.0
  Zn  Zn5  1  0.83770000  0.35523000  0.99078000  1.0
  H  H6  1  0.68177000  0.12417000  0.46569000  1.0
  H  H7  1  0.27131000  0.37582000  0.03422000  1.0
  H  H8  1  0.31822000  0.87583000  0.53431000  1.0
  H  H9  1  0.72868000  0.62418000  0.96578000  1.0
  H  H10  1  0.70984000  0.25320000  0.41326000  1.0
  H  H11  1  0.37579000  0.24678000  0.08671000  1.0
  H  H12  1  0.29015000  0.74680000  0.58674000  1.0
  H  H13  1  0.62421000  0.75322000  0.91329000  1.0
  H  H14  1  0.13597000  0.14404000  0.31485000  1.0
  H  H15  1  0.59446000  0.35597000  0.18509000  1.0
  H  H16  1  0.86402000  0.85596000  0.68515000  1.0
  H  H17  1  0.40554000  0.64403000  0.81491000  1.0
  H  H18  1  0.10298000  0.01501000  0.36481000  1.0
  H  H19  1  0.48259000  0.48502000  0.13509000  1.0
  H  H20  1  0.89702000  0.98500000  0.63519000  1.0
  H  H21  1  0.51740000  0.51498000  0.86492000  1.0
  H  H22  1  0.85630000  0.24603000  0.15889000  1.0
  H  H23  1  0.26073000  0.25410000  0.34103000  1.0
  H  H24  1  0.14370000  0.75397000  0.84112000  1.0
  H  H25  1  0.73927000  0.74590000  0.65897000  1.0
  H  H26  1  0.85420000  0.20254000  0.26352000  1.0
  H  H27  1  0.31950000  0.29736000  0.23632000  1.0
  H  H28  1  0.14579000  0.79746000  0.73648000  1.0
  H  H29  1  0.68049000  0.70263000  0.76368000  1.0
  H  H30  1  0.03887000  0.39384000  0.28107000  1.0
  H  H31  1  0.71375000  0.10652000  0.21893000  1.0
  H  H32  1  0.96113000  0.60616000  0.71893000  1.0
  H  H33  1  0.28625000  0.89348000  0.78107000  1.0
  H  H34  1  0.03898000  0.43735000  0.17521000  1.0
  H  H35  1  0.65168000  0.06313000  0.32483000  1.0
  H  H36  1  0.96102000  0.56265000  0.82479000  1.0
  H  H37  1  0.34832000  0.93686000  0.67517000  1.0
  H  H38  1  0.31324000  0.91419000  0.38667000  1.0
  H  H39  1  0.61463000  0.58582000  0.11312000  1.0
  H  H40  1  0.68677000  0.08582000  0.61333000  1.0
  H  H41  1  0.38537000  0.41419000  0.88688000  1.0
  H  H42  1  0.22818000  0.87003000  0.30492000  1.0
  H  H43  1  0.40354000  0.62960000  0.19491000  1.0
  H  H44  1  0.77183000  0.12998000  0.69508000  1.0
  H  H45  1  0.59647000  0.37040000  0.80510000  1.0
  H  H46  1  0.62203000  0.67855000  0.29672000  1.0
  H  H47  1  0.59667000  0.82140000  0.20338000  1.0
  H  H48  1  0.37797000  0.32145000  0.70328000  1.0
  H  H49  1  0.40333000  0.17860000  0.79662000  1.0
  H  H50  1  0.70760000  0.72487000  0.37670000  1.0
  H  H51  1  0.80857000  0.77552000  0.12333000  1.0
  H  H52  1  0.29240000  0.27513000  0.62330000  1.0
  H  H53  1  0.19143000  0.22449000  0.87667000  1.0
  H  H54  1  0.10760000  0.80298000  0.41247000  1.0
  H  H55  1  0.32423000  0.69677000  0.08744000  1.0
  H  H56  1  0.89240000  0.19702000  0.58753000  1.0
  H  H57  1  0.67578000  0.30323000  0.91256000  1.0
  H  H58  1  0.33263000  0.68977000  0.40790000  1.0
  H  H59  1  0.43093000  0.81021000  0.09203000  1.0
  H  H60  1  0.66737000  0.31023000  0.59210000  1.0
  H  H61  1  0.56907000  0.18979000  0.90796000  1.0
  H  H62  1  0.13829000  0.60520000  0.57874000  1.0
  H  H63  1  0.32179000  0.89489000  0.92136000  1.0
  H  H64  1  0.86171000  0.39479000  0.42126000  1.0
  H  H65  1  0.67821000  0.10511000  0.07864000  1.0
  H  H66  1  0.92012000  0.72143000  0.57527000  1.0
  H  H67  1  0.21676000  0.77847000  0.92483000  1.0
  H  H68  1  0.07988000  0.27856000  0.42473000  1.0
  H  H69  1  0.78324000  0.22152000  0.07517000  1.0
  H  H70  1  0.12852000  0.54009000  0.46645000  1.0
  H  H71  1  0.13486000  0.96007000  0.03356000  1.0
  H  H72  1  0.87147000  0.45992000  0.53355000  1.0
  H  H73  1  0.86514000  0.03993000  0.96644000  1.0
  H  H74  1  0.46079000  0.69840000  0.50837000  1.0
  H  H75  1  0.66698000  0.80163000  0.99144000  1.0
  H  H76  1  0.53920000  0.30160000  0.49163000  1.0
  H  H77  1  0.33302000  0.19837000  0.00856000  1.0
  H  H78  1  0.70167000  0.70612000  0.53481000  1.0
  H  H79  1  0.94206000  0.79376000  0.96500000  1.0
  H  H80  1  0.29833000  0.29388000  0.46519000  1.0
  H  H81  1  0.05794000  0.20624000  0.03499000  1.0
  H  H82  1  0.90734000  0.58552000  0.54813000  1.0
  H  H83  1  0.04085000  0.91425000  0.95182000  1.0
  H  H84  1  0.09265000  0.41448000  0.45187000  1.0
  H  H85  1  0.95915000  0.08575000  0.04818000  1.0
  C  C86  1  0.87339000  0.98383000  0.44398000  1.0
  C  C87  1  0.30104000  0.51614000  0.05602000  1.0
  C  C88  1  0.12661000  0.01617000  0.55602000  1.0
  C  C89  1  0.69896000  0.48386000  0.94398000  1.0
  C  C90  1  0.88954000  0.06190000  0.41738000  1.0
  C  C91  1  0.36852000  0.43807000  0.08258000  1.0
  C  C92  1  0.11046000  0.93811000  0.58262000  1.0
  C  C93  1  0.63148000  0.56193000  0.91743000  1.0
  C  C94  1  0.77953000  0.12886000  0.43214000  1.0
  C  C95  1  0.34015000  0.37113000  0.06779000  1.0
  C  C96  1  0.22047000  0.87114000  0.56786000  1.0
  C  C97  1  0.65985000  0.62887000  0.93220000  1.0
  C  C98  1  0.79545000  0.20046000  0.40355000  1.0
  C  C99  1  0.39897000  0.29953000  0.09640000  1.0
  C  C100  1  0.20454000  0.79954000  0.59645000  1.0
  C  C101  1  0.60103000  0.70047000  0.90360000  1.0
  C  C102  1  0.92326000  0.20488000  0.36152000  1.0
  C  C103  1  0.48917000  0.29515000  0.13842000  1.0
  C  C104  1  0.07673000  0.79513000  0.63848000  1.0
  C  C105  1  0.51083000  0.70484000  0.86158000  1.0
  C  C106  1  0.03602000  0.13896000  0.34721000  1.0
  C  C107  1  0.52177000  0.36107000  0.15273000  1.0
  C  C108  1  0.96397000  0.86104000  0.65279000  1.0
  C  C109  1  0.47822000  0.63893000  0.84727000  1.0
  C  C110  1  0.01780000  0.06766000  0.37510000  1.0
  C  C111  1  0.46025000  0.43236000  0.12485000  1.0
  C  C112  1  0.98220000  0.93234000  0.62490000  1.0
  C  C113  1  0.53975000  0.56764000  0.87515000  1.0
  C  C114  1  0.93894000  0.37270000  0.09835000  1.0
  C  C115  1  0.41002000  0.12764000  0.40166000  1.0
  C  C116  1  0.06106000  0.62729000  0.90165000  1.0
  C  C117  1  0.58998000  0.87236000  0.59834000  1.0
  C  C118  1  0.94725000  0.34457000  0.16045000  1.0
  C  C119  1  0.45213000  0.15574000  0.33952000  1.0
  C  C120  1  0.05275000  0.65543000  0.83955000  1.0
  C  C121  1  0.54787000  0.84426000  0.66048000  1.0
  C  C122  1  0.89759000  0.27794000  0.18560000  1.0
  C  C123  1  0.36068000  0.22220000  0.31433000  1.0
  C  C124  1  0.10241000  0.72206000  0.81440000  1.0
  C  C125  1  0.63932000  0.77780000  0.68567000  1.0
  C  C126  1  0.89643000  0.25330000  0.24409000  1.0
  C  C127  1  0.39325000  0.24673000  0.25581000  1.0
  C  C128  1  0.10357000  0.74670000  0.75591000  1.0
  C  C129  1  0.60675000  0.75326000  0.74419000  1.0
  C  C130  1  0.94682000  0.29592000  0.27804000  1.0
  C  C131  1  0.52036000  0.20420000  0.22188000  1.0
  C  C132  1  0.05318000  0.70408000  0.72196000  1.0
  C  C133  1  0.47963000  0.79580000  0.77812000  1.0
  C  C134  1  0.99958000  0.36194000  0.25362000  1.0
  C  C135  1  0.61492000  0.13834000  0.24636000  1.0
  C  C136  1  0.00042000  0.63806000  0.74638000  1.0
  C  C137  1  0.38508000  0.86166000  0.75364000  1.0
  C  C138  1  0.99937000  0.38595000  0.19511000  1.0
  C  C139  1  0.58034000  0.11441000  0.30489000  1.0
  C  C140  1  0.00063000  0.61405000  0.80489000  1.0
  C  C141  1  0.41966000  0.88559000  0.69511000  1.0
  C  C142  1  0.57664000  0.85398000  0.42950000  1.0
  C  C143  1  0.86019000  0.64641000  0.07038000  1.0
  C  C144  1  0.42337000  0.14602000  0.57051000  1.0
  C  C145  1  0.13982000  0.35359000  0.92962000  1.0
  C  C146  1  0.51728000  0.82333000  0.38534000  1.0
  C  C147  1  0.72600000  0.67686000  0.11457000  1.0
  C  C148  1  0.48273000  0.17668000  0.61466000  1.0
  C  C149  1  0.27400000  0.32315000  0.88543000  1.0
  C  C150  1  0.38031000  0.86305000  0.36623000  1.0
  C  C151  1  0.60986000  0.63695000  0.13363000  1.0
  C  C152  1  0.61970000  0.13696000  0.63377000  1.0
  C  C153  1  0.39015000  0.36305000  0.86637000  1.0
  C  C154  1  0.33238000  0.83836000  0.32121000  1.0
  C  C155  1  0.49215000  0.66144000  0.17868000  1.0
  C  C156  1  0.66762000  0.16164000  0.67879000  1.0
  C  C157  1  0.50785000  0.33856000  0.82132000  1.0
  C  C158  1  0.42212000  0.77291000  0.29576000  1.0
  C  C159  1  0.49079000  0.72682000  0.20426000  1.0
  C  C160  1  0.57788000  0.22709000  0.70424000  1.0
  C  C161  1  0.50921000  0.27318000  0.79574000  1.0
  C  C162  1  0.55524000  0.73024000  0.31649000  1.0
  C  C163  1  0.60154000  0.76976000  0.18351000  1.0
  C  C164  1  0.44476000  0.26976000  0.68351000  1.0
  C  C165  1  0.39846000  0.23025000  0.81649000  1.0
  C  C166  1  0.60280000  0.75605000  0.36073000  1.0
  C  C167  1  0.71922000  0.74415000  0.13925000  1.0
  C  C168  1  0.39720000  0.24395000  0.63927000  1.0
  C  C169  1  0.28078000  0.25585000  0.86076000  1.0
  C  C170  1  0.11848000  0.75694000  0.44773000  1.0
  C  C171  1  0.32404000  0.74288000  0.05223000  1.0
  C  C172  1  0.88152000  0.24306000  0.55227000  1.0
  C  C173  1  0.67597000  0.25712000  0.94777000  1.0
  C  C174  1  0.24335000  0.69397000  0.44582000  1.0
  C  C175  1  0.38368000  0.80598000  0.05414000  1.0
  C  C176  1  0.75665000  0.30603000  0.55418000  1.0
  C  C177  1  0.61633000  0.19402000  0.94585000  1.0
  C  C178  1  0.25274000  0.63696000  0.49294000  1.0
  C  C179  1  0.38263000  0.86309000  0.00708000  1.0
  C  C180  1  0.74726000  0.36304000  0.50706000  1.0
  C  C181  1  0.61737000  0.13691000  0.99291000  1.0
  C  C182  1  0.13469000  0.64700000  0.54047000  1.0
  C  C183  1  0.32205000  0.85303000  0.95959000  1.0
  C  C184  1  0.86531000  0.35299000  0.45953000  1.0
  C  C185  1  0.67795000  0.14697000  0.04041000  1.0
  C  C186  1  0.01371000  0.71142000  0.53915000  1.0
  C  C187  1  0.26438000  0.78852000  0.96091000  1.0
  C  C188  1  0.98629000  0.28857000  0.46085000  1.0
  C  C189  1  0.73562000  0.21148000  0.03909000  1.0
  C  C190  1  0.38130000  0.56760000  0.49453000  1.0
  C  C191  1  0.44329000  0.93248000  0.00547000  1.0
  C  C192  1  0.61870000  0.43240000  0.50547000  1.0
  C  C193  1  0.55672000  0.06752000  0.99453000  1.0
  C  C194  1  0.35783000  0.49541000  0.48717000  1.0
  C  C195  1  0.34038000  0.00466000  0.01289000  1.0
  C  C196  1  0.64216000  0.50459000  0.51282000  1.0
  C  C197  1  0.65962000  0.99534000  0.98711000  1.0
  C  C198  1  0.21898000  0.48835000  0.47215000  1.0
  C  C199  1  0.17942000  0.01177000  0.02792000  1.0
  C  C200  1  0.78102000  0.51165000  0.52785000  1.0
  C  C201  1  0.82058000  0.98823000  0.97208000  1.0
  C  C202  1  0.52195000  0.57363000  0.50678000  1.0
  C  C203  1  0.60221000  0.92636000  0.99311000  1.0
  C  C204  1  0.47805000  0.42637000  0.49322000  1.0
  C  C205  1  0.39779000  0.07363000  0.00688000  1.0
  C  C206  1  0.54918000  0.64589000  0.51449000  1.0
  C  C207  1  0.70918000  0.85408000  0.98536000  1.0
  C  C208  1  0.45082000  0.35411000  0.48551000  1.0
  C  C209  1  0.29082000  0.14592000  0.01464000  1.0
  C  C210  1  0.68453000  0.65024000  0.52882000  1.0
  C  C211  1  0.86320000  0.84966000  0.97100000  1.0
  C  C212  1  0.31546000  0.34976000  0.47118000  1.0
  C  C213  1  0.13680000  0.15034000  0.02899000  1.0
  C  C214  1  0.80082000  0.58207000  0.53607000  1.0
  C  C215  1  0.91881000  0.91778000  0.96383000  1.0
  C  C216  1  0.19918000  0.41793000  0.46392000  1.0
  C  C217  1  0.08119000  0.08222000  0.03617000  1.0
  N  N218  1  0.00501000  0.76540000  0.49349000  1.0
  N  N219  1  0.26452000  0.73444000  0.00652000  1.0
  N  N220  1  0.99499000  0.23460000  0.50651000  1.0
  N  N221  1  0.73548000  0.26556000  0.99348000  1.0
  O  O222  1  0.75525000  0.97539000  0.48279000  1.0
  O  O223  1  0.21333000  0.52464000  0.01719000  1.0
  O  O224  1  0.24475000  0.02461000  0.51721000  1.0
  O  O225  1  0.78666000  0.47536000  0.98281000  1.0
  O  O226  1  0.97453000  0.92495000  0.42899000  1.0
  O  O227  1  0.32846000  0.57498000  0.07103000  1.0
  O  O228  1  0.02547000  0.07506000  0.57101000  1.0
  O  O229  1  0.67154000  0.42501000  0.92897000  1.0
  O  O230  1  0.94148000  0.27794000  0.33688000  1.0
  O  O231  1  0.55588000  0.22213000  0.16305000  1.0
  O  O232  1  0.05851000  0.72206000  0.66312000  1.0
  O  O233  1  0.44412000  0.77787000  0.83695000  1.0
  O  O234  1  0.89084000  0.33053000  0.07008000  1.0
  O  O235  1  0.29154000  0.16982000  0.42995000  1.0
  O  O236  1  0.10916000  0.66947000  0.92992000  1.0
  O  O237  1  0.70846000  0.83018000  0.57005000  1.0
  O  O238  1  0.97774000  0.43540000  0.07878000  1.0
  O  O239  1  0.49189000  0.06496000  0.42124000  1.0
  O  O240  1  0.02226000  0.56460000  0.92122000  1.0
  O  O241  1  0.50812000  0.93504000  0.57876000  1.0
  O  O242  1  0.48838000  0.90800000  0.45681000  1.0
  O  O243  1  0.85337000  0.59241000  0.04301000  1.0
  O  O244  1  0.51163000  0.09200000  0.54319000  1.0
  O  O245  1  0.14663000  0.40759000  0.95699000  1.0
  O  O246  1  0.71577000  0.82232000  0.43544000  1.0
  O  O247  1  0.97356000  0.67813000  0.06446000  1.0
  O  O248  1  0.28423000  0.17768000  0.56456000  1.0
  O  O249  1  0.02644000  0.32188000  0.93553000  1.0
  O  O250  1  0.37547000  0.74969000  0.25008000  1.0
  O  O251  1  0.62453000  0.25031000  0.74992000  1.0
