# generated using pymatgen
data_CuH8C14IN2
_symmetry_space_group_name_H-M   'P 1'
_cell_length_a   4.07941000
_cell_length_b   7.61544244
_cell_length_c   19.02320000
_cell_angle_alpha   89.91099459
_cell_angle_beta   88.75180000
_cell_angle_gamma   74.72991533
_symmetry_Int_Tables_number   1
_chemical_formula_structural   CuH8C14IN2
_chemical_formula_sum   'Cu2 H16 C28 I2 N4'
_cell_volume   569.97915569
_cell_formula_units_Z   2
loop_
 _symmetry_equiv_pos_site_id
 _symmetry_equiv_pos_as_xyz
  1  'x, y, z'
loop_
 _atom_site_type_symbol
 _atom_site_label
 _atom_site_symmetry_multiplicity
 _atom_site_fract_x
 _atom_site_fract_y
 _atom_site_fract_z
 _atom_site_occupancy
  Cu  Cu0  1  0.42103000  0.15246000  0.74948000  1.0
  Cu  Cu1  1  0.57894000  0.84755000  0.25052000  1.0
  H  H2  1  0.53436000  0.50566000  0.70980000  1.0
  H  H3  1  0.03606000  0.49156000  0.20987000  1.0
  H  H4  1  0.46563000  0.49433000  0.29019000  1.0
  H  H5  1  0.96393000  0.50846000  0.79013000  1.0
  H  H6  1  0.22874000  0.10097000  0.60461000  1.0
  H  H7  1  0.33333000  0.89698000  0.10628000  1.0
  H  H8  1  0.77127000  0.89902000  0.39538000  1.0
  H  H9  1  0.66665000  0.10303000  0.89373000  1.0
  H  H10  1  0.70534000  0.76097000  0.64388000  1.0
  H  H11  1  0.46209000  0.23827000  0.14288000  1.0
  H  H12  1  0.29467000  0.23902000  0.35612000  1.0
  H  H13  1  0.53792000  0.76174000  0.85713000  1.0
  H  H14  1  0.20126000  0.09991000  0.46925000  1.0
  H  H15  1  0.30622000  0.89930000  0.97095000  1.0
  H  H16  1  0.79875000  0.90008000  0.53075000  1.0
  H  H17  1  0.69378000  0.10071000  0.02905000  1.0
  C  C18  1  0.48873000  0.45070000  0.65911000  1.0
  C  C19  1  0.93800000  0.54745000  0.15939000  1.0
  C  C20  1  0.51127000  0.54928000  0.34089000  1.0
  C  C21  1  0.06200000  0.45257000  0.84061000  1.0
  C  C22  1  0.53904000  0.53853000  0.59661000  1.0
  C  C23  1  0.07609000  0.46056000  0.09652000  1.0
  C  C24  1  0.46095000  0.46145000  0.40338000  1.0
  C  C25  1  0.92392000  0.53945000  0.90349000  1.0
  C  C26  1  0.47537000  0.45938000  0.53238000  1.0
  C  C27  1  0.93512000  0.54022000  0.03257000  1.0
  C  C28  1  0.52464000  0.54060000  0.46762000  1.0
  C  C29  1  0.06490000  0.45979000  0.96744000  1.0
  C  C30  1  0.36013000  0.29829000  0.53369000  1.0
  C  C31  1  0.66086000  0.70095000  0.03455000  1.0
  C  C32  1  0.63989000  0.70169000  0.46630000  1.0
  C  C33  1  0.33914000  0.29906000  0.96545000  1.0
  C  C34  1  0.31783000  0.22382000  0.59962000  1.0
  C  C35  1  0.54443000  0.77466000  0.10077000  1.0
  C  C36  1  0.68216000  0.77617000  0.40038000  1.0
  C  C37  1  0.45557000  0.22535000  0.89923000  1.0
  C  C38  1  0.65425000  0.70100000  0.59455000  1.0
  C  C39  1  0.35204000  0.29853000  0.09376000  1.0
  C  C40  1  0.34576000  0.29899000  0.40545000  1.0
  C  C41  1  0.64797000  0.70148000  0.90624000  1.0
  C  C42  1  0.29488000  0.22155000  0.46828000  1.0
  C  C43  1  0.52019000  0.77807000  0.96943000  1.0
  C  C44  1  0.70512000  0.77844000  0.53172000  1.0
  C  C45  1  0.47982000  0.22194000  0.03057000  1.0
  I  I46  1  0.03176000  0.92925000  0.74985000  1.0
  I  I47  1  0.96823000  0.07075000  0.25015000  1.0
  N  N48  1  0.38519000  0.29635000  0.66059000  1.0
  N  N49  1  0.68257000  0.70172000  0.16149000  1.0
  N  N50  1  0.61480000  0.70364000  0.33940000  1.0
  N  N51  1  0.31742000  0.29829000  0.83852000  1.0
