# generated using pymatgen
data_Zr6H29C50ClO42
_symmetry_space_group_name_H-M   'P 1'
_cell_length_a   14.78547631
_cell_length_b   14.78960000
_cell_length_c   14.79340000
_cell_angle_alpha   60.10870000
_cell_angle_beta   60.12556525
_cell_angle_gamma   90.08120211
_symmetry_Int_Tables_number   1
_chemical_formula_structural   Zr6H29C50ClO42
_chemical_formula_sum   'Zr6 H29 C50 Cl1 O42'
_cell_volume   2293.88060308
_cell_formula_units_Z   1
loop_
 _symmetry_equiv_pos_site_id
 _symmetry_equiv_pos_as_xyz
  1  'x, y, z'
loop_
 _atom_site_type_symbol
 _atom_site_label
 _atom_site_symmetry_multiplicity
 _atom_site_fract_x
 _atom_site_fract_y
 _atom_site_fract_z
 _atom_site_occupancy
  Zr  Zr0  1  0.38359000  0.88364000  0.49602000  1.0
  Zr  Zr1  1  0.61841000  0.11838000  0.50173000  1.0
  Zr  Zr2  1  0.38021000  0.88040000  0.73794000  1.0
  Zr  Zr3  1  0.62218000  0.12244000  0.25939000  1.0
  Zr  Zr4  1  0.62006000  0.88184000  0.49872000  1.0
  Zr  Zr5  1  0.38170000  0.12010000  0.49886000  1.0
  H  H6  1  0.40733000  0.71937000  0.68485000  1.0
  H  H7  1  0.78267000  0.09459000  0.31313000  1.0
  H  H8  1  0.40582000  0.09369000  0.68819000  1.0
  H  H9  1  0.40787000  0.09615000  0.30971000  1.0
  H  H10  1  0.64586000  0.58821000  0.49667000  1.0
  H  H11  1  0.35723000  0.41655000  0.49567000  1.0
  H  H12  1  0.08286000  0.14082000  0.50737000  1.0
  H  H13  1  0.91134000  0.85251000  0.50593000  1.0
  H  H14  1  0.91038000  0.14103000  0.94198000  1.0
  H  H15  1  0.08513000  0.85470000  0.05610000  1.0
  H  H16  1  0.64648000  0.41600000  0.94204000  1.0
  H  H17  1  0.35995000  0.59057000  0.05594000  1.0
  H  H18  1  0.08861000  0.59468000  0.05069000  1.0
  H  H19  1  0.03284000  0.62018000  0.70764000  1.0
  H  H20  1  0.11828000  0.53514000  0.70950000  1.0
  H  H21  1  0.94881000  0.36560000  0.88752000  1.0
  H  H22  1  0.86342000  0.45060000  0.88600000  1.0
  H  H23  1  0.36024000  0.85491000  0.22901000  1.0
  H  H24  1  0.64724000  0.14185000  0.76900000  1.0
  H  H25  1  0.65615000  0.35015000  0.49710000  1.0
  H  H26  1  0.34873000  0.65600000  0.49356000  1.0
  H  H27  1  0.84429000  0.15064000  0.50850000  1.0
  H  H28  1  0.15034000  0.84348000  0.50490000  1.0
  H  H29  1  0.14894000  0.15266000  0.69323000  1.0
  H  H30  1  0.84657000  0.84289000  0.30484000  1.0
  H  H31  1  0.65844000  0.65472000  0.69310000  1.0
  H  H32  1  0.34889000  0.35273000  0.30473000  1.0
  H  H33  1  0.34846000  0.84267000  0.00288000  1.0
  H  H34  1  0.65914000  0.15346000  0.99548000  1.0
  C  C35  1  0.50431000  0.69887000  0.49243000  1.0
  C  C36  1  0.80197000  0.99572000  0.50741000  1.0
  C  C37  1  0.50115000  0.30768000  0.49614000  1.0
  C  C38  1  0.19305000  0.99871000  0.50412000  1.0
  C  C39  1  0.19556000  0.70219000  0.79740000  1.0
  C  C40  1  0.50489000  0.99917000  0.19265000  1.0
  C  C41  1  0.80061000  0.30640000  0.20038000  1.0
  C  C42  1  0.50303000  0.99713000  0.80532000  1.0
  C  C43  1  0.50353000  0.69810000  0.80413000  1.0
  C  C44  1  0.19215000  0.99773000  0.80437000  1.0
  C  C45  1  0.50414000  0.30976000  0.19360000  1.0
  C  C46  1  0.80341000  0.99804000  0.19364000  1.0
  C  C47  1  0.50240000  0.40721000  0.49664000  1.0
  C  C48  1  0.50107000  0.59780000  0.49509000  1.0
  C  C49  1  0.58492000  0.45559000  0.49797000  1.0
  C  C50  1  0.41735000  0.54831000  0.49611000  1.0
  C  C51  1  0.58257000  0.55036000  0.49676000  1.0
  C  C52  1  0.42015000  0.45411000  0.49627000  1.0
  C  C53  1  0.90151000  0.99710000  0.50792000  1.0
  C  C54  1  0.09205000  0.99568000  0.50660000  1.0
  C  C55  1  0.95026000  0.08000000  0.50850000  1.0
  C  C56  1  0.04299000  0.91244000  0.50668000  1.0
  C  C57  1  0.04494000  0.07752000  0.50755000  1.0
  C  C58  1  0.94877000  0.91524000  0.50685000  1.0
  C  C59  1  0.09264000  0.99934000  0.90272000  1.0
  C  C60  1  0.90275000  0.99626000  0.09535000  1.0
  C  C61  1  0.04328000  0.08220000  0.86938000  1.0
  C  C62  1  0.95249000  0.91382000  0.12869000  1.0
  C  C63  1  0.94905000  0.07862000  0.96670000  1.0
  C  C64  1  0.04664000  0.91726000  0.03134000  1.0
  C  C65  1  0.50513000  0.59861000  0.90258000  1.0
  C  C66  1  0.50224000  0.40894000  0.09531000  1.0
  C  C67  1  0.58764000  0.54887000  0.86930000  1.0
  C  C68  1  0.41932000  0.45821000  0.12856000  1.0
  C  C69  1  0.58420000  0.45482000  0.96665000  1.0
  C  C70  1  0.42272000  0.55229000  0.03118000  1.0
  C  C71  1  0.09551000  0.60203000  0.89812000  1.0
  C  C72  1  0.90112000  0.40629000  0.10173000  1.0
  C  C73  1  0.04325000  0.54823000  0.87311000  1.0
  C  C74  1  0.95621000  0.46089000  0.12638000  1.0
  C  C75  1  0.94934000  0.45396000  0.97228000  1.0
  C  C76  1  0.04972000  0.55569000  0.02712000  1.0
  C  C77  1  0.04536000  0.54817000  0.76969000  1.0
  C  C78  1  0.93892000  0.44157000  0.88163000  1.0
  C  C79  1  0.50210000  0.99621000  0.90600000  1.0
  C  C80  1  0.50584000  0.00005000  0.09201000  1.0
  C  C81  1  0.41931000  0.91383000  0.03786000  1.0
  C  C82  1  0.58823000  0.08281000  0.96018000  1.0
  C  C83  1  0.42306000  0.91758000  0.12823000  1.0
  C  C84  1  0.58454000  0.07904000  0.86980000  1.0
  Cl  Cl85  1  0.91527000  0.41630000  0.27763000  1.0
  O  O86  1  0.42758000  0.74084000  0.49110000  1.0
  O  O87  1  0.76078000  0.07311000  0.50740000  1.0
  O  O88  1  0.57769000  0.26573000  0.49787000  1.0
  O  O89  1  0.23582000  0.92288000  0.50104000  1.0
  O  O90  1  0.23588000  0.74209000  0.83411000  1.0
  O  O91  1  0.58181000  0.07706000  0.15664000  1.0
  O  O92  1  0.76329000  0.26786000  0.16016000  1.0
  O  O93  1  0.42520000  0.92012000  0.84135000  1.0
  O  O94  1  0.58048000  0.73845000  0.68586000  1.0
  O  O95  1  0.23339000  0.07546000  0.68603000  1.0
  O  O96  1  0.42617000  0.26822000  0.31195000  1.0
  O  O97  1  0.76280000  0.92094000  0.31198000  1.0
  O  O98  1  0.23348000  0.92224000  0.83889000  1.0
  O  O99  1  0.58018000  0.26897000  0.15903000  1.0
  O  O100  1  0.76316000  0.07462000  0.15909000  1.0
  O  O101  1  0.42729000  0.73873000  0.83853000  1.0
  O  O102  1  0.23558000  0.74076000  0.68123000  1.0
  O  O103  1  0.57830000  0.07315000  0.68875000  1.0
  O  O104  1  0.75773000  0.26400000  0.31785000  1.0
  O  O105  1  0.42887000  0.92382000  0.30918000  1.0
  O  O106  1  0.23447000  0.07501000  0.50337000  1.0
  O  O107  1  0.58002000  0.73960000  0.49294000  1.0
  O  O108  1  0.76189000  0.92082000  0.50533000  1.0
  O  O109  1  0.42557000  0.26681000  0.49543000  1.0
  O  O110  1  0.43481000  0.06963000  0.36303000  1.0
  O  O111  1  0.43243000  0.06699000  0.63464000  1.0
  O  O112  1  0.70250000  0.06745000  0.36589000  1.0
  O  O113  1  0.43431000  0.79955000  0.63164000  1.0
  O  O114  1  0.54949000  0.95013000  0.59911000  1.0
  O  O115  1  0.55177000  0.95278000  0.39837000  1.0
  O  O116  1  0.55002000  0.14923000  0.40089000  1.0
  O  O117  1  0.35240000  0.95173000  0.59693000  1.0
  O  O118  1  0.66609000  0.41480000  0.50005000  1.0
  O  O119  1  0.33471000  0.58827000  0.49697000  1.0
  O  O120  1  0.90993000  0.16168000  0.50950000  1.0
  O  O121  1  0.08347000  0.83034000  0.50650000  1.0
  O  O122  1  0.08334000  0.16482000  0.74752000  1.0
  O  O123  1  0.91313000  0.83181000  0.25046000  1.0
  O  O124  1  0.66976000  0.58834000  0.74748000  1.0
  O  O125  1  0.33689000  0.41839000  0.25032000  1.0
  O  O126  1  0.33675000  0.83175000  0.08029000  1.0
  O  O127  1  0.67025000  0.16536000  0.91789000  1.0
