# generated using pymatgen
data_H14PbC14(BrN2)2
_symmetry_space_group_name_H-M   'P 1'
_cell_length_a   4.26683000
_cell_length_b   14.70820000
_cell_length_c   16.33602129
_cell_angle_alpha   64.59245052
_cell_angle_beta   89.99567121
_cell_angle_gamma   89.99440000
_symmetry_Int_Tables_number   1
_chemical_formula_structural   H14PbC14(BrN2)2
_chemical_formula_sum   'H28 Pb2 C28 Br4 N8'
_cell_volume   926.04684542
_cell_formula_units_Z   2
loop_
 _symmetry_equiv_pos_site_id
 _symmetry_equiv_pos_as_xyz
  1  'x, y, z'
loop_
 _atom_site_type_symbol
 _atom_site_label
 _atom_site_symmetry_multiplicity
 _atom_site_fract_x
 _atom_site_fract_y
 _atom_site_fract_z
 _atom_site_occupancy
  H  H0  1  0.12484000  0.24549000  0.11026000  1.0
  H  H1  1  0.12483000  0.75457000  0.38974000  1.0
  H  H2  1  0.87515000  0.75452000  0.88976000  1.0
  H  H3  1  0.87517000  0.24546000  0.61025000  1.0
  H  H4  1  0.15041000  0.38489000  0.95290000  1.0
  H  H5  1  0.15050000  0.61514000  0.54710000  1.0
  H  H6  1  0.84955000  0.61513000  0.04712000  1.0
  H  H7  1  0.84950000  0.38487000  0.45289000  1.0
  H  H8  1  0.71871000  0.18752000  0.87932000  1.0
  H  H9  1  0.71877000  0.81247000  0.62069000  1.0
  H  H10  1  0.28115000  0.81250000  0.12067000  1.0
  H  H11  1  0.28103000  0.18756000  0.37933000  1.0
  H  H12  1  0.67253000  0.05910000  0.03781000  1.0
  H  H13  1  0.67259000  0.94091000  0.46219000  1.0
  H  H14  1  0.32745000  0.94094000  0.96217000  1.0
  H  H15  1  0.32741000  0.05911000  0.53781000  1.0
  H  H16  1  0.50850000  0.40635000  0.66951000  1.0
  H  H17  1  0.50850000  0.59367000  0.83048000  1.0
  H  H18  1  0.49149000  0.59368000  0.33048000  1.0
  H  H19  1  0.49149000  0.40632000  0.16953000  1.0
  H  H20  1  0.61761000  0.28084000  0.74727000  1.0
  H  H21  1  0.61757000  0.71917000  0.75273000  1.0
  H  H22  1  0.38240000  0.71919000  0.25273000  1.0
  H  H23  1  0.38234000  0.28083000  0.24728000  1.0
  H  H24  1  0.86517000  0.38495000  0.72973000  1.0
  H  H25  1  0.86520000  0.61506000  0.77027000  1.0
  H  H26  1  0.13479000  0.61508000  0.27027000  1.0
  H  H27  1  0.13477000  0.38497000  0.22972000  1.0
  Pb  Pb28  1  0.37555000  0.99996000  0.25006000  1.0
  Pb  Pb29  1  0.62537000  0.99985000  0.74991000  1.0
  C  C30  1  0.25490000  0.23664000  0.05646000  1.0
  C  C31  1  0.25492000  0.76339000  0.44354000  1.0
  C  C32  1  0.74510000  0.76338000  0.94355000  1.0
  C  C33  1  0.74509000  0.23661000  0.55646000  1.0
  C  C34  1  0.26809000  0.31342000  0.96931000  1.0
  C  C35  1  0.26817000  0.68661000  0.53069000  1.0
  C  C36  1  0.73187000  0.68660000  0.03071000  1.0
  C  C37  1  0.73182000  0.31340000  0.46931000  1.0
  C  C38  1  0.43330000  0.29824000  0.90154000  1.0
  C  C39  1  0.43338000  0.70178000  0.59846000  1.0
  C  C40  1  0.56662000  0.70179000  0.09846000  1.0
  C  C41  1  0.56657000  0.29823000  0.40155000  1.0
  C  C42  1  0.58187000  0.20491000  0.92709000  1.0
  C  C43  1  0.58195000  0.79510000  0.57291000  1.0
  C  C44  1  0.41804000  0.79512000  0.07290000  1.0
  C  C45  1  0.41795000  0.20491000  0.42710000  1.0
  C  C46  1  0.55720000  0.13217000  0.01620000  1.0
  C  C47  1  0.55727000  0.86785000  0.48380000  1.0
  C  C48  1  0.44277000  0.86787000  0.98379000  1.0
  C  C49  1  0.44271000  0.13217000  0.51620000  1.0
  C  C50  1  0.45356000  0.37754000  0.80783000  1.0
  C  C51  1  0.45361000  0.62247000  0.69217000  1.0
  C  C52  1  0.54634000  0.62247000  0.19217000  1.0
  C  C53  1  0.54631000  0.37754000  0.30783000  1.0
  C  C54  1  0.61998000  0.36010000  0.73501000  1.0
  C  C55  1  0.62000000  0.63991000  0.76499000  1.0
  C  C56  1  0.37999000  0.63993000  0.26499000  1.0
  C  C57  1  0.37995000  0.36008000  0.23502000  1.0
  Br  Br58  1  0.87973000  0.11610000  0.29533000  1.0
  Br  Br59  1  0.87978000  0.88382000  0.20477000  1.0
  Br  Br60  1  0.12068000  0.88368000  0.70468000  1.0
  Br  Br61  1  0.12044000  0.11599000  0.79523000  1.0
  N  N62  1  0.39645000  0.14688000  0.08013000  1.0
  N  N63  1  0.39648000  0.85315000  0.41988000  1.0
  N  N64  1  0.60358000  0.85314000  0.91988000  1.0
  N  N65  1  0.60358000  0.14685000  0.58012000  1.0
  N  N66  1  0.32543000  0.46366000  0.79251000  1.0
  N  N67  1  0.32545000  0.53637000  0.70748000  1.0
  N  N68  1  0.67439000  0.53635000  0.20748000  1.0
  N  N69  1  0.67440000  0.46364000  0.29252000  1.0
