# generated using pymatgen
data_NaH6PbC6NO6
_symmetry_space_group_name_H-M   'P 1'
_cell_length_a   9.83192000
_cell_length_b   9.83185000
_cell_length_c   9.83207000
_cell_angle_alpha   90.00130000
_cell_angle_beta   89.99950000
_cell_angle_gamma   89.99850000
_symmetry_Int_Tables_number   1
_chemical_formula_structural   NaH6PbC6NO6
_chemical_formula_sum   'Na4 H24 Pb4 C24 N4 O24'
_cell_volume   950.42651081
_cell_formula_units_Z   4
loop_
 _symmetry_equiv_pos_site_id
 _symmetry_equiv_pos_as_xyz
  1  'x, y, z'
loop_
 _atom_site_type_symbol
 _atom_site_label
 _atom_site_symmetry_multiplicity
 _atom_site_fract_x
 _atom_site_fract_y
 _atom_site_fract_z
 _atom_site_occupancy
  Na  Na0  1  0.32061000  0.32062000  0.32062000  1.0
  Na  Na1  1  0.67938000  0.17939000  0.82062000  1.0
  Na  Na2  1  0.82061000  0.67938000  0.17938000  1.0
  Na  Na3  1  0.17938000  0.82061000  0.67938000  1.0
  H  H4  1  0.16758000  0.17404000  0.97215000  1.0
  H  H5  1  0.83243000  0.32597000  0.47215000  1.0
  H  H6  1  0.66758000  0.82596000  0.52785000  1.0
  H  H7  1  0.33244000  0.67403000  0.02785000  1.0
  H  H8  1  0.17404000  0.97214000  0.16757000  1.0
  H  H9  1  0.32596000  0.47214000  0.83243000  1.0
  H  H10  1  0.82596000  0.52786000  0.66757000  1.0
  H  H11  1  0.67404000  0.02785000  0.33243000  1.0
  H  H12  1  0.97214000  0.16757000  0.17404000  1.0
  H  H13  1  0.47215000  0.83243000  0.32597000  1.0
  H  H14  1  0.52785000  0.66756000  0.82598000  1.0
  H  H15  1  0.02785000  0.33243000  0.67404000  1.0
  H  H16  1  0.17554000  0.34615000  0.02534000  1.0
  H  H17  1  0.82445000  0.15386000  0.52534000  1.0
  H  H18  1  0.67554000  0.65385000  0.47466000  1.0
  H  H19  1  0.32445000  0.84614000  0.97467000  1.0
  H  H20  1  0.34614000  0.02534000  0.17554000  1.0
  H  H21  1  0.15386000  0.52533000  0.82446000  1.0
  H  H22  1  0.65386000  0.47467000  0.67555000  1.0
  H  H23  1  0.84614000  0.97466000  0.32446000  1.0
  H  H24  1  0.02534000  0.17555000  0.34614000  1.0
  H  H25  1  0.52534000  0.82446000  0.15385000  1.0
  H  H26  1  0.47466000  0.67556000  0.65386000  1.0
  H  H27  1  0.97466000  0.32445000  0.84614000  1.0
  Pb  Pb28  1  0.65687000  0.34313000  0.15686000  1.0
  Pb  Pb29  1  0.34311000  0.15690000  0.65689000  1.0
  Pb  Pb30  1  0.15686000  0.65685000  0.34315000  1.0
  Pb  Pb31  1  0.84312000  0.84313000  0.84312000  1.0
  C  C32  1  0.21731000  0.27225000  0.95195000  1.0
  C  C33  1  0.78269000  0.22775000  0.45194000  1.0
  C  C34  1  0.71732000  0.72774000  0.54806000  1.0
  C  C35  1  0.28269000  0.77225000  0.04805000  1.0
  C  C36  1  0.27226000  0.95195000  0.21731000  1.0
  C  C37  1  0.22775000  0.45195000  0.78268000  1.0
  C  C38  1  0.72774000  0.54805000  0.71732000  1.0
  C  C39  1  0.77225000  0.04805000  0.28268000  1.0
  C  C40  1  0.95195000  0.21732000  0.27225000  1.0
  C  C41  1  0.45195000  0.78269000  0.22775000  1.0
  C  C42  1  0.54806000  0.71731000  0.72775000  1.0
  C  C43  1  0.04806000  0.28269000  0.77225000  1.0
  C  C44  1  0.36918000  0.25224000  0.98129000  1.0
  C  C45  1  0.63082000  0.24772000  0.48128000  1.0
  C  C46  1  0.86918000  0.74776000  0.51870000  1.0
  C  C47  1  0.13081000  0.75229000  0.01872000  1.0
  C  C48  1  0.25227000  0.98129000  0.36919000  1.0
  C  C49  1  0.24773000  0.48129000  0.63082000  1.0
  C  C50  1  0.74772000  0.51871000  0.86918000  1.0
  C  C51  1  0.75225000  0.01871000  0.13082000  1.0
  C  C52  1  0.98129000  0.36919000  0.25228000  1.0
  C  C53  1  0.48129000  0.63082000  0.24774000  1.0
  C  C54  1  0.51871000  0.86918000  0.74770000  1.0
  C  C55  1  0.01871000  0.13082000  0.75227000  1.0
  N  N56  1  0.18973000  0.31027000  0.81027000  1.0
  N  N57  1  0.81027000  0.18972000  0.31028000  1.0
  N  N58  1  0.68973000  0.68973000  0.68973000  1.0
  N  N59  1  0.31029000  0.81029000  0.18971000  1.0
  O  O60  1  0.40370000  0.25104000  0.10535000  1.0
  O  O61  1  0.59630000  0.24896000  0.60536000  1.0
  O  O62  1  0.90370000  0.74896000  0.39464000  1.0
  O  O63  1  0.09630000  0.75103000  0.89463000  1.0
  O  O64  1  0.25104000  0.10536000  0.40370000  1.0
  O  O65  1  0.24897000  0.60536000  0.59630000  1.0
  O  O66  1  0.74896000  0.39464000  0.90370000  1.0
  O  O67  1  0.75104000  0.89463000  0.09630000  1.0
  O  O68  1  0.10536000  0.40369000  0.25103000  1.0
  O  O69  1  0.60536000  0.59630000  0.24896000  1.0
  O  O70  1  0.39464000  0.90369000  0.74897000  1.0
  O  O71  1  0.89463000  0.09630000  0.75104000  1.0
  O  O72  1  0.45000000  0.23668000  0.88130000  1.0
  O  O73  1  0.55000000  0.26332000  0.38131000  1.0
  O  O74  1  0.95000000  0.76332000  0.61869000  1.0
  O  O75  1  0.05000000  0.73667000  0.11869000  1.0
  O  O76  1  0.23668000  0.88131000  0.45000000  1.0
  O  O77  1  0.26333000  0.38131000  0.55000000  1.0
  O  O78  1  0.76333000  0.61869000  0.95000000  1.0
  O  O79  1  0.73668000  0.11869000  0.05000000  1.0
  O  O80  1  0.88131000  0.44999000  0.23667000  1.0
  O  O81  1  0.38131000  0.54999000  0.26332000  1.0
  O  O82  1  0.61869000  0.94999000  0.76333000  1.0
  O  O83  1  0.11870000  0.05001000  0.73668000  1.0
