# generated using pymatgen
data_CdH14C19S2NO2
_symmetry_space_group_name_H-M   'P 1'
_cell_length_a   8.83154000
_cell_length_b   9.76470000
_cell_length_c   11.50470000
_cell_angle_alpha   107.14500000
_cell_angle_beta   103.64200000
_cell_angle_gamma   100.56000000
_symmetry_Int_Tables_number   1
_chemical_formula_structural   CdH14C19S2NO2
_chemical_formula_sum   'Cd2 H28 C38 S4 N2 O4'
_cell_volume   886.50488998
_cell_formula_units_Z   2
loop_
 _symmetry_equiv_pos_site_id
 _symmetry_equiv_pos_as_xyz
  1  'x, y, z'
loop_
 _atom_site_type_symbol
 _atom_site_label
 _atom_site_symmetry_multiplicity
 _atom_site_fract_x
 _atom_site_fract_y
 _atom_site_fract_z
 _atom_site_occupancy
  Cd  Cd0  1  0.39005000  0.59408000  0.59947000  1.0
  Cd  Cd1  1  0.60995000  0.40592000  0.40053000  1.0
  H  H2  1  0.04019000  0.58115000  0.40781000  1.0
  H  H3  1  0.95981000  0.41885000  0.59219000  1.0
  H  H4  1  0.87696000  0.74603000  0.36195000  1.0
  H  H5  1  0.12304000  0.25397000  0.63804000  1.0
  H  H6  1  0.24992000  0.11319000  0.66684000  1.0
  H  H7  1  0.75008000  0.88681000  0.33316000  1.0
  H  H8  1  0.40039000  0.92936000  0.69876000  1.0
  H  H9  1  0.59961000  0.07063000  0.30124000  1.0
  H  H10  1  0.51724000  0.82914000  0.08701000  1.0
  H  H11  1  0.48277000  0.17086000  0.91299000  1.0
  H  H12  1  0.47834000  0.82390000  0.29496000  1.0
  H  H13  1  0.52166000  0.17611000  0.70504000  1.0
  H  H14  1  0.27533000  0.61315000  0.29747000  1.0
  H  H15  1  0.72466000  0.38686000  0.70253000  1.0
  H  H16  1  0.10540000  0.41152000  0.09509000  1.0
  H  H17  1  0.89459000  0.58848000  0.90490000  1.0
  H  H18  1  0.14072000  0.41967000  0.88690000  1.0
  H  H19  1  0.85928000  0.58033000  0.11309000  1.0
  H  H20  1  0.93923000  0.27436000  0.21792000  1.0
  H  H21  1  0.06076000  0.72564000  0.78209000  1.0
  H  H22  1  0.74930000  0.04060000  0.04808000  1.0
  H  H23  1  0.25070000  0.95939000  0.95193000  1.0
  H  H24  1  0.82110000  0.80216000  0.01596000  1.0
  H  H25  1  0.17891000  0.19784000  0.98404000  1.0
  H  H26  1  0.08678000  0.79488000  0.14917000  1.0
  H  H27  1  0.91323000  0.20512000  0.85084000  1.0
  H  H28  1  0.27293000  0.02701000  0.31973000  1.0
  H  H29  1  0.72707000  0.97299000  0.68028000  1.0
  C  C30  1  0.08336000  0.69986000  0.46303000  1.0
  C  C31  1  0.91664000  0.30014000  0.53696000  1.0
  C  C32  1  0.99182000  0.79513000  0.43805000  1.0
  C  C33  1  0.00817000  0.20487000  0.56195000  1.0
  C  C34  1  0.04777000  0.94778000  0.51084000  1.0
  C  C35  1  0.95223000  0.05221000  0.48916000  1.0
  C  C36  1  0.19859000  0.99672000  0.60600000  1.0
  C  C37  1  0.80140000  0.00328000  0.39400000  1.0
  C  C38  1  0.28384000  0.89482000  0.62439000  1.0
  C  C39  1  0.71616000  0.10518000  0.37561000  1.0
  C  C40  1  0.34857000  0.61967000  0.84785000  1.0
  C  C41  1  0.65143000  0.38033000  0.15215000  1.0
  C  C42  1  0.21995000  0.30567000  0.38143000  1.0
  C  C43  1  0.78005000  0.69433000  0.61857000  1.0
  C  C44  1  0.33135000  0.62374000  0.97452000  1.0
  C  C45  1  0.66866000  0.37626000  0.02548000  1.0
  C  C46  1  0.42702000  0.73833000  0.08974000  1.0
  C  C47  1  0.57298000  0.26167000  0.91026000  1.0
  C  C48  1  0.40540000  0.73513000  0.20517000  1.0
  C  C49  1  0.59460000  0.26487000  0.79483000  1.0
  C  C50  1  0.29054000  0.61727000  0.20727000  1.0
  C  C51  1  0.70945000  0.38273000  0.79273000  1.0
  C  C52  1  0.19503000  0.50309000  0.09306000  1.0
  C  C53  1  0.80497000  0.49691000  0.90694000  1.0
  C  C54  1  0.21438000  0.50694000  0.97733000  1.0
  C  C55  1  0.78562000  0.49306000  0.02268000  1.0
  C  C56  1  0.11740000  0.16484000  0.27873000  1.0
  C  C57  1  0.88260000  0.83516000  0.72128000  1.0
  C  C58  1  0.96990000  0.16854000  0.20107000  1.0
  C  C59  1  0.03010000  0.83146000  0.79893000  1.0
  C  C60  1  0.86431000  0.03814000  0.10745000  1.0
  C  C61  1  0.13569000  0.96186000  0.89255000  1.0
  C  C62  1  0.90548000  0.90342000  0.08949000  1.0
  C  C63  1  0.09452000  0.09658000  0.91051000  1.0
  C  C64  1  0.05315000  0.89936000  0.16442000  1.0
  C  C65  1  0.94685000  0.10064000  0.83558000  1.0
  C  C66  1  0.15863000  0.02937000  0.25933000  1.0
  C  C67  1  0.84138000  0.97063000  0.74067000  1.0
  S  S68  1  0.51621000  0.73751000  0.84099000  1.0
  S  S69  1  0.48379000  0.26250000  0.15901000  1.0
  S  S70  1  0.38624000  0.30674000  0.50229000  1.0
  S  S71  1  0.61376000  0.69326000  0.49771000  1.0
  N  N72  1  0.22796000  0.74846000  0.55451000  1.0
  N  N73  1  0.77204000  0.25154000  0.44549000  1.0
  O  O74  1  0.24150000  0.52828000  0.74757000  1.0
  O  O75  1  0.75851000  0.47172000  0.25243000  1.0
  O  O76  1  0.18490000  0.42517000  0.38646000  1.0
  O  O77  1  0.81510000  0.57482000  0.61354000  1.0
