# generated using pymatgen
data_CdH3C7NO4
_symmetry_space_group_name_H-M   'P 1'
_cell_length_a   6.71726000
_cell_length_b   9.56326000
_cell_length_c   11.21330000
_cell_angle_alpha   89.99960000
_cell_angle_beta   76.55600000
_cell_angle_gamma   89.99970000
_symmetry_Int_Tables_number   1
_chemical_formula_structural   CdH3C7NO4
_chemical_formula_sum   'Cd4 H12 C28 N4 O16'
_cell_volume   700.59134285
_cell_formula_units_Z   4
loop_
 _symmetry_equiv_pos_site_id
 _symmetry_equiv_pos_as_xyz
  1  'x, y, z'
loop_
 _atom_site_type_symbol
 _atom_site_label
 _atom_site_symmetry_multiplicity
 _atom_site_fract_x
 _atom_site_fract_y
 _atom_site_fract_z
 _atom_site_occupancy
  Cd  Cd0  1  0.18810000  0.14465000  0.02223000  1.0
  Cd  Cd1  1  0.31189000  0.64465000  0.47777000  1.0
  Cd  Cd2  1  0.81190000  0.85535000  0.97777000  1.0
  Cd  Cd3  1  0.68811000  0.35535000  0.52223000  1.0
  H  H4  1  0.44919000  0.61866000  0.80843000  1.0
  H  H5  1  0.05078000  0.11866000  0.69156000  1.0
  H  H6  1  0.55081000  0.38134000  0.19157000  1.0
  H  H7  1  0.94920000  0.88134000  0.30843000  1.0
  H  H8  1  0.10651000  0.68922000  0.18095000  1.0
  H  H9  1  0.39352000  0.18923000  0.31905000  1.0
  H  H10  1  0.89349000  0.31077000  0.81905000  1.0
  H  H11  1  0.60649000  0.81077000  0.68095000  1.0
  H  H12  1  0.05456000  0.43054000  0.20106000  1.0
  H  H13  1  0.44544000  0.93054000  0.29893000  1.0
  H  H14  1  0.94544000  0.56946000  0.79894000  1.0
  H  H15  1  0.55456000  0.06946000  0.70107000  1.0
  C  C16  1  0.40039000  0.33814000  0.81150000  1.0
  C  C17  1  0.09962000  0.83814000  0.68851000  1.0
  C  C18  1  0.59961000  0.66186000  0.18850000  1.0
  C  C19  1  0.90038000  0.16186000  0.31149000  1.0
  C  C20  1  0.32049000  0.44049000  0.91470000  1.0
  C  C21  1  0.17951000  0.94049000  0.58529000  1.0
  C  C22  1  0.67951000  0.55951000  0.08530000  1.0
  C  C23  1  0.82049000  0.05951000  0.41471000  1.0
  C  C24  1  0.36040000  0.58262000  0.89677000  1.0
  C  C25  1  0.13958000  0.08262000  0.60323000  1.0
  C  C26  1  0.63959000  0.41738000  0.10324000  1.0
  C  C27  1  0.86041000  0.91738000  0.39677000  1.0
  C  C28  1  0.28125000  0.67543000  0.99208000  1.0
  C  C29  1  0.21875000  0.17543000  0.50792000  1.0
  C  C30  1  0.71875000  0.32457000  0.00792000  1.0
  C  C31  1  0.78125000  0.82457000  0.49208000  1.0
  C  C32  1  0.16967000  0.62145000  0.10341000  1.0
  C  C33  1  0.33034000  0.12146000  0.39660000  1.0
  C  C34  1  0.83034000  0.37855000  0.89660000  1.0
  C  C35  1  0.66966000  0.87854000  0.60340000  1.0
  C  C36  1  0.14053000  0.47724000  0.11561000  1.0
  C  C37  1  0.35947000  0.97724000  0.38438000  1.0
  C  C38  1  0.85947000  0.52276000  0.88439000  1.0
  C  C39  1  0.64053000  0.02276000  0.61561000  1.0
  C  C40  1  0.31606000  0.82995000  0.97233000  1.0
  C  C41  1  0.18394000  0.32995000  0.52767000  1.0
  C  C42  1  0.68394000  0.17005000  0.02767000  1.0
  C  C43  1  0.81606000  0.67005000  0.47233000  1.0
  N  N44  1  0.21179000  0.38923000  0.02222000  1.0
  N  N45  1  0.28821000  0.88922000  0.47778000  1.0
  N  N46  1  0.78821000  0.61077000  0.97778000  1.0
  N  N47  1  0.71179000  0.11077000  0.52223000  1.0
  O  O48  1  0.34920000  0.21008000  0.82594000  1.0
  O  O49  1  0.15084000  0.71008000  0.67407000  1.0
  O  O50  1  0.65080000  0.78992000  0.17406000  1.0
  O  O51  1  0.84916000  0.28992000  0.32593000  1.0
  O  O52  1  0.51585000  0.39163000  0.71747000  1.0
  O  O53  1  0.98417000  0.89163000  0.78253000  1.0
  O  O54  1  0.48416000  0.60837000  0.28253000  1.0
  O  O55  1  0.01582000  0.10837000  0.21747000  1.0
  O  O56  1  0.48946000  0.87395000  0.91752000  1.0
  O  O57  1  0.01056000  0.37395000  0.58248000  1.0
  O  O58  1  0.51055000  0.12605000  0.08249000  1.0
  O  O59  1  0.98945000  0.62606000  0.41751000  1.0
  O  O60  1  0.15788000  0.90703000  0.01304000  1.0
  O  O61  1  0.34214000  0.40703000  0.48696000  1.0
  O  O62  1  0.84212000  0.09297000  0.98696000  1.0
  O  O63  1  0.65787000  0.59296000  0.51304000  1.0
