# generated using pymatgen
data_Zn2H20C30N4O13
_symmetry_space_group_name_H-M   'P 1'
_cell_length_a   10.95930000
_cell_length_b   11.69920000
_cell_length_c   12.20290000
_cell_angle_alpha   77.05400000
_cell_angle_beta   88.10100000
_cell_angle_gamma   74.72990000
_symmetry_Int_Tables_number   1
_chemical_formula_structural   Zn2H20C30N4O13
_chemical_formula_sum   'Zn4 H40 C60 N8 O26'
_cell_volume   1470.43511478
_cell_formula_units_Z   2
loop_
 _symmetry_equiv_pos_site_id
 _symmetry_equiv_pos_as_xyz
  1  'x, y, z'
loop_
 _atom_site_type_symbol
 _atom_site_label
 _atom_site_symmetry_multiplicity
 _atom_site_fract_x
 _atom_site_fract_y
 _atom_site_fract_z
 _atom_site_occupancy
  Zn  Zn0  1  0.49740000  0.24382000  0.01878000  1.0
  Zn  Zn1  1  0.50260000  0.75619000  0.98122000  1.0
  Zn  Zn2  1  0.54795000  0.44720000  0.13103000  1.0
  Zn  Zn3  1  0.45205000  0.55280000  0.86896000  1.0
  H  H4  1  0.07209000  0.73453000  0.03092000  1.0
  H  H5  1  0.92791000  0.26547000  0.96908000  1.0
  H  H6  1  0.65096000  0.36946000  0.96454000  1.0
  H  H7  1  0.34904000  0.63054000  0.03546000  1.0
  H  H8  1  0.29406000  0.27241000  0.85514000  1.0
  H  H9  1  0.70594000  0.72759000  0.14486000  1.0
  H  H10  1  0.26194000  0.17889000  0.69660000  1.0
  H  H11  1  0.73806000  0.82110000  0.30340000  1.0
  H  H12  1  0.63974000  0.94096000  0.77337000  1.0
  H  H13  1  0.36027000  0.05904000  0.22664000  1.0
  H  H14  1  0.65637000  0.04675000  0.92449000  1.0
  H  H15  1  0.34363000  0.95325000  0.07551000  1.0
  H  H16  1  0.34054000  0.02913000  0.58362000  1.0
  H  H17  1  0.65946000  0.97087000  0.41638000  1.0
  H  H18  1  0.58542000  0.83422000  0.67784000  1.0
  H  H19  1  0.41458000  0.16578000  0.32216000  1.0
  H  H20  1  0.39389000  0.85921000  0.48738000  1.0
  H  H21  1  0.60611000  0.14079000  0.51263000  1.0
  H  H22  1  0.64178000  0.67119000  0.58519000  1.0
  H  H23  1  0.35822000  0.32882000  0.41481000  1.0
  H  H24  1  0.35837000  0.74940000  0.37706000  1.0
  H  H25  1  0.64163000  0.25060000  0.62294000  1.0
  H  H26  1  0.35952000  0.63510000  0.23059000  1.0
  H  H27  1  0.64048000  0.36490000  0.76941000  1.0
  H  H28  1  0.70841000  0.39952000  0.34147000  1.0
  H  H29  1  0.29159000  0.60048000  0.65853000  1.0
  H  H30  1  0.72652000  0.50868000  0.49136000  1.0
  H  H31  1  0.27348000  0.49132000  0.50864000  1.0
  H  H32  1  0.84381000  0.97843000  0.09815000  1.0
  H  H33  1  0.15620000  0.02158000  0.90185000  1.0
  H  H34  1  0.18860000  0.91358000  0.28911000  1.0
  H  H35  1  0.81140000  0.08642000  0.71089000  1.0
  H  H36  1  0.86136000  0.19847000  0.33322000  1.0
  H  H37  1  0.13863000  0.80153000  0.66678000  1.0
  H  H38  1  0.22551000  0.48812000  0.29035000  1.0
  H  H39  1  0.77449000  0.51189000  0.70964000  1.0
  H  H40  1  0.82311000  0.55299000  0.24637000  1.0
  H  H41  1  0.17689000  0.44701000  0.75363000  1.0
  H  H42  1  0.07959000  0.32346000  0.06028000  1.0
  H  H43  1  0.92041000  0.67655000  0.93972000  1.0
  C  C44  1  0.36737000  0.19869000  0.83294000  1.0
  C  C45  1  0.63263000  0.80131000  0.16706000  1.0
  C  C46  1  0.35044000  0.14581000  0.74580000  1.0
  C  C47  1  0.64956000  0.85419000  0.25420000  1.0
  C  C48  1  0.44688000  0.04850000  0.72238000  1.0
  C  C49  1  0.55312000  0.95150000  0.27762000  1.0
  C  C50  1  0.56000000  0.01365000  0.78764000  1.0
  C  C51  1  0.44001000  0.98635000  0.21236000  1.0
  C  C52  1  0.57046000  0.07147000  0.87255000  1.0
  C  C53  1  0.42954000  0.92853000  0.12745000  1.0
  C  C54  1  0.42583000  0.98711000  0.63698000  1.0
  C  C55  1  0.57418000  0.01289000  0.36302000  1.0
  C  C56  1  0.50155000  0.87892000  0.62342000  1.0
  C  C57  1  0.49845000  0.12108000  0.37658000  1.0
  C  C58  1  0.47839000  0.81662000  0.54154000  1.0
  C  C59  1  0.52161000  0.18338000  0.45846000  1.0
  C  C60  1  0.55809000  0.70948000  0.52943000  1.0
  C  C61  1  0.44191000  0.29052000  0.47057000  1.0
  C  C62  1  0.54530000  0.64219000  0.44646000  1.0
  C  C63  1  0.45470000  0.35781000  0.55354000  1.0
  C  C64  1  0.43956000  0.67360000  0.37253000  1.0
  C  C65  1  0.56044000  0.32640000  0.62747000  1.0
  C  C66  1  0.43867000  0.60871000  0.29065000  1.0
  C  C67  1  0.56133000  0.39130000  0.70934000  1.0
  C  C68  1  0.63419000  0.47867000  0.35226000  1.0
  C  C69  1  0.36581000  0.52133000  0.64774000  1.0
  C  C70  1  0.64282000  0.53938000  0.43596000  1.0
  C  C71  1  0.35717000  0.46062000  0.56404000  1.0
  C  C72  1  0.83911000  0.09641000  0.21141000  1.0
  C  C73  1  0.16089000  0.90359000  0.78859000  1.0
  C  C74  1  0.89702000  0.00007000  0.16083000  1.0
  C  C75  1  0.10298000  0.99993000  0.83917000  1.0
  C  C76  1  0.02278000  0.93424000  0.18831000  1.0
  C  C77  1  0.97722000  0.06576000  0.81169000  1.0
  C  C78  1  0.09057000  0.96354000  0.26825000  1.0
  C  C79  1  0.90943000  0.03646000  0.73175000  1.0
  C  C80  1  0.03001000  0.05674000  0.32033000  1.0
  C  C81  1  0.96999000  0.94325000  0.67967000  1.0
  C  C82  1  0.90559000  0.12425000  0.29305000  1.0
  C  C83  1  0.09441000  0.87574000  0.70695000  1.0
  C  C84  1  0.70811000  0.17447000  0.17474000  1.0
  C  C85  1  0.29189000  0.82553000  0.82526000  1.0
  C  C86  1  0.09121000  0.83460000  0.13256000  1.0
  C  C87  1  0.90878000  0.16540000  0.86743000  1.0
  C  C88  1  0.16562000  0.39738000  0.17470000  1.0
  C  C89  1  0.83438000  0.60263000  0.82530000  1.0
  C  C90  1  0.14555000  0.47070000  0.25304000  1.0
  C  C91  1  0.85445000  0.52930000  0.74696000  1.0
  C  C92  1  0.02251000  0.52324000  0.27932000  1.0
  C  C93  1  0.97749000  0.47677000  0.72068000  1.0
  C  C94  1  0.91879000  0.50883000  0.22656000  1.0
  C  C95  1  0.08122000  0.49118000  0.77344000  1.0
  C  C96  1  0.93843000  0.43767000  0.14620000  1.0
  C  C97  1  0.06157000  0.56233000  0.85380000  1.0
  C  C98  1  0.06237000  0.37943000  0.12245000  1.0
  C  C99  1  0.93763000  0.62057000  0.87755000  1.0
  C  C100  1  0.29999000  0.35051000  0.14277000  1.0
  C  C101  1  0.70002000  0.64949000  0.85723000  1.0
  C  C102  1  0.82309000  0.43028000  0.08618000  1.0
  C  C103  1  0.17691000  0.56972000  0.91382000  1.0
  N  N104  1  0.47541000  0.16212000  0.89611000  1.0
  N  N105  1  0.52459000  0.83788000  0.10389000  1.0
  N  N106  1  0.53520000  0.51354000  0.27886000  1.0
  N  N107  1  0.46480000  0.48646000  0.72113000  1.0
  N  N108  1  0.09980000  0.08569000  0.40679000  1.0
  N  N109  1  0.90020000  0.91430000  0.59321000  1.0
  N  N110  1  0.00198000  0.59948000  0.36275000  1.0
  N  N111  1  0.99802000  0.40052000  0.63725000  1.0
  O  O112  1  0.64944000  0.13657000  0.10685000  1.0
  O  O113  1  0.35056000  0.86343000  0.89315000  1.0
  O  O114  1  0.66797000  0.26956000  0.21176000  1.0
  O  O115  1  0.33203000  0.73044000  0.78824000  1.0
  O  O116  1  0.03932000  0.15367000  0.46564000  1.0
  O  O117  1  0.96068000  0.84632000  0.53436000  1.0
  O  O118  1  0.21636000  0.03985000  0.41627000  1.0
  O  O119  1  0.78364000  0.96014000  0.58373000  1.0
  O  O120  1  0.20652000  0.79105000  0.14499000  1.0
  O  O121  1  0.79348000  0.20895000  0.85501000  1.0
  O  O122  1  0.01678000  0.79993000  0.06950000  1.0
  O  O123  1  0.98322000  0.20007000  0.93050000  1.0
  O  O124  1  0.32421000  0.27076000  0.08245000  1.0
  O  O125  1  0.67579000  0.72924000  0.91756000  1.0
  O  O126  1  0.38033000  0.39437000  0.17821000  1.0
  O  O127  1  0.61967000  0.60563000  0.82179000  1.0
  O  O128  1  0.89156000  0.63980000  0.39023000  1.0
  O  O129  1  0.10844000  0.36020000  0.60977000  1.0
  O  O130  1  0.09601000  0.61940000  0.40107000  1.0
  O  O131  1  0.90398000  0.38060000  0.59893000  1.0
  O  O132  1  0.83362000  0.35899000  0.01987000  1.0
  O  O133  1  0.16638000  0.64101000  0.98013000  1.0
  O  O134  1  0.71879000  0.50018000  0.10692000  1.0
  O  O135  1  0.28121000  0.49982000  0.89308000  1.0
  O  O136  1  0.55897000  0.39072000  0.97565000  1.0
  O  O137  1  0.44103000  0.60928000  0.02435000  1.0
