# generated using pymatgen
data_Zn3H63C91N7O13
_symmetry_space_group_name_H-M   'P 1'
_cell_length_a   19.43390000
_cell_length_b   20.75570000
_cell_length_c   21.81780000
_cell_angle_alpha   116.12700000
_cell_angle_beta   99.66250000
_cell_angle_gamma   100.32000000
_symmetry_Int_Tables_number   1
_chemical_formula_structural   Zn3H63C91N7O13
_chemical_formula_sum   'Zn6 H126 C182 N14 O26'
_cell_volume   7464.03425024
_cell_formula_units_Z   2
loop_
 _symmetry_equiv_pos_site_id
 _symmetry_equiv_pos_as_xyz
  1  'x, y, z'
loop_
 _atom_site_type_symbol
 _atom_site_label
 _atom_site_symmetry_multiplicity
 _atom_site_fract_x
 _atom_site_fract_y
 _atom_site_fract_z
 _atom_site_occupancy
  Zn  Zn0  1  0.76576000  0.20248000  0.09573000  1.0
  Zn  Zn1  1  0.23424000  0.79752000  0.90427000  1.0
  Zn  Zn2  1  0.59279000  0.12960000  0.09193000  1.0
  Zn  Zn3  1  0.40721000  0.87040000  0.90807000  1.0
  Zn  Zn4  1  0.92320000  0.15993000  0.04928000  1.0
  Zn  Zn5  1  0.07680000  0.84007000  0.95072000  1.0
  H  H6  1  0.55509000  0.32435000  0.19450000  1.0
  H  H7  1  0.44491000  0.67565000  0.80549000  1.0
  H  H8  1  0.54118000  0.44952000  0.27245000  1.0
  H  H9  1  0.45881000  0.55049000  0.72754000  1.0
  H  H10  1  0.77458000  0.54236000  0.34210000  1.0
  H  H11  1  0.22542000  0.45764000  0.65789000  1.0
  H  H12  1  0.78743000  0.41630000  0.26567000  1.0
  H  H13  1  0.21256000  0.58370000  0.73432000  1.0
  H  H14  1  0.56708000  0.54889000  0.39771000  1.0
  H  H15  1  0.43291000  0.45110000  0.60228000  1.0
  H  H16  1  0.72793000  0.63069000  0.31531000  1.0
  H  H17  1  0.27208000  0.36932000  0.68470000  1.0
  H  H18  1  0.60984000  0.95270000  0.14497000  1.0
  H  H19  1  0.39016000  0.04730000  0.85503000  1.0
  H  H20  1  0.61085000  0.87767000  0.20708000  1.0
  H  H21  1  0.38915000  0.12232000  0.79292000  1.0
  H  H22  1  0.62978000  0.07392000  0.40319000  1.0
  H  H23  1  0.37022000  0.92608000  0.59681000  1.0
  H  H24  1  0.62932000  0.14823000  0.33956000  1.0
  H  H25  1  0.37068000  0.85177000  0.66044000  1.0
  H  H26  1  0.55306000  0.82069000  0.25565000  1.0
  H  H27  1  0.44693000  0.17931000  0.74435000  1.0
  H  H28  1  0.55397000  0.74651000  0.31810000  1.0
  H  H29  1  0.44602000  0.25349000  0.68191000  1.0
  H  H30  1  0.68764000  0.01714000  0.44889000  1.0
  H  H31  1  0.31236000  0.98286000  0.55110000  1.0
  H  H32  1  0.52759000  0.00951000  0.86350000  1.0
  H  H33  1  0.47242000  0.99049000  0.13650000  1.0
  H  H34  1  0.51480000  0.93483000  0.73477000  1.0
  H  H35  1  0.48519000  0.06516000  0.26524000  1.0
  H  H36  1  0.74589000  0.96060000  0.78210000  1.0
  H  H37  1  0.25410000  0.03939000  0.21790000  1.0
  H  H38  1  0.75786000  0.03424000  0.91055000  1.0
  H  H39  1  0.24214000  0.96576000  0.08945000  1.0
  H  H40  1  0.54269000  0.94821000  0.64087000  1.0
  H  H41  1  0.45730000  0.05178000  0.35914000  1.0
  H  H42  1  0.53894000  0.88573000  0.51365000  1.0
  H  H43  1  0.46105000  0.11427000  0.48634000  1.0
  H  H44  1  0.69688000  0.77883000  0.55627000  1.0
  H  H45  1  0.30312000  0.22117000  0.44373000  1.0
  H  H46  1  0.70168000  0.84208000  0.68385000  1.0
  H  H47  1  0.29831000  0.15792000  0.31615000  1.0
  H  H48  1  0.68712000  0.94315000  0.51140000  1.0
  H  H49  1  0.31288000  0.05685000  0.48860000  1.0
  H  H50  1  0.71116000  0.75672000  0.37540000  1.0
  H  H51  1  0.28885000  0.24329000  0.62462000  1.0
  H  H52  1  0.55067000  0.67576000  0.45847000  1.0
  H  H53  1  0.44933000  0.32424000  0.54153000  1.0
  H  H54  1  0.45626000  0.04546000  0.96863000  1.0
  H  H55  1  0.54375000  0.95454000  0.03137000  1.0
  H  H56  1  0.50197000  0.18850000  0.18478000  1.0
  H  H57  1  0.49803000  0.81149000  0.81521000  1.0
  H  H58  1  0.36951000  0.18637000  0.17409000  1.0
  H  H59  1  0.63050000  0.81362000  0.82591000  1.0
  H  H60  1  0.32295000  0.03501000  0.94914000  1.0
  H  H61  1  0.67705000  0.96498000  0.05086000  1.0
  H  H62  1  0.79394000  0.21657000  0.96278000  1.0
  H  H63  1  0.20606000  0.78343000  0.03722000  1.0
  H  H64  1  0.60725000  0.23478000  0.86677000  1.0
  H  H65  1  0.39274000  0.76522000  0.13323000  1.0
  H  H66  1  0.60357000  0.20570000  0.93271000  1.0
  H  H67  1  0.39643000  0.79430000  0.06728000  1.0
  H  H68  1  0.58617000  0.13732000  0.84130000  1.0
  H  H69  1  0.41382000  0.86268000  0.15870000  1.0
  H  H70  1  0.78366000  0.18336000  0.85319000  1.0
  H  H71  1  0.21634000  0.81665000  0.14681000  1.0
  H  H72  1  0.71868000  0.21305000  0.81120000  1.0
  H  H73  1  0.28132000  0.78696000  0.18880000  1.0
  H  H74  1  0.69771000  0.11848000  0.79533000  1.0
  H  H75  1  0.30230000  0.88154000  0.20467000  1.0
  H  H76  1  0.00164000  0.05367000  0.96747000  1.0
  H  H77  1  0.99837000  0.94633000  0.03253000  1.0
  H  H78  1  0.12661000  0.03337000  0.98328000  1.0
  H  H79  1  0.87339000  0.96663000  0.01672000  1.0
  H  H80  1  0.06151000  0.23689000  0.16825000  1.0
  H  H81  1  0.93849000  0.76311000  0.83175000  1.0
  H  H82  1  0.18875000  0.22376000  0.19423000  1.0
  H  H83  1  0.81125000  0.77623000  0.80577000  1.0
  H  H84  1  0.94241000  0.03388000  0.14579000  1.0
  H  H85  1  0.05759000  0.96611000  0.85421000  1.0
  H  H86  1  0.94519000  0.95651000  0.20447000  1.0
  H  H87  1  0.05481000  0.04349000  0.79553000  1.0
  H  H88  1  0.96209000  0.91932000  0.27255000  1.0
  H  H89  1  0.03792000  0.08068000  0.72746000  1.0
  H  H90  1  0.75489000  0.94503000  0.30992000  1.0
  H  H91  1  0.24511000  0.05498000  0.69008000  1.0
  H  H92  1  0.00788000  0.40881000  0.24819000  1.0
  H  H93  1  0.99212000  0.59119000  0.75181000  1.0
  H  H94  1  0.99591000  0.53662000  0.31654000  1.0
  H  H95  1  0.00410000  0.46338000  0.68346000  1.0
  H  H96  1  0.79539000  0.47636000  0.15825000  1.0
  H  H97  1  0.20461000  0.52364000  0.84175000  1.0
  H  H98  1  0.80727000  0.34926000  0.09163000  1.0
  H  H99  1  0.19273000  0.65074000  0.90837000  1.0
  H  H100  1  0.94144000  0.61079000  0.38634000  1.0
  H  H101  1  0.05856000  0.38921000  0.61367000  1.0
  H  H102  1  0.88942000  0.96498000  0.84061000  1.0
  H  H103  1  0.11058000  0.03501000  0.15939000  1.0
  H  H104  1  0.88468000  0.88937000  0.71397000  1.0
  H  H105  1  0.11532000  0.11063000  0.28603000  1.0
  H  H106  1  0.88943000  0.08366000  0.68668000  1.0
  H  H107  1  0.11058000  0.91634000  0.31333000  1.0
  H  H108  1  0.90284000  0.16009000  0.81572000  1.0
  H  H109  1  0.09717000  0.83991000  0.18428000  1.0
  H  H110  1  0.82625000  0.82930000  0.60268000  1.0
  H  H111  1  0.17375000  0.17070000  0.39732000  1.0
  H  H112  1  0.81690000  0.75617000  0.47595000  1.0
  H  H113  1  0.18309000  0.24384000  0.52405000  1.0
  H  H114  1  0.92720000  0.95717000  0.47814000  1.0
  H  H115  1  0.07280000  0.04283000  0.52186000  1.0
  H  H116  1  0.93647000  0.02982000  0.60439000  1.0
  H  H117  1  0.06353000  0.97018000  0.39562000  1.0
  H  H118  1  0.96352000  0.84202000  0.33152000  1.0
  H  H119  1  0.03648000  0.15798000  0.66848000  1.0
  H  H120  1  0.75948000  0.87180000  0.37252000  1.0
  H  H121  1  0.24051000  0.12820000  0.62748000  1.0
  H  H122  1  0.93038000  0.73746000  0.45232000  1.0
  H  H123  1  0.06962000  0.26254000  0.54768000  1.0
  H  H124  1  0.83008000  0.59471000  0.18968000  1.0
  H  H125  1  0.16993000  0.40529000  0.81032000  1.0
  H  H126  1  0.81572000  0.71998000  0.25572000  1.0
  H  H127  1  0.18429000  0.28002000  0.74427000  1.0
  H  H128  1  0.76774000  0.10486000  0.22741000  1.0
  H  H129  1  0.23227000  0.89515000  0.77260000  1.0
  H  H130  1  0.77078000  0.03022000  0.28948000  1.0
  H  H131  1  0.22923000  0.96979000  0.71053000  1.0
  C  C132  1  0.67901000  0.28942000  0.17369000  1.0
  C  C133  1  0.32099000  0.71058000  0.82630000  1.0
  C  C134  1  0.67201000  0.36310000  0.22459000  1.0
  C  C135  1  0.32799000  0.63690000  0.77540000  1.0
  C  C136  1  0.60275000  0.37239000  0.22799000  1.0
  C  C137  1  0.39725000  0.62762000  0.77200000  1.0
  C  C138  1  0.59533000  0.44219000  0.27169000  1.0
  C  C139  1  0.40467000  0.55781000  0.72830000  1.0
  C  C140  1  0.65692000  0.50484000  0.31201000  1.0
  C  C141  1  0.34308000  0.49517000  0.68798000  1.0
  C  C142  1  0.72629000  0.49453000  0.31006000  1.0
  C  C143  1  0.27371000  0.50548000  0.68993000  1.0
  C  C144  1  0.73385000  0.42440000  0.26742000  1.0
  C  C145  1  0.26615000  0.57561000  0.73257000  1.0
  C  C146  1  0.64849000  0.58031000  0.35173000  1.0
  C  C147  1  0.35151000  0.41969000  0.64827000  1.0
  C  C148  1  0.59860000  0.59434000  0.39244000  1.0
  C  C149  1  0.40140000  0.40566000  0.60755000  1.0
  C  C150  1  0.68906000  0.64022000  0.34677000  1.0
  C  C151  1  0.31094000  0.35979000  0.65323000  1.0
  C  C152  1  0.61422000  0.10074000  0.20092000  1.0
  C  C153  1  0.38578000  0.89925000  0.79907000  1.0
  C  C154  1  0.61945000  0.05534000  0.23836000  1.0
  C  C155  1  0.38055000  0.94465000  0.76163000  1.0
  C  C156  1  0.61387000  0.97884000  0.20154000  1.0
  C  C157  1  0.38612000  0.02116000  0.79845000  1.0
  C  C158  1  0.61372000  0.93676000  0.23664000  1.0
  C  C159  1  0.38627000  0.06323000  0.76336000  1.0
  C  C160  1  0.61967000  0.96973000  0.30998000  1.0
  C  C161  1  0.38032000  0.03027000  0.69002000  1.0
  C  C162  1  0.62624000  0.04696000  0.34664000  1.0
  C  C163  1  0.37375000  0.95304000  0.65336000  1.0
  C  C164  1  0.62591000  0.08890000  0.31148000  1.0
  C  C165  1  0.37409000  0.91110000  0.68851000  1.0
  C  C166  1  0.61961000  0.92531000  0.34729000  1.0
  C  C167  1  0.38039000  0.07469000  0.65270000  1.0
  C  C168  1  0.58336000  0.84807000  0.31166000  1.0
  C  C169  1  0.41663000  0.15193000  0.68834000  1.0
  C  C170  1  0.58310000  0.80604000  0.34664000  1.0
  C  C171  1  0.41690000  0.19396000  0.65336000  1.0
  C  C172  1  0.65639000  0.95820000  0.42002000  1.0
  C  C173  1  0.34360000  0.04180000  0.57998000  1.0
  C  C174  1  0.65075000  0.07271000  0.97225000  1.0
  C  C175  1  0.34925000  0.92729000  0.02775000  1.0
  C  C176  1  0.64335000  0.02699000  0.89519000  1.0
  C  C177  1  0.35666000  0.97301000  0.10482000  1.0
  C  C178  1  0.57513000  0.99875000  0.84501000  1.0
  C  C179  1  0.42487000  0.00126000  0.15499000  1.0
  C  C180  1  0.56838000  0.95730000  0.77290000  1.0
  C  C181  1  0.43162000  0.04270000  0.22710000  1.0
  C  C182  1  0.62953000  0.94243000  0.74884000  1.0
  C  C183  1  0.37047000  0.05757000  0.25116000  1.0
  C  C184  1  0.69758000  0.97017000  0.79969000  1.0
  C  C185  1  0.30242000  0.02982000  0.20031000  1.0
  C  C186  1  0.70465000  0.01220000  0.87187000  1.0
  C  C187  1  0.29535000  0.98780000  0.12814000  1.0
  C  C188  1  0.62346000  0.90094000  0.67235000  1.0
  C  C189  1  0.37653000  0.09906000  0.32765000  1.0
  C  C190  1  0.57673000  0.91106000  0.62269000  1.0
  C  C191  1  0.42326000  0.08894000  0.37731000  1.0
  C  C192  1  0.57441000  0.87610000  0.55115000  1.0
  C  C193  1  0.42558000  0.12390000  0.44885000  1.0
  C  C194  1  0.61892000  0.82930000  0.52669000  1.0
  C  C195  1  0.38107000  0.17070000  0.47331000  1.0
  C  C196  1  0.66345000  0.81629000  0.57525000  1.0
  C  C197  1  0.33654000  0.18370000  0.42475000  1.0
  C  C198  1  0.66587000  0.85198000  0.64676000  1.0
  C  C199  1  0.33412000  0.14801000  0.35324000  1.0
  C  C200  1  0.61975000  0.83979000  0.41937000  1.0
  C  C201  1  0.38025000  0.16021000  0.58063000  1.0
  C  C202  1  0.65691000  0.91669000  0.45551000  1.0
  C  C203  1  0.34308000  0.08331000  0.54449000  1.0
  C  C204  1  0.67948000  0.71112000  0.38022000  1.0
  C  C205  1  0.32052000  0.28889000  0.61979000  1.0
  C  C206  1  0.58916000  0.66538000  0.42663000  1.0
  C  C207  1  0.41083000  0.33462000  0.57337000  1.0
  C  C208  1  0.43487000  0.07569000  0.01263000  1.0
  C  C209  1  0.56514000  0.92430000  0.98737000  1.0
  C  C210  1  0.45994000  0.15667000  0.13403000  1.0
  C  C211  1  0.54007000  0.84332000  0.86596000  1.0
  C  C212  1  0.38753000  0.15484000  0.12798000  1.0
  C  C213  1  0.61248000  0.84516000  0.87201000  1.0
  C  C214  1  0.33712000  0.11055000  0.06064000  1.0
  C  C215  1  0.66288000  0.88945000  0.93936000  1.0
  C  C216  1  0.36106000  0.07059000  0.00180000  1.0
  C  C217  1  0.63894000  0.92941000  0.99819000  1.0
  C  C218  1  0.16722000  0.13011000  0.08910000  1.0
  C  C219  1  0.83278000  0.86988000  0.91090000  1.0
  C  C220  1  0.73695000  0.21764000  0.96067000  1.0
  C  C221  1  0.26304000  0.78236000  0.03933000  1.0
  C  C222  1  0.61850000  0.19389000  0.88341000  1.0
  C  C223  1  0.38149000  0.80611000  0.11659000  1.0
  C  C224  1  0.72548000  0.17724000  0.83555000  1.0
  C  C225  1  0.27452000  0.82277000  0.16445000  1.0
  C  C226  1  0.62930000  0.72453000  0.42047000  1.0
  C  C227  1  0.37070000  0.27548000  0.57954000  1.0
  C  C228  1  0.04551000  0.09019000  0.01624000  1.0
  C  C229  1  0.95449000  0.90981000  0.98376000  1.0
  C  C230  1  0.11418000  0.07951000  0.02477000  1.0
  C  C231  1  0.88582000  0.92049000  0.97523000  1.0
  C  C232  1  0.07857000  0.19269000  0.12958000  1.0
  C  C233  1  0.92143000  0.80730000  0.87042000  1.0
  C  C234  1  0.14836000  0.18547000  0.14340000  1.0
  C  C235  1  0.85165000  0.81452000  0.85661000  1.0
  C  C236  1  0.85078000  0.11680000  0.14286000  1.0
  C  C237  1  0.14922000  0.88320000  0.85714000  1.0
  C  C238  1  0.85408000  0.07327000  0.18194000  1.0
  C  C239  1  0.14593000  0.92673000  0.81806000  1.0
  C  C240  1  0.90447000  0.03185000  0.17685000  1.0
  C  C241  1  0.09554000  0.96815000  0.82315000  1.0
  C  C242  1  0.90601000  0.98884000  0.21070000  1.0
  C  C243  1  0.09399000  0.01116000  0.78930000  1.0
  C  C244  1  0.85751000  0.98606000  0.25140000  1.0
  C  C245  1  0.14249000  0.01394000  0.74861000  1.0
  C  C246  1  0.85849000  0.93931000  0.28650000  1.0
  C  C247  1  0.14151000  0.06069000  0.71350000  1.0
  C  C248  1  0.91636000  0.90825000  0.29276000  1.0
  C  C249  1  0.08364000  0.09176000  0.70724000  1.0
  C  C250  1  0.80184000  0.92415000  0.31520000  1.0
  C  C251  1  0.19816000  0.07586000  0.68480000  1.0
  C  C252  1  0.91757000  0.29545000  0.12576000  1.0
  C  C253  1  0.08242000  0.70455000  0.87424000  1.0
  C  C254  1  0.90879000  0.37104000  0.16540000  1.0
  C  C255  1  0.09121000  0.62896000  0.83460000  1.0
  C  C256  1  0.96143000  0.42442000  0.22923000  1.0
  C  C257  1  0.03857000  0.57558000  0.77078000  1.0
  C  C258  1  0.95421000  0.49571000  0.26731000  1.0
  C  C259  1  0.04579000  0.50429000  0.73269000  1.0
  C  C260  1  0.84300000  0.46265000  0.17783000  1.0
  C  C261  1  0.15700000  0.53735000  0.82217000  1.0
  C  C262  1  0.84926000  0.39086000  0.14020000  1.0
  C  C263  1  0.15074000  0.60914000  0.85980000  1.0
  C  C264  1  0.88697000  0.59212000  0.28242000  1.0
  C  C265  1  0.11303000  0.40788000  0.71758000  1.0
  C  C266  1  0.91437000  0.63453000  0.35692000  1.0
  C  C267  1  0.08563000  0.36547000  0.64308000  1.0
  C  C268  1  0.90141000  0.11358000  0.91278000  1.0
  C  C269  1  0.09859000  0.88642000  0.08722000  1.0
  C  C270  1  0.89572000  0.06714000  0.83585000  1.0
  C  C271  1  0.10429000  0.93285000  0.16415000  1.0
  C  C272  1  0.89003000  0.99051000  0.80635000  1.0
  C  C273  1  0.10998000  0.00949000  0.19366000  1.0
  C  C274  1  0.88613000  0.94813000  0.73497000  1.0
  C  C275  1  0.11388000  0.05187000  0.26504000  1.0
  C  C276  1  0.88595000  0.98033000  0.68999000  1.0
  C  C277  1  0.11405000  0.01967000  0.31002000  1.0
  C  C278  1  0.89104000  0.05731000  0.72029000  1.0
  C  C279  1  0.10897000  0.94269000  0.27972000  1.0
  C  C280  1  0.89710000  0.10021000  0.79209000  1.0
  C  C281  1  0.10291000  0.89979000  0.20792000  1.0
  C  C282  1  0.88148000  0.93590000  0.61429000  1.0
  C  C283  1  0.11852000  0.06410000  0.38571000  1.0
  C  C284  1  0.84960000  0.85784000  0.57610000  1.0
  C  C285  1  0.15040000  0.14216000  0.42390000  1.0
  C  C286  1  0.84427000  0.81603000  0.50437000  1.0
  C  C287  1  0.15573000  0.18398000  0.49563000  1.0
  C  C288  1  0.87180000  0.85107000  0.46757000  1.0
  C  C289  1  0.12820000  0.14893000  0.53243000  1.0
  C  C290  1  0.90469000  0.92898000  0.50533000  1.0
  C  C291  1  0.09531000  0.07102000  0.49467000  1.0
  C  C292  1  0.90895000  0.97001000  0.57674000  1.0
  C  C293  1  0.09105000  0.02999000  0.42326000  1.0
  C  C294  1  0.86195000  0.85222000  0.35609000  1.0
  C  C295  1  0.13804000  0.14778000  0.64391000  1.0
  C  C296  1  0.91807000  0.86522000  0.32664000  1.0
  C  C297  1  0.08193000  0.13478000  0.67336000  1.0
  C  C298  1  0.80348000  0.88168000  0.34976000  1.0
  C  C299  1  0.19652000  0.11832000  0.65023000  1.0
  C  C300  1  0.87186000  0.73839000  0.35905000  1.0
  C  C301  1  0.12814000  0.26161000  0.64096000  1.0
  C  C302  1  0.90750000  0.70611000  0.39480000  1.0
  C  C303  1  0.09251000  0.29389000  0.60521000  1.0
  C  C304  1  0.85119000  0.62498000  0.24745000  1.0
  C  C305  1  0.14881000  0.37503000  0.75255000  1.0
  C  C306  1  0.84328000  0.69602000  0.28452000  1.0
  C  C307  1  0.15672000  0.30398000  0.71548000  1.0
  C  C308  1  0.80638000  0.07209000  0.22315000  1.0
  C  C309  1  0.19363000  0.92791000  0.77686000  1.0
  C  C310  1  0.89495000  0.51660000  0.24234000  1.0
  C  C311  1  0.10506000  0.48340000  0.75766000  1.0
  C  C312  1  0.80830000  0.02940000  0.25742000  1.0
  C  C313  1  0.19171000  0.97061000  0.74258000  1.0
  N  N314  1  0.48311000  0.11783000  0.07720000  1.0
  N  N315  1  0.51690000  0.88217000  0.92279000  1.0
  N  N316  1  0.26209000  0.10601000  0.04743000  1.0
  N  N317  1  0.73792000  0.89399000  0.95257000  1.0
  N  N318  1  0.24095000  0.13041000  0.10296000  1.0
  N  N319  1  0.75906000  0.86959000  0.89704000  1.0
  N  N320  1  0.02838000  0.14659000  0.06673000  1.0
  N  N321  1  0.97162000  0.85341000  0.93327000  1.0
  N  N322  1  0.69556000  0.19858000  0.89605000  1.0
  N  N323  1  0.30444000  0.80143000  0.10395000  1.0
  N  N324  1  0.61971000  0.79695000  0.45474000  1.0
  N  N325  1  0.38029000  0.20305000  0.54527000  1.0
  N  N326  1  0.86547000  0.81137000  0.39432000  1.0
  N  N327  1  0.13452000  0.18863000  0.60568000  1.0
  O  O328  1  0.61992000  0.23850000  0.13243000  1.0
  O  O329  1  0.38008000  0.76150000  0.86756000  1.0
  O  O330  1  0.74290000  0.28257000  0.17338000  1.0
  O  O331  1  0.25710000  0.71743000  0.82662000  1.0
  O  O332  1  0.61913000  0.06925000  0.13561000  1.0
  O  O333  1  0.38087000  0.93075000  0.86439000  1.0
  O  O334  1  0.71425000  0.09932000  0.01555000  1.0
  O  O335  1  0.28575000  0.90069000  0.98445000  1.0
  O  O336  1  0.59243000  0.08182000  0.99041000  1.0
  O  O337  1  0.40757000  0.91819000  0.00959000  1.0
  O  O338  1  0.60342000  0.16336000  0.23108000  1.0
  O  O339  1  0.39657000  0.83663000  0.76891000  1.0
  O  O340  1  0.71422000  0.23508000  0.01466000  1.0
  O  O341  1  0.28578000  0.76492000  0.98534000  1.0
  O  O342  1  0.81203000  0.16187000  0.15692000  1.0
  O  O343  1  0.18797000  0.83813000  0.84309000  1.0
  O  O344  1  0.86134000  0.23984000  0.07784000  1.0
  O  O345  1  0.13866000  0.76016000  0.92216000  1.0
  O  O346  1  0.97832000  0.28315000  0.13609000  1.0
  O  O347  1  0.02168000  0.71685000  0.86391000  1.0
  O  O348  1  0.88855000  0.07732000  0.94736000  1.0
  O  O349  1  0.11145000  0.92268000  0.05264000  1.0
  O  O350  1  0.88784000  0.10411000  0.09765000  1.0
  O  O351  1  0.11217000  0.89589000  0.90235000  1.0
  O  O352  1  0.91897000  0.18378000  0.94181000  1.0
  O  O353  1  0.08103000  0.81621000  0.05819000  1.0
