# generated using pymatgen
data_ZnH13C13N2O5
_symmetry_space_group_name_H-M   'P 1'
_cell_length_a   9.53085000
_cell_length_b   9.83719000
_cell_length_c   13.97840000
_cell_angle_alpha   90.00000000
_cell_angle_beta   95.38970000
_cell_angle_gamma   90.00000000
_symmetry_Int_Tables_number   1
_chemical_formula_structural   ZnH13C13N2O5
_chemical_formula_sum   'Zn4 H52 C52 N8 O20'
_cell_volume   1304.77560148
_cell_formula_units_Z   4
loop_
 _symmetry_equiv_pos_site_id
 _symmetry_equiv_pos_as_xyz
  1  'x, y, z'
loop_
 _atom_site_type_symbol
 _atom_site_label
 _atom_site_symmetry_multiplicity
 _atom_site_fract_x
 _atom_site_fract_y
 _atom_site_fract_z
 _atom_site_occupancy
  Zn  Zn0  1  0.94173000  0.34698000  0.79900000  1.0
  Zn  Zn1  1  0.55827000  0.84698000  0.70100000  1.0
  Zn  Zn2  1  0.05827000  0.65302000  0.20100000  1.0
  Zn  Zn3  1  0.44173000  0.15302000  0.29900000  1.0
  H  H4  1  0.07971000  0.36387000  0.97183000  1.0
  H  H5  1  0.42030000  0.86387000  0.52817000  1.0
  H  H6  1  0.92030000  0.63613000  0.02817000  1.0
  H  H7  1  0.57971000  0.13613000  0.47183000  1.0
  H  H8  1  0.08552000  0.20233000  0.94066000  1.0
  H  H9  1  0.41448000  0.70233000  0.55934000  1.0
  H  H10  1  0.91448000  0.79767000  0.05934000  1.0
  H  H11  1  0.58552000  0.29767000  0.44066000  1.0
  H  H12  1  0.21453000  0.11327000  0.57578000  1.0
  H  H13  1  0.28547000  0.61327000  0.92422000  1.0
  H  H14  1  0.78547000  0.88673000  0.42422000  1.0
  H  H15  1  0.71453000  0.38673000  0.07578000  1.0
  H  H16  1  0.95031000  0.64616000  0.81401000  1.0
  H  H17  1  0.54969000  0.14616000  0.68599000  1.0
  H  H18  1  0.04969000  0.35384000  0.18599000  1.0
  H  H19  1  0.45031000  0.85384000  0.31401000  1.0
  H  H20  1  0.02807000  0.84312000  0.71673000  1.0
  H  H21  1  0.47193000  0.34312000  0.78327000  1.0
  H  H22  1  0.97193000  0.15688000  0.28327000  1.0
  H  H23  1  0.52807000  0.65688000  0.21673000  1.0
  H  H24  1  0.15203000  0.79499000  0.57066000  1.0
  H  H25  1  0.34797000  0.29499000  0.92934000  1.0
  H  H26  1  0.84797000  0.20501000  0.42933000  1.0
  H  H27  1  0.65203000  0.70501000  0.07066000  1.0
  H  H28  1  0.10985000  0.36811000  0.63006000  1.0
  H  H29  1  0.39015000  0.86811000  0.86994000  1.0
  H  H30  1  0.89015000  0.63189000  0.36994000  1.0
  H  H31  1  0.60985000  0.13189000  0.13006000  1.0
  H  H32  1  0.17421000  0.44153000  0.47121000  1.0
  H  H33  1  0.32579000  0.94154000  0.02879000  1.0
  H  H34  1  0.82579000  0.55847000  0.52879000  1.0
  H  H35  1  0.67421000  0.05846000  0.97121000  1.0
  H  H36  1  0.17062000  0.61759000  0.44124000  1.0
  H  H37  1  0.32938000  0.11759000  0.05876000  1.0
  H  H38  1  0.82937000  0.38241000  0.55876000  1.0
  H  H39  1  0.67063000  0.88241000  0.94124000  1.0
  H  H40  1  0.38907000  0.34351000  0.54373000  1.0
  H  H41  1  0.11093000  0.84351000  0.95627000  1.0
  H  H42  1  0.61092000  0.65649000  0.45627000  1.0
  H  H43  1  0.88908000  0.15649000  0.04373000  1.0
  H  H44  1  0.38312000  0.45622000  0.64427000  1.0
  H  H45  1  0.11688000  0.95622000  0.85573000  1.0
  H  H46  1  0.61688000  0.54378000  0.35573000  1.0
  H  H47  1  0.88312000  0.04378000  0.14427000  1.0
  H  H48  1  0.37312000  0.63193000  0.37204000  1.0
  H  H49  1  0.12688000  0.13194000  0.12796000  1.0
  H  H50  1  0.62688000  0.36806000  0.62796000  1.0
  H  H51  1  0.87312000  0.86807000  0.87204000  1.0
  H  H52  1  0.38355000  0.45184000  0.37793000  1.0
  H  H53  1  0.11645000  0.95184000  0.12207000  1.0
  H  H54  1  0.61645000  0.54816000  0.62207000  1.0
  H  H55  1  0.88355000  0.04816000  0.87793000  1.0
  C  C56  1  0.00309000  0.14277000  0.68173000  1.0
  C  C57  1  0.49691000  0.64277000  0.81827000  1.0
  C  C58  1  0.99691000  0.85723000  0.31827000  1.0
  C  C59  1  0.50309000  0.35723000  0.18173000  1.0
  C  C60  1  0.99815000  0.06417000  0.58957000  1.0
  C  C61  1  0.50185000  0.56418000  0.91043000  1.0
  C  C62  1  0.00184000  0.93582000  0.41043000  1.0
  C  C63  1  0.49816000  0.43582000  0.08957000  1.0
  C  C64  1  0.87602000  0.99954000  0.54768000  1.0
  C  C65  1  0.62398000  0.49954000  0.95232000  1.0
  C  C66  1  0.12398000  0.00046000  0.45232000  1.0
  C  C67  1  0.37602000  0.50046000  0.04768000  1.0
  C  C68  1  0.12070000  0.06310000  0.54171000  1.0
  C  C69  1  0.37930000  0.56310000  0.95830000  1.0
  C  C70  1  0.87930000  0.93690000  0.45830000  1.0
  C  C71  1  0.62070000  0.43690000  0.04171000  1.0
  C  C72  1  0.74333000  0.98646000  0.59708000  1.0
  C  C73  1  0.75667000  0.48646000  0.90292000  1.0
  C  C74  1  0.25667000  0.01354000  0.40292000  1.0
  C  C75  1  0.24333000  0.51354000  0.09708000  1.0
  C  C76  1  0.00597000  0.63147000  0.75017000  1.0
  C  C77  1  0.49403000  0.13147000  0.74983000  1.0
  C  C78  1  0.99403000  0.36853000  0.24983000  1.0
  C  C79  1  0.50597000  0.86853000  0.25017000  1.0
  C  C80  1  0.04985000  0.73926000  0.69608000  1.0
  C  C81  1  0.45015000  0.23926000  0.80392000  1.0
  C  C82  1  0.95015000  0.26074000  0.30392000  1.0
  C  C83  1  0.54986000  0.76074000  0.19608000  1.0
  C  C84  1  0.11712000  0.71199000  0.61423000  1.0
  C  C85  1  0.38288000  0.21199000  0.88577000  1.0
  C  C86  1  0.88288000  0.28801000  0.38577000  1.0
  C  C87  1  0.61712000  0.78801000  0.11423000  1.0
  C  C88  1  0.13894000  0.57713000  0.58763000  1.0
  C  C89  1  0.36106000  0.07713000  0.91237000  1.0
  C  C90  1  0.86106000  0.42287000  0.41237000  1.0
  C  C91  1  0.63894000  0.92287000  0.08763000  1.0
  C  C92  1  0.09425000  0.47508000  0.64677000  1.0
  C  C93  1  0.40575000  0.97508000  0.85323000  1.0
  C  C94  1  0.90575000  0.52492000  0.35322000  1.0
  C  C95  1  0.59425000  0.02492000  0.14677000  1.0
  C  C96  1  0.20672000  0.54411000  0.49756000  1.0
  C  C97  1  0.29328000  0.04411000  0.00244000  1.0
  C  C98  1  0.79328000  0.45589000  0.50244000  1.0
  C  C99  1  0.70672000  0.95589000  0.99756000  1.0
  C  C100  1  0.42250000  0.44416000  0.57345000  1.0
  C  C101  1  0.07750000  0.94416000  0.92655000  1.0
  C  C102  1  0.57750000  0.55584000  0.42655000  1.0
  C  C103  1  0.92250000  0.05584000  0.07345000  1.0
  C  C104  1  0.41774000  0.54677000  0.41581000  1.0
  C  C105  1  0.08226000  0.04677000  0.08418000  1.0
  C  C106  1  0.58226000  0.45323000  0.58419000  1.0
  C  C107  1  0.91774000  0.95323000  0.91581000  1.0
  N  N108  1  0.02859000  0.50109000  0.72608000  1.0
  N  N109  1  0.47141000  0.00109000  0.77392000  1.0
  N  N110  1  0.97141000  0.49890000  0.27392000  1.0
  N  N111  1  0.52859000  0.99890000  0.22608000  1.0
  N  N112  1  0.36158000  0.55330000  0.51053000  1.0
  N  N113  1  0.13842000  0.05330000  0.98947000  1.0
  N  N114  1  0.63842000  0.44670000  0.48947000  1.0
  N  N115  1  0.86158000  0.94670000  0.01053000  1.0
  O  O116  1  0.88931000  0.20983000  0.69639000  1.0
  O  O117  1  0.61069000  0.70983000  0.80361000  1.0
  O  O118  1  0.11069000  0.79017000  0.30361000  1.0
  O  O119  1  0.38931000  0.29017000  0.19639000  1.0
  O  O120  1  0.11532000  0.14757000  0.73564000  1.0
  O  O121  1  0.38468000  0.64757000  0.76436000  1.0
  O  O122  1  0.88468000  0.85243000  0.26436000  1.0
  O  O123  1  0.61532000  0.35243000  0.23564000  1.0
  O  O124  1  0.75097000  0.90625000  0.66996000  1.0
  O  O125  1  0.74903000  0.40625000  0.83004000  1.0
  O  O126  1  0.24903000  0.09375000  0.33004000  1.0
  O  O127  1  0.25097000  0.59376000  0.16996000  1.0
  O  O128  1  0.63167000  0.04423000  0.56334000  1.0
  O  O129  1  0.86833000  0.54423000  0.93666000  1.0
  O  O130  1  0.36833000  0.95577000  0.43666000  1.0
  O  O131  1  0.13167000  0.45577000  0.06334000  1.0
  O  O132  1  0.04523000  0.29581000  0.92132000  1.0
  O  O133  1  0.45477000  0.79581000  0.57867000  1.0
  O  O134  1  0.95477000  0.70419000  0.07868000  1.0
  O  O135  1  0.54523000  0.20419000  0.42132000  1.0
