# generated using pymatgen
data_HgH8C8(BrN2)2
_symmetry_space_group_name_H-M   'P 1'
_cell_length_a   8.15675000
_cell_length_b   11.49800000
_cell_length_c   12.93990000
_cell_angle_alpha   89.99990000
_cell_angle_beta   90.00000000
_cell_angle_gamma   89.99970000
_symmetry_Int_Tables_number   1
_chemical_formula_structural   HgH8C8(BrN2)2
_chemical_formula_sum   'Hg4 H32 C32 Br8 N16'
_cell_volume   1213.58549216
_cell_formula_units_Z   4
loop_
 _symmetry_equiv_pos_site_id
 _symmetry_equiv_pos_as_xyz
  1  'x, y, z'
loop_
 _atom_site_type_symbol
 _atom_site_label
 _atom_site_symmetry_multiplicity
 _atom_site_fract_x
 _atom_site_fract_y
 _atom_site_fract_z
 _atom_site_occupancy
  Hg  Hg0  1  0.25000000  0.69112000  0.01729000  1.0
  Hg  Hg1  1  0.25000000  0.19112000  0.48271000  1.0
  Hg  Hg2  1  0.75000000  0.80888000  0.51729000  1.0
  Hg  Hg3  1  0.75000000  0.30888000  0.98271000  1.0
  H  H4  1  0.43663000  0.91432000  0.16737000  1.0
  H  H5  1  0.43663000  0.41432000  0.33263000  1.0
  H  H6  1  0.93663000  0.58568000  0.66737000  1.0
  H  H7  1  0.06337000  0.91432000  0.16737000  1.0
  H  H8  1  0.56337000  0.08568000  0.83263000  1.0
  H  H9  1  0.56337000  0.58568000  0.66737000  1.0
  H  H10  1  0.06337000  0.41432000  0.33263000  1.0
  H  H11  1  0.93663000  0.08568000  0.83263000  1.0
  H  H12  1  0.44544000  0.88133000  0.84804000  1.0
  H  H13  1  0.44544000  0.38133000  0.65196000  1.0
  H  H14  1  0.94544000  0.61867000  0.34804000  1.0
  H  H15  1  0.05456000  0.88133000  0.84804000  1.0
  H  H16  1  0.55456000  0.11867000  0.15196000  1.0
  H  H17  1  0.55456000  0.61867000  0.34804000  1.0
  H  H18  1  0.05456000  0.38133000  0.65196000  1.0
  H  H19  1  0.94544000  0.11867000  0.15196000  1.0
  H  H20  1  0.90578000  0.68250000  0.17264000  1.0
  H  H21  1  0.90578000  0.18250000  0.32736000  1.0
  H  H22  1  0.40578000  0.81750000  0.67264000  1.0
  H  H23  1  0.59422000  0.68250000  0.17264000  1.0
  H  H24  1  0.09422000  0.31750000  0.82736000  1.0
  H  H25  1  0.09422000  0.81750000  0.67264000  1.0
  H  H26  1  0.59422000  0.18250000  0.32736000  1.0
  H  H27  1  0.40578000  0.31750000  0.82736000  1.0
  H  H28  1  0.90642000  0.58255000  0.86493000  1.0
  H  H29  1  0.90642000  0.08255000  0.63508000  1.0
  H  H30  1  0.40642000  0.91745000  0.36493000  1.0
  H  H31  1  0.59358000  0.58255000  0.86493000  1.0
  H  H32  1  0.09358000  0.41745000  0.13508000  1.0
  H  H33  1  0.09358000  0.91745000  0.36492000  1.0
  H  H34  1  0.59359000  0.08255000  0.63507000  1.0
  H  H35  1  0.40642000  0.41745000  0.13507000  1.0
  C  C36  1  0.46520000  0.95314000  0.09246000  1.0
  C  C37  1  0.46520000  0.45314000  0.40755000  1.0
  C  C38  1  0.96520000  0.54686000  0.59245000  1.0
  C  C39  1  0.03480000  0.95314000  0.09245000  1.0
  C  C40  1  0.53480000  0.04686000  0.90754000  1.0
  C  C41  1  0.53480000  0.54686000  0.59245000  1.0
  C  C42  1  0.03480000  0.45314000  0.40755000  1.0
  C  C43  1  0.96520000  0.04686000  0.90755000  1.0
  C  C44  1  0.46967000  0.93497000  0.91599000  1.0
  C  C45  1  0.46967000  0.43497000  0.58401000  1.0
  C  C46  1  0.96967000  0.56503000  0.41598000  1.0
  C  C47  1  0.03033000  0.93497000  0.91598000  1.0
  C  C48  1  0.53033000  0.06503000  0.08401000  1.0
  C  C49  1  0.53033000  0.56503000  0.41598000  1.0
  C  C50  1  0.03033000  0.43497000  0.58402000  1.0
  C  C51  1  0.96967000  0.06503000  0.08402000  1.0
  C  C52  1  0.83555000  0.65892000  0.10390000  1.0
  C  C53  1  0.83555000  0.15892000  0.39610000  1.0
  C  C54  1  0.33555000  0.84108000  0.60390000  1.0
  C  C55  1  0.66445000  0.65892000  0.10390000  1.0
  C  C56  1  0.16445000  0.34108000  0.89610000  1.0
  C  C57  1  0.16445000  0.84108000  0.60390000  1.0
  C  C58  1  0.66445000  0.15892000  0.39610000  1.0
  C  C59  1  0.33555000  0.34108000  0.89610000  1.0
  C  C60  1  0.83572000  0.60408000  0.93393000  1.0
  C  C61  1  0.83573000  0.10408000  0.56607000  1.0
  C  C62  1  0.33572000  0.89592000  0.43393000  1.0
  C  C63  1  0.66428000  0.60408000  0.93393000  1.0
  C  C64  1  0.16427000  0.39592000  0.06607000  1.0
  C  C65  1  0.16427000  0.89592000  0.43393000  1.0
  C  C66  1  0.66428000  0.10408000  0.56607000  1.0
  C  C67  1  0.33572000  0.39592000  0.06607000  1.0
  Br  Br68  1  0.25000000  0.68788000  0.21479000  1.0
  Br  Br69  1  0.25000000  0.18788000  0.28521000  1.0
  Br  Br70  1  0.75000000  0.81212000  0.71479000  1.0
  Br  Br71  1  0.75000000  0.31212000  0.78521000  1.0
  Br  Br72  1  0.25000000  0.65148000  0.82347000  1.0
  Br  Br73  1  0.25000000  0.15148000  0.67653000  1.0
  Br  Br74  1  0.75000000  0.84852000  0.32347000  1.0
  Br  Br75  1  0.75000000  0.34852000  0.17653000  1.0
  N  N76  1  0.43519000  0.88862000  0.00839000  1.0
  N  N77  1  0.43519000  0.38862000  0.49161000  1.0
  N  N78  1  0.93519000  0.61138000  0.50839000  1.0
  N  N79  1  0.06481000  0.88862000  0.00839000  1.0
  N  N80  1  0.56481000  0.11138000  0.99161000  1.0
  N  N81  1  0.56481000  0.61138000  0.50839000  1.0
  N  N82  1  0.06481000  0.38862000  0.49161000  1.0
  N  N83  1  0.93519000  0.11138000  0.99161000  1.0
  N  N84  1  0.92079000  0.63162000  0.01896000  1.0
  N  N85  1  0.92079000  0.13163000  0.48104000  1.0
  N  N86  1  0.42078000  0.86838000  0.51896000  1.0
  N  N87  1  0.57921000  0.63162000  0.01896000  1.0
  N  N88  1  0.07921000  0.36837000  0.98104000  1.0
  N  N89  1  0.07921000  0.86837000  0.51896000  1.0
  N  N90  1  0.57922000  0.13162000  0.48104000  1.0
  N  N91  1  0.42078000  0.36838000  0.98104000  1.0
