# generated using pymatgen
data_Zr3H17C32Br5O16
_symmetry_space_group_name_H-M   'P 1'
_cell_length_a   14.82230508
_cell_length_b   14.83067740
_cell_length_c   14.86070000
_cell_angle_alpha   119.74586838
_cell_angle_beta   90.18554645
_cell_angle_gamma   119.89663920
_symmetry_Int_Tables_number   1
_chemical_formula_structural   Zr3H17C32Br5O16
_chemical_formula_sum   'Zr6 H34 C64 Br10 O32'
_cell_volume   2318.65624585
_cell_formula_units_Z   2
loop_
 _symmetry_equiv_pos_site_id
 _symmetry_equiv_pos_as_xyz
  1  'x, y, z'
loop_
 _atom_site_type_symbol
 _atom_site_label
 _atom_site_symmetry_multiplicity
 _atom_site_fract_x
 _atom_site_fract_y
 _atom_site_fract_z
 _atom_site_occupancy
  Zr  Zr0  1  0.61559000  0.49673000  0.87854000  1.0
  Zr  Zr1  1  0.37610000  0.49289000  0.11572000  1.0
  Zr  Zr2  1  0.61638000  0.73435000  0.11962000  1.0
  Zr  Zr3  1  0.37617000  0.25948000  0.87854000  1.0
  Zr  Zr4  1  0.61855000  0.49729000  0.11568000  1.0
  Zr  Zr5  1  0.38157000  0.50339000  0.88139000  1.0
  H  H6  1  0.77867000  0.68826000  0.09610000  1.0
  H  H7  1  0.40160000  0.30272000  0.08564000  1.0
  H  H8  1  0.41042000  0.69133000  0.09742000  1.0
  H  H9  1  0.40004000  0.31258000  0.71818000  1.0
  H  H10  1  0.90918000  0.51266000  0.21359000  1.0
  H  H11  1  0.00839000  0.67528000  0.26994000  1.0
  H  H12  1  0.15923000  0.64192000  0.26717000  1.0
  H  H13  1  0.05950000  0.47497000  0.19233000  1.0
  H  H14  1  0.28929000  0.50276000  0.58181000  1.0
  H  H15  1  0.23918000  0.34027000  0.50697000  1.0
  H  H16  1  0.23412000  0.32742000  0.33156000  1.0
  H  H17  1  0.28606000  0.49103000  0.40618000  1.0
  H  H18  1  0.37928000  0.88987000  0.72489000  1.0
  H  H19  1  0.28566000  0.86598000  0.79894000  1.0
  H  H20  1  0.30051000  0.69542000  0.78151000  1.0
  H  H21  1  0.40783000  0.73615000  0.72539000  1.0
  H  H22  1  0.99075000  0.91143000  0.68187000  1.0
  H  H23  1  0.07663000  0.88422000  0.60486000  1.0
  H  H24  1  0.90927000  0.70899000  0.43241000  1.0
  H  H25  1  0.82466000  0.73875000  0.50979000  1.0
  H  H26  1  0.94435000  0.78613000  0.06540000  1.0
  H  H27  1  0.12462000  0.82483000  0.11499000  1.0
  H  H28  1  0.27084000  0.09836000  0.03614000  1.0
  H  H29  1  0.28830000  0.97978000  0.09768000  1.0
  H  H30  1  0.75041000  0.27393000  0.64250000  1.0
  H  H31  1  0.67849000  0.28415000  0.55595000  1.0
  H  H32  1  0.67742000  0.11127000  0.38872000  1.0
  H  H33  1  0.75352000  0.10491000  0.47558000  1.0
  H  H34  1  0.91330000  0.08119000  0.84553000  1.0
  H  H35  1  0.04988000  0.21594000  0.93418000  1.0
  H  H36  1  0.93731000  0.19168000  0.98395000  1.0
  H  H37  1  0.77666000  0.02525000  0.97277000  1.0
  H  H38  1  0.71111000  0.86459000  0.92523000  1.0
  H  H39  1  0.75806000  0.91272000  0.83704000  1.0
  C  C40  1  0.80609000  0.50913000  0.99963000  1.0
  C  C41  1  0.49555000  0.48177000  0.29190000  1.0
  C  C42  1  0.20403000  0.51647000  0.00547000  1.0
  C  C43  1  0.50359000  0.50556000  0.69910000  1.0
  C  C44  1  0.79852000  0.80085000  0.99649000  1.0
  C  C45  1  0.49247000  0.19150000  0.69470000  1.0
  C  C46  1  0.18697000  0.19009000  0.99010000  1.0
  C  C47  1  0.50072000  0.79166000  0.30991000  1.0
  C  C48  1  0.79598000  0.80056000  0.30714000  1.0
  C  C49  1  0.51394000  0.80596000  0.99440000  1.0
  C  C50  1  0.18420000  0.20615000  0.71009000  1.0
  C  C51  1  0.51489000  0.19763000  0.98473000  1.0
  C  C52  1  0.91833000  0.53625000  0.00647000  1.0
  C  C53  1  0.11776000  0.54247000  0.01232000  1.0
  C  C54  1  0.97755000  0.55445000  0.09415000  1.0
  C  C55  1  0.07325000  0.55391000  0.93630000  1.0
  C  C56  1  0.06974000  0.55060000  0.09398000  1.0
  C  C57  1  0.97266000  0.54275000  0.92860000  1.0
  C  C58  1  0.98270000  0.57829000  0.20625000  1.0
  C  C59  1  0.08002000  0.56159000  0.20098000  1.0
  C  C60  1  0.50695000  0.49976000  0.59594000  1.0
  C  C61  1  0.49671000  0.47200000  0.38724000  1.0
  C  C62  1  0.41440000  0.46626000  0.52860000  1.0
  C  C63  1  0.58513000  0.48791000  0.44663000  1.0
  C  C64  1  0.41112000  0.45745000  0.43068000  1.0
  C  C65  1  0.59520000  0.51398000  0.55285000  1.0
  C  C66  1  0.29766000  0.43031000  0.51708000  1.0
  C  C67  1  0.29451000  0.42208000  0.40696000  1.0
  C  C68  1  0.53242000  0.10418000  0.98009000  1.0
  C  C69  1  0.53042000  0.91096000  0.98898000  1.0
  C  C70  1  0.45868000  0.97441000  0.89927000  1.0
  C  C71  1  0.61199000  0.04319000  0.06875000  1.0
  C  C72  1  0.46169000  0.88248000  0.90067000  1.0
  C  C73  1  0.61711000  0.13563000  0.05904000  1.0
  C  C74  1  0.36379000  0.87749000  0.79141000  1.0
  C  C75  1  0.37425000  0.77523000  0.78824000  1.0
  C  C76  1  0.07710000  0.11081000  0.61684000  1.0
  C  C77  1  0.89289000  0.90821000  0.41058000  1.0
  C  C78  1  0.01787000  0.98294000  0.57749000  1.0
  C  C79  1  0.95211000  0.03812000  0.44893000  1.0
  C  C80  1  0.92707000  0.88659000  0.48111000  1.0
  C  C81  1  0.03375000  0.13674000  0.55408000  1.0
  C  C82  1  0.00741000  0.89299000  0.60473000  1.0
  C  C83  1  0.90344000  0.78424000  0.49662000  1.0
  C  C84  1  0.89866000  0.90153000  0.99410000  1.0
  C  C85  1  0.00259000  0.92336000  0.02500000  1.0
  C  C86  1  0.88830000  0.96948000  0.96102000  1.0
  C  C87  1  0.01599000  0.85693000  0.06113000  1.0
  C  C88  1  0.11678000  0.87786000  0.08830000  1.0
  C  C89  1  0.08554000  0.08827000  0.98931000  1.0
  C  C90  1  0.98413000  0.06729000  0.96158000  1.0
  C  C91  1  0.09736000  0.01581000  0.01923000  1.0
  C  C92  1  0.19958000  0.03317000  0.04561000  1.0
  C  C93  1  0.20928000  0.96581000  0.07912000  1.0
  C  C94  1  0.48769000  0.08518000  0.59539000  1.0
  C  C95  1  0.49765000  0.88702000  0.41251000  1.0
  C  C96  1  0.57484000  0.11118000  0.55360000  1.0
  C  C97  1  0.41268000  0.85827000  0.45977000  1.0
  C  C98  1  0.57724000  0.01659000  0.46343000  1.0
  C  C99  1  0.40243000  0.95358000  0.54101000  1.0
  C  C100  1  0.68326000  0.21795000  0.56602000  1.0
  C  C101  1  0.68445000  0.11108000  0.46217000  1.0
  C  C102  1  0.97138000  0.14318000  0.92962000  1.0
  C  C103  1  0.77772000  0.94119000  0.92230000  1.0
  Br  Br104  1  0.15659000  0.60296000  0.85297000  1.0
  Br  Br105  1  0.91605000  0.54357000  0.81438000  1.0
  Br  Br106  1  0.68296000  0.45452000  0.37782000  1.0
  Br  Br107  1  0.73506000  0.57942000  0.63928000  1.0
  Br  Br108  1  0.72002000  0.10342000  0.19147000  1.0
  Br  Br109  1  0.74905000  0.30227000  0.14501000  1.0
  Br  Br110  1  0.93326000  0.08573000  0.35625000  1.0
  Br  Br111  1  0.07308000  0.30355000  0.61563000  1.0
  Br  Br112  1  0.31421000  0.69124000  0.42354000  1.0
  Br  Br113  1  0.26435000  0.89854000  0.56614000  1.0
  O  O114  1  0.75144000  0.48715000  0.91641000  1.0
  O  O115  1  0.41549000  0.47958000  0.25612000  1.0
  O  O116  1  0.23324000  0.50582000  0.07882000  1.0
  O  O117  1  0.57597000  0.50249000  0.74144000  1.0
  O  O118  1  0.76132000  0.83816000  0.07459000  1.0
  O  O119  1  0.41897000  0.16161000  0.73897000  1.0
  O  O120  1  0.22998000  0.15392000  0.91735000  1.0
  O  O121  1  0.57487000  0.83579000  0.27125000  1.0
  O  O122  1  0.76435000  0.68760000  0.26961000  1.0
  O  O123  1  0.43368000  0.69296000  0.91776000  1.0
  O  O124  1  0.23425000  0.32252000  0.74590000  1.0
  O  O125  1  0.58295000  0.31423000  0.06383000  1.0
  O  O126  1  0.57892000  0.83542000  0.07544000  1.0
  O  O127  1  0.22119000  0.16230000  0.74300000  1.0
  O  O128  1  0.42991000  0.15346000  0.91308000  1.0
  O  O129  1  0.74976000  0.82973000  0.26442000  1.0
  O  O130  1  0.75932000  0.68534000  0.92073000  1.0
  O  O131  1  0.42666000  0.67401000  0.26520000  1.0
  O  O132  1  0.22467000  0.30560000  0.06471000  1.0
  O  O133  1  0.57118000  0.30470000  0.72998000  1.0
  O  O134  1  0.42568000  0.50679000  0.73478000  1.0
  O  O135  1  0.77185000  0.50873000  0.07825000  1.0
  O  O136  1  0.57600000  0.49645000  0.25544000  1.0
  O  O137  1  0.24023000  0.50327000  0.92540000  1.0
  O  O138  1  0.42820000  0.36504000  0.79782000  1.0
  O  O139  1  0.43270000  0.63380000  0.06814000  1.0
  O  O140  1  0.42823000  0.35754000  0.06045000  1.0
  O  O141  1  0.69878000  0.63205000  0.06667000  1.0
  O  O142  1  0.54472000  0.59143000  0.14507000  1.0
  O  O143  1  0.54557000  0.39860000  0.94789000  1.0
  O  O144  1  0.34917000  0.40079000  0.94958000  1.0
  O  O145  1  0.54849000  0.59817000  0.95016000  1.0
