# generated using pymatgen
data_CuH14C14(NO3)2
_symmetry_space_group_name_H-M   'P 1'
_cell_length_a   8.54946000
_cell_length_b   9.04638000
_cell_length_c   9.93192000
_cell_angle_alpha   99.41570000
_cell_angle_beta   95.66750000
_cell_angle_gamma   94.13420000
_symmetry_Int_Tables_number   1
_chemical_formula_structural   CuH14C14(NO3)2
_chemical_formula_sum   'Cu2 H28 C28 N4 O12'
_cell_volume   751.04482670
_cell_formula_units_Z   2
loop_
 _symmetry_equiv_pos_site_id
 _symmetry_equiv_pos_as_xyz
  1  'x, y, z'
loop_
 _atom_site_type_symbol
 _atom_site_label
 _atom_site_symmetry_multiplicity
 _atom_site_fract_x
 _atom_site_fract_y
 _atom_site_fract_z
 _atom_site_occupancy
  Cu  Cu0  1  0.78625000  0.15826000  0.14502000  1.0
  Cu  Cu1  1  0.21375000  0.84174000  0.85499000  1.0
  H  H2  1  0.57306000  0.01261000  0.69661000  1.0
  H  H3  1  0.42694000  0.98738000  0.30339000  1.0
  H  H4  1  0.46323000  0.80116000  0.43845000  1.0
  H  H5  1  0.53677000  0.19884000  0.56155000  1.0
  H  H6  1  0.70442000  0.06579000  0.39584000  1.0
  H  H7  1  0.29558000  0.93421000  0.60416000  1.0
  H  H8  1  0.07810000  0.25104000  0.71512000  1.0
  H  H9  1  0.92190000  0.74897000  0.28488000  1.0
  H  H10  1  0.21243000  0.36670000  0.53880000  1.0
  H  H11  1  0.78757000  0.63330000  0.46120000  1.0
  H  H12  1  0.07826000  0.32916000  0.29679000  1.0
  H  H13  1  0.92174000  0.67084000  0.70321000  1.0
  H  H14  1  0.84317000  0.97402000  0.68486000  1.0
  H  H15  1  0.15684000  0.02597000  0.31513000  1.0
  H  H16  1  0.81211000  0.15382000  0.77287000  1.0
  H  H17  1  0.18789000  0.84617000  0.22713000  1.0
  H  H18  1  0.56611000  0.32566000  0.31133000  1.0
  H  H19  1  0.43389000  0.67434000  0.68867000  1.0
  H  H20  1  0.55190000  0.75277000  0.17319000  1.0
  H  H21  1  0.44811000  0.24723000  0.82682000  1.0
  H  H22  1  0.75395000  0.67150000  0.01527000  1.0
  H  H23  1  0.24605000  0.32850000  0.98473000  1.0
  H  H24  1  0.84766000  0.41380000  0.01153000  1.0
  H  H25  1  0.15233000  0.58619000  0.98846000  1.0
  H  H26  1  0.31732000  0.62410000  0.29878000  1.0
  H  H27  1  0.68268000  0.37590000  0.70123000  1.0
  H  H28  1  0.38553000  0.48870000  0.39741000  1.0
  H  H29  1  0.61447000  0.51130000  0.60259000  1.0
  C  C30  1  0.53802000  0.01802000  0.93591000  1.0
  C  C31  1  0.46198000  0.98197000  0.06409000  1.0
  C  C32  1  0.04184000  0.07116000  0.97856000  1.0
  C  C33  1  0.95816000  0.92885000  0.02144000  1.0
  C  C34  1  0.81570000  0.13284000  0.43262000  1.0
  C  C35  1  0.18430000  0.86717000  0.56738000  1.0
  C  C36  1  0.87850000  0.15147000  0.57007000  1.0
  C  C37  1  0.12149000  0.84853000  0.42993000  1.0
  C  C38  1  0.02359000  0.23698000  0.60922000  1.0
  C  C39  1  0.97641000  0.76303000  0.39078000  1.0
  C  C40  1  0.09810000  0.30216000  0.51176000  1.0
  C  C41  1  0.90189000  0.69784000  0.48824000  1.0
  C  C42  1  0.02584000  0.28089000  0.37735000  1.0
  C  C43  1  0.97416000  0.71912000  0.62265000  1.0
  C  C44  1  0.79283000  0.08047000  0.67156000  1.0
  C  C45  1  0.20718000  0.91952000  0.32844000  1.0
  C  C46  1  0.60172000  0.40450000  0.24528000  1.0
  C  C47  1  0.39829000  0.59551000  0.75472000  1.0
  C  C48  1  0.53989000  0.54381000  0.25243000  1.0
  C  C49  1  0.46011000  0.45620000  0.74757000  1.0
  C  C50  1  0.59479000  0.64168000  0.16827000  1.0
  C  C51  1  0.40521000  0.35833000  0.83173000  1.0
  C  C52  1  0.70581000  0.59707000  0.07977000  1.0
  C  C53  1  0.29419000  0.40293000  0.92023000  1.0
  C  C54  1  0.76040000  0.45546000  0.07794000  1.0
  C  C55  1  0.23960000  0.54454000  0.92205000  1.0
  C  C56  1  0.42283000  0.58763000  0.35320000  1.0
  C  C57  1  0.57718000  0.41237000  0.64680000  1.0
  N  N58  1  0.88767000  0.19631000  0.33908000  1.0
  N  N59  1  0.11232000  0.80369000  0.66092000  1.0
  N  N60  1  0.70933000  0.36202000  0.15986000  1.0
  N  N61  1  0.29067000  0.63798000  0.84014000  1.0
  O  O62  1  0.66405000  0.10571000  0.95531000  1.0
  O  O63  1  0.33595000  0.89427000  0.04469000  1.0
  O  O64  1  0.46924000  0.95961000  0.81868000  1.0
  O  O65  1  0.53076000  0.04037000  0.18132000  1.0
  O  O66  1  0.00902000  0.19911000  0.03267000  1.0
  O  O67  1  0.99098000  0.80090000  0.96733000  1.0
  O  O68  1  0.13938000  0.04849000  0.88901000  1.0
  O  O69  1  0.86063000  0.95152000  0.11100000  1.0
  O  O70  1  0.62881000  0.05222000  0.62378000  1.0
  O  O71  1  0.37119000  0.94776000  0.37622000  1.0
  O  O72  1  0.49072000  0.70327000  0.46343000  1.0
  O  O73  1  0.50929000  0.29673000  0.53657000  1.0
