# generated using pymatgen
data_CuH6C6(N2Cl)2
_symmetry_space_group_name_H-M   'P 1'
_cell_length_a   3.94822000
_cell_length_b   7.58475000
_cell_length_c   14.52880000
_cell_angle_alpha   90.00040000
_cell_angle_beta   90.00190000
_cell_angle_gamma   85.68780000
_symmetry_Int_Tables_number   1
_chemical_formula_structural   CuH6C6(N2Cl)2
_chemical_formula_sum   'Cu2 H12 C12 N8 Cl4'
_cell_volume   433.85158866
_cell_formula_units_Z   2
loop_
 _symmetry_equiv_pos_site_id
 _symmetry_equiv_pos_as_xyz
  1  'x, y, z'
loop_
 _atom_site_type_symbol
 _atom_site_label
 _atom_site_symmetry_multiplicity
 _atom_site_fract_x
 _atom_site_fract_y
 _atom_site_fract_z
 _atom_site_occupancy
  Cu  Cu0  1  0.38628000  0.35998000  0.85906000  1.0
  Cu  Cu1  1  0.61368000  0.64000000  0.35905000  1.0
  H  H2  1  0.76258000  0.91488000  0.75241000  1.0
  H  H3  1  0.23742000  0.08512000  0.25241000  1.0
  H  H4  1  0.08924000  0.99160000  0.93274000  1.0
  H  H5  1  0.91075000  0.00838000  0.43272000  1.0
  H  H6  1  0.89758000  0.38287000  0.65931000  1.0
  H  H7  1  0.10244000  0.61714000  0.15932000  1.0
  H  H8  1  0.60742000  0.72114000  0.61710000  1.0
  H  H9  1  0.39265000  0.27889000  0.11709000  1.0
  H  H10  1  0.67628000  0.56225000  0.05578000  1.0
  H  H11  1  0.32374000  0.43775000  0.55577000  1.0
  H  H12  1  0.45491000  0.91839000  0.07415000  1.0
  H  H13  1  0.54504000  0.08161000  0.57416000  1.0
  C  C14  1  0.91089000  0.50713000  0.69533000  1.0
  C  C15  1  0.08911000  0.49289000  0.19533000  1.0
  C  C16  1  0.76498000  0.67347000  0.67447000  1.0
  C  C17  1  0.23504000  0.32654000  0.17447000  1.0
  C  C18  1  0.04313000  0.68515000  0.80595000  1.0
  C  C19  1  0.95686000  0.31485000  0.30595000  1.0
  C  C20  1  0.20486000  0.72295000  0.89119000  1.0
  C  C21  1  0.79513000  0.27705000  0.39118000  1.0
  C  C22  1  0.51574000  0.64739000  0.01151000  1.0
  C  C23  1  0.48424000  0.35262000  0.51150000  1.0
  C  C24  1  0.40840000  0.82390000  0.02067000  1.0
  C  C25  1  0.59155000  0.17610000  0.52067000  1.0
  N  N26  1  0.08275000  0.51645000  0.77700000  1.0
  N  N27  1  0.91728000  0.48353000  0.27699000  1.0
  N  N28  1  0.85222000  0.78345000  0.74491000  1.0
  N  N29  1  0.14779000  0.21656000  0.24490000  1.0
  N  N30  1  0.21570000  0.86882000  0.94402000  1.0
  N  N31  1  0.78426000  0.13118000  0.44403000  1.0
  N  N32  1  0.38674000  0.58630000  0.93092000  1.0
  N  N33  1  0.61326000  0.41368000  0.43092000  1.0
  Cl  Cl34  1  0.38567000  0.13209000  0.75849000  1.0
  Cl  Cl35  1  0.61437000  0.86791000  0.25850000  1.0
  Cl  Cl36  1  0.77402000  0.22877000  0.95784000  1.0
  Cl  Cl37  1  0.22601000  0.77122000  0.45781000  1.0
