# generated using pymatgen
data_CdH16C20S4(N2Cl)2
_symmetry_space_group_name_H-M   'P 1'
_cell_length_a   7.54669000
_cell_length_b   9.20839000
_cell_length_c   18.18170000
_cell_angle_alpha   90.00050000
_cell_angle_beta   90.00010000
_cell_angle_gamma   80.19670000
_symmetry_Int_Tables_number   1
_chemical_formula_structural   CdH16C20S4(N2Cl)2
_chemical_formula_sum   'Cd2 H32 C40 S8 N8 Cl4'
_cell_volume   1245.04893281
_cell_formula_units_Z   2
loop_
 _symmetry_equiv_pos_site_id
 _symmetry_equiv_pos_as_xyz
  1  'x, y, z'
loop_
 _atom_site_type_symbol
 _atom_site_label
 _atom_site_symmetry_multiplicity
 _atom_site_fract_x
 _atom_site_fract_y
 _atom_site_fract_z
 _atom_site_occupancy
  Cd  Cd0  1  0.00000000  0.00000000  0.50000000  1.0
  Cd  Cd1  1  0.00000000  0.50000000  0.00000000  1.0
  H  H2  1  0.41305000  0.88614000  0.44957000  1.0
  H  H3  1  0.41305000  0.38615000  0.05043000  1.0
  H  H4  1  0.58695000  0.11385000  0.55043000  1.0
  H  H5  1  0.58696000  0.61385000  0.94957000  1.0
  H  H6  1  0.62349000  0.66677000  0.40329000  1.0
  H  H7  1  0.62349000  0.16677000  0.09671000  1.0
  H  H8  1  0.37651000  0.33323000  0.59671000  1.0
  H  H9  1  0.37651000  0.83322000  0.90329000  1.0
  H  H10  1  0.18661000  0.41910000  0.42300000  1.0
  H  H11  1  0.18660000  0.91911000  0.07701000  1.0
  H  H12  1  0.81340000  0.58089000  0.57701000  1.0
  H  H13  1  0.81340000  0.08089000  0.92299000  1.0
  H  H14  1  0.99119000  0.65469000  0.46396000  1.0
  H  H15  1  0.99119000  0.15470000  0.03604000  1.0
  H  H16  1  0.00881000  0.34530000  0.53604000  1.0
  H  H17  1  0.00881000  0.84530000  0.96396000  1.0
  H  H18  1  0.09549000  0.48732000  0.29165000  1.0
  H  H19  1  0.09549000  0.98732000  0.20834000  1.0
  H  H20  1  0.90451000  0.51268000  0.70835000  1.0
  H  H21  1  0.90451000  0.01268000  0.79165000  1.0
  H  H22  1  0.14560000  0.54293000  0.15893000  1.0
  H  H23  1  0.14561000  0.04293000  0.34107000  1.0
  H  H24  1  0.85439000  0.45707000  0.84107000  1.0
  H  H25  1  0.85439000  0.95707000  0.65893000  1.0
  H  H26  1  0.63221000  0.48553000  0.10180000  1.0
  H  H27  1  0.63222000  0.98553000  0.39820000  1.0
  H  H28  1  0.36778000  0.51447000  0.89820000  1.0
  H  H29  1  0.36778000  0.01448000  0.60180000  1.0
  H  H30  1  0.55578000  0.43062000  0.23201000  1.0
  H  H31  1  0.55578000  0.93062000  0.26800000  1.0
  H  H32  1  0.44422000  0.56938000  0.76800000  1.0
  H  H33  1  0.44422000  0.06938000  0.73201000  1.0
  C  C34  1  0.36699000  0.78155000  0.44043000  1.0
  C  C35  1  0.36699000  0.28155000  0.05957000  1.0
  C  C36  1  0.63301000  0.21845000  0.55957000  1.0
  C  C37  1  0.63302000  0.71845000  0.94043000  1.0
  C  C38  1  0.48370000  0.65896000  0.41445000  1.0
  C  C39  1  0.48370000  0.15896000  0.08555000  1.0
  C  C40  1  0.51630000  0.34104000  0.58555000  1.0
  C  C41  1  0.51631000  0.84104000  0.91445000  1.0
  C  C42  1  0.41929000  0.52634000  0.40684000  1.0
  C  C43  1  0.41929000  0.02634000  0.09315000  1.0
  C  C44  1  0.58072000  0.47366000  0.59315000  1.0
  C  C45  1  0.58071000  0.97366000  0.90684000  1.0
  C  C46  1  0.23911000  0.52249000  0.42508000  1.0
  C  C47  1  0.23911000  0.02249000  0.07492000  1.0
  C  C48  1  0.76089000  0.47751000  0.57492000  1.0
  C  C49  1  0.76089000  0.97751000  0.92507000  1.0
  C  C50  1  0.13210000  0.65167000  0.44913000  1.0
  C  C51  1  0.13210000  0.15167000  0.05087000  1.0
  C  C52  1  0.86790000  0.34833000  0.55087000  1.0
  C  C53  1  0.86790000  0.84833000  0.94912000  1.0
  C  C54  1  0.82133000  0.45182000  0.27201000  1.0
  C  C55  1  0.82133000  0.95182000  0.22800000  1.0
  C  C56  1  0.17867000  0.54818000  0.72800000  1.0
  C  C57  1  0.17867000  0.04818000  0.77201000  1.0
  C  C58  1  0.98908000  0.48542000  0.25128000  1.0
  C  C59  1  0.98908000  0.98542000  0.24872000  1.0
  C  C60  1  0.01092000  0.51458000  0.74872000  1.0
  C  C61  1  0.01092000  0.01458000  0.75128000  1.0
  C  C62  1  0.01795000  0.51539000  0.17790000  1.0
  C  C63  1  0.01796000  0.01539000  0.32210000  1.0
  C  C64  1  0.98205000  0.48461000  0.82210000  1.0
  C  C65  1  0.98204000  0.98461000  0.67790000  1.0
  C  C66  1  0.73070000  0.48467000  0.14582000  1.0
  C  C67  1  0.73071000  0.98467000  0.35418000  1.0
  C  C68  1  0.26929000  0.51533000  0.85418000  1.0
  C  C69  1  0.26929000  0.01534000  0.64582000  1.0
  C  C70  1  0.68842000  0.45446000  0.21818000  1.0
  C  C71  1  0.68843000  0.95446000  0.28182000  1.0
  C  C72  1  0.31157000  0.54555000  0.78182000  1.0
  C  C73  1  0.31157000  0.04555000  0.71818000  1.0
  S  S74  1  0.55032000  0.35747000  0.37829000  1.0
  S  S75  1  0.55031000  0.85747000  0.12171000  1.0
  S  S76  1  0.44969000  0.64253000  0.62172000  1.0
  S  S77  1  0.44969000  0.14252000  0.87829000  1.0
  S  S78  1  0.80206000  0.40360000  0.36527000  1.0
  S  S79  1  0.80206000  0.90360000  0.13473000  1.0
  S  S80  1  0.19794000  0.59640000  0.63473000  1.0
  S  S81  1  0.19794000  0.09640000  0.86527000  1.0
  N  N82  1  0.19390000  0.77956000  0.45697000  1.0
  N  N83  1  0.19390000  0.27956000  0.04303000  1.0
  N  N84  1  0.80610000  0.22044000  0.54303000  1.0
  N  N85  1  0.80610000  0.72044000  0.95697000  1.0
  N  N86  1  0.89257000  0.51299000  0.12550000  1.0
  N  N87  1  0.89258000  0.01298000  0.37450000  1.0
  N  N88  1  0.10742000  0.48702000  0.87450000  1.0
  N  N89  1  0.10742000  0.98702000  0.62550000  1.0
  Cl  Cl90  1  0.24817000  0.15279000  0.46373000  1.0
  Cl  Cl91  1  0.24816000  0.65280000  0.03628000  1.0
  Cl  Cl92  1  0.75183000  0.84721000  0.53628000  1.0
  Cl  Cl93  1  0.75184000  0.34720000  0.96372000  1.0
