# generated using pymatgen
data_AlH24C45(NO4)3
_symmetry_space_group_name_H-M   'P 1'
_cell_length_a   3.97378000
_cell_length_b   23.49950000
_cell_length_c   23.51048524
_cell_angle_alpha   60.08250319
_cell_angle_beta   89.63579722
_cell_angle_gamma   86.35120000
_symmetry_Int_Tables_number   1
_chemical_formula_structural   AlH24C45(NO4)3
_chemical_formula_sum   'Al1 H24 C45 N3 O12'
_cell_volume   1898.22098420
_cell_formula_units_Z   1
loop_
 _symmetry_equiv_pos_site_id
 _symmetry_equiv_pos_as_xyz
  1  'x, y, z'
loop_
 _atom_site_type_symbol
 _atom_site_label
 _atom_site_symmetry_multiplicity
 _atom_site_fract_x
 _atom_site_fract_y
 _atom_site_fract_z
 _atom_site_occupancy
  Al  Al0  1  0.98043000  0.00045000  0.50060000  1.0
  H  H1  1  0.53717000  0.99327000  0.67928000  1.0
  H  H2  1  0.55419000  0.93608000  0.80077000  1.0
  H  H3  1  0.21216000  0.88260000  0.89014000  1.0
  H  H4  1  0.18414000  0.82372000  0.01057000  1.0
  H  H5  1  0.49669000  0.94409000  0.25056000  1.0
  H  H6  1  0.76735000  0.87992000  0.22027000  1.0
  H  H7  1  0.74842000  0.81814000  0.16204000  1.0
  H  H8  1  0.47350000  0.78870000  0.10492000  1.0
  H  H9  1  0.50960000  0.82851000  0.49406000  1.0
  H  H10  1  0.52611000  0.76350000  0.43748000  1.0
  H  H11  1  0.23411000  0.73086000  0.38000000  1.0
  H  H12  1  0.21064000  0.66958000  0.32122000  1.0
  H  H13  1  0.41152000  0.30799000  0.44096000  1.0
  H  H14  1  0.73905000  0.39264000  0.38375000  1.0
  H  H15  1  0.73579000  0.51312000  0.32250000  1.0
  H  H16  1  0.45612000  0.60705000  0.28829000  1.0
  H  H17  1  0.48636000  0.17756000  0.32734000  1.0
  H  H18  1  0.51018000  0.29867000  0.26263000  1.0
  H  H19  1  0.18803000  0.39744000  0.22394000  1.0
  H  H20  1  0.17764000  0.51816000  0.16334000  1.0
  H  H21  1  0.48539000  0.75052000  0.80662000  1.0
  H  H22  1  0.80069000  0.71713000  0.90029000  1.0
  H  H23  1  0.77794000  0.65890000  0.02070000  1.0
  H  H24  1  0.45805000  0.60546000  0.10629000  1.0
  C  C25  1  0.49581000  0.94298000  0.60073000  1.0
  C  C26  1  0.44581000  0.10082000  0.45671000  1.0
  C  C27  1  0.49656000  0.95751000  0.44320000  1.0
  C  C28  1  0.52646000  0.93995000  0.70778000  1.0
  C  C29  1  0.53383000  0.90757000  0.77605000  1.0
  C  C30  1  0.34220000  0.83388000  0.91867000  1.0
  C  C31  1  0.32708000  0.80064000  0.98677000  1.0
  C  C32  1  0.50664000  0.95264000  0.33662000  1.0
  C  C33  1  0.50912000  0.91702000  0.30397000  1.0
  C  C34  1  0.63854000  0.83437000  0.24227000  1.0
  C  C35  1  0.62739000  0.79932000  0.20921000  1.0
  C  C36  1  0.50670000  0.90481000  0.67432000  1.0
  C  C37  1  0.51813000  0.83887000  0.81368000  1.0
  C  C38  1  0.50828000  0.80437000  0.88596000  1.0
  C  C39  1  0.47887000  0.73667000  0.02505000  1.0
  C  C40  1  0.46568000  0.70117000  0.09741000  1.0
  C  C41  1  0.46683000  0.73530000  0.13213000  1.0
  C  C42  1  0.50849000  0.85321000  0.44056000  1.0
  C  C43  1  0.51561000  0.81703000  0.40840000  1.0
  C  C44  1  0.35366000  0.74977000  0.33265000  1.0
  C  C45  1  0.34106000  0.71493000  0.29931000  1.0
  C  C46  1  0.42577000  0.21282000  0.45025000  1.0
  C  C47  1  0.43545000  0.28083000  0.41465000  1.0
  C  C48  1  0.61058000  0.42000000  0.33573000  1.0
  C  C49  1  0.60707000  0.48824000  0.30119000  1.0
  C  C50  1  0.50266000  0.92208000  0.40512000  1.0
  C  C51  1  0.51088000  0.84815000  0.33943000  1.0
  C  C52  1  0.50177000  0.81043000  0.30478000  1.0
  C  C53  1  0.47717000  0.73890000  0.23672000  1.0
  C  C54  1  0.46512000  0.70219000  0.20093000  1.0
  C  C55  1  0.45731000  0.63347000  0.23483000  1.0
  C  C56  1  0.46865000  0.20679000  0.35167000  1.0
  C  C57  1  0.48082000  0.27490000  0.31559000  1.0
  C  C58  1  0.31447000  0.42252000  0.24536000  1.0
  C  C59  1  0.30869000  0.49088000  0.21109000  1.0
  C  C60  1  0.50066000  0.83633000  0.71208000  1.0
  C  C61  1  0.50486000  0.80357000  0.78031000  1.0
  C  C62  1  0.66026000  0.74042000  0.92418000  1.0
  C  C63  1  0.64658000  0.70744000  0.99222000  1.0
  C  C64  1  0.44019000  0.17440000  0.42000000  1.0
  C  C65  1  0.46209000  0.31331000  0.34624000  1.0
  C  C66  1  0.46409000  0.38566000  0.30858000  1.0
  C  C67  1  0.45519000  0.52532000  0.23815000  1.0
  C  C68  1  0.45447000  0.59785000  0.20158000  1.0
  C  C69  1  0.45829000  0.63250000  0.13282000  1.0
  N  N70  1  0.37953000  0.18229000  0.52165000  1.0
  N  N71  1  0.46918000  0.79618000  0.68036000  1.0
  N  N72  1  0.48343000  0.02512000  0.29567000  1.0
  O  O73  1  0.72363000  0.99665000  0.43385000  1.0
  O  O74  1  0.74002000  0.93390000  0.57053000  1.0
  O  O75  1  0.69013000  0.06952000  0.49723000  1.0
  O  O76  1  0.26846000  0.94187000  0.48559000  1.0
  O  O77  1  0.21657000  0.07552000  0.44105000  1.0
  O  O78  1  0.24678000  0.98520000  0.57474000  1.0
  O  O79  1  0.23788000  0.12999000  0.54895000  1.0
  O  O80  1  0.48043000  0.21149000  0.54928000  1.0
  O  O81  1  0.33398000  0.82353000  0.62481000  1.0
  O  O82  1  0.57600000  0.73757000  0.71182000  1.0
  O  O83  1  0.31869000  0.05673000  0.31687000  1.0
  O  O84  1  0.62587000  0.04912000  0.24230000  1.0
