# generated using pymatgen
data_Zn2H30C39BrN3O8
_symmetry_space_group_name_H-M   'P 1'
_cell_length_a   10.89900000
_cell_length_b   12.45890000
_cell_length_c   13.58040000
_cell_angle_alpha   79.85880000
_cell_angle_beta   88.14140000
_cell_angle_gamma   76.49320000
_symmetry_Int_Tables_number   1
_chemical_formula_structural   Zn2H30C39BrN3O8
_chemical_formula_sum   'Zn2 H30 C39 Br1 N3 O8'
_cell_volume   1764.98706988
_cell_formula_units_Z   1
loop_
 _symmetry_equiv_pos_site_id
 _symmetry_equiv_pos_as_xyz
  1  'x, y, z'
loop_
 _atom_site_type_symbol
 _atom_site_label
 _atom_site_symmetry_multiplicity
 _atom_site_fract_x
 _atom_site_fract_y
 _atom_site_fract_z
 _atom_site_occupancy
  Zn  Zn0  1  0.46817000  0.61220000  0.51067000  1.0
  Zn  Zn1  1  0.53487000  0.38578000  0.49000000  1.0
  H  H2  1  0.14915000  0.31824000  0.52664000  1.0
  H  H3  1  0.54962000  0.80518000  0.01740000  1.0
  H  H4  1  0.38756000  0.41264000  0.25257000  1.0
  H  H5  1  0.31159000  0.72495000  0.65994000  1.0
  H  H6  1  0.29783000  0.10855000  0.68669000  1.0
  H  H7  1  0.26505000  0.91391000  0.71347000  1.0
  H  H8  1  0.55264000  0.81821000  0.43833000  1.0
  H  H9  1  0.68088000  0.27805000  0.33927000  1.0
  H  H10  1  0.62956000  0.94214000  0.35695000  1.0
  H  H11  1  0.72667000  0.09648000  0.27355000  1.0
  H  H12  1  0.40528000  0.25095000  0.59808000  1.0
  H  H13  1  0.90440000  0.43268000  0.64377000  1.0
  H  H14  1  0.09832000  0.58699000  0.34506000  1.0
  H  H15  1  0.07149000  0.67525000  0.43618000  1.0
  H  H16  1  0.85859000  0.57949000  0.62743000  1.0
  H  H17  1  0.07035000  0.59512000  0.61728000  1.0
  H  H18  1  0.93308000  0.32813000  0.51673000  1.0
  H  H19  1  0.93369000  0.38608000  0.38910000  1.0
  H  H20  1  0.14888000  0.37809000  0.39927000  1.0
  H  H21  1  0.87226000  0.77039000  0.36078000  1.0
  H  H22  1  0.80430000  0.85659000  0.49078000  1.0
  H  H23  1  0.92738000  0.74565000  0.54876000  1.0
  H  H24  1  0.11108000  0.44917000  0.65989000  1.0
  H  H25  1  0.76611000  0.73467000  0.56118000  1.0
  H  H26  1  0.43138000  0.24943000  0.80096000  1.0
  H  H27  1  0.35231000  0.28349000  0.14459000  1.0
  H  H28  1  0.37578000  0.21987000  0.98239000  1.0
  H  H29  1  0.50920000  0.56446000  0.82425000  1.0
  H  H30  1  0.52953000  0.75379000  0.20328000  1.0
  H  H31  1  0.51756000  0.67664000  0.90781000  1.0
  C  C32  1  0.48376000  0.56802000  0.30722000  1.0
  C  C33  1  0.47022000  0.55320000  0.02775000  1.0
  C  C34  1  0.45296000  0.52676000  0.13324000  1.0
  C  C35  1  0.73833000  0.50462000  0.49197000  1.0
  C  C36  1  0.45495000  0.47394000  0.96488000  1.0
  C  C37  1  0.41574000  0.37454000  0.00850000  1.0
  C  C38  1  0.38824000  0.35691000  0.11296000  1.0
  C  C39  1  0.40730000  0.42881000  0.17298000  1.0
  C  C40  1  0.48038000  0.48979000  0.86179000  1.0
  C  C41  1  0.43595000  0.31144000  0.84738000  1.0
  C  C42  1  0.47880000  0.60003000  0.19546000  1.0
  C  C43  1  0.12167000  0.49868000  0.49862000  1.0
  C  C44  1  0.32804000  0.89666000  0.65126000  1.0
  C  C45  1  0.64016000  0.20854000  0.37382000  1.0
  C  C46  1  0.66494000  0.10690000  0.33753000  1.0
  C  C47  1  0.49919000  0.43494000  0.69404000  1.0
  C  C48  1  0.61014000  0.02184000  0.38389000  1.0
  C  C49  1  0.52917000  0.03896000  0.46576000  1.0
  C  C50  1  0.50658000  0.14523000  0.49689000  1.0
  C  C51  1  0.46827000  0.95477000  0.51942000  1.0
  C  C52  1  0.38526000  0.98062000  0.59967000  1.0
  C  C53  1  0.36287000  0.08951000  0.62594000  1.0
  C  C54  1  0.05995000  0.51460000  0.60042000  1.0
  C  C55  1  0.42143000  0.16868000  0.57694000  1.0
  C  C56  1  0.48800000  0.84606000  0.49675000  1.0
  C  C57  1  0.35263000  0.79307000  0.62273000  1.0
  C  C58  1  0.26097000  0.50105000  0.50223000  1.0
  C  C59  1  0.91065000  0.60668000  0.41423000  1.0
  C  C60  1  0.05554000  0.59683000  0.41819000  1.0
  C  C61  1  0.91969000  0.51006000  0.59730000  1.0
  C  C62  1  0.95976000  0.39580000  0.46374000  1.0
  C  C63  1  0.87867000  0.50711000  0.48897000  1.0
  C  C64  1  0.83516000  0.76493000  0.50966000  1.0
  C  C65  1  0.10220000  0.38989000  0.47074000  1.0
  C  C66  1  0.40625000  0.29526000  0.94775000  1.0
  C  C67  1  0.47242000  0.41056000  0.80347000  1.0
  C  C68  1  0.51073000  0.69965000  0.15355000  1.0
  C  C69  1  0.52291000  0.72737000  0.04958000  1.0
  C  C70  1  0.50466000  0.65471000  0.98813000  1.0
  Br  Br71  1  0.86682000  0.58789000  0.27334000  1.0
  N  N72  1  0.43143000  0.76911000  0.54608000  1.0
  N  N73  1  0.56425000  0.22704000  0.45108000  1.0
  N  N74  1  0.83747000  0.72003000  0.41693000  1.0
  O  O75  1  0.44193000  0.64511000  0.35846000  1.0
  O  O76  1  0.53360000  0.46600000  0.34236000  1.0
  O  O77  1  0.65870000  0.59678000  0.49174000  1.0
  O  O78  1  0.71284000  0.40864000  0.49961000  1.0
  O  O79  1  0.50572000  0.53475000  0.65794000  1.0
  O  O80  1  0.51169000  0.35517000  0.64411000  1.0
  O  O81  1  0.28760000  0.58525000  0.53036000  1.0
  O  O82  1  0.34062000  0.41907000  0.47603000  1.0
