# generated using pymatgen
data_CsH5C4(NO)4
_symmetry_space_group_name_H-M   'P 1'
_cell_length_a   6.88939000
_cell_length_b   9.35715000
_cell_length_c   13.78130000
_cell_angle_alpha   78.08500000
_cell_angle_beta   89.99990000
_cell_angle_gamma   89.99990000
_symmetry_Int_Tables_number   1
_chemical_formula_structural   CsH5C4(NO)4
_chemical_formula_sum   'Cs4 H20 C16 N16 O16'
_cell_volume   869.27139996
_cell_formula_units_Z   4
loop_
 _symmetry_equiv_pos_site_id
 _symmetry_equiv_pos_as_xyz
  1  'x, y, z'
loop_
 _atom_site_type_symbol
 _atom_site_label
 _atom_site_symmetry_multiplicity
 _atom_site_fract_x
 _atom_site_fract_y
 _atom_site_fract_z
 _atom_site_occupancy
  Cs  Cs0  1  0.01227000  0.85509000  0.63755000  1.0
  Cs  Cs1  1  0.51227000  0.14491000  0.86245000  1.0
  Cs  Cs2  1  0.98773000  0.14491000  0.36245000  1.0
  Cs  Cs3  1  0.48773000  0.85509000  0.13755000  1.0
  H  H4  1  0.37353000  0.44503000  0.63982000  1.0
  H  H5  1  0.87353000  0.55497000  0.86018000  1.0
  H  H6  1  0.62647000  0.55497000  0.36018000  1.0
  H  H7  1  0.12647000  0.44503000  0.13982000  1.0
  H  H8  1  0.92889000  0.19259000  0.71345000  1.0
  H  H9  1  0.42889000  0.80741000  0.78655000  1.0
  H  H10  1  0.07111000  0.80741000  0.28656000  1.0
  H  H11  1  0.57111000  0.19259000  0.21345000  1.0
  H  H12  1  0.82230000  0.30480000  0.60579000  1.0
  H  H13  1  0.32230000  0.69520000  0.89421000  1.0
  H  H14  1  0.17770000  0.69519000  0.39421000  1.0
  H  H15  1  0.67770000  0.30480000  0.10579000  1.0
  H  H16  1  0.03217000  0.50697000  0.61377000  1.0
  H  H17  1  0.53217000  0.49303000  0.88623000  1.0
  H  H18  1  0.96783000  0.49302000  0.38623000  1.0
  H  H19  1  0.46783000  0.50697000  0.11378000  1.0
  H  H20  1  0.04173000  0.42355000  0.74327000  1.0
  H  H21  1  0.54173000  0.57645000  0.75673000  1.0
  H  H22  1  0.95827000  0.57645000  0.25673000  1.0
  H  H23  1  0.45828000  0.42355000  0.24328000  1.0
  C  C24  1  0.43763000  0.23087000  0.54082000  1.0
  C  C25  1  0.93763000  0.76913000  0.95918000  1.0
  C  C26  1  0.56237000  0.76913000  0.45918000  1.0
  C  C27  1  0.06237000  0.23088000  0.04082000  1.0
  C  C28  1  0.26159000  0.26606000  0.59241000  1.0
  C  C29  1  0.76158000  0.73394000  0.90759000  1.0
  C  C30  1  0.73841000  0.73394000  0.40759000  1.0
  C  C31  1  0.23842000  0.26606000  0.09241000  1.0
  C  C32  1  0.95936000  0.27392000  0.64492000  1.0
  C  C33  1  0.45935000  0.72608000  0.85508000  1.0
  C  C34  1  0.04064000  0.72608000  0.35508000  1.0
  C  C35  1  0.54065000  0.27392000  0.14492000  1.0
  C  C36  1  0.06854000  0.40660000  0.66814000  1.0
  C  C37  1  0.56854000  0.59341000  0.83186000  1.0
  C  C38  1  0.93146000  0.59340000  0.33186000  1.0
  C  C39  1  0.43146000  0.40659000  0.16814000  1.0
  N  N40  1  0.54220000  0.10607000  0.58093000  1.0
  N  N41  1  0.04219000  0.89393000  0.91907000  1.0
  N  N42  1  0.45780000  0.89393000  0.41907000  1.0
  N  N43  1  0.95780000  0.10607000  0.08093000  1.0
  N  N44  1  0.48838000  0.32538000  0.45362000  1.0
  N  N45  1  0.98838000  0.67461000  0.04638000  1.0
  N  N46  1  0.51162000  0.67462000  0.54638000  1.0
  N  N47  1  0.01162000  0.32539000  0.95362000  1.0
  N  N48  1  0.27112000  0.36418000  0.65465000  1.0
  N  N49  1  0.77111000  0.63582000  0.84535000  1.0
  N  N50  1  0.72888000  0.63582000  0.34535000  1.0
  N  N51  1  0.22889000  0.36419000  0.15465000  1.0
  N  N52  1  0.09374000  0.20832000  0.58228000  1.0
  N  N53  1  0.59374000  0.79168000  0.91772000  1.0
  N  N54  1  0.90626000  0.79168000  0.41772000  1.0
  N  N55  1  0.40626000  0.20832000  0.08228000  1.0
  O  O56  1  0.48643000  0.03717000  0.66572000  1.0
  O  O57  1  0.98643000  0.96282000  0.83428000  1.0
  O  O58  1  0.51357000  0.96282000  0.33428000  1.0
  O  O59  1  0.01357000  0.03718000  0.16572000  1.0
  O  O60  1  0.68358000  0.06243000  0.53740000  1.0
  O  O61  1  0.18357000  0.93757000  0.96260000  1.0
  O  O62  1  0.31643000  0.93758000  0.46260000  1.0
  O  O63  1  0.81643000  0.06243000  0.03740000  1.0
  O  O64  1  0.63914000  0.31057000  0.40494000  1.0
  O  O65  1  0.13914000  0.68943000  0.09506000  1.0
  O  O66  1  0.36086000  0.68943000  0.59505000  1.0
  O  O67  1  0.86086000  0.31058000  0.90495000  1.0
  O  O68  1  0.37416000  0.43313000  0.42463000  1.0
  O  O69  1  0.87415000  0.56687000  0.07538000  1.0
  O  O70  1  0.62584000  0.56687000  0.57537000  1.0
  O  O71  1  0.12585000  0.43313000  0.92462000  1.0
