# generated using pymatgen
data_LaH9C14(NO5)2
_symmetry_space_group_name_H-M   'P 1'
_cell_length_a   7.27410000
_cell_length_b   9.96900000
_cell_length_c   11.09530000
_cell_angle_alpha   71.52820000
_cell_angle_beta   75.18260000
_cell_angle_gamma   78.71760000
_symmetry_Int_Tables_number   1
_chemical_formula_structural   LaH9C14(NO5)2
_chemical_formula_sum   'La2 H18 C28 N4 O20'
_cell_volume   731.96539031
_cell_formula_units_Z   2
loop_
 _symmetry_equiv_pos_site_id
 _symmetry_equiv_pos_as_xyz
  1  'x, y, z'
loop_
 _atom_site_type_symbol
 _atom_site_label
 _atom_site_symmetry_multiplicity
 _atom_site_fract_x
 _atom_site_fract_y
 _atom_site_fract_z
 _atom_site_occupancy
  La  La0  1  0.35575000  0.46939000  0.27127000  1.0
  La  La1  1  0.64425000  0.53061000  0.72873000  1.0
  H  H2  1  0.96615000  0.19142000  0.78111000  1.0
  H  H3  1  0.03386000  0.80858000  0.21890000  1.0
  H  H4  1  0.21205000  0.88176000  0.56797000  1.0
  H  H5  1  0.78795000  0.11824000  0.43203000  1.0
  H  H6  1  0.36952000  0.84608000  0.39621000  1.0
  H  H7  1  0.63048000  0.15392000  0.60379000  1.0
  H  H8  1  0.69177000  0.04633000  0.01775000  1.0
  H  H9  1  0.30823000  0.95367000  0.98225000  1.0
  H  H10  1  0.81843000  0.85778000  0.97907000  1.0
  H  H11  1  0.18157000  0.14223000  0.02093000  1.0
  H  H12  1  0.10592000  0.34843000  0.13361000  1.0
  H  H13  1  0.89408000  0.65157000  0.86639000  1.0
  H  H14  1  0.24628000  0.46036000  0.02716000  1.0
  H  H15  1  0.75372000  0.53964000  0.97284000  1.0
  H  H16  1  0.75992000  0.32725000  0.30991000  1.0
  H  H17  1  0.24008000  0.67275000  0.69009000  1.0
  H  H18  1  0.69108000  0.40375000  0.42296000  1.0
  H  H19  1  0.30892000  0.59625000  0.57704000  1.0
  C  C20  1  0.13356000  0.26501000  0.58654000  1.0
  C  C21  1  0.86644000  0.73499000  0.41346000  1.0
  C  C22  1  0.04790000  0.16231000  0.69402000  1.0
  C  C23  1  0.95211000  0.83769000  0.30599000  1.0
  C  C24  1  0.07632000  0.02201000  0.68665000  1.0
  C  C25  1  0.92368000  0.97799000  0.31335000  1.0
  C  C26  1  0.18428000  0.99140000  0.57287000  1.0
  C  C27  1  0.81573000  0.00860000  0.42714000  1.0
  C  C28  1  0.26082000  0.10136000  0.46833000  1.0
  C  C29  1  0.73918000  0.89864000  0.53167000  1.0
  C  C30  1  0.38106000  0.07534000  0.34611000  1.0
  C  C31  1  0.61894000  0.92466000  0.65389000  1.0
  C  C32  1  0.42190000  0.94061000  0.32336000  1.0
  C  C33  1  0.57810000  0.05939000  0.67664000  1.0
  C  C34  1  0.53759000  0.92564000  0.20521000  1.0
  C  C35  1  0.46241000  0.07436000  0.79479000  1.0
  C  C36  1  0.60457000  0.04749000  0.11278000  1.0
  C  C37  1  0.39543000  0.95251000  0.88722000  1.0
  C  C38  1  0.56020000  0.17667000  0.14373000  1.0
  C  C39  1  0.43980000  0.82333000  0.85627000  1.0
  C  C40  1  0.63134000  0.31122000  0.04809000  1.0
  C  C41  1  0.36866000  0.68879000  0.95191000  1.0
  C  C42  1  0.58872000  0.77996000  0.18047000  1.0
  C  C43  1  0.41128000  0.22004000  0.81953000  1.0
  C  C44  1  0.99888000  0.90144000  0.79788000  1.0
  C  C45  1  0.00111000  0.09856000  0.20212000  1.0
  C  C46  1  0.12507000  0.41620000  0.59062000  1.0
  C  C47  1  0.87493000  0.58380000  0.40938000  1.0
  N  N48  1  0.23441000  0.23631000  0.47604000  1.0
  N  N49  1  0.76559000  0.76369000  0.52396000  1.0
  N  N50  1  0.45280000  0.19062000  0.25762000  1.0
  N  N51  1  0.54719000  0.80938000  0.74238000  1.0
  O  O52  1  0.62227000  0.41488000  0.09541000  1.0
  O  O53  1  0.37772000  0.58512000  0.90459000  1.0
  O  O54  1  0.69032000  0.31301000  0.93077000  1.0
  O  O55  1  0.30969000  0.68699000  0.06923000  1.0
  O  O56  1  0.71557000  0.76370000  0.08150000  1.0
  O  O57  1  0.28442000  0.23631000  0.91849000  1.0
  O  O58  1  0.50126000  0.68030000  0.26348000  1.0
  O  O59  1  0.49875000  0.31970000  0.73652000  1.0
  O  O60  1  0.04128000  0.77685000  0.78988000  1.0
  O  O61  1  0.95871000  0.22315000  0.21012000  1.0
  O  O62  1  0.88891000  0.93977000  0.89722000  1.0
  O  O63  1  0.11109000  0.06023000  0.10279000  1.0
  O  O64  1  0.99958000  0.45958000  0.67612000  1.0
  O  O65  1  0.00042000  0.54042000  0.32388000  1.0
  O  O66  1  0.24933000  0.49053000  0.50552000  1.0
  O  O67  1  0.75067000  0.50947000  0.49448000  1.0
  O  O68  1  0.20208000  0.41206000  0.12031000  1.0
  O  O69  1  0.79792000  0.58793000  0.87969000  1.0
  O  O70  1  0.64803000  0.34950000  0.37527000  1.0
  O  O71  1  0.35197000  0.65050000  0.62473000  1.0
