# generated using pymatgen
data_Zn2H10C13(N3O2)2
_symmetry_space_group_name_H-M   'P 1'
_cell_length_a   8.41253000
_cell_length_b   19.17650000
_cell_length_c   19.17780000
_cell_angle_alpha   117.89500000
_cell_angle_beta   98.40750000
_cell_angle_gamma   98.41120000
_symmetry_Int_Tables_number   1
_chemical_formula_structural   Zn2H10C13(N3O2)2
_chemical_formula_sum   'Zn12 H60 C78 N36 O24'
_cell_volume   2622.13917351
_cell_formula_units_Z   6
loop_
 _symmetry_equiv_pos_site_id
 _symmetry_equiv_pos_as_xyz
  1  'x, y, z'
loop_
 _atom_site_type_symbol
 _atom_site_label
 _atom_site_symmetry_multiplicity
 _atom_site_fract_x
 _atom_site_fract_y
 _atom_site_fract_z
 _atom_site_occupancy
  Zn  Zn0  1  0.30947000  0.40636000  0.45490000  1.0
  Zn  Zn1  1  0.95006000  0.29920000  0.48438000  1.0
  Zn  Zn2  1  0.90334000  0.04846000  0.59367000  1.0
  Zn  Zn3  1  0.65114000  0.18517000  0.70082000  1.0
  Zn  Zn4  1  0.85475000  0.54524000  0.95152000  1.0
  Zn  Zn5  1  0.46585000  0.51558000  0.81486000  1.0
  Zn  Zn6  1  0.69053000  0.59364000  0.54510000  1.0
  Zn  Zn7  1  0.04994000  0.70080000  0.51562000  1.0
  Zn  Zn8  1  0.09667000  0.95154000  0.40633000  1.0
  Zn  Zn9  1  0.34886000  0.81483000  0.29918000  1.0
  Zn  Zn10  1  0.14525000  0.45476000  0.04848000  1.0
  Zn  Zn11  1  0.53415000  0.48442000  0.18514000  1.0
  H  H12  1  0.37651000  0.19513000  0.23395000  1.0
  H  H13  1  0.66176000  0.17557000  0.24016000  1.0
  H  H14  1  0.75686000  0.09598000  0.30317000  1.0
  H  H15  1  0.55843000  0.03254000  0.35450000  1.0
  H  H16  1  0.03853000  0.09289000  0.27249000  1.0
  H  H17  1  0.11252000  0.16726000  0.24659000  1.0
  H  H18  1  0.48916000  0.52062000  0.65212000  1.0
  H  H19  1  0.10125000  0.38214000  0.68476000  1.0
  H  H20  1  0.93707000  0.48396000  0.54614000  1.0
  H  H21  1  0.53831000  0.27467000  0.42192000  1.0
  H  H22  1  0.18146000  0.03888000  0.80491000  1.0
  H  H23  1  0.48627000  0.06464000  0.82444000  1.0
  H  H24  1  0.66101000  0.20722000  0.90401000  1.0
  H  H25  1  0.52608000  0.32200000  0.96742000  1.0
  H  H26  1  0.94575000  0.17964000  0.90713000  1.0
  H  H27  1  0.94549000  0.07937000  0.83284000  1.0
  H  H28  1  0.96857000  0.13144000  0.47933000  1.0
  H  H29  1  0.71904000  0.30247000  0.61780000  1.0
  H  H30  1  0.45354000  0.06214000  0.51601000  1.0
  H  H31  1  0.26405000  0.14725000  0.72529000  1.0
  H  H32  1  0.14255000  0.76609000  0.96120000  1.0
  H  H33  1  0.42147000  0.75979000  0.93531000  1.0
  H  H34  1  0.45332000  0.69672000  0.79267000  1.0
  H  H35  1  0.20341000  0.64542000  0.67802000  1.0
  H  H36  1  0.76586000  0.72756000  0.82044000  1.0
  H  H37  1  0.86574000  0.75353000  0.92073000  1.0
  H  H38  1  0.83729000  0.34793000  0.86863000  1.0
  H  H39  1  0.41680000  0.31528000  0.69751000  1.0
  H  H40  1  0.39081000  0.45371000  0.93785000  1.0
  H  H41  1  0.11680000  0.57807000  0.85274000  1.0
  H  H42  1  0.62349000  0.80487000  0.76605000  1.0
  H  H43  1  0.33824000  0.82443000  0.75984000  1.0
  H  H44  1  0.24314000  0.90402000  0.69683000  1.0
  H  H45  1  0.44157000  0.96746000  0.64550000  1.0
  H  H46  1  0.96147000  0.90711000  0.72751000  1.0
  H  H47  1  0.88748000  0.83274000  0.75342000  1.0
  H  H48  1  0.51084000  0.47938000  0.34788000  1.0
  H  H49  1  0.89874000  0.61786000  0.31524000  1.0
  H  H50  1  0.06293000  0.51603000  0.45385000  1.0
  H  H51  1  0.46169000  0.72534000  0.57808000  1.0
  H  H52  1  0.81854000  0.96112000  0.19509000  1.0
  H  H53  1  0.51373000  0.93537000  0.17557000  1.0
  H  H54  1  0.33899000  0.79278000  0.09599000  1.0
  H  H55  1  0.47392000  0.67800000  0.03258000  1.0
  H  H56  1  0.05425000  0.82036000  0.09287000  1.0
  H  H57  1  0.05451000  0.92063000  0.16716000  1.0
  H  H58  1  0.03143000  0.86856000  0.52067000  1.0
  H  H59  1  0.28096000  0.69753000  0.38221000  1.0
  H  H60  1  0.54646000  0.93786000  0.48399000  1.0
  H  H61  1  0.73595000  0.85275000  0.27471000  1.0
  H  H62  1  0.85745000  0.23391000  0.03880000  1.0
  H  H63  1  0.57853000  0.24021000  0.06469000  1.0
  H  H64  1  0.54668000  0.30328000  0.20732000  1.0
  H  H65  1  0.79659000  0.35458000  0.32198000  1.0
  H  H66  1  0.23415000  0.27244000  0.17957000  1.0
  H  H67  1  0.13426000  0.24647000  0.07927000  1.0
  H  H68  1  0.16271000  0.65207000  0.13137000  1.0
  H  H69  1  0.58320000  0.68472000  0.30250000  1.0
  H  H70  1  0.60919000  0.54629000  0.06215000  1.0
  H  H71  1  0.88320000  0.42193000  0.14726000  1.0
  C  C72  1  0.35938000  0.08051000  0.32610000  1.0
  C  C73  1  0.30588000  0.12703000  0.29195000  1.0
  C  C74  1  0.41700000  0.15923000  0.26041000  1.0
  C  C75  1  0.57758000  0.14814000  0.26368000  1.0
  C  C76  1  0.63046000  0.10313000  0.29843000  1.0
  C  C77  1  0.52110000  0.06919000  0.32850000  1.0
  C  C78  1  0.25057000  0.04042000  0.35880000  1.0
  C  C79  1  0.13833000  0.14597000  0.29047000  1.0
  C  C80  1  0.12947000  0.21502000  0.37221000  1.0
  C  C81  1  0.37611000  0.47690000  0.64044000  1.0
  C  C82  1  0.17972000  0.40686000  0.65738000  1.0
  C  C83  1  0.81451000  0.44322000  0.51642000  1.0
  C  C84  1  0.61326000  0.33676000  0.45335000  1.0
  C  C85  1  0.27903000  0.24562000  0.91947000  1.0
  C  C86  1  0.17900000  0.16496000  0.87299000  1.0
  C  C87  1  0.25790000  0.10123000  0.84079000  1.0
  C  C88  1  0.42956000  0.11559000  0.85187000  1.0
  C  C89  1  0.52746000  0.19535000  0.89687000  1.0
  C  C90  1  0.45207000  0.25936000  0.93080000  1.0
  C  C91  1  0.21019000  0.31837000  0.95951000  1.0
  C  C92  1  0.99252000  0.14452000  0.85407000  1.0
  C  C93  1  0.91464000  0.15714000  0.78497000  1.0
  C  C94  1  0.89923000  0.16345000  0.52305000  1.0
  C  C95  1  0.77282000  0.25039000  0.59307000  1.0
  C  C96  1  0.37169000  0.07318000  0.55674000  1.0
  C  C97  1  0.27686000  0.11659000  0.66319000  1.0
  C  C98  1  0.03297000  0.67390000  0.75447000  1.0
  C  C99  1  0.01374000  0.70810000  0.83514000  1.0
  C  C100  1  0.15648000  0.73962000  0.89883000  1.0
  C  C101  1  0.31371000  0.73629000  0.88439000  1.0
  C  C102  1  0.33170000  0.70150000  0.80461000  1.0
  C  C103  1  0.19222000  0.67145000  0.74067000  1.0
  C  C104  1  0.89131000  0.64115000  0.68173000  1.0
  C  C105  1  0.84769000  0.70962000  0.85557000  1.0
  C  C106  1  0.75716000  0.62786000  0.84287000  1.0
  C  C107  1  0.73592000  0.35960000  0.83659000  1.0
  C  C108  1  0.52264000  0.34265000  0.74959000  1.0
  C  C109  1  0.29807000  0.48346000  0.92679000  1.0
  C  C110  1  0.16014000  0.54661000  0.88340000  1.0
  C  C111  1  0.64062000  0.91949000  0.67390000  1.0
  C  C112  1  0.69412000  0.87297000  0.70805000  1.0
  C  C113  1  0.58300000  0.84077000  0.73959000  1.0
  C  C114  1  0.42242000  0.85186000  0.73632000  1.0
  C  C115  1  0.36954000  0.89687000  0.70156000  1.0
  C  C116  1  0.47890000  0.93081000  0.67150000  1.0
  C  C117  1  0.74943000  0.95958000  0.64120000  1.0
  C  C118  1  0.86167000  0.85403000  0.70953000  1.0
  C  C119  1  0.87054000  0.78498000  0.62779000  1.0
  C  C120  1  0.62389000  0.52310000  0.35956000  1.0
  C  C121  1  0.82028000  0.59314000  0.34262000  1.0
  C  C122  1  0.18548000  0.55678000  0.48358000  1.0
  C  C123  1  0.38673000  0.66324000  0.54665000  1.0
  C  C124  1  0.72098000  0.75438000  0.08053000  1.0
  C  C125  1  0.82100000  0.83504000  0.12701000  1.0
  C  C126  1  0.74210000  0.89877000  0.15921000  1.0
  C  C127  1  0.57044000  0.88441000  0.14813000  1.0
  C  C128  1  0.47254000  0.80465000  0.10313000  1.0
  C  C129  1  0.54793000  0.74064000  0.06920000  1.0
  C  C130  1  0.78981000  0.68163000  0.04048000  1.0
  C  C131  1  0.00748000  0.85548000  0.14592000  1.0
  C  C132  1  0.08536000  0.84286000  0.21503000  1.0
  C  C133  1  0.10077000  0.83655000  0.47695000  1.0
  C  C134  1  0.22717000  0.74961000  0.40693000  1.0
  C  C135  1  0.62831000  0.92683000  0.44326000  1.0
  C  C136  1  0.72314000  0.88341000  0.33681000  1.0
  C  C137  1  0.96703000  0.32610000  0.24553000  1.0
  C  C138  1  0.98626000  0.29190000  0.16486000  1.0
  C  C139  1  0.84352000  0.26038000  0.10117000  1.0
  C  C140  1  0.68629000  0.26371000  0.11561000  1.0
  C  C141  1  0.66830000  0.29849000  0.19539000  1.0
  C  C142  1  0.80778000  0.32855000  0.25933000  1.0
  C  C143  1  0.10870000  0.35885000  0.31827000  1.0
  C  C144  1  0.15232000  0.29038000  0.14443000  1.0
  C  C145  1  0.24285000  0.37215000  0.15713000  1.0
  C  C146  1  0.26408000  0.64040000  0.16341000  1.0
  C  C147  1  0.47736000  0.65735000  0.25041000  1.0
  C  C148  1  0.70193000  0.51654000  0.07321000  1.0
  C  C149  1  0.83987000  0.45339000  0.11660000  1.0
  N  N150  1  0.14528000  0.38377000  0.57837000  1.0
  N  N151  1  0.27147000  0.42876000  0.56783000  1.0
  N  N152  1  0.32370000  0.46481000  0.69846000  1.0
  N  N153  1  0.54881000  0.40061000  0.46957000  1.0
  N  N154  1  0.67754000  0.46884000  0.51022000  1.0
  N  N155  1  0.78041000  0.36107000  0.48169000  1.0
  N  N156  1  0.76170000  0.19450000  0.61622000  1.0
  N  N157  1  0.84293000  0.13900000  0.57124000  1.0
  N  N158  1  0.85874000  0.23350000  0.53508000  1.0
  N  N159  1  0.14857000  0.06897000  0.59935000  1.0
  N  N160  1  0.20907000  0.04138000  0.53112000  1.0
  N  N161  1  0.41972000  0.12060000  0.63889000  1.0
  N  N162  1  0.56724000  0.42167000  0.80550000  1.0
  N  N163  1  0.70392000  0.43222000  0.86104000  1.0
  N  N164  1  0.62550000  0.30157000  0.76650000  1.0
  N  N165  1  0.07937000  0.53044000  0.93103000  1.0
  N  N166  1  0.16726000  0.48972000  0.95860000  1.0
  N  N167  1  0.29885000  0.51819000  0.87937000  1.0
  N  N168  1  0.85471000  0.61623000  0.42163000  1.0
  N  N169  1  0.72852000  0.57124000  0.43217000  1.0
  N  N170  1  0.67629000  0.53519000  0.30154000  1.0
  N  N171  1  0.45119000  0.59939000  0.53043000  1.0
  N  N172  1  0.32246000  0.53116000  0.48978000  1.0
  N  N173  1  0.21959000  0.63893000  0.51831000  1.0
  N  N174  1  0.23830000  0.80550000  0.38378000  1.0
  N  N175  1  0.15707000  0.86100000  0.42876000  1.0
  N  N176  1  0.14126000  0.76650000  0.46492000  1.0
  N  N177  1  0.85143000  0.93103000  0.40065000  1.0
  N  N178  1  0.79093000  0.95862000  0.46888000  1.0
  N  N179  1  0.58028000  0.87940000  0.36111000  1.0
  N  N180  1  0.43276000  0.57833000  0.19450000  1.0
  N  N181  1  0.29608000  0.56778000  0.13896000  1.0
  N  N182  1  0.37450000  0.69843000  0.23350000  1.0
  N  N183  1  0.92063000  0.46956000  0.06897000  1.0
  N  N184  1  0.83274000  0.51028000  0.04140000  1.0
  N  N185  1  0.70115000  0.48181000  0.12063000  1.0
  O  O186  1  0.30392000  0.98841000  0.37550000  1.0
  O  O187  1  0.11123000  0.05500000  0.36925000  1.0
  O  O188  1  0.98323000  0.21387000  0.38529000  1.0
  O  O189  1  0.25813000  0.26929000  0.41970000  1.0
  O  O190  1  0.31548000  0.38708000  0.01159000  1.0
  O  O191  1  0.05627000  0.31420000  0.94485000  1.0
  O  O192  1  0.76961000  0.17141000  0.78614000  1.0
  O  O193  1  0.98898000  0.15024000  0.73066000  1.0
  O  O194  1  0.92795000  0.62454000  0.61303000  1.0
  O  O195  1  0.74157000  0.63057000  0.68588000  1.0
  O  O196  1  0.59784000  0.61471000  0.82858000  1.0
  O  O197  1  0.83840000  0.58041000  0.84971000  1.0
  O  O198  1  0.69609000  0.01159000  0.62450000  1.0
  O  O199  1  0.88877000  0.94500000  0.63074000  1.0
  O  O200  1  0.01677000  0.78613000  0.61472000  1.0
  O  O201  1  0.74188000  0.73071000  0.58030000  1.0
  O  O202  1  0.68452000  0.61292000  0.98841000  1.0
  O  O203  1  0.94373000  0.68580000  0.05515000  1.0
  O  O204  1  0.23039000  0.82859000  0.21386000  1.0
  O  O205  1  0.01102000  0.84976000  0.26934000  1.0
  O  O206  1  0.07205000  0.37546000  0.38697000  1.0
  O  O207  1  0.25844000  0.36944000  0.31412000  1.0
  O  O208  1  0.40216000  0.38529000  0.17142000  1.0
  O  O209  1  0.16160000  0.41959000  0.15029000  1.0
