# generated using pymatgen
data_ZnH10C20(NO3)2
_symmetry_space_group_name_H-M   'P 1'
_cell_length_a   15.18530000
_cell_length_b   15.68160000
_cell_length_c   24.74428338
_cell_angle_alpha   72.33032533
_cell_angle_beta   72.11582730
_cell_angle_gamma   90.01480000
_symmetry_Int_Tables_number   1
_chemical_formula_structural   ZnH10C20(NO3)2
_chemical_formula_sum   'Zn8 H80 C160 N16 O48'
_cell_volume   5314.61171324
_cell_formula_units_Z   8
loop_
 _symmetry_equiv_pos_site_id
 _symmetry_equiv_pos_as_xyz
  1  'x, y, z'
loop_
 _atom_site_type_symbol
 _atom_site_label
 _atom_site_symmetry_multiplicity
 _atom_site_fract_x
 _atom_site_fract_y
 _atom_site_fract_z
 _atom_site_occupancy
  Zn  Zn0  1  0.35328000  0.07103000  0.80022000  1.0
  Zn  Zn1  1  0.92106000  0.63348000  0.67092000  1.0
  Zn  Zn2  1  0.84676000  0.57102000  0.80023000  1.0
  Zn  Zn3  1  0.40833000  0.13342000  0.67095000  1.0
  Zn  Zn4  1  0.15323000  0.42898000  0.19977000  1.0
  Zn  Zn5  1  0.59167000  0.86658000  0.32905000  1.0
  Zn  Zn6  1  0.64672000  0.92896000  0.19978000  1.0
  Zn  Zn7  1  0.07894000  0.36652000  0.32908000  1.0
  H  H8  1  0.66202000  0.34609000  0.82300000  1.0
  H  H9  1  0.54928000  0.23151000  0.81986000  1.0
  H  H10  1  0.64486000  0.33427000  0.62790000  1.0
  H  H11  1  0.75701000  0.44996000  0.63103000  1.0
  H  H12  1  0.25546000  0.35245000  0.65151000  1.0
  H  H13  1  0.14532000  0.47184000  0.64839000  1.0
  H  H14  1  0.05906000  0.39896000  0.84015000  1.0
  H  H15  1  0.17046000  0.28031000  0.84312000  1.0
  H  H16  1  0.24987000  0.12266000  0.90717000  1.0
  H  H17  1  0.21092000  0.06020000  0.01956000  1.0
  H  H18  1  0.36360000  0.83604000  0.99372000  1.0
  H  H19  1  0.39630000  0.90809000  0.88251000  1.0
  H  H20  1  0.36309000  0.01675000  0.17955000  1.0
  H  H21  1  0.31119000  0.95886000  0.29235000  1.0
  H  H22  1  0.02899000  0.62755000  0.29263000  1.0
  H  H23  1  0.08496000  0.68105000  0.17967000  1.0
  H  H24  1  0.02495000  0.54272000  0.58522000  1.0
  H  H25  1  0.10586000  0.58255000  0.47450000  1.0
  H  H26  1  0.03596000  0.85440000  0.45738000  1.0
  H  H27  1  0.95788000  0.80338000  0.56905000  1.0
  H  H28  1  0.51502000  0.84581000  0.82304000  1.0
  H  H29  1  0.63107000  0.73144000  0.81987000  1.0
  H  H30  1  0.72796000  0.83457000  0.62794000  1.0
  H  H31  1  0.61249000  0.95000000  0.63105000  1.0
  H  H32  1  0.09299000  0.85254000  0.65165000  1.0
  H  H33  1  0.20629000  0.97204000  0.64847000  1.0
  H  H34  1  0.10099000  0.89890000  0.84025000  1.0
  H  H35  1  0.98658000  0.78014000  0.84325000  1.0
  H  H36  1  0.84276000  0.62251000  0.90728000  1.0
  H  H37  1  0.76901000  0.55991000  0.01965000  1.0
  H  H38  1  0.64240000  0.33577000  0.99359000  1.0
  H  H39  1  0.72144000  0.40782000  0.88242000  1.0
  H  H40  1  0.45716000  0.51684000  0.17961000  1.0
  H  H41  1  0.39628000  0.45891000  0.29241000  1.0
  H  H42  1  0.67813000  0.12768000  0.29245000  1.0
  H  H43  1  0.73484000  0.18106000  0.17949000  1.0
  H  H44  1  0.39034000  0.04256000  0.58519000  1.0
  H  H45  1  0.41961000  0.08253000  0.47455000  1.0
  H  H46  1  0.50705000  0.35435000  0.45741000  1.0
  H  H47  1  0.47389000  0.30317000  0.56901000  1.0
  H  H48  1  0.48498000  0.15419000  0.17696000  1.0
  H  H49  1  0.36893000  0.26856000  0.18013000  1.0
  H  H50  1  0.27204000  0.16543000  0.37206000  1.0
  H  H51  1  0.38751000  0.05000000  0.36895000  1.0
  H  H52  1  0.90702000  0.14746000  0.34835000  1.0
  H  H53  1  0.79371000  0.02795000  0.35154000  1.0
  H  H54  1  0.89901000  0.10110000  0.15975000  1.0
  H  H55  1  0.01342000  0.21985000  0.15675000  1.0
  H  H56  1  0.15724000  0.37749000  0.09272000  1.0
  H  H57  1  0.23100000  0.44009000  0.98034000  1.0
  H  H58  1  0.35760000  0.66423000  0.00641000  1.0
  H  H59  1  0.27856000  0.59217000  0.11758000  1.0
  H  H60  1  0.54284000  0.48316000  0.82039000  1.0
  H  H61  1  0.60372000  0.54110000  0.70759000  1.0
  H  H62  1  0.32186000  0.87232000  0.70755000  1.0
  H  H63  1  0.26515000  0.81893000  0.82051000  1.0
  H  H64  1  0.60966000  0.95744000  0.41481000  1.0
  H  H65  1  0.58040000  0.91747000  0.52545000  1.0
  H  H66  1  0.49294000  0.64565000  0.54260000  1.0
  H  H67  1  0.52611000  0.69683000  0.43099000  1.0
  H  H68  1  0.33797000  0.65391000  0.17700000  1.0
  H  H69  1  0.45072000  0.76849000  0.18013000  1.0
  H  H70  1  0.35514000  0.66573000  0.37210000  1.0
  H  H71  1  0.24299000  0.55004000  0.36897000  1.0
  H  H72  1  0.74454000  0.64755000  0.34849000  1.0
  H  H73  1  0.85467000  0.52816000  0.35162000  1.0
  H  H74  1  0.94093000  0.60104000  0.15985000  1.0
  H  H75  1  0.82953000  0.71969000  0.15689000  1.0
  H  H76  1  0.75013000  0.87735000  0.09283000  1.0
  H  H77  1  0.78909000  0.93981000  0.98043000  1.0
  H  H78  1  0.63639000  0.16397000  0.00628000  1.0
  H  H79  1  0.60369000  0.09192000  0.11749000  1.0
  H  H80  1  0.63690000  0.98326000  0.82045000  1.0
  H  H81  1  0.68881000  0.04114000  0.70765000  1.0
  H  H82  1  0.97100000  0.37246000  0.70738000  1.0
  H  H83  1  0.91504000  0.31895000  0.82033000  1.0
  H  H84  1  0.97505000  0.45728000  0.41478000  1.0
  H  H85  1  0.89414000  0.41745000  0.52550000  1.0
  H  H86  1  0.96405000  0.14560000  0.54262000  1.0
  H  H87  1  0.04212000  0.19662000  0.43096000  1.0
  C  C88  1  0.78334000  0.47253000  0.72920000  1.0
  C  C89  1  0.71654000  0.40394000  0.72719000  1.0
  C  C90  1  0.65795000  0.34275000  0.78050000  1.0
  C  C91  1  0.59573000  0.27927000  0.77887000  1.0
  C  C92  1  0.59127000  0.27612000  0.72379000  1.0
  C  C93  1  0.64970000  0.33738000  0.67032000  1.0
  C  C94  1  0.71186000  0.40098000  0.67199000  1.0
  C  C95  1  0.52213000  0.20884000  0.72266000  1.0
  C  C96  1  0.27980000  0.23388000  0.74823000  1.0
  C  C97  1  0.21892000  0.30927000  0.74742000  1.0
  C  C98  1  0.21314000  0.36426000  0.69239000  1.0
  C  C99  1  0.15222000  0.43027000  0.69072000  1.0
  C  C100  1  0.09555000  0.44187000  0.74414000  1.0
  C  C101  1  0.10343000  0.38896000  0.79908000  1.0
  C  C102  1  0.16496000  0.32312000  0.80067000  1.0
  C  C103  1  0.02132000  0.50466000  0.74210000  1.0
  C  C104  1  0.27387000  0.05977000  0.92867000  1.0
  C  C105  1  0.25254000  0.02493000  0.99050000  1.0
  C  C106  1  0.28548000  0.94376000  0.01445000  1.0
  C  C107  1  0.33775000  0.89975000  0.97621000  1.0
  C  C108  1  0.35601000  0.93901000  0.91491000  1.0
  C  C109  1  0.30349000  0.95361000  0.10686000  1.0
  C  C110  1  0.27522000  0.91619000  0.17292000  1.0
  C  C111  1  0.31200000  0.95823000  0.20446000  1.0
  C  C112  1  0.28305000  0.92617000  0.26726000  1.0
  C  C113  1  0.21680000  0.85221000  0.29869000  1.0
  C  C114  1  0.18483000  0.82157000  0.36491000  1.0
  C  C115  1  0.07882000  0.69740000  0.36477000  1.0
  C  C116  1  0.11320000  0.73092000  0.29863000  1.0
  C  C117  1  0.07915000  0.68656000  0.26729000  1.0
  C  C118  1  0.11022000  0.71665000  0.20443000  1.0
  C  C119  1  0.17408000  0.79240000  0.17296000  1.0
  C  C120  1  0.20459000  0.82390000  0.10681000  1.0
  C  C121  1  0.20967000  0.83914000  0.20388000  1.0
  C  C122  1  0.17951000  0.80728000  0.26768000  1.0
  C  C123  1  0.02964000  0.61103000  0.55517000  1.0
  C  C124  1  0.07439000  0.63340000  0.49377000  1.0
  C  C125  1  0.07597000  0.72160000  0.45782000  1.0
  C  C126  1  0.03506000  0.78500000  0.48428000  1.0
  C  C127  1  0.99219000  0.75723000  0.54594000  1.0
  C  C128  1  0.48758000  0.97232000  0.72931000  1.0
  C  C129  1  0.55651000  0.90384000  0.72724000  1.0
  C  C130  1  0.56174000  0.84261000  0.78053000  1.0
  C  C131  1  0.62564000  0.77921000  0.77889000  1.0
  C  C132  1  0.68534000  0.77621000  0.72381000  1.0
  C  C133  1  0.68049000  0.83752000  0.67035000  1.0
  C  C134  1  0.61657000  0.90102000  0.67203000  1.0
  C  C135  1  0.75566000  0.70901000  0.72266000  1.0
  C  C136  1  0.97228000  0.73370000  0.74837000  1.0
  C  C137  1  0.03380000  0.80923000  0.74754000  1.0
  C  C138  1  0.09452000  0.86435000  0.69251000  1.0
  C  C139  1  0.15710000  0.93042000  0.69081000  1.0
  C  C140  1  0.16038000  0.94198000  0.74423000  1.0
  C  C141  1  0.09760000  0.88897000  0.79919000  1.0
  C  C142  1  0.03449000  0.82307000  0.80080000  1.0
  C  C143  1  0.23668000  0.00481000  0.74217000  1.0
  C  C144  1  0.79727000  0.55957000  0.92872000  1.0
  C  C145  1  0.75657000  0.52468000  0.99053000  1.0
  C  C146  1  0.69959000  0.44354000  0.01442000  1.0
  C  C147  1  0.68577000  0.39952000  0.97613000  1.0
  C  C148  1  0.72908000  0.43879000  0.91485000  1.0
  C  C149  1  0.58928000  0.45355000  0.10685000  1.0
  C  C150  1  0.55145000  0.41612000  0.17291000  1.0
  C  C151  1  0.48325000  0.45823000  0.20449000  1.0
  C  C152  1  0.44943000  0.42617000  0.26730000  1.0
  C  C153  1  0.48419000  0.35217000  0.29869000  1.0
  C  C154  1  0.45013000  0.32162000  0.36493000  1.0
  C  C155  1  0.55621000  0.19746000  0.36468000  1.0
  C  C156  1  0.58780000  0.23093000  0.29854000  1.0
  C  C157  1  0.65319000  0.18661000  0.26716000  1.0
  C  C158  1  0.68485000  0.21663000  0.20430000  1.0
  C  C159  1  0.65241000  0.29231000  0.17286000  1.0
  C  C160  1  0.68802000  0.32374000  0.10672000  1.0
  C  C161  1  0.58595000  0.33904000  0.20382000  1.0
  C  C162  1  0.55241000  0.30722000  0.26761000  1.0
  C  C163  1  0.41566000  0.11091000  0.55515000  1.0
  C  C164  1  0.43202000  0.13338000  0.49378000  1.0
  C  C165  1  0.46633000  0.22162000  0.45781000  1.0
  C  C166  1  0.48106000  0.28492000  0.48428000  1.0
  C  C167  1  0.46254000  0.25707000  0.54591000  1.0
  C  C168  1  0.51242000  0.02768000  0.27069000  1.0
  C  C169  1  0.44349000  0.09616000  0.27276000  1.0
  C  C170  1  0.43826000  0.15739000  0.21947000  1.0
  C  C171  1  0.37436000  0.22079000  0.22111000  1.0
  C  C172  1  0.31466000  0.22379000  0.27619000  1.0
  C  C173  1  0.31951000  0.16248000  0.32965000  1.0
  C  C174  1  0.38342000  0.09898000  0.32798000  1.0
  C  C175  1  0.24434000  0.29099000  0.27734000  1.0
  C  C176  1  0.02773000  0.26630000  0.25163000  1.0
  C  C177  1  0.96621000  0.19077000  0.25245000  1.0
  C  C178  1  0.90549000  0.13564000  0.30749000  1.0
  C  C179  1  0.84290000  0.06958000  0.30919000  1.0
  C  C180  1  0.83963000  0.05802000  0.25577000  1.0
  C  C181  1  0.90240000  0.11103000  0.20081000  1.0
  C  C182  1  0.96551000  0.17692000  0.19920000  1.0
  C  C183  1  0.76331000  0.99518000  0.25784000  1.0
  C  C184  1  0.20274000  0.44043000  0.07127000  1.0
  C  C185  1  0.24343000  0.47532000  0.00947000  1.0
  C  C186  1  0.30041000  0.55646000  0.98558000  1.0
  C  C187  1  0.31424000  0.60047000  0.02387000  1.0
  C  C188  1  0.27092000  0.56120000  0.08515000  1.0
  C  C189  1  0.41072000  0.54646000  0.89315000  1.0
  C  C190  1  0.44855000  0.58388000  0.82709000  1.0
  C  C191  1  0.51675000  0.54177000  0.79551000  1.0
  C  C192  1  0.55057000  0.57383000  0.73270000  1.0
  C  C193  1  0.51581000  0.64783000  0.70131000  1.0
  C  C194  1  0.54987000  0.67839000  0.63507000  1.0
  C  C195  1  0.44379000  0.80254000  0.63532000  1.0
  C  C196  1  0.41219000  0.76907000  0.70146000  1.0
  C  C197  1  0.34681000  0.81339000  0.73284000  1.0
  C  C198  1  0.31514000  0.78337000  0.79570000  1.0
  C  C199  1  0.34759000  0.70769000  0.82714000  1.0
  C  C200  1  0.31198000  0.67627000  0.89327000  1.0
  C  C201  1  0.41404000  0.66096000  0.79618000  1.0
  C  C202  1  0.44759000  0.69278000  0.73239000  1.0
  C  C203  1  0.58434000  0.88909000  0.44485000  1.0
  C  C204  1  0.56799000  0.86662000  0.50622000  1.0
  C  C205  1  0.53368000  0.77838000  0.54219000  1.0
  C  C206  1  0.51893000  0.71508000  0.51573000  1.0
  C  C207  1  0.53746000  0.74293000  0.45409000  1.0
  C  C208  1  0.21666000  0.52746000  0.27080000  1.0
  C  C209  1  0.28346000  0.59605000  0.27281000  1.0
  C  C210  1  0.34205000  0.65725000  0.21950000  1.0
  C  C211  1  0.40427000  0.72074000  0.22112000  1.0
  C  C212  1  0.40873000  0.72388000  0.27621000  1.0
  C  C213  1  0.35030000  0.66262000  0.32968000  1.0
  C  C214  1  0.28814000  0.59901000  0.32801000  1.0
  C  C215  1  0.47787000  0.79116000  0.27734000  1.0
  C  C216  1  0.72020000  0.76612000  0.25177000  1.0
  C  C217  1  0.78106000  0.69072000  0.25259000  1.0
  C  C218  1  0.78685000  0.63573000  0.30761000  1.0
  C  C219  1  0.84778000  0.56973000  0.30928000  1.0
  C  C220  1  0.90444000  0.55812000  0.25587000  1.0
  C  C221  1  0.89657000  0.61103000  0.20092000  1.0
  C  C222  1  0.83504000  0.67687000  0.19933000  1.0
  C  C223  1  0.97868000  0.49534000  0.25790000  1.0
  C  C224  1  0.72613000  0.94024000  0.07133000  1.0
  C  C225  1  0.74746000  0.97508000  0.00950000  1.0
  C  C226  1  0.71451000  0.05625000  0.98555000  1.0
  C  C227  1  0.66225000  0.10025000  0.02379000  1.0
  C  C228  1  0.64399000  0.06099000  0.08509000  1.0
  C  C229  1  0.69650000  0.04639000  0.89314000  1.0
  C  C230  1  0.72477000  0.08382000  0.82708000  1.0
  C  C231  1  0.68799000  0.04178000  0.79554000  1.0
  C  C232  1  0.71695000  0.07384000  0.73274000  1.0
  C  C233  1  0.78321000  0.14779000  0.70131000  1.0
  C  C234  1  0.81518000  0.17843000  0.63509000  1.0
  C  C235  1  0.92118000  0.30261000  0.63523000  1.0
  C  C236  1  0.88679000  0.26908000  0.70137000  1.0
  C  C237  1  0.92084000  0.31344000  0.73271000  1.0
  C  C238  1  0.88978000  0.28335000  0.79557000  1.0
  C  C239  1  0.82592000  0.20761000  0.82704000  1.0
  C  C240  1  0.79540000  0.17610000  0.89320000  1.0
  C  C241  1  0.79032000  0.16087000  0.79612000  1.0
  C  C242  1  0.82049000  0.19273000  0.73232000  1.0
  C  C243  1  0.97037000  0.38897000  0.44483000  1.0
  C  C244  1  0.92562000  0.36659000  0.50623000  1.0
  C  C245  1  0.92403000  0.27840000  0.54218000  1.0
  C  C246  1  0.96494000  0.21500000  0.51572000  1.0
  C  C247  1  0.00781000  0.24277000  0.45406000  1.0
  N  N248  1  0.32505000  0.01766000  0.89157000  1.0
  N  N249  1  0.98896000  0.67180000  0.58062000  1.0
  N  N250  1  0.26382000  0.90590000  0.07820000  1.0
  N  N251  1  0.11545000  0.74682000  0.39399000  1.0
  N  N252  1  0.78339000  0.51746000  0.89157000  1.0
  N  N253  1  0.43109000  0.17163000  0.58059000  1.0
  N  N254  1  0.65740000  0.40568000  0.07814000  1.0
  N  N255  1  0.49044000  0.24687000  0.39397000  1.0
  N  N256  1  0.21661000  0.48254000  0.10843000  1.0
  N  N257  1  0.56891000  0.82837000  0.41941000  1.0
  N  N258  1  0.34260000  0.59432000  0.92186000  1.0
  N  N259  1  0.50956000  0.75313000  0.60603000  1.0
  N  N260  1  0.67495000  0.98235000  0.10843000  1.0
  N  N261  1  0.01105000  0.32820000  0.41938000  1.0
  N  N262  1  0.73618000  0.09411000  0.92180000  1.0
  N  N263  1  0.88455000  0.25318000  0.60601000  1.0
  O  O264  1  0.78608000  0.46959000  0.78073000  1.0
  O  O265  1  0.83189000  0.52809000  0.67934000  1.0
  O  O266  1  0.47656000  0.15159000  0.77291000  1.0
  O  O267  1  0.51408000  0.21472000  0.67199000  1.0
  O  O268  1  0.28440000  0.18506000  0.79877000  1.0
  O  O269  1  0.32123000  0.22384000  0.69771000  1.0
  O  O270  1  0.96749000  0.50938000  0.79177000  1.0
  O  O271  1  0.01541000  0.54534000  0.69049000  1.0
  O  O272  1  0.35747000  0.02191000  0.07725000  1.0
  O  O273  1  0.18025000  0.78436000  0.07705000  1.0
  O  O274  1  0.21435000  0.85774000  0.39436000  1.0
  O  O275  1  0.02050000  0.63218000  0.39379000  1.0
  O  O276  1  0.43326000  0.96930000  0.78086000  1.0
  O  O277  1  0.48886000  0.02785000  0.67947000  1.0
  O  O278  1  0.75099000  0.65183000  0.77290000  1.0
  O  O279  1  0.81439000  0.71490000  0.67199000  1.0
  O  O280  1  0.91728000  0.68473000  0.79892000  1.0
  O  O281  1  0.98137000  0.72368000  0.69785000  1.0
  O  O282  1  0.24078000  0.00966000  0.79182000  1.0
  O  O283  1  0.29429000  0.04540000  0.69055000  1.0
  O  O284  1  0.56514000  0.52199000  0.07727000  1.0
  O  O285  1  0.74213000  0.28421000  0.07696000  1.0
  O  O286  1  0.39132000  0.35789000  0.39440000  1.0
  O  O287  1  0.58557000  0.13227000  0.39364000  1.0
  O  O288  1  0.56674000  0.03070000  0.21914000  1.0
  O  O289  1  0.51114000  0.97215000  0.32053000  1.0
  O  O290  1  0.24901000  0.34817000  0.22710000  1.0
  O  O291  1  0.18560000  0.28509000  0.32802000  1.0
  O  O292  1  0.08273000  0.31527000  0.20107000  1.0
  O  O293  1  0.01864000  0.27632000  0.30215000  1.0
  O  O294  1  0.75921000  0.99034000  0.20819000  1.0
  O  O295  1  0.70571000  0.95460000  0.30945000  1.0
  O  O296  1  0.43487000  0.47802000  0.92273000  1.0
  O  O297  1  0.25787000  0.71579000  0.92304000  1.0
  O  O298  1  0.60869000  0.64211000  0.60560000  1.0
  O  O299  1  0.41443000  0.86773000  0.60636000  1.0
  O  O300  1  0.21392000  0.53041000  0.21927000  1.0
  O  O301  1  0.16811000  0.47191000  0.32066000  1.0
  O  O302  1  0.52343000  0.84841000  0.22709000  1.0
  O  O303  1  0.48592000  0.78528000  0.32801000  1.0
  O  O304  1  0.71560000  0.81494000  0.20123000  1.0
  O  O305  1  0.67877000  0.77616000  0.30229000  1.0
  O  O306  1  0.03250000  0.49062000  0.20824000  1.0
  O  O307  1  0.98459000  0.45465000  0.30951000  1.0
  O  O308  1  0.64253000  0.97810000  0.92275000  1.0
  O  O309  1  0.81976000  0.21564000  0.92295000  1.0
  O  O310  1  0.78567000  0.14225000  0.60564000  1.0
  O  O311  1  0.97951000  0.36783000  0.60621000  1.0
