# generated using pymatgen
data_SnH31C25NO3
_symmetry_space_group_name_H-M   'P 1'
_cell_length_a   9.40724000
_cell_length_b   11.17870000
_cell_length_c   11.42770000
_cell_angle_alpha   90.00000000
_cell_angle_beta   90.00000000
_cell_angle_gamma   108.94400000
_symmetry_Int_Tables_number   1
_chemical_formula_structural   SnH31C25NO3
_chemical_formula_sum   'Sn2 H62 C50 N2 O6'
_cell_volume   1136.65416352
_cell_formula_units_Z   2
loop_
 _symmetry_equiv_pos_site_id
 _symmetry_equiv_pos_as_xyz
  1  'x, y, z'
loop_
 _atom_site_type_symbol
 _atom_site_label
 _atom_site_symmetry_multiplicity
 _atom_site_fract_x
 _atom_site_fract_y
 _atom_site_fract_z
 _atom_site_occupancy
  Sn  Sn0  1  0.53884000  0.07785000  0.19576000  1.0
  Sn  Sn1  1  0.46116000  0.92215000  0.69576000  1.0
  H  H2  1  0.88391000  0.16158000  0.41671000  1.0
  H  H3  1  0.11608000  0.83842000  0.91672000  1.0
  H  H4  1  0.98549000  0.28334000  0.03197000  1.0
  H  H5  1  0.01450000  0.71666000  0.53197000  1.0
  H  H6  1  0.84407000  0.38338000  0.38661000  1.0
  H  H7  1  0.15593000  0.61662000  0.88661000  1.0
  H  H8  1  0.66295000  0.30954000  0.44261000  1.0
  H  H9  1  0.33705000  0.69046000  0.94261000  1.0
  H  H10  1  0.79427000  0.25095000  0.62378000  1.0
  H  H11  1  0.20573000  0.74904000  0.12378000  1.0
  H  H12  1  0.06623000  0.45573000  0.51827000  1.0
  H  H13  1  0.93376000  0.54427000  0.01827000  1.0
  H  H14  1  0.05122000  0.29407000  0.53937000  1.0
  H  H15  1  0.94878000  0.70593000  0.03937000  1.0
  H  H16  1  0.05737000  0.39241000  0.66154000  1.0
  H  H17  1  0.94262000  0.60759000  0.16154000  1.0
  H  H18  1  0.84487000  0.47436000  0.70590000  1.0
  H  H19  1  0.15512000  0.52564000  0.20590000  1.0
  H  H20  1  0.66976000  0.41377000  0.63193000  1.0
  H  H21  1  0.33023000  0.58623000  0.13193000  1.0
  H  H22  1  0.82425000  0.52512000  0.56161000  1.0
  H  H23  1  0.17574000  0.47488000  0.06161000  1.0
  H  H24  1  0.33200000  0.17490000  0.13559000  1.0
  H  H25  1  0.66800000  0.82511000  0.63559000  1.0
  H  H26  1  0.27456000  0.09385000  0.27089000  1.0
  H  H27  1  0.72544000  0.90615000  0.77089000  1.0
  H  H28  1  0.48334000  0.82790000  0.18095000  1.0
  H  H29  1  0.51666000  0.17210000  0.68095000  1.0
  H  H30  1  0.58892000  0.90396000  0.05636000  1.0
  H  H31  1  0.41108000  0.09604000  0.55636000  1.0
  H  H32  1  0.05761000  0.33150000  0.32040000  1.0
  H  H33  1  0.94239000  0.66850000  0.82040000  1.0
  H  H34  1  0.12580000  0.29255000  0.18601000  1.0
  H  H35  1  0.87420000  0.70745000  0.68601000  1.0
  H  H36  1  0.05123000  0.17401000  0.29344000  1.0
  H  H37  1  0.94876000  0.82599000  0.79344000  1.0
  H  H38  1  0.70072000  0.21786000  0.82940000  1.0
  H  H39  1  0.29927000  0.78214000  0.32940000  1.0
  H  H40  1  0.88504000  0.32543000  0.85810000  1.0
  H  H41  1  0.11495000  0.67457000  0.35810000  1.0
  H  H42  1  0.72134000  0.37110000  0.88170000  1.0
  H  H43  1  0.27866000  0.62890000  0.38170000  1.0
  H  H44  1  0.28659000  0.21293000  0.44426000  1.0
  H  H45  1  0.71341000  0.78708000  0.94425000  1.0
  H  H46  1  0.37018000  0.41459000  0.55281000  1.0
  H  H47  1  0.62982000  0.58541000  0.05282000  1.0
  H  H48  1  0.55216000  0.60710000  0.46172000  1.0
  H  H49  1  0.44785000  0.39290000  0.96173000  1.0
  H  H50  1  0.64964000  0.59329000  0.26176000  1.0
  H  H51  1  0.35036000  0.40671000  0.76176000  1.0
  H  H52  1  0.56639000  0.38884000  0.15329000  1.0
  H  H53  1  0.43361000  0.61116000  0.65329000  1.0
  H  H54  1  0.62176000  0.82910000  0.37465000  1.0
  H  H55  1  0.37824000  0.17090000  0.87465000  1.0
  H  H56  1  0.85925000  0.82945000  0.46865000  1.0
  H  H57  1  0.14075000  0.17055000  0.96865000  1.0
  H  H58  1  0.09782000  0.89188000  0.35497000  1.0
  H  H59  1  0.90218000  0.10812000  0.85497000  1.0
  H  H60  1  0.09635000  0.95195000  0.14415000  1.0
  H  H61  1  0.90365000  0.04805000  0.64415000  1.0
  H  H62  1  0.86092000  0.96034000  0.05319000  1.0
  H  H63  1  0.13908000  0.03966000  0.55320000  1.0
  C  C64  1  0.65055000  0.07327000  0.44702000  1.0
  C  C65  1  0.34945000  0.92673000  0.94703000  1.0
  C  C66  1  0.77979000  0.17990000  0.39276000  1.0
  C  C67  1  0.22021000  0.82010000  0.89277000  1.0
  C  C68  1  0.88410000  0.22730000  0.19887000  1.0
  C  C69  1  0.11590000  0.77270000  0.69887000  1.0
  C  C70  1  0.87789000  0.24829000  0.07665000  1.0
  C  C71  1  0.12211000  0.75171000  0.57665000  1.0
  C  C72  1  0.77899000  0.30727000  0.44574000  1.0
  C  C73  1  0.22101000  0.69273000  0.94574000  1.0
  C  C74  1  0.84214000  0.33642000  0.57011000  1.0
  C  C75  1  0.15786000  0.66358000  0.07011000  1.0
  C  C76  1  0.01344000  0.37115000  0.57203000  1.0
  C  C77  1  0.98656000  0.62885000  0.07203000  1.0
  C  C78  1  0.79227000  0.44296000  0.62072000  1.0
  C  C79  1  0.20773000  0.55704000  0.12072000  1.0
  C  C80  1  0.75184000  0.24415000  0.01112000  1.0
  C  C81  1  0.24815000  0.75585000  0.51112000  1.0
  C  C82  1  0.36663000  0.16460000  0.22561000  1.0
  C  C83  1  0.63338000  0.83541000  0.72561000  1.0
  C  C84  1  0.58470000  0.90294000  0.15209000  1.0
  C  C85  1  0.41530000  0.09706000  0.65209000  1.0
  C  C86  1  0.03816000  0.25868000  0.25226000  1.0
  C  C87  1  0.96184000  0.74132000  0.75226000  1.0
  C  C88  1  0.76808000  0.29299000  0.88794000  1.0
  C  C89  1  0.23192000  0.70701000  0.38794000  1.0
  C  C90  1  0.41953000  0.28645000  0.29049000  1.0
  C  C91  1  0.58047000  0.71355000  0.79049000  1.0
  C  C92  1  0.36670000  0.29607000  0.40387000  1.0
  C  C93  1  0.63331000  0.70393000  0.90387000  1.0
  C  C94  1  0.41358000  0.41022000  0.46504000  1.0
  C  C95  1  0.58642000  0.58978000  0.96504000  1.0
  C  C96  1  0.51535000  0.51771000  0.41418000  1.0
  C  C97  1  0.48466000  0.48229000  0.91418000  1.0
  C  C98  1  0.56964000  0.50959000  0.30155000  1.0
  C  C99  1  0.43036000  0.49041000  0.80155000  1.0
  C  C100  1  0.52243000  0.39544000  0.24051000  1.0
  C  C101  1  0.47758000  0.60456000  0.74052000  1.0
  C  C102  1  0.72404000  0.89461000  0.20697000  1.0
  C  C103  1  0.27596000  0.10539000  0.70697000  1.0
  C  C104  1  0.72576000  0.85613000  0.32403000  1.0
  C  C105  1  0.27424000  0.14387000  0.82402000  1.0
  C  C106  1  0.85957000  0.85626000  0.37679000  1.0
  C  C107  1  0.14043000  0.14374000  0.87678000  1.0
  C  C108  1  0.99368000  0.89182000  0.31310000  1.0
  C  C109  1  0.00632000  0.10817000  0.81310000  1.0
  C  C110  1  0.99304000  0.92678000  0.19558000  1.0
  C  C111  1  0.00696000  0.07322000  0.69558000  1.0
  C  C112  1  0.85981000  0.92922000  0.14390000  1.0
  C  C113  1  0.14019000  0.07078000  0.64390000  1.0
  N  N114  1  0.76319000  0.18338000  0.26589000  1.0
  N  N115  1  0.23681000  0.81662000  0.76589000  1.0
  O  O116  1  0.52793000  0.03032000  0.38806000  1.0
  O  O117  1  0.47207000  0.96968000  0.88807000  1.0
  O  O118  1  0.66931000  0.03813000  0.54879000  1.0
  O  O119  1  0.33069000  0.96187000  0.04879000  1.0
  O  O120  1  0.61409000  0.20377000  0.04911000  1.0
  O  O121  1  0.38591000  0.79622000  0.54912000  1.0
