# generated using pymatgen
data_LaH15(C11O5)2
_symmetry_space_group_name_H-M   'P 1'
_cell_length_a   8.78215000
_cell_length_b   9.95400000
_cell_length_c   13.04860000
_cell_angle_alpha   108.29300000
_cell_angle_beta   104.44400000
_cell_angle_gamma   93.64350000
_symmetry_Int_Tables_number   1
_chemical_formula_structural   LaH15(C11O5)2
_chemical_formula_sum   'La2 H30 C44 O20'
_cell_volume   1036.24365013
_cell_formula_units_Z   2
loop_
 _symmetry_equiv_pos_site_id
 _symmetry_equiv_pos_as_xyz
  1  'x, y, z'
loop_
 _atom_site_type_symbol
 _atom_site_label
 _atom_site_symmetry_multiplicity
 _atom_site_fract_x
 _atom_site_fract_y
 _atom_site_fract_z
 _atom_site_occupancy
  La  La0  1  0.12224000  0.79620000  0.07937000  1.0
  La  La1  1  0.87776000  0.20380000  0.92063000  1.0
  H  H2  1  0.31914000  0.89502000  0.93676000  1.0
  H  H3  1  0.68086000  0.10498000  0.06324000  1.0
  H  H4  1  0.43394000  0.80464000  0.98574000  1.0
  H  H5  1  0.56605000  0.19536000  0.01426000  1.0
  H  H6  1  0.22224000  0.94829000  0.38812000  1.0
  H  H7  1  0.77776000  0.05171000  0.61187000  1.0
  H  H8  1  0.23272000  0.53622000  0.88859000  1.0
  H  H9  1  0.76728000  0.46378000  0.11141000  1.0
  H  H10  1  0.18874000  0.49005000  0.98418000  1.0
  H  H11  1  0.81126000  0.50995000  0.01582000  1.0
  H  H12  1  0.81527000  0.81552000  0.62291000  1.0
  H  H13  1  0.18473000  0.18448000  0.37709000  1.0
  H  H14  1  0.95528000  0.76193000  0.47589000  1.0
  H  H15  1  0.04472000  0.23807000  0.52411000  1.0
  H  H16  1  0.50951000  0.47338000  0.33944000  1.0
  H  H17  1  0.49049000  0.52662000  0.66057000  1.0
  H  H18  1  0.77607000  0.33479000  0.65399000  1.0
  H  H19  1  0.22394000  0.66521000  0.34600000  1.0
  H  H20  1  0.67212000  0.69280000  0.13973000  1.0
  H  H21  1  0.32787000  0.30720000  0.86027000  1.0
  H  H22  1  0.83645000  0.12620000  0.22098000  1.0
  H  H23  1  0.16355000  0.87380000  0.77902000  1.0
  H  H24  1  0.51779000  0.23356000  0.49397000  1.0
  H  H25  1  0.48222000  0.76644000  0.50603000  1.0
  H  H26  1  0.61056000  0.94505000  0.20177000  1.0
  H  H27  1  0.38943000  0.05496000  0.79823000  1.0
  H  H28  1  0.89005000  0.36577000  0.36879000  1.0
  H  H29  1  0.10995000  0.63423000  0.63121000  1.0
  H  H30  1  0.46596000  0.52728000  0.16197000  1.0
  H  H31  1  0.53404000  0.47271000  0.83803000  1.0
  C  C32  1  0.73514000  0.61435000  0.42107000  1.0
  C  C33  1  0.26486000  0.38565000  0.57893000  1.0
  C  C34  1  0.83200000  0.55986000  0.74558000  1.0
  C  C35  1  0.16800000  0.44014000  0.25442000  1.0
  C  C36  1  0.80785000  0.70914000  0.62947000  1.0
  C  C37  1  0.19215000  0.29086000  0.37053000  1.0
  C  C38  1  0.84726000  0.70934000  0.40797000  1.0
  C  C39  1  0.15274000  0.29066000  0.59203000  1.0
  C  C40  1  0.86174000  0.52846000  0.85340000  1.0
  C  C41  1  0.13826000  0.47154000  0.14660000  1.0
  C  C42  1  0.76378000  0.58957000  0.53015000  1.0
  C  C43  1  0.23623000  0.41043000  0.46985000  1.0
  C  C44  1  0.90001000  0.83554000  0.83435000  1.0
  C  C45  1  0.09999000  0.16446000  0.16565000  1.0
  C  C46  1  0.70788000  0.31618000  0.44191000  1.0
  C  C47  1  0.29213000  0.68382000  0.55809000  1.0
  C  C48  1  0.59848000  0.54705000  0.33064000  1.0
  C  C49  1  0.40152000  0.45295000  0.66937000  1.0
  C  C50  1  0.54870000  0.08000000  0.34510000  1.0
  C  C51  1  0.45130000  0.92000000  0.65490000  1.0
  C  C52  1  0.78404000  0.44063000  0.64647000  1.0
  C  C53  1  0.21597000  0.55937000  0.35353000  1.0
  C  C54  1  0.84254000  0.69748000  0.73664000  1.0
  C  C55  1  0.15747000  0.30252000  0.26336000  1.0
  C  C56  1  0.82672000  0.73570000  0.30659000  1.0
  C  C57  1  0.17327000  0.26430000  0.69341000  1.0
  C  C58  1  0.40904000  0.97657000  0.33008000  1.0
  C  C59  1  0.59097000  0.02343000  0.66992000  1.0
  C  C60  1  0.68847000  0.67013000  0.21794000  1.0
  C  C61  1  0.31152000  0.32988000  0.78206000  1.0
  C  C62  1  0.76211000  0.15149000  0.27791000  1.0
  C  C63  1  0.23789000  0.84852000  0.72209000  1.0
  C  C64  1  0.75008000  0.45177000  0.53920000  1.0
  C  C65  1  0.24993000  0.54823000  0.46080000  1.0
  C  C66  1  0.58617000  0.21185000  0.43305000  1.0
  C  C67  1  0.41383000  0.78815000  0.56695000  1.0
  C  C68  1  0.63855000  0.04912000  0.26815000  1.0
  C  C69  1  0.36145000  0.95088000  0.73185000  1.0
  C  C70  1  0.79408000  0.28567000  0.36222000  1.0
  C  C71  1  0.20592000  0.71433000  0.63778000  1.0
  C  C72  1  0.95826000  0.82819000  0.29455000  1.0
  C  C73  1  0.04173000  0.17180000  0.70544000  1.0
  C  C74  1  0.57452000  0.57659000  0.23048000  1.0
  C  C75  1  0.42548000  0.42341000  0.76952000  1.0
  O  O76  1  0.03277000  0.84676000  0.90735000  1.0
  O  O77  1  0.96723000  0.15324000  0.09265000  1.0
  O  O78  1  0.88009000  0.40095000  0.84652000  1.0
  O  O79  1  0.11991000  0.59905000  0.15348000  1.0
  O  O80  1  0.86316000  0.62561000  0.94614000  1.0
  O  O81  1  0.13684000  0.37439000  0.05386000  1.0
  O  O82  1  0.94547000  0.84420000  0.19924000  1.0
  O  O83  1  0.05452000  0.15580000  0.80075000  1.0
  O  O84  1  0.36429000  0.87460000  0.00565000  1.0
  O  O85  1  0.63571000  0.12540000  0.99435000  1.0
  O  O86  1  0.33823000  0.01230000  0.40918000  1.0
  O  O87  1  0.66177000  0.98770000  0.59082000  1.0
  O  O88  1  0.82007000  0.93652000  0.83462000  1.0
  O  O89  1  0.17992000  0.06348000  0.16539000  1.0
  O  O90  1  0.36109000  0.86481000  0.24455000  1.0
  O  O91  1  0.63891000  0.13519000  0.75544000  1.0
  O  O92  1  0.22731000  0.57431000  0.96599000  1.0
  O  O93  1  0.77269000  0.42569000  0.03401000  1.0
  O  O94  1  0.07698000  0.88141000  0.38119000  1.0
  O  O95  1  0.92301000  0.11859000  0.61880000  1.0
