# generated using pymatgen
data_NaH9C5N2O5
_symmetry_space_group_name_H-M   'P 1'
_cell_length_a   5.02939000
_cell_length_b   9.32326000
_cell_length_c   17.10610000
_cell_angle_alpha   90.00030000
_cell_angle_beta   89.99950000
_cell_angle_gamma   89.99970000
_symmetry_Int_Tables_number   1
_chemical_formula_structural   NaH9C5N2O5
_chemical_formula_sum   'Na4 H36 C20 N8 O20'
_cell_volume   802.11034230
_cell_formula_units_Z   4
loop_
 _symmetry_equiv_pos_site_id
 _symmetry_equiv_pos_as_xyz
  1  'x, y, z'
loop_
 _atom_site_type_symbol
 _atom_site_label
 _atom_site_symmetry_multiplicity
 _atom_site_fract_x
 _atom_site_fract_y
 _atom_site_fract_z
 _atom_site_occupancy
  Na  Na0  1  0.75705000  0.05712000  0.13643000  1.0
  Na  Na1  1  0.25705000  0.94289000  0.36357000  1.0
  Na  Na2  1  0.24297000  0.44289000  0.63643000  1.0
  Na  Na3  1  0.74295000  0.55712000  0.86358000  1.0
  H  H4  1  0.27073000  0.72057000  0.99098000  1.0
  H  H5  1  0.77072000  0.27945000  0.50903000  1.0
  H  H6  1  0.72932000  0.77944000  0.49097000  1.0
  H  H7  1  0.22927000  0.22057000  0.00902000  1.0
  H  H8  1  0.34849000  0.48059000  0.01880000  1.0
  H  H9  1  0.84849000  0.51942000  0.48120000  1.0
  H  H10  1  0.65151000  0.01941000  0.51880000  1.0
  H  H11  1  0.15151000  0.98059000  0.98119000  1.0
  H  H12  1  0.99692000  0.46676000  0.01038000  1.0
  H  H13  1  0.49691000  0.53325000  0.48962000  1.0
  H  H14  1  0.00309000  0.03325000  0.51038000  1.0
  H  H15  1  0.50308000  0.96676000  0.98962000  1.0
  H  H16  1  0.22201000  0.37774000  0.14576000  1.0
  H  H17  1  0.72199000  0.62226000  0.35423000  1.0
  H  H18  1  0.77795000  0.12225000  0.64576000  1.0
  H  H19  1  0.27799000  0.87774000  0.85423000  1.0
  H  H20  1  0.94327000  0.49404000  0.15325000  1.0
  H  H21  1  0.44326000  0.50595000  0.34675000  1.0
  H  H22  1  0.05671000  0.00597000  0.65326000  1.0
  H  H23  1  0.55672000  0.99405000  0.84674000  1.0
  H  H24  1  0.53447000  0.57602000  0.15926000  1.0
  H  H25  1  0.03445000  0.42397000  0.34074000  1.0
  H  H26  1  0.46552000  0.92395000  0.65926000  1.0
  H  H27  1  0.96553000  0.07604000  0.84074000  1.0
  H  H28  1  0.28278000  0.63000000  0.22649000  1.0
  H  H29  1  0.78276000  0.36998000  0.27351000  1.0
  H  H30  1  0.71721000  0.86999000  0.72649000  1.0
  H  H31  1  0.21722000  0.13001000  0.77350000  1.0
  H  H32  1  0.44825000  0.78695000  0.10529000  1.0
  H  H33  1  0.94824000  0.21306000  0.39472000  1.0
  H  H34  1  0.55178000  0.71305000  0.60528000  1.0
  H  H35  1  0.05176000  0.28695000  0.89471000  1.0
  H  H36  1  0.13203000  0.79831000  0.14183000  1.0
  H  H37  1  0.63201000  0.20168000  0.35819000  1.0
  H  H38  1  0.86800000  0.70168000  0.64182000  1.0
  H  H39  1  0.36798000  0.29832000  0.85818000  1.0
  C  C40  1  0.86365000  0.74109000  0.03057000  1.0
  C  C41  1  0.36365000  0.25891000  0.46944000  1.0
  C  C42  1  0.13638000  0.75892000  0.53056000  1.0
  C  C43  1  0.63635000  0.24109000  0.96944000  1.0
  C  C44  1  0.14714000  0.68095000  0.03912000  1.0
  C  C45  1  0.64713000  0.31905000  0.46089000  1.0
  C  C46  1  0.85288000  0.81906000  0.53912000  1.0
  C  C47  1  0.35286000  0.18095000  0.96088000  1.0
  C  C48  1  0.15828000  0.51673000  0.04349000  1.0
  C  C49  1  0.65826000  0.48327000  0.45651000  1.0
  C  C50  1  0.84174000  0.98327000  0.54350000  1.0
  C  C51  1  0.34173000  0.01674000  0.95650000  1.0
  C  C52  1  0.14795000  0.48474000  0.13108000  1.0
  C  C53  1  0.64793000  0.51525000  0.36892000  1.0
  C  C54  1  0.85203000  0.01526000  0.63108000  1.0
  C  C55  1  0.35205000  0.98475000  0.86892000  1.0
  C  C56  1  0.32283000  0.60182000  0.16566000  1.0
  C  C57  1  0.82280000  0.39816000  0.33434000  1.0
  C  C58  1  0.67717000  0.89816000  0.66566000  1.0
  C  C59  1  0.17718000  0.10183000  0.83434000  1.0
  N  N60  1  0.26939000  0.73112000  0.11521000  1.0
  N  N61  1  0.76939000  0.26887000  0.38480000  1.0
  N  N62  1  0.73063000  0.76887000  0.61520000  1.0
  N  N63  1  0.23061000  0.23113000  0.88479000  1.0
  N  N64  1  0.26167000  0.13042000  0.20616000  1.0
  N  N65  1  0.76166000  0.86958000  0.29384000  1.0
  N  N66  1  0.73836000  0.36958000  0.70616000  1.0
  N  N67  1  0.23832000  0.63042000  0.79383000  1.0
  O  O68  1  0.78252000  0.82679000  0.08401000  1.0
  O  O69  1  0.28251000  0.17320000  0.41599000  1.0
  O  O70  1  0.21752000  0.67321000  0.58400000  1.0
  O  O71  1  0.71749000  0.32680000  0.91599000  1.0
  O  O72  1  0.73223000  0.70082000  0.97220000  1.0
  O  O73  1  0.23222000  0.29919000  0.52781000  1.0
  O  O74  1  0.26778000  0.79919000  0.47220000  1.0
  O  O75  1  0.76776000  0.20082000  0.02780000  1.0
  O  O76  1  0.05424000  0.13007000  0.24795000  1.0
  O  O77  1  0.55427000  0.86992000  0.25205000  1.0
  O  O78  1  0.94575000  0.36993000  0.74794000  1.0
  O  O79  1  0.44574000  0.63006000  0.75205000  1.0
  O  O80  1  0.25741000  0.06851000  0.13960000  1.0
  O  O81  1  0.75740000  0.93146000  0.36039000  1.0
  O  O82  1  0.74261000  0.43147000  0.63961000  1.0
  O  O83  1  0.24261000  0.56852000  0.86039000  1.0
  O  O84  1  0.47255000  0.19142000  0.22902000  1.0
  O  O85  1  0.97258000  0.80856000  0.27098000  1.0
  O  O86  1  0.52744000  0.30857000  0.72902000  1.0
  O  O87  1  0.02743000  0.69142000  0.77098000  1.0
