# generated using pymatgen
data_CdH10C9N2ClO3F
_symmetry_space_group_name_H-M   'P 1'
_cell_length_a   6.85129000
_cell_length_b   12.73820000
_cell_length_c   13.91220000
_cell_angle_alpha   90.00000000
_cell_angle_beta   95.48810000
_cell_angle_gamma   89.99990000
_symmetry_Int_Tables_number   1
_chemical_formula_structural   CdH10C9N2ClO3F
_chemical_formula_sum   'Cd4 H40 C36 N8 Cl4 O12 F4'
_cell_volume   1208.59524154
_cell_formula_units_Z   4
loop_
 _symmetry_equiv_pos_site_id
 _symmetry_equiv_pos_as_xyz
  1  'x, y, z'
loop_
 _atom_site_type_symbol
 _atom_site_label
 _atom_site_symmetry_multiplicity
 _atom_site_fract_x
 _atom_site_fract_y
 _atom_site_fract_z
 _atom_site_occupancy
  Cd  Cd0  1  0.16275000  0.83950000  0.22451000  1.0
  Cd  Cd1  1  0.33725000  0.33950000  0.77549000  1.0
  Cd  Cd2  1  0.83725000  0.16050000  0.77549000  1.0
  Cd  Cd3  1  0.66275000  0.66050000  0.22451000  1.0
  H  H4  1  0.52806000  0.23543000  0.04712000  1.0
  H  H5  1  0.97194000  0.73544000  0.95288000  1.0
  H  H6  1  0.47194000  0.76456000  0.95288000  1.0
  H  H7  1  0.02806000  0.26456000  0.04712000  1.0
  H  H8  1  0.51752000  0.99688000  0.26787000  1.0
  H  H9  1  0.98248000  0.49688000  0.73213000  1.0
  H  H10  1  0.48248000  0.00312000  0.73213000  1.0
  H  H11  1  0.01752000  0.50312000  0.26787000  1.0
  H  H12  1  0.14350000  0.96704000  0.01697000  1.0
  H  H13  1  0.35650000  0.46704000  0.98303000  1.0
  H  H14  1  0.85650000  0.03296000  0.98303000  1.0
  H  H15  1  0.64350000  0.53296000  0.01697000  1.0
  H  H16  1  0.83481000  0.91549000  0.35635000  1.0
  H  H17  1  0.66519000  0.41549000  0.64365000  1.0
  H  H18  1  0.16519000  0.08451000  0.64365000  1.0
  H  H19  1  0.33481000  0.58451000  0.35635000  1.0
  H  H20  1  0.58550000  0.12327000  0.40729000  1.0
  H  H21  1  0.91450000  0.62327000  0.59271000  1.0
  H  H22  1  0.41450000  0.87673000  0.59271000  1.0
  H  H23  1  0.08550000  0.37673000  0.40729000  1.0
  H  H24  1  0.69809000  0.08451000  0.52297000  1.0
  H  H25  1  0.80191000  0.58451000  0.47703000  1.0
  H  H26  1  0.30192000  0.91549000  0.47703000  1.0
  H  H27  1  0.19809000  0.41549000  0.52297000  1.0
  H  H28  1  0.61781000  0.98704000  0.43504000  1.0
  H  H29  1  0.88219000  0.48704000  0.56496000  1.0
  H  H30  1  0.38219000  0.01296000  0.56496000  1.0
  H  H31  1  0.11781000  0.51296000  0.43504000  1.0
  H  H32  1  0.13597000  0.14605000  0.39848000  1.0
  H  H33  1  0.36403000  0.64605000  0.60152000  1.0
  H  H34  1  0.86403000  0.85395000  0.60152000  1.0
  H  H35  1  0.63597000  0.35395000  0.39848000  1.0
  H  H36  1  0.99402000  0.19128000  0.49283000  1.0
  H  H37  1  0.50598000  0.69128000  0.50717000  1.0
  H  H38  1  0.00598000  0.80872000  0.50717000  1.0
  H  H39  1  0.49402000  0.30872000  0.49283000  1.0
  H  H40  1  0.91980000  0.22236000  0.36912000  1.0
  H  H41  1  0.58020000  0.72236000  0.63089000  1.0
  H  H42  1  0.08020000  0.77765000  0.63088000  1.0
  H  H43  1  0.41980000  0.27764000  0.36912000  1.0
  C  C44  1  0.24209000  0.15098000  0.92324000  1.0
  C  C45  1  0.25791000  0.65098000  0.07676000  1.0
  C  C46  1  0.75791000  0.84901000  0.07676000  1.0
  C  C47  1  0.74209000  0.34901000  0.92324000  1.0
  C  C48  1  0.32495000  0.10666000  0.01967000  1.0
  C  C49  1  0.17505000  0.60666000  0.98033000  1.0
  C  C50  1  0.67504000  0.89334000  0.98033000  1.0
  C  C51  1  0.82495000  0.39334000  0.01967000  1.0
  C  C52  1  0.47191000  0.16262000  0.07459000  1.0
  C  C53  1  0.02810000  0.66262000  0.92541000  1.0
  C  C54  1  0.52810000  0.83738000  0.92542000  1.0
  C  C55  1  0.97191000  0.33738000  0.07459000  1.0
  C  C56  1  0.54143000  0.12201000  0.16335000  1.0
  C  C57  1  0.95857000  0.62201000  0.83664000  1.0
  C  C58  1  0.45857000  0.87799000  0.83664000  1.0
  C  C59  1  0.04143000  0.37799000  0.16335000  1.0
  C  C60  1  0.46521000  0.02990000  0.19794000  1.0
  C  C61  1  0.03479000  0.52991000  0.80206000  1.0
  C  C62  1  0.53479000  0.97009000  0.80206000  1.0
  C  C63  1  0.96521000  0.47010000  0.19794000  1.0
  C  C64  1  0.25629000  0.01351000  0.05751000  1.0
  C  C65  1  0.24370000  0.51351000  0.94249000  1.0
  C  C66  1  0.74370000  0.98649000  0.94249000  1.0
  C  C67  1  0.75630000  0.48649000  0.05751000  1.0
  C  C68  1  0.93786000  0.98240000  0.36223000  1.0
  C  C69  1  0.56213000  0.48240000  0.63777000  1.0
  C  C70  1  0.06214000  0.01760000  0.63777000  1.0
  C  C71  1  0.43787000  0.51760000  0.36223000  1.0
  C  C72  1  0.68302000  0.06528000  0.44569000  1.0
  C  C73  1  0.81697000  0.56528000  0.55432000  1.0
  C  C74  1  0.31698000  0.93472000  0.55431000  1.0
  C  C75  1  0.18303000  0.43472000  0.44569000  1.0
  C  C76  1  0.98807000  0.16215000  0.41821000  1.0
  C  C77  1  0.51193000  0.66215000  0.58179000  1.0
  C  C78  1  0.01193000  0.83785000  0.58179000  1.0
  C  C79  1  0.48807000  0.33785000  0.41821000  1.0
  N  N80  1  0.32328000  0.97728000  0.14521000  1.0
  N  N81  1  0.17671000  0.47728000  0.85479000  1.0
  N  N82  1  0.67671000  0.02272000  0.85479000  1.0
  N  N83  1  0.82329000  0.52272000  0.14521000  1.0
  N  N84  1  0.87393000  0.06592000  0.40834000  1.0
  N  N85  1  0.62607000  0.56592000  0.59166000  1.0
  N  N86  1  0.12607000  0.93408000  0.59166000  1.0
  N  N87  1  0.37393000  0.43408000  0.40834000  1.0
  Cl  Cl88  1  0.99688000  0.70265000  0.33123000  1.0
  Cl  Cl89  1  0.50312000  0.20265000  0.66877000  1.0
  Cl  Cl90  1  0.00312000  0.29735000  0.66877000  1.0
  Cl  Cl91  1  0.49688000  0.79735000  0.33123000  1.0
  O  O92  1  0.12338000  0.09528000  0.86978000  1.0
  O  O93  1  0.37661000  0.59528000  0.13021000  1.0
  O  O94  1  0.87661000  0.90472000  0.13022000  1.0
  O  O95  1  0.62338000  0.40472000  0.86978000  1.0
  O  O96  1  0.30086000  0.24340000  0.90723000  1.0
  O  O97  1  0.19914000  0.74341000  0.09277000  1.0
  O  O98  1  0.69913000  0.75659000  0.09277000  1.0
  O  O99  1  0.80087000  0.25659000  0.90723000  1.0
  O  O100  1  0.10170000  0.97839000  0.32887000  1.0
  O  O101  1  0.39830000  0.47839000  0.67113000  1.0
  O  O102  1  0.89830000  0.02161000  0.67113000  1.0
  O  O103  1  0.60170000  0.52161000  0.32887000  1.0
  F  F104  1  0.68553000  0.17361000  0.21912000  1.0
  F  F105  1  0.81447000  0.67362000  0.78088000  1.0
  F  F106  1  0.31447000  0.82638000  0.78088000  1.0
  F  F107  1  0.18553000  0.32638000  0.21912000  1.0
