# generated using pymatgen
data_CoH18C18(NO3)2
_symmetry_space_group_name_H-M   'P 1'
_cell_length_a   9.34893000
_cell_length_b   13.00550000
_cell_length_c   19.89994094
_cell_angle_alpha   109.06152253
_cell_angle_beta   102.76342512
_cell_angle_gamma   90.03310000
_symmetry_Int_Tables_number   1
_chemical_formula_structural   CoH18C18(NO3)2
_chemical_formula_sum   'Co4 H72 C72 N8 O24'
_cell_volume   2223.45365618
_cell_formula_units_Z   4
loop_
 _symmetry_equiv_pos_site_id
 _symmetry_equiv_pos_as_xyz
  1  'x, y, z'
loop_
 _atom_site_type_symbol
 _atom_site_label
 _atom_site_symmetry_multiplicity
 _atom_site_fract_x
 _atom_site_fract_y
 _atom_site_fract_z
 _atom_site_occupancy
  Co  Co0  1  0.82504000  0.41105000  0.27501000  1.0
  Co  Co1  1  0.67492000  0.13640000  0.72496000  1.0
  Co  Co2  1  0.17499000  0.58891000  0.72499000  1.0
  Co  Co3  1  0.32512000  0.86364000  0.27503000  1.0
  H  H4  1  0.13033000  0.42634000  0.24677000  1.0
  H  H5  1  0.38998000  0.45350000  0.31895000  1.0
  H  H6  1  0.22105000  0.48066000  0.50926000  1.0
  H  H7  1  0.96939000  0.45096000  0.42846000  1.0
  H  H8  1  0.84506000  0.35909000  0.11746000  1.0
  H  H9  1  0.91066000  0.20489000  0.01948000  1.0
  H  H10  1  0.99321000  0.02899000  0.17393000  1.0
  H  H11  1  0.92444000  0.19024000  0.26438000  1.0
  H  H12  1  0.56351000  0.48416000  0.43231000  1.0
  H  H13  1  0.03104000  0.93903000  0.05585000  1.0
  H  H14  1  0.53771000  0.73307000  0.40647000  1.0
  H  H15  1  0.84820000  0.68579000  0.47637000  1.0
  H  H16  1  0.95694000  0.81626000  0.60098000  1.0
  H  H17  1  0.63285000  0.85129000  0.54279000  1.0
  H  H18  1  0.57450000  0.46178000  0.22712000  1.0
  H  H19  1  0.56425000  0.34316000  0.23520000  1.0
  H  H20  1  0.94703000  0.58838000  0.25323000  1.0
  H  H21  1  0.77225000  0.57491000  0.23385000  1.0
  H  H22  1  0.36972000  0.17969000  0.75326000  1.0
  H  H23  1  0.11004000  0.13451000  0.68105000  1.0
  H  H24  1  0.27894000  0.97146000  0.49078000  1.0
  H  H25  1  0.53061000  0.02283000  0.57155000  1.0
  H  H26  1  0.65516000  0.24235000  0.88284000  1.0
  H  H27  1  0.58948000  0.18572000  0.98072000  1.0
  H  H28  1  0.50602000  0.85571000  0.82585000  1.0
  H  H29  1  0.57484000  0.92688000  0.73556000  1.0
  H  H30  1  0.93654000  0.05199000  0.56774000  1.0
  H  H31  1  0.46889000  0.88322000  0.94394000  1.0
  H  H32  1  0.96221000  0.32705000  0.59349000  1.0
  H  H33  1  0.65179000  0.20947000  0.52375000  1.0
  H  H34  1  0.54256000  0.21537000  0.39918000  1.0
  H  H35  1  0.86681000  0.30856000  0.45707000  1.0
  H  H36  1  0.92575000  0.23486000  0.77293000  1.0
  H  H37  1  0.93560000  0.10809000  0.76472000  1.0
  H  H38  1  0.55296000  0.33533000  0.74672000  1.0
  H  H39  1  0.72775000  0.34135000  0.76614000  1.0
  H  H40  1  0.86973000  0.57363000  0.75326000  1.0
  H  H41  1  0.61006000  0.54650000  0.68109000  1.0
  H  H42  1  0.77892000  0.51935000  0.49078000  1.0
  H  H43  1  0.03059000  0.54902000  0.57155000  1.0
  H  H44  1  0.15493000  0.64092000  0.88255000  1.0
  H  H45  1  0.08922000  0.79513000  0.98049000  1.0
  H  H46  1  0.00670000  0.97095000  0.82600000  1.0
  H  H47  1  0.07558000  0.80971000  0.73559000  1.0
  H  H48  1  0.43648000  0.51587000  0.56775000  1.0
  H  H49  1  0.96877000  0.06094000  0.94408000  1.0
  H  H50  1  0.46230000  0.26691000  0.59355000  1.0
  H  H51  1  0.15182000  0.31419000  0.52365000  1.0
  H  H52  1  0.04309000  0.18376000  0.39903000  1.0
  H  H53  1  0.36718000  0.14870000  0.45722000  1.0
  H  H54  1  0.42551000  0.53820000  0.77290000  1.0
  H  H55  1  0.43576000  0.65681000  0.76481000  1.0
  H  H56  1  0.05298000  0.41162000  0.74679000  1.0
  H  H57  1  0.22776000  0.42508000  0.76617000  1.0
  H  H58  1  0.63031000  0.82037000  0.24676000  1.0
  H  H59  1  0.88998000  0.86551000  0.31897000  1.0
  H  H60  1  0.72105000  0.02856000  0.50925000  1.0
  H  H61  1  0.46939000  0.97719000  0.42845000  1.0
  H  H62  1  0.34484000  0.75765000  0.11716000  1.0
  H  H63  1  0.41046000  0.81421000  0.01924000  1.0
  H  H64  1  0.49396000  0.14425000  0.17404000  1.0
  H  H65  1  0.42516000  0.07316000  0.26437000  1.0
  H  H66  1  0.06346000  0.94806000  0.43231000  1.0
  H  H67  1  0.53109000  0.11668000  0.05596000  1.0
  H  H68  1  0.03781000  0.67300000  0.40653000  1.0
  H  H69  1  0.34823000  0.79057000  0.47627000  1.0
  H  H70  1  0.45744000  0.78462000  0.60083000  1.0
  H  H71  1  0.13320000  0.69146000  0.54294000  1.0
  H  H72  1  0.07431000  0.76517000  0.22709000  1.0
  H  H73  1  0.06445000  0.89193000  0.23528000  1.0
  H  H74  1  0.44706000  0.66469000  0.25330000  1.0
  H  H75  1  0.27227000  0.65869000  0.23388000  1.0
  C  C76  1  0.15580000  0.43936000  0.30525000  1.0
  C  C77  1  0.29988000  0.45517000  0.34573000  1.0
  C  C78  1  0.32917000  0.47128000  0.42105000  1.0
  C  C79  1  0.20702000  0.46956000  0.45145000  1.0
  C  C80  1  0.06669000  0.45318000  0.40718000  1.0
  C  C81  1  0.87842000  0.28367000  0.12693000  1.0
  C  C82  1  0.91524000  0.19706000  0.07276000  1.0
  C  C83  1  0.95818000  0.10109000  0.08745000  1.0
  C  C84  1  0.96108000  0.09988000  0.15814000  1.0
  C  C85  1  0.92342000  0.19008000  0.20952000  1.0
  C  C86  1  0.47964000  0.48900000  0.46340000  1.0
  C  C87  1  0.99918000  0.00573000  0.03493000  1.0
  C  C88  1  0.66453000  0.60648000  0.34710000  1.0
  C  C89  1  0.64031000  0.69327000  0.41252000  1.0
  C  C90  1  0.74564000  0.72611000  0.47560000  1.0
  C  C91  1  0.84353000  0.94753000  0.66433000  1.0
  C  C92  1  0.85043000  0.85101000  0.60007000  1.0
  C  C93  1  0.73628000  0.81258000  0.54107000  1.0
  C  C94  1  0.34424000  0.13425000  0.69476000  1.0
  C  C95  1  0.20016000  0.10949000  0.65429000  1.0
  C  C96  1  0.17085000  0.05028000  0.57898000  1.0
  C  C97  1  0.29298000  0.01819000  0.54858000  1.0
  C  C98  1  0.43330000  0.04623000  0.59283000  1.0
  C  C99  1  0.62154000  0.15742000  0.87324000  1.0
  C  C100  1  0.58466000  0.12477000  0.92736000  1.0
  C  C101  1  0.54148000  0.01408000  0.91253000  1.0
  C  C102  1  0.53824000  0.94241000  0.84175000  1.0
  C  C103  1  0.57594000  0.98142000  0.79045000  1.0
  C  C104  1  0.02037000  0.02566000  0.53664000  1.0
  C  C105  1  0.50066000  0.97087000  0.96496000  1.0
  C  C106  1  0.83548000  0.25974000  0.65294000  1.0
  C  C107  1  0.85969000  0.28107000  0.58750000  1.0
  C  C108  1  0.75425000  0.25068000  0.52444000  1.0
  C  C109  1  0.65597000  0.28308000  0.33565000  1.0
  C  C110  1  0.64908000  0.25101000  0.40000000  1.0
  C  C111  1  0.76338000  0.27164000  0.45893000  1.0
  C  C112  1  0.84426000  0.56061000  0.69478000  1.0
  C  C113  1  0.70015000  0.54482000  0.65431000  1.0
  C  C114  1  0.67083000  0.52873000  0.57900000  1.0
  C  C115  1  0.79298000  0.53044000  0.54858000  1.0
  C  C116  1  0.93331000  0.54680000  0.59283000  1.0
  C  C117  1  0.12155000  0.71632000  0.87305000  1.0
  C  C118  1  0.08466000  0.80293000  0.92720000  1.0
  C  C119  1  0.04169000  0.89888000  0.91249000  1.0
  C  C120  1  0.03883000  0.90007000  0.84180000  1.0
  C  C121  1  0.07656000  0.80987000  0.79044000  1.0
  C  C122  1  0.52036000  0.51103000  0.53666000  1.0
  C  C123  1  0.00066000  0.99425000  0.96501000  1.0
  C  C124  1  0.33549000  0.39351000  0.65292000  1.0
  C  C125  1  0.35971000  0.30673000  0.58751000  1.0
  C  C126  1  0.25439000  0.27387000  0.52442000  1.0
  C  C127  1  0.15651000  0.05250000  0.33567000  1.0
  C  C128  1  0.14961000  0.14900000  0.39995000  1.0
  C  C129  1  0.26374000  0.18742000  0.45895000  1.0
  C  C130  1  0.65580000  0.86579000  0.30526000  1.0
  C  C131  1  0.79987000  0.89054000  0.34574000  1.0
  C  C132  1  0.82915000  0.94975000  0.42105000  1.0
  C  C133  1  0.70702000  0.98183000  0.45144000  1.0
  C  C134  1  0.56670000  0.95380000  0.40719000  1.0
  C  C135  1  0.37846000  0.84256000  0.12673000  1.0
  C  C136  1  0.41531000  0.87518000  0.07259000  1.0
  C  C137  1  0.45849000  0.98586000  0.08739000  1.0
  C  C138  1  0.46174000  0.05756000  0.15816000  1.0
  C  C139  1  0.42406000  0.01859000  0.20948000  1.0
  C  C140  1  0.97962000  0.97437000  0.46340000  1.0
  C  C141  1  0.49932000  0.02904000  0.03495000  1.0
  C  C142  1  0.16453000  0.74030000  0.34708000  1.0
  C  C143  1  0.14033000  0.71896000  0.41252000  1.0
  C  C144  1  0.24576000  0.74936000  0.47558000  1.0
  C  C145  1  0.34402000  0.71688000  0.66435000  1.0
  C  C146  1  0.35092000  0.74899000  0.60001000  1.0
  C  C147  1  0.23662000  0.72839000  0.54109000  1.0
  N  N148  1  0.03971000  0.43849000  0.33499000  1.0
  N  N149  1  0.88234000  0.28128000  0.19475000  1.0
  N  N150  1  0.46029000  0.10377000  0.66502000  1.0
  N  N151  1  0.61741000  0.08740000  0.80537000  1.0
  N  N152  1  0.96033000  0.56149000  0.66503000  1.0
  N  N153  1  0.11767000  0.71869000  0.80523000  1.0
  N  N154  1  0.53973000  0.89627000  0.33499000  1.0
  N  N155  1  0.38261000  0.91262000  0.19459000  1.0
  O  O156  1  0.76067000  0.54009000  0.35720000  1.0
  O  O157  1  0.58973000  0.60201000  0.28338000  1.0
  O  O158  1  0.71573000  0.98206000  0.66886000  1.0
  O  O159  1  0.96371000  0.99089000  0.70948000  1.0
  O  O160  1  0.60493000  0.38659000  0.20848000  1.0
  O  O161  1  0.85914000  0.53408000  0.22727000  1.0
  O  O162  1  0.73940000  0.18317000  0.64287000  1.0
  O  O163  1  0.91019000  0.31909000  0.71667000  1.0
  O  O164  1  0.78384000  0.31292000  0.33105000  1.0
  O  O165  1  0.53583000  0.28124000  0.29049000  1.0
  O  O166  1  0.89516000  0.17828000  0.79152000  1.0
  O  O167  1  0.64082000  0.30700000  0.77267000  1.0
  O  O168  1  0.23935000  0.45991000  0.64283000  1.0
  O  O169  1  0.41028000  0.39800000  0.71665000  1.0
  O  O170  1  0.28431000  0.01798000  0.33113000  1.0
  O  O171  1  0.03633000  0.00915000  0.29051000  1.0
  O  O172  1  0.39504000  0.61338000  0.79152000  1.0
  O  O173  1  0.14088000  0.46593000  0.77272000  1.0
  O  O174  1  0.26061000  0.81686000  0.35715000  1.0
  O  O175  1  0.08982000  0.68094000  0.28334000  1.0
  O  O176  1  0.21615000  0.68703000  0.66896000  1.0
  O  O177  1  0.46415000  0.71871000  0.70951000  1.0
  O  O178  1  0.10489000  0.82175000  0.20849000  1.0
  O  O179  1  0.35921000  0.69301000  0.22734000  1.0
