# generated using pymatgen
data_ZnPH8C4N3O4
_symmetry_space_group_name_H-M   'P 1'
_cell_length_a   8.81506000
_cell_length_b   9.34461000
_cell_length_c   10.04610000
_cell_angle_alpha   87.66580000
_cell_angle_beta   85.69570000
_cell_angle_gamma   88.25800000
_symmetry_Int_Tables_number   1
_chemical_formula_structural   ZnPH8C4N3O4
_chemical_formula_sum   'Zn4 P4 H32 C16 N12 O16'
_cell_volume   824.20112523
_cell_formula_units_Z   4
loop_
 _symmetry_equiv_pos_site_id
 _symmetry_equiv_pos_as_xyz
  1  'x, y, z'
loop_
 _atom_site_type_symbol
 _atom_site_label
 _atom_site_symmetry_multiplicity
 _atom_site_fract_x
 _atom_site_fract_y
 _atom_site_fract_z
 _atom_site_occupancy
  Zn  Zn0  1  0.12234000  0.20079000  0.04295000  1.0
  Zn  Zn1  1  0.87766000  0.79920000  0.95706000  1.0
  Zn  Zn2  1  0.18094000  0.66784000  0.43345000  1.0
  Zn  Zn3  1  0.81906000  0.33216000  0.56655000  1.0
  P  P4  1  0.00762000  0.42009000  0.29608000  1.0
  P  P5  1  0.99237000  0.57990000  0.70392000  1.0
  P  P6  1  0.97841000  0.10745000  0.78681000  1.0
  P  P7  1  0.02159000  0.89255000  0.21320000  1.0
  H  H8  1  0.90683000  0.53490000  0.26580000  1.0
  H  H9  1  0.09316000  0.46510000  0.73420000  1.0
  H  H10  1  0.11744000  0.05344000  0.72735000  1.0
  H  H11  1  0.88256000  0.94655000  0.27265000  1.0
  H  H12  1  0.67460000  0.09726000  0.93778000  1.0
  H  H13  1  0.32540000  0.90274000  0.06222000  1.0
  H  H14  1  0.64557000  0.23393000  0.81452000  1.0
  H  H15  1  0.35444000  0.76607000  0.18547000  1.0
  H  H16  1  0.81589000  0.35521000  0.98765000  1.0
  H  H17  1  0.18411000  0.64479000  0.01235000  1.0
  H  H18  1  0.75006000  0.31504000  0.15691000  1.0
  H  H19  1  0.24994000  0.68496000  0.84309000  1.0
  H  H20  1  0.69300000  0.47923000  0.07724000  1.0
  H  H21  1  0.30700000  0.52078000  0.92276000  1.0
  H  H22  1  0.45971000  0.45782000  0.21046000  1.0
  H  H23  1  0.54029000  0.54218000  0.78954000  1.0
  H  H24  1  0.27791000  0.39667000  0.18246000  1.0
  H  H25  1  0.72210000  0.60334000  0.81754000  1.0
  H  H26  1  0.74903000  0.65787000  0.48831000  1.0
  H  H27  1  0.25097000  0.34212000  0.51170000  1.0
  H  H28  1  0.72529000  0.80020000  0.36525000  1.0
  H  H29  1  0.27471000  0.19979000  0.63476000  1.0
  H  H30  1  0.79039000  0.91457000  0.59764000  1.0
  H  H31  1  0.20960000  0.08543000  0.40236000  1.0
  H  H32  1  0.66455000  0.86791000  0.73793000  1.0
  H  H33  1  0.33545000  0.13210000  0.26207000  1.0
  H  H34  1  0.62351000  0.02051000  0.63432000  1.0
  H  H35  1  0.37649000  0.97950000  0.36568000  1.0
  H  H36  1  0.37243000  0.92541000  0.71407000  1.0
  H  H37  1  0.62756000  0.07460000  0.28592000  1.0
  H  H38  1  0.23235000  0.81755000  0.65109000  1.0
  H  H39  1  0.76764000  0.18246000  0.34891000  1.0
  C  C40  1  0.43592000  0.14705000  0.90874000  1.0
  C  C41  1  0.56408000  0.85295000  0.09126000  1.0
  C  C42  1  0.60048000  0.18944000  0.91188000  1.0
  C  C43  1  0.39952000  0.81056000  0.08812000  1.0
  C  C44  1  0.71898000  0.36537000  0.06175000  1.0
  C  C45  1  0.28102000  0.63464000  0.93825000  1.0
  C  C46  1  0.44467000  0.30843000  0.06328000  1.0
  C  C47  1  0.55533000  0.69158000  0.93671000  1.0
  C  C48  1  0.53459000  0.66017000  0.39409000  1.0
  C  C49  1  0.46541000  0.33983000  0.60591000  1.0
  C  C50  1  0.66694000  0.73503000  0.44591000  1.0
  C  C51  1  0.33306000  0.26496000  0.55410000  1.0
  C  C52  1  0.67079000  0.91075000  0.63461000  1.0
  C  C53  1  0.32921000  0.08925000  0.36540000  1.0
  C  C54  1  0.44243000  0.79595000  0.55853000  1.0
  C  C55  1  0.55756000  0.20404000  0.44147000  1.0
  N  N56  1  0.34929000  0.22257000  0.00164000  1.0
  N  N57  1  0.65072000  0.77743000  0.99836000  1.0
  N  N58  1  0.58974000  0.29602000  0.01359000  1.0
  N  N59  1  0.41027000  0.70397000  0.98642000  1.0
  N  N60  1  0.39359000  0.39123000  0.16115000  1.0
  N  N61  1  0.60641000  0.60877000  0.83885000  1.0
  N  N62  1  0.40262000  0.70211000  0.46527000  1.0
  N  N63  1  0.59738000  0.29789000  0.53473000  1.0
  N  N64  1  0.59157000  0.82207000  0.54869000  1.0
  N  N65  1  0.40843000  0.17793000  0.45131000  1.0
  N  N66  1  0.34142000  0.85496000  0.64567000  1.0
  N  N67  1  0.65857000  0.14504000  0.35433000  1.0
  O  O68  1  0.13667000  0.48083000  0.37107000  1.0
  O  O69  1  0.86333000  0.51917000  0.62893000  1.0
  O  O70  1  0.07180000  0.36193000  0.16232000  1.0
  O  O71  1  0.92820000  0.63808000  0.83768000  1.0
  O  O72  1  0.91747000  0.30681000  0.38279000  1.0
  O  O73  1  0.08253000  0.69318000  0.61721000  1.0
  O  O74  1  0.01596000  0.22535000  0.88125000  1.0
  O  O75  1  0.98405000  0.77465000  0.11876000  1.0
  O  O76  1  0.88809000  0.16875000  0.67229000  1.0
  O  O77  1  0.11191000  0.83125000  0.32771000  1.0
  O  O78  1  0.89805000  0.98098000  0.85906000  1.0
  O  O79  1  0.10195000  0.01902000  0.14095000  1.0
  O  O80  1  0.38708000  0.05734000  0.83592000  1.0
  O  O81  1  0.61292000  0.94267000  0.16407000  1.0
  O  O82  1  0.54717000  0.57726000  0.30055000  1.0
  O  O83  1  0.45284000  0.42274000  0.69944000  1.0
