# generated using pymatgen
data_KH15(C9O4)2
_symmetry_space_group_name_H-M   'P 1'
_cell_length_a   9.79894000
_cell_length_b   9.84663000
_cell_length_c   10.28900000
_cell_angle_alpha   110.77000000
_cell_angle_beta   110.99000000
_cell_angle_gamma   96.01890000
_symmetry_Int_Tables_number   1
_chemical_formula_structural   KH15(C9O4)2
_chemical_formula_sum   'K2 H30 C36 O16'
_cell_volume   835.50501011
_cell_formula_units_Z   2
loop_
 _symmetry_equiv_pos_site_id
 _symmetry_equiv_pos_as_xyz
  1  'x, y, z'
loop_
 _atom_site_type_symbol
 _atom_site_label
 _atom_site_symmetry_multiplicity
 _atom_site_fract_x
 _atom_site_fract_y
 _atom_site_fract_z
 _atom_site_occupancy
  K  K0  1  0.19853000  0.83424000  0.17616000  1.0
  K  K1  1  0.80148000  0.16576000  0.82385000  1.0
  H  H2  1  0.42825000  0.73151000  0.43696000  1.0
  H  H3  1  0.57174000  0.26850000  0.56304000  1.0
  H  H4  1  0.38427000  0.57514000  0.18531000  1.0
  H  H5  1  0.61572000  0.42486000  0.81468000  1.0
  H  H6  1  0.93755000  0.54891000  0.80157000  1.0
  H  H7  1  0.06245000  0.45109000  0.19842000  1.0
  H  H8  1  0.19847000  0.97572000  0.50840000  1.0
  H  H9  1  0.80153000  0.02428000  0.49161000  1.0
  H  H10  1  0.46191000  0.16154000  0.82724000  1.0
  H  H11  1  0.53809000  0.83847000  0.17277000  1.0
  H  H12  1  0.43548000  0.37538000  0.00079000  1.0
  H  H13  1  0.56451000  0.62462000  0.99922000  1.0
  H  H14  1  0.92623000  0.32632000  0.62042000  1.0
  H  H15  1  0.07378000  0.67368000  0.37957000  1.0
  H  H16  1  0.06469000  0.13689000  0.54992000  1.0
  H  H17  1  0.93533000  0.86312000  0.45007000  1.0
  H  H18  1  0.19948000  0.19717000  0.36406000  1.0
  H  H19  1  0.80052000  0.80283000  0.63594000  1.0
  H  H20  1  0.83142000  0.81148000  0.92228000  1.0
  H  H21  1  0.16858000  0.18851000  0.07772000  1.0
  H  H22  1  0.51988000  0.35013000  0.20635000  1.0
  H  H23  1  0.48012000  0.64986000  0.79365000  1.0
  H  H24  1  0.84819000  0.45796000  0.45140000  1.0
  H  H25  1  0.15181000  0.54204000  0.54859000  1.0
  H  H26  1  0.02209000  0.32053000  0.42015000  1.0
  H  H27  1  0.97791000  0.67946000  0.57985000  1.0
  H  H28  1  0.64053000  0.92458000  0.92174000  1.0
  H  H29  1  0.35947000  0.07542000  0.07826000  1.0
  H  H30  1  0.56629000  0.14389000  0.05933000  1.0
  H  H31  1  0.43371000  0.85611000  0.94067000  1.0
  C  C32  1  0.41335000  0.91692000  0.58704000  1.0
  C  C33  1  0.58663000  0.08308000  0.41295000  1.0
  C  C34  1  0.30871000  0.01070000  0.60534000  1.0
  C  C35  1  0.69130000  0.98932000  0.39468000  1.0
  C  C36  1  0.34891000  0.13560000  0.73629000  1.0
  C  C37  1  0.65109000  0.86440000  0.26372000  1.0
  C  C38  1  0.26021000  0.24074000  0.77100000  1.0
  C  C39  1  0.73980000  0.75927000  0.22901000  1.0
  C  C40  1  0.32237000  0.36236000  0.91778000  1.0
  C  C41  1  0.67763000  0.63764000  0.08223000  1.0
  C  C42  1  0.24477000  0.46889000  0.95950000  1.0
  C  C43  1  0.75522000  0.53111000  0.04050000  1.0
  C  C44  1  0.10182000  0.45677000  0.84851000  1.0
  C  C45  1  0.89817000  0.54324000  0.15148000  1.0
  C  C46  1  0.03837000  0.33591000  0.70330000  1.0
  C  C47  1  0.96163000  0.66409000  0.29670000  1.0
  C  C48  1  0.11574000  0.22850000  0.66470000  1.0
  C  C49  1  0.88426000  0.77151000  0.33530000  1.0
  C  C50  1  0.60998000  0.56419000  0.41271000  1.0
  C  C51  1  0.39001000  0.43581000  0.58727000  1.0
  C  C52  1  0.62174000  0.41993000  0.31092000  1.0
  C  C53  1  0.37826000  0.58007000  0.68907000  1.0
  C  C54  1  0.75341000  0.38011000  0.34303000  1.0
  C  C55  1  0.24659000  0.61989000  0.65697000  1.0
  C  C56  1  0.78735000  0.24805000  0.25348000  1.0
  C  C57  1  0.21265000  0.75195000  0.74652000  1.0
  C  C58  1  0.93594000  0.23285000  0.31243000  1.0
  C  C59  1  0.06406000  0.76715000  0.68757000  1.0
  C  C60  1  0.97926000  0.10932000  0.23604000  1.0
  C  C61  1  0.02074000  0.89068000  0.76396000  1.0
  C  C62  1  0.86840000  0.99446000  0.09654000  1.0
  C  C63  1  0.13160000  0.00554000  0.90346000  1.0
  C  C64  1  0.72176000  0.00978000  0.03458000  1.0
  C  C65  1  0.27824000  0.99022000  0.96542000  1.0
  C  C66  1  0.68119000  0.13509000  0.11109000  1.0
  C  C67  1  0.31881000  0.86491000  0.88891000  1.0
  O  O68  1  0.54452000  0.94468000  0.68409000  1.0
  O  O69  1  0.45550000  0.05533000  0.31593000  1.0
  O  O70  1  0.35278000  0.79599000  0.45090000  1.0
  O  O71  1  0.64722000  0.20402000  0.54910000  1.0
  O  O72  1  0.29988000  0.58696000  0.09941000  1.0
  O  O73  1  0.70010000  0.41303000  0.90060000  1.0
  O  O74  1  0.03086000  0.56668000  0.89013000  1.0
  O  O75  1  0.96913000  0.43331000  0.10986000  1.0
  O  O76  1  0.71344000  0.63682000  0.54802000  1.0
  O  O77  1  0.28655000  0.36318000  0.45198000  1.0
  O  O78  1  0.49212000  0.60810000  0.35485000  1.0
  O  O79  1  0.50787000  0.39189000  0.64514000  1.0
  O  O80  1  0.12273000  0.09393000  0.28805000  1.0
  O  O81  1  0.87727000  0.90606000  0.71195000  1.0
  O  O82  1  0.91206000  0.87216000  0.02487000  1.0
  O  O83  1  0.08794000  0.12783000  0.97514000  1.0
