# generated using pymatgen
data_AgH12C13S2N3
_symmetry_space_group_name_H-M   'P 1'
_cell_length_a   5.78021000
_cell_length_b   15.56689437
_cell_length_c   15.90950000
_cell_angle_alpha   88.19701377
_cell_angle_beta   80.24310000
_cell_angle_gamma   79.30060958
_symmetry_Int_Tables_number   1
_chemical_formula_structural   AgH12C13S2N3
_chemical_formula_sum   'Ag4 H48 C52 S8 N12'
_cell_volume   1386.30170481
_cell_formula_units_Z   4
loop_
 _symmetry_equiv_pos_site_id
 _symmetry_equiv_pos_as_xyz
  1  'x, y, z'
loop_
 _atom_site_type_symbol
 _atom_site_label
 _atom_site_symmetry_multiplicity
 _atom_site_fract_x
 _atom_site_fract_y
 _atom_site_fract_z
 _atom_site_occupancy
  Ag  Ag0  1  0.68863000  0.08723000  0.96965000  1.0
  Ag  Ag1  1  0.74129000  0.91118000  0.03189000  1.0
  Ag  Ag2  1  0.23398000  0.03254000  0.08543000  1.0
  Ag  Ag3  1  0.34335000  0.96677000  0.91361000  1.0
  H  H4  1  0.27197000  0.83945000  0.74215000  1.0
  H  H5  1  0.86902000  0.16161000  0.25637000  1.0
  H  H6  1  0.88450000  0.25866000  0.83905000  1.0
  H  H7  1  0.98130000  0.74394000  0.15974000  1.0
  H  H8  1  0.28469000  0.86664000  0.63230000  1.0
  H  H9  1  0.81035000  0.13552000  0.36660000  1.0
  H  H10  1  0.83798000  0.37176000  0.86325000  1.0
  H  H11  1  0.06646000  0.63047000  0.13664000  1.0
  H  H12  1  0.38997000  0.71496000  0.58750000  1.0
  H  H13  1  0.71372000  0.28600000  0.41265000  1.0
  H  H14  1  0.87586000  0.41319000  0.71484000  1.0
  H  H15  1  0.01440000  0.58700000  0.28420000  1.0
  H  H16  1  0.88672000  0.55398000  0.62742000  1.0
  H  H17  1  0.08385000  0.44473000  0.37225000  1.0
  H  H18  1  0.53511000  0.37178000  0.55806000  1.0
  H  H19  1  0.48732000  0.62953000  0.44010000  1.0
  H  H20  1  0.60109000  0.66404000  0.72565000  1.0
  H  H21  1  0.00678000  0.33481000  0.27230000  1.0
  H  H22  1  0.72212000  0.27474000  0.66746000  1.0
  H  H23  1  0.67227000  0.72878000  0.33142000  1.0
  H  H24  1  0.72749000  0.80394000  0.75608000  1.0
  H  H25  1  0.30580000  0.19602000  0.24165000  1.0
  H  H26  1  0.46434000  0.24573000  0.80504000  1.0
  H  H27  1  0.51080000  0.75795000  0.19459000  1.0
  H  H28  1  0.67164000  0.98801000  0.66657000  1.0
  H  H29  1  0.33439000  0.02039000  0.33420000  1.0
  H  H30  1  0.33746000  0.34091000  0.98099000  1.0
  H  H31  1  0.65170000  0.65780000  0.02223000  1.0
  H  H32  1  0.88643000  0.91863000  0.59409000  1.0
  H  H33  1  0.42763000  0.08573000  0.40626000  1.0
  H  H34  1  0.16807000  0.41488000  0.91809000  1.0
  H  H35  1  0.48988000  0.58506000  0.08357000  1.0
  H  H36  1  0.74680000  0.06347000  0.50858000  1.0
  H  H37  1  0.31227000  0.94135000  0.48736000  1.0
  H  H38  1  0.19399000  0.49272000  0.06436000  1.0
  H  H39  1  0.74928000  0.50926000  0.93697000  1.0
  H  H40  1  0.18032000  0.24890000  0.49989000  1.0
  H  H41  1  0.89487000  0.74498000  0.50346000  1.0
  H  H42  1  0.59449000  0.49756000  0.24977000  1.0
  H  H43  1  0.34199000  0.50096000  0.74768000  1.0
  H  H44  1  0.35336000  0.18215000  0.62571000  1.0
  H  H45  1  0.14550000  0.80885000  0.38292000  1.0
  H  H46  1  0.47852000  0.37362000  0.18058000  1.0
  H  H47  1  0.02747000  0.62255000  0.81590000  1.0
  H  H48  1  0.20777000  0.05180000  0.69675000  1.0
  H  H49  1  0.96434000  0.94394000  0.31036000  1.0
  H  H50  1  0.73765000  0.30627000  0.04807000  1.0
  H  H51  1  0.08298000  0.69054000  0.95005000  1.0
  C  C52  1  0.89106000  0.94881000  0.79682000  1.0
  C  C53  1  0.65024000  0.05056000  0.20390000  1.0
  C  C54  1  0.15477000  0.20552000  0.94842000  1.0
  C  C55  1  0.30693000  0.79455000  0.05088000  1.0
  C  C56  1  0.16638000  0.85069000  0.69015000  1.0
  C  C57  1  0.72800000  0.15038000  0.30905000  1.0
  C  C58  1  0.97550000  0.31258000  0.84938000  1.0
  C  C59  1  0.13405000  0.68931000  0.15000000  1.0
  C  C60  1  0.07201000  0.76937000  0.67488000  1.0
  C  C61  1  0.53603000  0.23112000  0.32423000  1.0
  C  C62  1  0.14788000  0.32692000  0.76991000  1.0
  C  C63  1  0.24675000  0.67504000  0.22946000  1.0
  C  C64  1  0.21558000  0.70418000  0.62050000  1.0
  C  C65  1  0.55999000  0.29622000  0.37934000  1.0
  C  C66  1  0.06286000  0.38031000  0.70498000  1.0
  C  C67  1  0.15810000  0.62053000  0.29401000  1.0
  C  C68  1  0.93398000  0.61598000  0.64205000  1.0
  C  C69  1  0.20889000  0.38327000  0.35739000  1.0
  C  C70  1  0.42980000  0.35787000  0.61903000  1.0
  C  C71  1  0.42275000  0.64366000  0.37954000  1.0
  C  C72  1  0.77572000  0.67730000  0.69653000  1.0
  C  C73  1  0.16661000  0.32201000  0.30200000  1.0
  C  C74  1  0.53304000  0.30412000  0.68006000  1.0
  C  C75  1  0.52547000  0.69869000  0.31894000  1.0
  C  C76  1  0.84628000  0.75513000  0.71336000  1.0
  C  C77  1  0.33308000  0.24476000  0.28509000  1.0
  C  C78  1  0.38945000  0.28817000  0.75663000  1.0
  C  C79  1  0.43552000  0.71477000  0.24278000  1.0
  C  C80  1  0.86457000  0.96811000  0.64412000  1.0
  C  C81  1  0.49266000  0.03545000  0.35642000  1.0
  C  C82  1  0.15736000  0.36179000  0.96513000  1.0
  C  C83  1  0.47617000  0.63781000  0.03596000  1.0
  C  C84  1  0.96581000  0.04670000  0.60740000  1.0
  C  C85  1  0.62263000  0.95379000  0.39389000  1.0
  C  C86  1  0.98666000  0.39539000  0.04503000  1.0
  C  C87  1  0.42113000  0.60398000  0.95488000  1.0
  C  C88  1  0.88224000  0.08860000  0.53615000  1.0
  C  C89  1  0.49870000  0.91322000  0.46261000  1.0
  C  C90  1  0.03494000  0.46499000  0.08881000  1.0
  C  C91  1  0.58598000  0.53564000  0.91149000  1.0
  C  C92  1  0.12340000  0.19091000  0.53089000  1.0
  C  C93  1  0.82149000  0.80481000  0.47206000  1.0
  C  C94  1  0.70258000  0.46793000  0.19124000  1.0
  C  C95  1  0.36020000  0.53081000  0.80689000  1.0
  C  C96  1  0.21938000  0.15375000  0.60133000  1.0
  C  C97  1  0.96111000  0.84037000  0.40440000  1.0
  C  C98  1  0.63814000  0.39867000  0.15252000  1.0
  C  C99  1  0.18472000  0.59877000  0.84508000  1.0
  C  C100  1  0.13857000  0.08083000  0.64055000  1.0
  C  C101  1  0.86004000  0.91584000  0.36441000  1.0
  C  C102  1  0.78266000  0.36153000  0.07843000  1.0
  C  C103  1  0.21578000  0.63622000  0.92008000  1.0
  S  S104  1  0.65761000  0.03612000  0.81709000  1.0
  S  S105  1  0.51949000  0.96383000  0.18515000  1.0
  S  S106  1  0.30227000  0.18682000  0.03466000  1.0
  S  S107  1  0.52068000  0.81183000  0.96559000  1.0
  S  S108  1  0.01672000  0.88912000  0.87537000  1.0
  S  S109  1  0.79153000  0.10904000  0.12463000  1.0
  S  S110  1  0.08666000  0.12424000  0.89216000  1.0
  S  S111  1  0.10810000  0.87710000  0.10657000  1.0
  N  N112  1  0.97514000  0.92564000  0.71415000  1.0
  N  N113  1  0.63503000  0.07465000  0.28632000  1.0
  N  N114  1  0.09292000  0.28972000  0.92351000  1.0
  N  N115  1  0.30000000  0.71072000  0.07573000  1.0
  N  N116  1  0.15135000  0.62877000  0.60448000  1.0
  N  N117  1  0.40270000  0.37099000  0.39562000  1.0
  N  N118  1  0.19773000  0.39536000  0.63085000  1.0
  N  N119  1  0.24107000  0.60516000  0.36773000  1.0
  N  N120  1  0.95672000  0.15888000  0.49816000  1.0
  N  N121  1  0.59258000  0.84067000  0.50142000  1.0
  N  N122  1  0.89880000  0.50113000  0.15997000  1.0
  N  N123  1  0.55927000  0.49923000  0.83948000  1.0
