# generated using pymatgen
data_HgH11C9SBr2
_symmetry_space_group_name_H-M   'P 1'
_cell_length_a   7.81120000
_cell_length_b   8.74765000
_cell_length_c   9.62284000
_cell_angle_alpha   68.98400000
_cell_angle_beta   74.21430000
_cell_angle_gamma   89.48870000
_symmetry_Int_Tables_number   1
_chemical_formula_structural   HgH11C9SBr2
_chemical_formula_sum   'Hg2 H22 C18 S2 Br4'
_cell_volume   587.75594391
_cell_formula_units_Z   2
loop_
 _symmetry_equiv_pos_site_id
 _symmetry_equiv_pos_as_xyz
  1  'x, y, z'
loop_
 _atom_site_type_symbol
 _atom_site_label
 _atom_site_symmetry_multiplicity
 _atom_site_fract_x
 _atom_site_fract_y
 _atom_site_fract_z
 _atom_site_occupancy
  Hg  Hg0  1  0.72502000  0.98334000  0.55424000  1.0
  Hg  Hg1  1  0.27498000  0.01666000  0.44575000  1.0
  H  H2  1  0.45293000  0.32887000  0.56244000  1.0
  H  H3  1  0.54706000  0.67112000  0.43757000  1.0
  H  H4  1  0.14423000  0.40393000  0.63649000  1.0
  H  H5  1  0.85577000  0.59605000  0.36353000  1.0
  H  H6  1  0.02556000  0.44918000  0.88548000  1.0
  H  H7  1  0.97444000  0.55083000  0.11453000  1.0
  H  H8  1  0.21694000  0.41055000  0.06374000  1.0
  H  H9  1  0.78307000  0.58947000  0.93625000  1.0
  H  H10  1  0.52624000  0.33813000  0.98795000  1.0
  H  H11  1  0.47376000  0.66187000  0.01207000  1.0
  H  H12  1  0.78081000  0.32127000  0.78643000  1.0
  H  H13  1  0.21920000  0.67873000  0.21357000  1.0
  H  H14  1  0.76353000  0.33204000  0.60214000  1.0
  H  H15  1  0.23646000  0.66796000  0.39785000  1.0
  H  H16  1  0.93018000  0.89693000  0.82398000  1.0
  H  H17  1  0.06981000  0.10307000  0.17601000  1.0
  H  H18  1  0.00702000  0.10928000  0.73122000  1.0
  H  H19  1  0.99297000  0.89071000  0.26877000  1.0
  H  H20  1  0.80126000  0.93587000  0.07892000  1.0
  H  H21  1  0.19874000  0.06413000  0.92106000  1.0
  H  H22  1  0.88587000  0.14495000  0.98959000  1.0
  H  H23  1  0.11414000  0.85505000  0.01039000  1.0
  C  C24  1  0.40148000  0.34749000  0.67209000  1.0
  C  C25  1  0.59851000  0.65250000  0.32793000  1.0
  C  C26  1  0.22724000  0.38971000  0.71418000  1.0
  C  C27  1  0.77275000  0.61028000  0.28583000  1.0
  C  C28  1  0.16064000  0.41369000  0.85419000  1.0
  C  C29  1  0.83937000  0.58631000  0.14581000  1.0
  C  C30  1  0.26809000  0.39447000  0.95295000  1.0
  C  C31  1  0.73191000  0.60554000  0.04706000  1.0
  C  C32  1  0.44227000  0.35302000  0.91071000  1.0
  C  C33  1  0.55772000  0.64698000  0.08929000  1.0
  C  C34  1  0.51088000  0.33032000  0.76959000  1.0
  C  C35  1  0.48912000  0.66968000  0.23041000  1.0
  C  C36  1  0.69720000  0.28246000  0.72764000  1.0
  C  C37  1  0.30280000  0.71754000  0.27236000  1.0
  C  C38  1  0.90659000  0.01893000  0.82954000  1.0
  C  C39  1  0.09341000  0.98106000  0.17045000  1.0
  C  C40  1  0.90986000  0.02226000  0.98557000  1.0
  C  C41  1  0.09014000  0.97774000  0.01441000  1.0
  S  S42  1  0.68859000  0.05642000  0.79824000  1.0
  S  S43  1  0.31141000  0.94357000  0.20176000  1.0
  Br  Br44  1  0.64778000  0.17263000  0.30691000  1.0
  Br  Br45  1  0.35219000  0.82738000  0.69311000  1.0
  Br  Br46  1  0.91119000  0.73037000  0.59564000  1.0
  Br  Br47  1  0.08883000  0.26965000  0.40436000  1.0
