# generated using pymatgen
data_NiH16(C2N)6
_symmetry_space_group_name_H-M   'P 1'
_cell_length_a   8.73005000
_cell_length_b   8.75956000
_cell_length_c   10.97430000
_cell_angle_alpha   106.65200000
_cell_angle_beta   110.21900000
_cell_angle_gamma   100.62000000
_symmetry_Int_Tables_number   1
_chemical_formula_structural   NiH16(C2N)6
_chemical_formula_sum   'Ni2 H32 C24 N12'
_cell_volume   716.03237658
_cell_formula_units_Z   2
loop_
 _symmetry_equiv_pos_site_id
 _symmetry_equiv_pos_as_xyz
  1  'x, y, z'
loop_
 _atom_site_type_symbol
 _atom_site_label
 _atom_site_symmetry_multiplicity
 _atom_site_fract_x
 _atom_site_fract_y
 _atom_site_fract_z
 _atom_site_occupancy
  Ni  Ni0  1  0.00000000  0.00001000  0.00000000  1.0
  Ni  Ni1  1  0.00000000  0.00000000  0.50000000  1.0
  H  H2  1  0.29181000  0.04241000  0.79993000  1.0
  H  H3  1  0.70818000  0.95759000  0.20007000  1.0
  H  H4  1  0.54703000  0.89572000  0.79052000  1.0
  H  H5  1  0.45297000  0.10429000  0.20950000  1.0
  H  H6  1  0.21452000  0.82570000  0.37826000  1.0
  H  H7  1  0.78548000  0.17429000  0.62175000  1.0
  H  H8  1  0.52035000  0.64370000  0.56368000  1.0
  H  H9  1  0.47966000  0.35630000  0.43633000  1.0
  H  H10  1  0.63939000  0.82063000  0.55204000  1.0
  H  H11  1  0.36062000  0.17938000  0.44797000  1.0
  H  H12  1  0.50030000  0.57587000  0.32142000  1.0
  H  H13  1  0.49971000  0.42414000  0.67859000  1.0
  H  H14  1  0.41902000  0.74299000  0.30482000  1.0
  H  H15  1  0.58098000  0.25701000  0.69518000  1.0
  H  H16  1  0.29370000  0.56516000  0.31539000  1.0
  H  H17  1  0.70630000  0.43484000  0.68462000  1.0
  H  H18  1  0.09278000  0.32723000  0.44722000  1.0
  H  H19  1  0.90722000  0.67276000  0.55278000  1.0
  H  H20  1  0.24376000  0.63691000  0.67450000  1.0
  H  H21  1  0.75623000  0.36309000  0.32549000  1.0
  H  H22  1  0.17254000  0.24643000  0.82308000  1.0
  H  H23  1  0.82746000  0.75357000  0.17692000  1.0
  H  H24  1  0.42602000  0.68298000  0.95201000  1.0
  H  H25  1  0.57398000  0.31702000  0.04799000  1.0
  H  H26  1  0.33272000  0.52675000  0.00175000  1.0
  H  H27  1  0.66727000  0.47326000  0.99825000  1.0
  H  H28  1  0.23816000  0.78114000  0.06814000  1.0
  H  H29  1  0.76183000  0.21886000  0.93185000  1.0
  H  H30  1  0.05832000  0.60487000  0.94032000  1.0
  H  H31  1  0.94167000  0.39512000  0.05966000  1.0
  H  H32  1  0.15003000  0.76238000  0.89086000  1.0
  H  H33  1  0.84995000  0.23761000  0.10912000  1.0
  C  C34  1  0.19529000  0.17149000  0.04965000  1.0
  C  C35  1  0.80472000  0.82852000  0.95035000  1.0
  C  C36  1  0.05940000  0.02451000  0.18329000  1.0
  C  C37  1  0.94061000  0.97550000  0.81671000  1.0
  C  C38  1  0.31445000  0.97791000  0.71072000  1.0
  C  C39  1  0.68555000  0.02209000  0.28928000  1.0
  C  C40  1  0.44176000  0.90637000  0.70806000  1.0
  C  C41  1  0.55824000  0.09363000  0.29194000  1.0
  C  C42  1  0.26889000  0.86391000  0.49100000  1.0
  C  C43  1  0.73111000  0.13610000  0.50901000  1.0
  C  C44  1  0.50858000  0.73627000  0.51404000  1.0
  C  C45  1  0.49142000  0.26374000  0.48597000  1.0
  C  C46  1  0.42435000  0.65102000  0.35523000  1.0
  C  C47  1  0.57566000  0.34898000  0.64478000  1.0
  C  C48  1  0.13119000  0.35699000  0.55841000  1.0
  C  C49  1  0.86881000  0.64300000  0.44159000  1.0
  C  C50  1  0.20573000  0.50948000  0.66939000  1.0
  C  C51  1  0.79427000  0.49050000  0.33061000  1.0
  C  C52  1  0.17198000  0.30665000  0.74945000  1.0
  C  C53  1  0.82803000  0.69335000  0.25055000  1.0
  C  C54  1  0.30376000  0.59773000  0.93341000  1.0
  C  C55  1  0.69623000  0.40227000  0.06658000  1.0
  C  C56  1  0.18006000  0.69114000  0.95893000  1.0
  C  C57  1  0.81993000  0.30886000  0.04105000  1.0
  N  N58  1  0.31946000  0.27913000  0.07746000  1.0
  N  N59  1  0.68053000  0.72087000  0.92253000  1.0
  N  N60  1  0.09383000  0.03762000  0.30010000  1.0
  N  N61  1  0.90616000  0.96236000  0.69989000  1.0
  N  N62  1  0.20774000  0.95045000  0.57440000  1.0
  N  N63  1  0.79226000  0.04955000  0.42561000  1.0
  N  N64  1  0.41016000  0.83434000  0.56836000  1.0
  N  N65  1  0.58985000  0.16567000  0.43164000  1.0
  N  N66  1  0.11129000  0.23174000  0.61008000  1.0
  N  N67  1  0.88872000  0.76826000  0.38992000  1.0
  N  N68  1  0.23125000  0.47512000  0.78879000  1.0
  N  N69  1  0.76875000  0.52488000  0.21120000  1.0
