# generated using pymatgen
data_HgH18C18(SN4)2
_symmetry_space_group_name_H-M   'P 1'
_cell_length_a   8.19196000
_cell_length_b   11.47590000
_cell_length_c   11.47590000
_cell_angle_alpha   112.01300000
_cell_angle_beta   90.84790000
_cell_angle_gamma   90.84810000
_symmetry_Int_Tables_number   1
_chemical_formula_structural   HgH18C18(SN4)2
_chemical_formula_sum   'Hg2 H36 C36 S4 N16'
_cell_volume   999.85070814
_cell_formula_units_Z   2
loop_
 _symmetry_equiv_pos_site_id
 _symmetry_equiv_pos_as_xyz
  1  'x, y, z'
loop_
 _atom_site_type_symbol
 _atom_site_label
 _atom_site_symmetry_multiplicity
 _atom_site_fract_x
 _atom_site_fract_y
 _atom_site_fract_z
 _atom_site_occupancy
  Hg  Hg0  1  0.75000000  0.96431000  0.03569000  1.0
  Hg  Hg1  1  0.25000000  0.03569000  0.96431000  1.0
  H  H2  1  0.31252000  0.35804000  0.15973000  1.0
  H  H3  1  0.18748000  0.84026000  0.64196000  1.0
  H  H4  1  0.68749000  0.64196000  0.84026000  1.0
  H  H5  1  0.81252000  0.15973000  0.35803000  1.0
  H  H6  1  0.14823000  0.36285000  0.34142000  1.0
  H  H7  1  0.35176000  0.65858000  0.63715000  1.0
  H  H8  1  0.85177000  0.63715000  0.65857000  1.0
  H  H9  1  0.64824000  0.34141000  0.36284000  1.0
  H  H10  1  0.94592000  0.53850000  0.43027000  1.0
  H  H11  1  0.55408000  0.56973000  0.46150000  1.0
  H  H12  1  0.05408000  0.46150000  0.56973000  1.0
  H  H13  1  0.44593000  0.43026000  0.53849000  1.0
  H  H14  1  0.91460000  0.69256000  0.32365000  1.0
  H  H15  1  0.58540000  0.67636000  0.30745000  1.0
  H  H16  1  0.08541000  0.30744000  0.67635000  1.0
  H  H17  1  0.41460000  0.32365000  0.69255000  1.0
  H  H18  1  0.38728000  0.74119000  0.97321000  1.0
  H  H19  1  0.11272000  0.02679000  0.25881000  1.0
  H  H20  1  0.61272000  0.25881000  0.02679000  1.0
  H  H21  1  0.88728000  0.97321000  0.74119000  1.0
  H  H22  1  0.38744000  0.65498000  0.07426000  1.0
  H  H23  1  0.11256000  0.92575000  0.34502000  1.0
  H  H24  1  0.61256000  0.34502000  0.92574000  1.0
  H  H25  1  0.88744000  0.07426000  0.65498000  1.0
  H  H26  1  0.27601000  0.46411000  0.89578000  1.0
  H  H27  1  0.22399000  0.10423000  0.53589000  1.0
  H  H28  1  0.72399000  0.53589000  0.10423000  1.0
  H  H29  1  0.77602000  0.89577000  0.46411000  1.0
  H  H30  1  0.46661000  0.51815000  0.86039000  1.0
  H  H31  1  0.03339000  0.13961000  0.48186000  1.0
  H  H32  1  0.53339000  0.48185000  0.13961000  1.0
  H  H33  1  0.96662000  0.86039000  0.51815000  1.0
  H  H34  1  0.28233000  0.55149000  0.79515000  1.0
  H  H35  1  0.21767000  0.20485000  0.44851000  1.0
  H  H36  1  0.71767000  0.44851000  0.20485000  1.0
  H  H37  1  0.78233000  0.79515000  0.55149000  1.0
  C  C38  1  0.22257000  0.43094000  0.19869000  1.0
  C  C39  1  0.27743000  0.80131000  0.56907000  1.0
  C  C40  1  0.77744000  0.56906000  0.80131000  1.0
  C  C41  1  0.72257000  0.19868000  0.43093000  1.0
  C  C42  1  0.13148000  0.43466000  0.30179000  1.0
  C  C43  1  0.36852000  0.69820000  0.56535000  1.0
  C  C44  1  0.86853000  0.56534000  0.69820000  1.0
  C  C45  1  0.63148000  0.30179000  0.43465000  1.0
  C  C46  1  0.01963000  0.53089000  0.34951000  1.0
  C  C47  1  0.48037000  0.65049000  0.46911000  1.0
  C  C48  1  0.98038000  0.46910000  0.65049000  1.0
  C  C49  1  0.51963000  0.34950000  0.53088000  1.0
  C  C50  1  0.00135000  0.61676000  0.29163000  1.0
  C  C51  1  0.49865000  0.70837000  0.38324000  1.0
  C  C52  1  0.99866000  0.38324000  0.70837000  1.0
  C  C53  1  0.50134000  0.29163000  0.61675000  1.0
  C  C54  1  0.09559000  0.60289000  0.18610000  1.0
  C  C55  1  0.40441000  0.81390000  0.39711000  1.0
  C  C56  1  0.90442000  0.39711000  0.81390000  1.0
  C  C57  1  0.59558000  0.18610000  0.60289000  1.0
  C  C58  1  0.06566000  0.68612000  0.11826000  1.0
  C  C59  1  0.43434000  0.88174000  0.31388000  1.0
  C  C60  1  0.93434000  0.31388000  0.88174000  1.0
  C  C61  1  0.56566000  0.11826000  0.68612000  1.0
  C  C62  1  0.07279000  0.78146000  0.98422000  1.0
  C  C63  1  0.42721000  0.01579000  0.21854000  1.0
  C  C64  1  0.92721000  0.21854000  0.01579000  1.0
  C  C65  1  0.57279000  0.98422000  0.78146000  1.0
  C  C66  1  0.32794000  0.66362000  0.99195000  1.0
  C  C67  1  0.17206000  0.00805000  0.33638000  1.0
  C  C68  1  0.67206000  0.33638000  0.00805000  1.0
  C  C69  1  0.82794000  0.99195000  0.66362000  1.0
  C  C70  1  0.33762000  0.54149000  0.87852000  1.0
  C  C71  1  0.16238000  0.12148000  0.45852000  1.0
  C  C72  1  0.66238000  0.45852000  0.12148000  1.0
  C  C73  1  0.83762000  0.87852000  0.54148000  1.0
  S  S74  1  0.12558000  0.82193000  0.85960000  1.0
  S  S75  1  0.37442000  0.14040000  0.17807000  1.0
  S  S76  1  0.87442000  0.17807000  0.14040000  1.0
  S  S77  1  0.62558000  0.85960000  0.82193000  1.0
  N  N78  1  0.20639000  0.51217000  0.14087000  1.0
  N  N79  1  0.29361000  0.85913000  0.48784000  1.0
  N  N80  1  0.79362000  0.48784000  0.85913000  1.0
  N  N81  1  0.70639000  0.14086000  0.51216000  1.0
  N  N82  1  0.93016000  0.75230000  0.13323000  1.0
  N  N83  1  0.56984000  0.86677000  0.24771000  1.0
  N  N84  1  0.06984000  0.24771000  0.86678000  1.0
  N  N85  1  0.43016000  0.13323000  0.75229000  1.0
  N  N86  1  0.93489000  0.81088000  0.05022000  1.0
  N  N87  1  0.56510000  0.94978000  0.18912000  1.0
  N  N88  1  0.06511000  0.18912000  0.94978000  1.0
  N  N89  1  0.43489000  0.05022000  0.81088000  1.0
  N  N90  1  0.15992000  0.70316000  0.02715000  1.0
  N  N91  1  0.34008000  0.97285000  0.29684000  1.0
  N  N92  1  0.84008000  0.29684000  0.97285000  1.0
  N  N93  1  0.65992000  0.02715000  0.70316000  1.0
