# generated using pymatgen
data_Zn2H18C47(N6O7)2
_symmetry_space_group_name_H-M   'P 1'
_cell_length_a   12.48380000
_cell_length_b   13.55170000
_cell_length_c   19.11200000
_cell_angle_alpha   88.76060000
_cell_angle_beta   74.37320000
_cell_angle_gamma   80.20840000
_symmetry_Int_Tables_number   1
_chemical_formula_structural   Zn2H18C47(N6O7)2
_chemical_formula_sum   'Zn2 H18 C47 N12 O14'
_cell_volume   3067.43631017
_cell_formula_units_Z   1
loop_
 _symmetry_equiv_pos_site_id
 _symmetry_equiv_pos_as_xyz
  1  'x, y, z'
loop_
 _atom_site_type_symbol
 _atom_site_label
 _atom_site_symmetry_multiplicity
 _atom_site_fract_x
 _atom_site_fract_y
 _atom_site_fract_z
 _atom_site_occupancy
  Zn  Zn0  1  0.61146000  0.51267000  0.48463000  1.0
  Zn  Zn1  1  0.38098000  0.49399000  0.52377000  1.0
  H  H2  1  0.64314000  0.57690000  0.69544000  1.0
  H  H3  1  0.62761000  0.61514000  0.82583000  1.0
  H  H4  1  0.30562000  0.51596000  0.88879000  1.0
  H  H5  1  0.32015000  0.48254000  0.75781000  1.0
  H  H6  1  0.61540000  0.64344000  0.13598000  1.0
  H  H7  1  0.63463000  0.60585000  0.26134000  1.0
  H  H8  1  0.33623000  0.48191000  0.17728000  1.0
  H  H9  1  0.23612000  0.80731000  0.48242000  1.0
  H  H10  1  0.28880000  0.14239000  0.43102000  1.0
  H  H11  1  0.21298000  0.98913000  0.45372000  1.0
  H  H12  1  0.55476000  0.81891000  0.51945000  1.0
  H  H13  1  0.74349000  0.21366000  0.53785000  1.0
  H  H14  1  0.42630000  0.24669000  0.44080000  1.0
  H  H15  1  0.92121000  0.72955000  0.37759000  1.0
  H  H16  1  0.80856000  0.44827000  0.52962000  1.0
  H  H17  1  0.27127000  0.33922000  0.60248000  1.0
  H  H18  1  0.07818000  0.28997000  0.64358000  1.0
  H  H19  1  0.25357000  0.59662000  0.44907000  1.0
  C  C20  1  0.56887000  0.31089000  0.49836000  1.0
  C  C21  1  0.48924000  0.50962000  0.64109000  1.0
  C  C22  1  0.42309000  0.69514000  0.51000000  1.0
  C  C23  1  0.50779000  0.50679000  0.36522000  1.0
  C  C24  1  0.56956000  0.56444000  0.73828000  1.0
  C  C25  1  0.56109000  0.58522000  0.81067000  1.0
  C  C26  1  0.46551000  0.56806000  0.86527000  1.0
  C  C27  1  0.37902000  0.52952000  0.84616000  1.0
  C  C28  1  0.38720000  0.51062000  0.77365000  1.0
  C  C29  1  0.48240000  0.52785000  0.71926000  1.0
  C  C30  1  0.46076000  0.58694000  0.07571000  1.0
  C  C31  1  0.45625000  0.58851000  0.94178000  1.0
  C  C32  1  0.56006000  0.59887000  0.17210000  1.0
  C  C33  1  0.57179000  0.57690000  0.24138000  1.0
  C  C34  1  0.50089000  0.51989000  0.28839000  1.0
  C  C35  1  0.41761000  0.48583000  0.26306000  1.0
  C  C36  1  0.40254000  0.50845000  0.19495000  1.0
  C  C37  1  0.47484000  0.56532000  0.14855000  1.0
  C  C38  1  0.28637000  0.95268000  0.47082000  1.0
  C  C39  1  0.39890000  0.80584000  0.50250000  1.0
  C  C40  1  0.68874000  0.16297000  0.52967000  1.0
  C  C41  1  0.70908000  0.06171000  0.54824000  1.0
  C  C42  1  0.63428000  0.99897000  0.54085000  1.0
  C  C43  1  0.54211000  0.03007000  0.51104000  1.0
  C  C44  1  0.52419000  0.13391000  0.49203000  1.0
  C  C45  1  0.46466000  0.96606000  0.49993000  1.0
  C  C46  1  0.36814000  0.01056000  0.47627000  1.0
  C  C47  1  0.35779000  0.11230000  0.45455000  1.0
  C  C48  1  0.43400000  0.17060000  0.46017000  1.0
  C  C49  1  0.47942000  0.86171000  0.50895000  1.0
  C  C50  1  0.29929000  0.85204000  0.48577000  1.0
  C  C51  1  0.59600000  0.19913000  0.50454000  1.0
  C  C52  1  0.89977000  0.66690000  0.41215000  1.0
  C  C53  1  0.20073000  0.37802000  0.58350000  1.0
  C  C54  1  0.09395000  0.35036000  0.60567000  1.0
  C  C55  1  0.00831000  0.40361000  0.57998000  1.0
  C  C56  1  0.02729000  0.47959000  0.52839000  1.0
  C  C57  1  0.13887000  0.50313000  0.51063000  1.0
  C  C58  1  0.94704000  0.53394000  0.49260000  1.0
  C  C59  1  0.97817000  0.61369000  0.44581000  1.0
  C  C60  1  0.09019000  0.63668000  0.43168000  1.0
  C  C61  1  0.16792000  0.58142000  0.46185000  1.0
  C  C62  1  0.83914000  0.51035000  0.49809000  1.0
  C  C63  1  0.79544000  0.63842000  0.42233000  1.0
  C  C64  1  0.80276000  0.02707000  0.57681000  1.0
  C  C65  1  0.71818000  0.69288000  0.38606000  1.0
  C  C66  1  0.12168000  0.71528000  0.38374000  1.0
  N  N67  1  0.36294000  0.57061000  0.99272000  1.0
  N  N68  1  0.36512000  0.56991000  0.06112000  1.0
  N  N69  1  0.53806000  0.63125000  0.02784000  1.0
  N  N70  1  0.53545000  0.63287000  0.95938000  1.0
  N  N71  1  0.76677000  0.55928000  0.46418000  1.0
  N  N72  1  0.22151000  0.45381000  0.53929000  1.0
  N  N73  1  0.65565000  0.89825000  0.57123000  1.0
  N  N74  1  0.88087000  0.00145000  0.59951000  1.0
  N  N75  1  0.66418000  0.74193000  0.35278000  1.0
  N  N76  1  0.14598000  0.78047000  0.34493000  1.0
  N  N77  1  0.89460000  0.37959000  0.61360000  1.0
  N  N78  1  0.34369000  0.41976000  0.30691000  1.0
  O  O79  1  0.65073000  0.35863000  0.47765000  1.0
  O  O80  1  0.46457000  0.34903000  0.51810000  1.0
  O  O81  1  0.58603000  0.50195000  0.59558000  1.0
  O  O82  1  0.39645000  0.50432000  0.62623000  1.0
  O  O83  1  0.52510000  0.65582000  0.50485000  1.0
  O  O84  1  0.34104000  0.64692000  0.51993000  1.0
  O  O85  1  0.60015000  0.51418000  0.37869000  1.0
  O  O86  1  0.41710000  0.49312000  0.41143000  1.0
  O  O87  1  0.59439000  0.88414000  0.63168000  1.0
  O  O88  1  0.73542000  0.83691000  0.53470000  1.0
  O  O89  1  0.83157000  0.44066000  0.65990000  1.0
  O  O90  1  0.87390000  0.30010000  0.59428000  1.0
  O  O91  1  0.38935000  0.33726000  0.32262000  1.0
  O  O92  1  0.24041000  0.45033000  0.32217000  1.0
