# generated using pymatgen
data_CdH17C18(NO)5
_symmetry_space_group_name_H-M   'P 1'
_cell_length_a   8.54163000
_cell_length_b   11.15400000
_cell_length_c   11.15390000
_cell_angle_alpha   100.83000000
_cell_angle_beta   99.22780000
_cell_angle_gamma   99.22890000
_symmetry_Int_Tables_number   1
_chemical_formula_structural   CdH17C18(NO)5
_chemical_formula_sum   'Cd2 H34 C36 N10 O10'
_cell_volume   1010.14735419
_cell_formula_units_Z   2
loop_
 _symmetry_equiv_pos_site_id
 _symmetry_equiv_pos_as_xyz
  1  'x, y, z'
loop_
 _atom_site_type_symbol
 _atom_site_label
 _atom_site_symmetry_multiplicity
 _atom_site_fract_x
 _atom_site_fract_y
 _atom_site_fract_z
 _atom_site_occupancy
  Cd  Cd0  1  0.18777000  0.05057000  0.43793000  1.0
  Cd  Cd1  1  0.68777000  0.43792000  0.05058000  1.0
  H  H2  1  0.63505000  0.20144000  0.73739000  1.0
  H  H3  1  0.13504000  0.73739000  0.20144000  1.0
  H  H4  1  0.47495000  0.09370000  0.63078000  1.0
  H  H5  1  0.97495000  0.63077000  0.09370000  1.0
  H  H6  1  0.91559000  0.84746000  0.42794000  1.0
  H  H7  1  0.41560000  0.42795000  0.84747000  1.0
  H  H8  1  0.97039000  0.83633000  0.29807000  1.0
  H  H9  1  0.47038000  0.29808000  0.83632000  1.0
  H  H10  1  0.42443000  0.69717000  0.34042000  1.0
  H  H11  1  0.92442000  0.34043000  0.69718000  1.0
  H  H12  1  0.59848000  0.81617000  0.39532000  1.0
  H  H13  1  0.09848000  0.39533000  0.81617000  1.0
  H  H14  1  0.40488000  0.76230000  0.12742000  1.0
  H  H15  1  0.90489000  0.12744000  0.76230000  1.0
  H  H16  1  0.60470000  0.84645000  0.18147000  1.0
  H  H17  1  0.10470000  0.18148000  0.84647000  1.0
  H  H18  1  0.49636000  0.48952000  0.37482000  1.0
  H  H19  1  0.99637000  0.37483000  0.48953000  1.0
  H  H20  1  0.34626000  0.42729000  0.21342000  1.0
  H  H21  1  0.84627000  0.21342000  0.42731000  1.0
  H  H22  1  0.12917000  0.35502000  0.02774000  1.0
  H  H23  1  0.62918000  0.02774000  0.35503000  1.0
  H  H24  1  0.92893000  0.15527000  0.00522000  1.0
  H  H25  1  0.42894000  0.00522000  0.15527000  1.0
  H  H26  1  0.96362000  0.03619000  0.17511000  1.0
  H  H27  1  0.46364000  0.17511000  0.03620000  1.0
  H  H28  1  0.70149000  0.62237000  0.40295000  1.0
  H  H29  1  0.20148000  0.40297000  0.62239000  1.0
  H  H30  1  0.81742000  0.55362000  0.77272000  1.0
  H  H31  1  0.31743000  0.77273000  0.55361000  1.0
  H  H32  1  0.01465000  0.75682000  0.83103000  1.0
  H  H33  1  0.51468000  0.83106000  0.75681000  1.0
  H  H34  1  0.04126000  0.88574000  0.66965000  1.0
  H  H35  1  0.54129000  0.66968000  0.88574000  1.0
  C  C36  1  0.37420000  0.87624000  0.35494000  1.0
  C  C37  1  0.87420000  0.35495000  0.87624000  1.0
  C  C38  1  0.48559000  0.78658000  0.32568000  1.0
  C  C39  1  0.98560000  0.32568000  0.78658000  1.0
  C  C40  1  0.51792000  0.76792000  0.19364000  1.0
  C  C41  1  0.01793000  0.19365000  0.76792000  1.0
  C  C42  1  0.57881000  0.64955000  0.15161000  1.0
  C  C43  1  0.07880000  0.15162000  0.64955000  1.0
  C  C44  1  0.52884000  0.26291000  0.58710000  1.0
  C  C45  1  0.02883000  0.58711000  0.26292000  1.0
  C  C46  1  0.62381000  0.45230000  0.54505000  1.0
  C  C47  1  0.12381000  0.54505000  0.45230000  1.0
  C  C48  1  0.50493000  0.42448000  0.43573000  1.0
  C  C49  1  0.00491000  0.43574000  0.42449000  1.0
  C  C50  1  0.39804000  0.31009000  0.40907000  1.0
  C  C51  1  0.89807000  0.40905000  0.31008000  1.0
  C  C52  1  0.26830000  0.27110000  0.29551000  1.0
  C  C53  1  0.76830000  0.29552000  0.27110000  1.0
  C  C54  1  0.25878000  0.34181000  0.20424000  1.0
  C  C55  1  0.75880000  0.20425000  0.34183000  1.0
  C  C56  1  0.13710000  0.29999000  0.09859000  1.0
  C  C57  1  0.63713000  0.09858000  0.29998000  1.0
  C  C58  1  0.02774000  0.18885000  0.08551000  1.0
  C  C59  1  0.52774000  0.08551000  0.18887000  1.0
  C  C60  1  0.04569000  0.12345000  0.17993000  1.0
  C  C61  1  0.54571000  0.17992000  0.12345000  1.0
  C  C62  1  0.76604000  0.64973000  0.49971000  1.0
  C  C63  1  0.26604000  0.49973000  0.64974000  1.0
  C  C64  1  0.74108000  0.57217000  0.58329000  1.0
  C  C65  1  0.24108000  0.58330000  0.57218000  1.0
  C  C66  1  0.83209000  0.61143000  0.70505000  1.0
  C  C67  1  0.33210000  0.70506000  0.61142000  1.0
  C  C68  1  0.94136000  0.72446000  0.73740000  1.0
  C  C69  1  0.44138000  0.73742000  0.72445000  1.0
  C  C70  1  0.95737000  0.79612000  0.64854000  1.0
  C  C71  1  0.45738000  0.64856000  0.79613000  1.0
  N  N72  1  0.53945000  0.18207000  0.66297000  1.0
  N  N73  1  0.03945000  0.66296000  0.18207000  1.0
  N  N74  1  0.40854000  0.23002000  0.48478000  1.0
  N  N75  1  0.90854000  0.48478000  0.23004000  1.0
  N  N76  1  0.63672000  0.37194000  0.61995000  1.0
  N  N77  1  0.13672000  0.61995000  0.37194000  1.0
  N  N78  1  0.16243000  0.16346000  0.28216000  1.0
  N  N79  1  0.66243000  0.28216000  0.16346000  1.0
  N  N80  1  0.87095000  0.75910000  0.53128000  1.0
  N  N81  1  0.37097000  0.53130000  0.75911000  1.0
  O  O82  1  0.39103000  0.93449000  0.46805000  1.0
  O  O83  1  0.89103000  0.46805000  0.93451000  1.0
  O  O84  1  0.26523000  0.88889000  0.26812000  1.0
  O  O85  1  0.76523000  0.26813000  0.88890000  1.0
  O  O86  1  0.65719000  0.64507000  0.06271000  1.0
  O  O87  1  0.15719000  0.06273000  0.64509000  1.0
  O  O88  1  0.54765000  0.55783000  0.20258000  1.0
  O  O89  1  0.04766000  0.20260000  0.55784000  1.0
  O  O90  1  0.94500000  0.89737000  0.36378000  1.0
  O  O91  1  0.44500000  0.36379000  0.89737000  1.0
