# generated using pymatgen
data_BaPH2CO5
_symmetry_space_group_name_H-M   'P 1'
_cell_length_a   7.40155000
_cell_length_b   7.40231000
_cell_length_c   11.02474072
_cell_angle_alpha   93.89061448
_cell_angle_beta   108.68202643
_cell_angle_gamma   114.93900000
_symmetry_Int_Tables_number   1
_chemical_formula_structural   BaPH2CO5
_chemical_formula_sum   'Ba4 P4 H8 C4 O20'
_cell_volume   504.16554459
_cell_formula_units_Z   4
loop_
 _symmetry_equiv_pos_site_id
 _symmetry_equiv_pos_as_xyz
  1  'x, y, z'
loop_
 _atom_site_type_symbol
 _atom_site_label
 _atom_site_symmetry_multiplicity
 _atom_site_fract_x
 _atom_site_fract_y
 _atom_site_fract_z
 _atom_site_occupancy
  Ba  Ba0  1  0.18168000  0.41676000  0.18329000  1.0
  Ba  Ba1  1  0.73349000  0.99835000  0.31668000  1.0
  Ba  Ba2  1  0.81832000  0.58324000  0.81671000  1.0
  Ba  Ba3  1  0.26651000  0.00165000  0.68332000  1.0
  P  P4  1  0.25457000  0.47318000  0.56052000  1.0
  P  P5  1  0.41265000  0.69406000  0.93941000  1.0
  P  P6  1  0.74543000  0.52682000  0.43948000  1.0
  P  P7  1  0.58735000  0.30594000  0.06059000  1.0
  H  H8  1  0.10943000  0.46928000  0.61815000  1.0
  H  H9  1  0.35123000  0.49137000  0.88171000  1.0
  H  H10  1  0.89057000  0.53072000  0.38185000  1.0
  H  H11  1  0.64877000  0.50863000  0.11829000  1.0
  H  H12  1  0.37306000  0.75580000  0.48679000  1.0
  H  H13  1  0.76898000  0.88623000  0.01322000  1.0
  H  H14  1  0.62694000  0.24420000  0.51321000  1.0
  H  H15  1  0.23102000  0.11377000  0.98678000  1.0
  C  C16  1  0.04485000  0.84685000  0.17620000  1.0
  C  C17  1  0.17093000  0.86887000  0.32384000  1.0
  C  C18  1  0.95515000  0.15315000  0.82380000  1.0
  C  C19  1  0.82907000  0.13113000  0.67616000  1.0
  O  O20  1  0.12876000  0.36229000  0.41612000  1.0
  O  O21  1  0.44596000  0.71247000  0.08379000  1.0
  O  O22  1  0.87125000  0.63771000  0.58389000  1.0
  O  O23  1  0.55404000  0.28753000  0.91621000  1.0
  O  O24  1  0.40053000  0.39746000  0.64606000  1.0
  O  O25  1  0.25136000  0.75448000  0.85389000  1.0
  O  O26  1  0.59947000  0.60254000  0.35394000  1.0
  O  O27  1  0.74864000  0.24552000  0.14611000  1.0
  O  O28  1  0.39180000  0.71554000  0.57554000  1.0
  O  O29  1  0.64006000  0.81643000  0.92443000  1.0
  O  O30  1  0.60820000  0.28446000  0.42446000  1.0
  O  O31  1  0.35994000  0.18357000  0.07557000  1.0
  O  O32  1  0.02323000  0.70590000  0.09368000  1.0
  O  O33  1  0.11286000  0.93022000  0.40644000  1.0
  O  O34  1  0.97677000  0.29411000  0.90633000  1.0
  O  O35  1  0.88714000  0.06978000  0.59356000  1.0
  O  O36  1  0.96246000  0.96828000  0.15091000  1.0
  O  O37  1  0.31753000  0.81165000  0.34907000  1.0
  O  O38  1  0.03754000  0.03173000  0.84909000  1.0
  O  O39  1  0.68247000  0.18835000  0.65093000  1.0
