# generated using pymatgen
data_AlH3C6O6F
_symmetry_space_group_name_H-M   'P 1'
_cell_length_a   6.68687000
_cell_length_b   8.80091000
_cell_length_c   11.14238144
_cell_angle_alpha   73.06219575
_cell_angle_beta   73.04946628
_cell_angle_gamma   75.58900000
_symmetry_Int_Tables_number   1
_chemical_formula_structural   AlH3C6O6F
_chemical_formula_sum   'Al2 H6 C12 O12 F2'
_cell_volume   590.33072983
_cell_formula_units_Z   2
loop_
 _symmetry_equiv_pos_site_id
 _symmetry_equiv_pos_as_xyz
  1  'x, y, z'
loop_
 _atom_site_type_symbol
 _atom_site_label
 _atom_site_symmetry_multiplicity
 _atom_site_fract_x
 _atom_site_fract_y
 _atom_site_fract_z
 _atom_site_occupancy
  Al  Al0  1  0.50000000  0.49999000  0.50001000  1.0
  Al  Al1  1  0.99999000  0.50000000  0.50000000  1.0
  H  H2  1  0.78801000  0.61804000  0.34271000  1.0
  H  H3  1  0.21197000  0.38197000  0.65730000  1.0
  H  H4  1  0.24232000  0.54841000  0.86576000  1.0
  H  H5  1  0.75769000  0.45159000  0.13424000  1.0
  H  H6  1  0.20181000  0.13135000  0.51874000  1.0
  H  H7  1  0.79819000  0.86866000  0.48124000  1.0
  C  C8  1  0.16495000  0.78803000  0.48979000  1.0
  C  C9  1  0.35591000  0.50831000  0.27176000  1.0
  C  C10  1  0.83502000  0.21198000  0.51020000  1.0
  C  C11  1  0.64411000  0.49171000  0.72823000  1.0
  C  C12  1  0.42570000  0.50591000  0.13207000  1.0
  C  C13  1  0.57430000  0.49409000  0.86795000  1.0
  C  C14  1  0.28510000  0.53262000  0.05273000  1.0
  C  C15  1  0.71492000  0.46737000  0.94728000  1.0
  C  C16  1  0.35624000  0.52675000  0.92410000  1.0
  C  C17  1  0.64376000  0.47327000  0.07591000  1.0
  C  C18  1  0.10228000  0.95749000  0.50066000  1.0
  C  C19  1  0.89771000  0.04252000  0.49932000  1.0
  O  O20  1  0.35476000  0.71859000  0.49131000  1.0
  O  O21  1  0.16247000  0.50108000  0.32775000  1.0
  O  O22  1  0.97960000  0.27793000  0.52151000  1.0
  O  O23  1  0.50295000  0.48376000  0.67560000  1.0
  O  O24  1  0.64522000  0.28140000  0.50870000  1.0
  O  O25  1  0.83756000  0.49892000  0.67226000  1.0
  O  O26  1  0.02039000  0.72208000  0.47848000  1.0
  O  O27  1  0.49704000  0.51624000  0.32441000  1.0
  O  O28  1  0.75716000  0.57583000  0.43561000  1.0
  O  O29  1  0.24283000  0.42418000  0.56440000  1.0
  O  O30  1  0.26085000  0.01754000  0.51254000  1.0
  O  O31  1  0.73914000  0.98246000  0.48745000  1.0
  F  F32  1  0.07141000  0.56925000  0.09918000  1.0
  F  F33  1  0.92861000  0.43078000  0.90080000  1.0
