# generated using pymatgen
data_ZnH12C15(NO)6
_symmetry_space_group_name_H-M   'P 1'
_cell_length_a   6.97759000
_cell_length_b   16.04120000
_cell_length_c   17.33460000
_cell_angle_alpha   89.99960000
_cell_angle_beta   92.41280000
_cell_angle_gamma   89.99990000
_symmetry_Int_Tables_number   1
_chemical_formula_structural   ZnH12C15(NO)6
_chemical_formula_sum   'Zn4 H48 C60 N24 O24'
_cell_volume   1938.52287719
_cell_formula_units_Z   4
loop_
 _symmetry_equiv_pos_site_id
 _symmetry_equiv_pos_as_xyz
  1  'x, y, z'
loop_
 _atom_site_type_symbol
 _atom_site_label
 _atom_site_symmetry_multiplicity
 _atom_site_fract_x
 _atom_site_fract_y
 _atom_site_fract_z
 _atom_site_occupancy
  Zn  Zn0  1  0.83620000  0.32342000  0.75913000  1.0
  Zn  Zn1  1  0.66380000  0.82341000  0.74087000  1.0
  Zn  Zn2  1  0.16380000  0.67659000  0.24087000  1.0
  Zn  Zn3  1  0.33620000  0.17658000  0.25913000  1.0
  H  H4  1  0.34677000  0.56521000  0.61519000  1.0
  H  H5  1  0.15324000  0.06521000  0.88481000  1.0
  H  H6  1  0.65323000  0.43479000  0.38481000  1.0
  H  H7  1  0.84676000  0.93479000  0.11519000  1.0
  H  H8  1  0.47935000  0.65635000  0.64372000  1.0
  H  H9  1  0.02066000  0.15635000  0.85628000  1.0
  H  H10  1  0.52065000  0.34365000  0.35628000  1.0
  H  H11  1  0.97934000  0.84365000  0.14372000  1.0
  H  H12  1  0.22724000  0.55370000  0.75007000  1.0
  H  H13  1  0.27276000  0.05371000  0.74993000  1.0
  H  H14  1  0.77276000  0.44629000  0.24993000  1.0
  H  H15  1  0.72724000  0.94629000  0.25007000  1.0
  H  H16  1  0.35837000  0.64654000  0.77597000  1.0
  H  H17  1  0.14164000  0.14655000  0.72403000  1.0
  H  H18  1  0.64164000  0.35345000  0.22403000  1.0
  H  H19  1  0.85836000  0.85346000  0.27596000  1.0
  H  H20  1  0.93824000  0.51514000  0.80551000  1.0
  H  H21  1  0.56177000  0.01514000  0.69449000  1.0
  H  H22  1  0.06176000  0.48486000  0.19449000  1.0
  H  H23  1  0.43823000  0.98486000  0.30551000  1.0
  H  H24  1  0.50261000  0.42015000  0.65583000  1.0
  H  H25  1  0.99740000  0.92015000  0.84418000  1.0
  H  H26  1  0.49739000  0.57985000  0.34417000  1.0
  H  H27  1  0.00260000  0.07985000  0.15583000  1.0
  H  H28  1  0.78773000  0.72022000  0.58493000  1.0
  H  H29  1  0.71227000  0.22022000  0.91507000  1.0
  H  H30  1  0.21227000  0.27978000  0.41507000  1.0
  H  H31  1  0.28773000  0.77978000  0.08493000  1.0
  H  H32  1  0.07628000  0.74429000  0.80159000  1.0
  H  H33  1  0.42372000  0.24430000  0.69841000  1.0
  H  H34  1  0.92372000  0.25570000  0.19841000  1.0
  H  H35  1  0.57628000  0.75571000  0.30159000  1.0
  H  H36  1  0.60867000  0.22965000  0.48227000  1.0
  H  H37  1  0.89133000  0.72965000  0.01773000  1.0
  H  H38  1  0.39133000  0.77035000  0.51773000  1.0
  H  H39  1  0.10867000  0.27035000  0.98227000  1.0
  H  H40  1  0.99834000  0.05929000  0.37825000  1.0
  H  H41  1  0.50167000  0.55929000  0.12176000  1.0
  H  H42  1  0.00166000  0.94071000  0.62175000  1.0
  H  H43  1  0.49833000  0.44071000  0.87825000  1.0
  H  H44  1  0.14143000  0.16769000  0.60078000  1.0
  H  H45  1  0.35857000  0.66769000  0.89922000  1.0
  H  H46  1  0.85857000  0.83231000  0.39922000  1.0
  H  H47  1  0.64143000  0.33231000  0.10078000  1.0
  H  H48  1  0.50533000  0.03711000  0.55511000  1.0
  H  H49  1  0.99467000  0.53711000  0.94489000  1.0
  H  H50  1  0.49467000  0.96289000  0.44489000  1.0
  H  H51  1  0.00533000  0.46289000  0.05511000  1.0
  C  C52  1  0.41883000  0.59751000  0.66396000  1.0
  C  C53  1  0.08117000  0.09751000  0.83604000  1.0
  C  C54  1  0.58117000  0.40249000  0.33604000  1.0
  C  C55  1  0.91883000  0.90249000  0.16396000  1.0
  C  C56  1  0.28129000  0.61350000  0.72867000  1.0
  C  C57  1  0.21871000  0.11350000  0.77133000  1.0
  C  C58  1  0.71871000  0.38650000  0.27132000  1.0
  C  C59  1  0.78129000  0.88650000  0.22867000  1.0
  C  C60  1  0.81289000  0.51247000  0.76670000  1.0
  C  C61  1  0.68712000  0.01247000  0.73330000  1.0
  C  C62  1  0.18711000  0.48753000  0.23330000  1.0
  C  C63  1  0.31288000  0.98753000  0.26670000  1.0
  C  C64  1  0.59291000  0.46195000  0.69049000  1.0
  C  C65  1  0.90710000  0.96195000  0.80950000  1.0
  C  C66  1  0.40710000  0.53805000  0.30950000  1.0
  C  C67  1  0.09290000  0.03805000  0.19050000  1.0
  C  C68  1  0.88935000  0.71047000  0.63315000  1.0
  C  C69  1  0.61065000  0.21047000  0.86685000  1.0
  C  C70  1  0.11065000  0.28953000  0.36685000  1.0
  C  C71  1  0.38934000  0.78953000  0.13315000  1.0
  C  C72  1  0.03496000  0.72530000  0.74317000  1.0
  C  C73  1  0.46505000  0.22530000  0.75682000  1.0
  C  C74  1  0.96505000  0.27470000  0.25682000  1.0
  C  C75  1  0.53495000  0.77470000  0.24317000  1.0
  C  C76  1  0.86851000  0.20363000  0.54883000  1.0
  C  C77  1  0.63148000  0.70363000  0.95117000  1.0
  C  C78  1  0.13148000  0.79637000  0.45117000  1.0
  C  C79  1  0.36851000  0.29637000  0.04883000  1.0
  C  C80  1  0.74363000  0.19561000  0.48405000  1.0
  C  C81  1  0.75637000  0.69561000  0.01595000  1.0
  C  C82  1  0.25637000  0.80439000  0.51595000  1.0
  C  C83  1  0.24363000  0.30439000  0.98405000  1.0
  C  C84  1  0.79049000  0.14444000  0.42216000  1.0
  C  C85  1  0.70951000  0.64444000  0.07785000  1.0
  C  C86  1  0.20951000  0.85556000  0.57784000  1.0
  C  C87  1  0.29049000  0.35556000  0.92216000  1.0
  C  C88  1  0.96273000  0.09993000  0.42584000  1.0
  C  C89  1  0.53727000  0.59993000  0.07416000  1.0
  C  C90  1  0.03727000  0.90007000  0.57416000  1.0
  C  C91  1  0.46273000  0.40007000  0.92585000  1.0
  C  C92  1  0.08921000  0.10828000  0.49023000  1.0
  C  C93  1  0.41079000  0.60828000  0.00977000  1.0
  C  C94  1  0.91079000  0.89172000  0.50977000  1.0
  C  C95  1  0.58921000  0.39172000  0.99023000  1.0
  C  C96  1  0.04243000  0.16061000  0.55118000  1.0
  C  C97  1  0.45756000  0.66061000  0.94882000  1.0
  C  C98  1  0.95756000  0.83939000  0.44882000  1.0
  C  C99  1  0.54243000  0.33939000  0.05118000  1.0
  C  C100  1  0.81350000  0.25671000  0.61569000  1.0
  C  C101  1  0.68650000  0.75671000  0.88431000  1.0
  C  C102  1  0.18650000  0.74329000  0.38431000  1.0
  C  C103  1  0.31350000  0.24329000  0.11569000  1.0
  C  C104  1  0.65880000  0.13767000  0.35148000  1.0
  C  C105  1  0.84120000  0.63767000  0.14852000  1.0
  C  C106  1  0.34120000  0.86233000  0.64852000  1.0
  C  C107  1  0.15880000  0.36233000  0.85148000  1.0
  C  C108  1  0.27149000  0.06118000  0.49369000  1.0
  C  C109  1  0.22851000  0.56118000  0.00632000  1.0
  C  C110  1  0.72851000  0.93882000  0.50631000  1.0
  C  C111  1  0.77149000  0.43881000  0.99369000  1.0
  N  N112  1  0.57339000  0.54504000  0.69499000  1.0
  N  N113  1  0.92661000  0.04504000  0.80501000  1.0
  N  N114  1  0.42661000  0.45496000  0.30501000  1.0
  N  N115  1  0.07338000  0.95496000  0.19499000  1.0
  N  N116  1  0.71150000  0.57823000  0.74403000  1.0
  N  N117  1  0.78851000  0.07823000  0.75597000  1.0
  N  N118  1  0.28850000  0.42177000  0.25596000  1.0
  N  N119  1  0.21149000  0.92177000  0.24403000  1.0
  N  N120  1  0.74501000  0.43948000  0.73523000  1.0
  N  N121  1  0.75500000  0.93948000  0.76477000  1.0
  N  N122  1  0.25499000  0.56052000  0.26477000  1.0
  N  N123  1  0.24500000  0.06052000  0.23523000  1.0
  N  N124  1  0.12184000  0.66610000  0.70264000  1.0
  N  N125  1  0.37817000  0.16610000  0.79736000  1.0
  N  N126  1  0.87816000  0.33390000  0.29736000  1.0
  N  N127  1  0.62183000  0.83390000  0.20264000  1.0
  N  N128  1  0.03079000  0.65539000  0.63213000  1.0
  N  N129  1  0.46922000  0.15539000  0.86787000  1.0
  N  N130  1  0.96921000  0.34461000  0.36787000  1.0
  N  N131  1  0.53078000  0.84461000  0.13213000  1.0
  N  N132  1  0.88594000  0.75476000  0.70050000  1.0
  N  N133  1  0.61406000  0.25476000  0.79950000  1.0
  N  N134  1  0.11406000  0.24524000  0.29950000  1.0
  N  N135  1  0.38594000  0.74524000  0.20050000  1.0
  O  O136  1  0.94259000  0.26289000  0.67174000  1.0
  O  O137  1  0.55740000  0.76289000  0.82826000  1.0
  O  O138  1  0.05741000  0.73711000  0.32826000  1.0
  O  O139  1  0.44259000  0.23711000  0.17174000  1.0
  O  O140  1  0.65143000  0.29053000  0.61545000  1.0
  O  O141  1  0.84856000  0.79052000  0.88455000  1.0
  O  O142  1  0.34857000  0.70948000  0.38455000  1.0
  O  O143  1  0.15143000  0.20948000  0.11545000  1.0
  O  O144  1  0.51082000  0.18728000  0.35089000  1.0
  O  O145  1  0.98918000  0.68728000  0.14912000  1.0
  O  O146  1  0.48918000  0.81272000  0.64911000  1.0
  O  O147  1  0.01082000  0.31272000  0.85088000  1.0
  O  O148  1  0.69456000  0.08766000  0.29863000  1.0
  O  O149  1  0.80544000  0.58766000  0.20137000  1.0
  O  O150  1  0.30543000  0.91234000  0.70137000  1.0
  O  O151  1  0.19457000  0.41234000  0.79863000  1.0
  O  O152  1  0.31517000  0.01364000  0.44001000  1.0
  O  O153  1  0.18484000  0.51363000  0.05999000  1.0
  O  O154  1  0.68483000  0.98637000  0.55999000  1.0
  O  O155  1  0.81517000  0.48637000  0.94001000  1.0
  O  O156  1  0.38085000  0.07312000  0.55668000  1.0
  O  O157  1  0.11915000  0.57311000  0.94332000  1.0
  O  O158  1  0.61915000  0.92689000  0.44332000  1.0
  O  O159  1  0.88085000  0.42688000  0.05668000  1.0
