# generated using pymatgen
data_TmH7C9N3O8
_symmetry_space_group_name_H-M   'P 1'
_cell_length_a   6.04682000
_cell_length_b   11.75424873
_cell_length_c   12.81910000
_cell_angle_alpha   115.16294126
_cell_angle_beta   91.80710000
_cell_angle_gamma   90.18654962
_symmetry_Int_Tables_number   1
_chemical_formula_structural   TmH7C9N3O8
_chemical_formula_sum   'Tm2 H14 C18 N6 O16'
_cell_volume   824.11412930
_cell_formula_units_Z   2
loop_
 _symmetry_equiv_pos_site_id
 _symmetry_equiv_pos_as_xyz
  1  'x, y, z'
loop_
 _atom_site_type_symbol
 _atom_site_label
 _atom_site_symmetry_multiplicity
 _atom_site_fract_x
 _atom_site_fract_y
 _atom_site_fract_z
 _atom_site_occupancy
  Tm  Tm0  1  0.23742000  0.15931000  0.81612000  1.0
  Tm  Tm1  1  0.76258000  0.84069000  0.18388000  1.0
  H  H2  1  0.31762000  0.80699000  0.36493000  1.0
  H  H3  1  0.68239000  0.19300000  0.63506000  1.0
  H  H4  1  0.88512000  0.91468000  0.79664000  1.0
  H  H5  1  0.11488000  0.08531000  0.20335000  1.0
  H  H6  1  0.64768000  0.05027000  0.79885000  1.0
  H  H7  1  0.35232000  0.94973000  0.20115000  1.0
  H  H8  1  0.50780000  0.93690000  0.81190000  1.0
  H  H9  1  0.49221000  0.06310000  0.18810000  1.0
  H  H10  1  0.24098000  0.33450000  0.71214000  1.0
  H  H11  1  0.75902000  0.66550000  0.28787000  1.0
  H  H12  1  0.06674000  0.23304000  0.62877000  1.0
  H  H13  1  0.93326000  0.76696000  0.37124000  1.0
  H  H14  1  0.38225000  0.46175000  0.03963000  1.0
  H  H15  1  0.61774000  0.53825000  0.96037000  1.0
  C  C16  1  0.40015000  0.89354000  0.42489000  1.0
  C  C17  1  0.59986000  0.10645000  0.57511000  1.0
  C  C18  1  0.31626000  0.96296000  0.53385000  1.0
  C  C19  1  0.68375000  0.03703000  0.46615000  1.0
  C  C20  1  0.10799000  0.92364000  0.57316000  1.0
  C  C21  1  0.89201000  0.07636000  0.42684000  1.0
  C  C22  1  0.16771000  0.08462000  0.03529000  1.0
  C  C23  1  0.83229000  0.91536000  0.96470000  1.0
  C  C24  1  0.93351000  0.95340000  0.88801000  1.0
  C  C25  1  0.06651000  0.04660000  0.11199000  1.0
  C  C26  1  0.36671000  0.17240000  0.06807000  1.0
  C  C27  1  0.63330000  0.82760000  0.93193000  1.0
  C  C28  1  0.87567000  0.39987000  0.93160000  1.0
  C  C29  1  0.12431000  0.60013000  0.06840000  1.0
  C  C30  1  0.21232000  0.47954000  0.02139000  1.0
  C  C31  1  0.78766000  0.52048000  0.97862000  1.0
  C  C32  1  0.74043000  0.28311000  0.86077000  1.0
  C  C33  1  0.25956000  0.71690000  0.13924000  1.0
  N  N34  1  0.58259000  0.93044000  0.39074000  1.0
  N  N35  1  0.41742000  0.06955000  0.60925000  1.0
  N  N36  1  0.09754000  0.03938000  0.92418000  1.0
  N  N37  1  0.90246000  0.96061000  0.07581000  1.0
  N  N38  1  0.08804000  0.38037000  0.95232000  1.0
  N  N39  1  0.91195000  0.61963000  0.04768000  1.0
  O  O40  1  0.06168000  0.99005000  0.67816000  1.0
  O  O41  1  0.93832000  0.00996000  0.32184000  1.0
  O  O42  1  0.99327000  0.83218000  0.50327000  1.0
  O  O43  1  0.00673000  0.16782000  0.49673000  1.0
  O  O44  1  0.39457000  0.22833000  0.00307000  1.0
  O  O45  1  0.60542000  0.77167000  0.99693000  1.0
  O  O46  1  0.49964000  0.01166000  0.79242000  1.0
  O  O47  1  0.50036000  0.98834000  0.20759000  1.0
  O  O48  1  0.12274000  0.27829000  0.71232000  1.0
  O  O49  1  0.87726000  0.72170000  0.28768000  1.0
  O  O50  1  0.48977000  0.17983000  0.15170000  1.0
  O  O51  1  0.51022000  0.82018000  0.84830000  1.0
  O  O52  1  0.53891000  0.29458000  0.83665000  1.0
  O  O53  1  0.46107000  0.70542000  0.16335000  1.0
  O  O54  1  0.84121000  0.18012000  0.83215000  1.0
  O  O55  1  0.15879000  0.81989000  0.16786000  1.0
