# generated using pymatgen
data_Cu2Mo4H16C24N6O13
_symmetry_space_group_name_H-M   'P 1'
_cell_length_a   11.35190000
_cell_length_b   12.09930000
_cell_length_c   12.45290000
_cell_angle_alpha   114.88300000
_cell_angle_beta   103.19900000
_cell_angle_gamma   93.54380000
_symmetry_Int_Tables_number   1
_chemical_formula_structural   Cu2Mo4H16C24N6O13
_chemical_formula_sum   'Cu4 Mo8 H32 C48 N12 O26'
_cell_volume   1486.30401403
_cell_formula_units_Z   2
loop_
 _symmetry_equiv_pos_site_id
 _symmetry_equiv_pos_as_xyz
  1  'x, y, z'
loop_
 _atom_site_type_symbol
 _atom_site_label
 _atom_site_symmetry_multiplicity
 _atom_site_fract_x
 _atom_site_fract_y
 _atom_site_fract_z
 _atom_site_occupancy
  Cu  Cu0  1  0.44168000  0.82217000  0.16742000  1.0
  Cu  Cu1  1  0.55832000  0.17783000  0.83258000  1.0
  Cu  Cu2  1  0.54174000  0.13671000  0.31502000  1.0
  Cu  Cu3  1  0.45826000  0.86329000  0.68497000  1.0
  Mo  Mo4  1  0.31025000  0.52685000  0.93526000  1.0
  Mo  Mo5  1  0.68974000  0.47314000  0.06474000  1.0
  Mo  Mo6  1  0.00930000  0.37739000  0.71370000  1.0
  Mo  Mo7  1  0.99069000  0.62261000  0.28631000  1.0
  Mo  Mo8  1  0.25935000  0.61152000  0.21759000  1.0
  Mo  Mo9  1  0.74065000  0.38848000  0.78241000  1.0
  Mo  Mo10  1  0.99731000  0.66096000  0.01461000  1.0
  Mo  Mo11  1  0.00268000  0.33904000  0.98539000  1.0
  H  H12  1  0.24447000  0.88823000  0.29399000  1.0
  H  H13  1  0.75553000  0.11177000  0.70600000  1.0
  H  H14  1  0.08911000  0.02697000  0.30472000  1.0
  H  H15  1  0.91089000  0.97302000  0.69528000  1.0
  H  H16  1  0.06441000  0.13291000  0.16577000  1.0
  H  H17  1  0.93560000  0.86709000  0.83424000  1.0
  H  H18  1  0.20546000  0.10659000  0.03554000  1.0
  H  H19  1  0.79455000  0.89342000  0.96446000  1.0
  H  H20  1  0.17372000  0.82218000  0.92986000  1.0
  H  H21  1  0.82629000  0.17782000  0.07014000  1.0
  H  H22  1  0.00024000  0.68222000  0.75115000  1.0
  H  H23  1  0.99976000  0.31778000  0.24886000  1.0
  H  H24  1  0.01962000  0.62105000  0.53755000  1.0
  H  H25  1  0.98039000  0.37896000  0.46246000  1.0
  H  H26  1  0.21544000  0.69777000  0.51291000  1.0
  H  H27  1  0.78455000  0.30222000  0.48708000  1.0
  H  H28  1  0.66343000  0.79289000  0.06690000  1.0
  H  H29  1  0.33656000  0.20711000  0.93310000  1.0
  H  H30  1  0.88570000  0.89190000  0.15632000  1.0
  H  H31  1  0.11429000  0.10811000  0.84368000  1.0
  H  H32  1  0.96722000  0.02301000  0.38871000  1.0
  H  H33  1  0.03278000  0.97699000  0.61129000  1.0
  H  H34  1  0.82369000  0.04345000  0.51645000  1.0
  H  H35  1  0.17631000  0.95655000  0.48355000  1.0
  H  H36  1  0.68174000  0.73846000  0.35678000  1.0
  H  H37  1  0.31827000  0.26155000  0.64322000  1.0
  H  H38  1  0.75629000  0.56228000  0.38384000  1.0
  H  H39  1  0.24372000  0.43773000  0.61616000  1.0
  H  H40  1  0.71065000  0.51697000  0.55324000  1.0
  H  H41  1  0.28937000  0.48304000  0.44677000  1.0
  H  H42  1  0.58510000  0.64486000  0.67752000  1.0
  H  H43  1  0.41491000  0.35514000  0.32248000  1.0
  C  C44  1  0.23523000  0.94087000  0.24085000  1.0
  C  C45  1  0.76478000  0.05913000  0.75914000  1.0
  C  C46  1  0.14700000  0.01586000  0.24374000  1.0
  C  C47  1  0.85301000  0.98414000  0.75626000  1.0
  C  C48  1  0.13376000  0.07529000  0.16834000  1.0
  C  C49  1  0.86625000  0.92471000  0.83166000  1.0
  C  C50  1  0.21264000  0.06030000  0.09449000  1.0
  C  C51  1  0.78736000  0.93970000  0.90551000  1.0
  C  C52  1  0.30217000  0.98779000  0.10030000  1.0
  C  C53  1  0.69783000  0.01221000  0.89969000  1.0
  C  C54  1  0.40257000  0.98591000  0.04153000  1.0
  C  C55  1  0.59744000  0.01409000  0.95847000  1.0
  C  C56  1  0.39284000  0.92575000  0.91462000  1.0
  C  C57  1  0.60716000  0.07424000  0.08537000  1.0
  C  C58  1  0.28560000  0.84039000  0.81637000  1.0
  C  C59  1  0.71441000  0.15960000  0.18361000  1.0
  C  C60  1  0.18019000  0.79701000  0.83719000  1.0
  C  C61  1  0.81982000  0.20299000  0.16281000  1.0
  C  C62  1  0.08257000  0.71836000  0.73717000  1.0
  C  C63  1  0.91744000  0.28164000  0.26283000  1.0
  C  C64  1  0.09298000  0.68326000  0.61858000  1.0
  C  C65  1  0.90701000  0.31674000  0.38142000  1.0
  C  C66  1  0.20232000  0.72578000  0.60409000  1.0
  C  C67  1  0.79768000  0.27422000  0.39591000  1.0
  C  C68  1  0.70261000  0.85098000  0.16573000  1.0
  C  C69  1  0.29738000  0.14902000  0.83427000  1.0
  C  C70  1  0.82651000  0.90546000  0.21672000  1.0
  C  C71  1  0.17349000  0.09454000  0.78328000  1.0
  C  C72  1  0.87204000  0.97564000  0.34413000  1.0
  C  C73  1  0.12796000  0.02436000  0.65587000  1.0
  C  C74  1  0.79256000  0.98738000  0.41678000  1.0
  C  C75  1  0.20744000  0.01262000  0.58322000  1.0
  C  C76  1  0.66958000  0.93215000  0.35876000  1.0
  C  C77  1  0.33042000  0.06785000  0.64123000  1.0
  C  C78  1  0.57877000  0.95940000  0.43142000  1.0
  C  C79  1  0.42122000  0.04060000  0.56858000  1.0
  C  C80  1  0.55214000  0.90025000  0.50154000  1.0
  C  C81  1  0.44785000  0.09975000  0.49846000  1.0
  C  C82  1  0.59841000  0.79136000  0.50744000  1.0
  C  C83  1  0.40159000  0.20865000  0.49256000  1.0
  C  C84  1  0.66416000  0.71925000  0.42976000  1.0
  C  C85  1  0.33584000  0.28076000  0.57024000  1.0
  C  C86  1  0.70501000  0.61886000  0.44411000  1.0
  C  C87  1  0.29500000  0.38115000  0.55589000  1.0
  C  C88  1  0.67899000  0.59230000  0.53553000  1.0
  C  C89  1  0.32102000  0.40772000  0.46448000  1.0
  C  C90  1  0.60938000  0.66524000  0.60716000  1.0
  C  C91  1  0.39063000  0.33476000  0.39285000  1.0
  N  N92  1  0.31348000  0.92766000  0.17121000  1.0
  N  N93  1  0.68653000  0.07234000  0.82878000  1.0
  N  N94  1  0.50853000  0.05685000  0.12473000  1.0
  N  N95  1  0.49147000  0.94315000  0.87526000  1.0
  N  N96  1  0.29723000  0.80252000  0.70012000  1.0
  N  N97  1  0.70277000  0.19748000  0.29987000  1.0
  N  N98  1  0.62328000  0.86669000  0.23479000  1.0
  N  N99  1  0.37671000  0.13332000  0.76521000  1.0
  N  N100  1  0.52620000  0.05532000  0.42906000  1.0
  N  N101  1  0.47380000  0.94467000  0.57094000  1.0
  N  N102  1  0.56890000  0.76214000  0.59392000  1.0
  N  N103  1  0.43110000  0.23787000  0.40609000  1.0
  O  O104  1  0.39311000  0.67647000  0.99167000  1.0
  O  O105  1  0.60687000  0.32353000  0.00834000  1.0
  O  O106  1  0.39701000  0.42521000  0.86265000  1.0
  O  O107  1  0.60299000  0.57479000  0.13736000  1.0
  O  O108  1  0.16495000  0.49577000  0.81373000  1.0
  O  O109  1  0.83505000  0.50422000  0.18626000  1.0
  O  O110  1  0.95374000  0.46698000  0.64392000  1.0
  O  O111  1  0.04626000  0.53302000  0.35609000  1.0
  O  O112  1  0.05452000  0.25972000  0.60362000  1.0
  O  O113  1  0.94547000  0.74027000  0.39637000  1.0
  O  O114  1  0.92634000  0.51315000  0.87913000  1.0
  O  O115  1  0.07365000  0.48686000  0.12086000  1.0
  O  O116  1  0.84988000  0.29424000  0.69901000  1.0
  O  O117  1  0.15012000  0.70576000  0.30099000  1.0
  O  O118  1  0.31357000  0.54271000  0.30915000  1.0
  O  O119  1  0.68642000  0.45727000  0.69083000  1.0
  O  O120  1  0.29579000  0.49596000  0.06559000  1.0
  O  O121  1  0.70419000  0.50403000  0.93440000  1.0
  O  O122  1  0.37795000  0.73273000  0.25781000  1.0
  O  O123  1  0.62205000  0.26726000  0.74219000  1.0
  O  O124  1  0.06526000  0.31994000  0.86053000  1.0
  O  O125  1  0.93473000  0.68007000  0.13947000  1.0
  O  O126  1  0.15901000  0.66977000  0.06142000  1.0
  O  O127  1  0.84098000  0.33022000  0.93859000  1.0
  O  O128  1  0.96771000  0.78127000  0.97790000  1.0
  O  O129  1  0.03230000  0.21875000  0.02213000  1.0
