# generated using pymatgen
data_Sn2PH32C15NO4
_symmetry_space_group_name_H-M   'P 1'
_cell_length_a   9.07877000
_cell_length_b   10.60060000
_cell_length_c   11.61340000
_cell_angle_alpha   89.99980000
_cell_angle_beta   87.95230000
_cell_angle_gamma   89.99950000
_symmetry_Int_Tables_number   1
_chemical_formula_structural   Sn2PH32C15NO4
_chemical_formula_sum   'Sn4 P2 H64 C30 N2 O8'
_cell_volume   1116.96464862
_cell_formula_units_Z   2
loop_
 _symmetry_equiv_pos_site_id
 _symmetry_equiv_pos_as_xyz
  1  'x, y, z'
loop_
 _atom_site_type_symbol
 _atom_site_label
 _atom_site_symmetry_multiplicity
 _atom_site_fract_x
 _atom_site_fract_y
 _atom_site_fract_z
 _atom_site_occupancy
  Sn  Sn0  1  0.92763000  0.40800000  0.02566000  1.0
  Sn  Sn1  1  0.07236000  0.90799000  0.97434000  1.0
  Sn  Sn2  1  0.40748000  0.28063000  0.80657000  1.0
  Sn  Sn3  1  0.59252000  0.78063000  0.19343000  1.0
  P  P4  1  0.05811000  0.19037000  0.82190000  1.0
  P  P5  1  0.94188000  0.69037000  0.17811000  1.0
  H  H6  1  0.76846000  0.26303000  0.84420000  1.0
  H  H7  1  0.23154000  0.76303000  0.15580000  1.0
  H  H8  1  0.70845000  0.39250000  0.80193000  1.0
  H  H9  1  0.29154000  0.89250000  0.19806000  1.0
  H  H10  1  0.81985000  0.28004000  0.65734000  1.0
  H  H11  1  0.18015000  0.78004000  0.34266000  1.0
  H  H12  1  0.09436000  0.15516000  0.33205000  1.0
  H  H13  1  0.90565000  0.65514000  0.66794000  1.0
  H  H14  1  0.35110000  0.19868000  0.26073000  1.0
  H  H15  1  0.64890000  0.69867000  0.73927000  1.0
  H  H16  1  0.49368000  0.37346000  0.34571000  1.0
  H  H17  1  0.50633000  0.87345000  0.65430000  1.0
  H  H18  1  0.38056000  0.50201000  0.50539000  1.0
  H  H19  1  0.61946000  0.00202000  0.49463000  1.0
  H  H20  1  0.12521000  0.45414000  0.57966000  1.0
  H  H21  1  0.87480000  0.95415000  0.42035000  1.0
  H  H22  1  0.90085000  0.18724000  0.46292000  1.0
  H  H23  1  0.09916000  0.68724000  0.53708000  1.0
  H  H24  1  0.71302000  0.35394000  0.48422000  1.0
  H  H25  1  0.28698000  0.85394000  0.51578000  1.0
  H  H26  1  0.83738000  0.39374000  0.36754000  1.0
  H  H27  1  0.16263000  0.89374000  0.63246000  1.0
  H  H28  1  0.85129000  0.47083000  0.50280000  1.0
  H  H29  1  0.14871000  0.97082000  0.49720000  1.0
  H  H30  1  0.10065000  0.14538000  0.62575000  1.0
  H  H31  1  0.89935000  0.64538000  0.37426000  1.0
  H  H32  1  0.93198000  0.07700000  0.67371000  1.0
  H  H33  1  0.06802000  0.57699000  0.32629000  1.0
  H  H34  1  0.98556000  0.60527000  0.88617000  1.0
  H  H35  1  0.01443000  0.10525000  0.11382000  1.0
  H  H36  1  0.79937000  0.56270000  0.86598000  1.0
  H  H37  1  0.20063000  0.06270000  0.13401000  1.0
  H  H38  1  0.94691000  0.47151000  0.79788000  1.0
  H  H39  1  0.05309000  0.97151000  0.20212000  1.0
  H  H40  1  0.18902000  0.29353000  0.06995000  1.0
  H  H41  1  0.81096000  0.79354000  0.93005000  1.0
  H  H42  1  0.14670000  0.40968000  0.17772000  1.0
  H  H43  1  0.85329000  0.90968000  0.82229000  1.0
  H  H44  1  0.21715000  0.45710000  0.03827000  1.0
  H  H45  1  0.78286000  0.95711000  0.96175000  1.0
  H  H46  1  0.64455000  0.36457000  0.09601000  1.0
  H  H47  1  0.35544000  0.86455000  0.90398000  1.0
  H  H48  1  0.76500000  0.31573000  0.20527000  1.0
  H  H49  1  0.23499000  0.81573000  0.79473000  1.0
  H  H50  1  0.73786000  0.21568000  0.08307000  1.0
  H  H51  1  0.26214000  0.71566000  0.91691000  1.0
  H  H52  1  0.37070000  0.07333000  0.67629000  1.0
  H  H53  1  0.62929000  0.57333000  0.32371000  1.0
  H  H54  1  0.54726000  0.14111000  0.64147000  1.0
  H  H55  1  0.45273000  0.64110000  0.35853000  1.0
  H  H56  1  0.38478000  0.20746000  0.58235000  1.0
  H  H57  1  0.61522000  0.70746000  0.41765000  1.0
  H  H58  1  0.45003000  0.24758000  0.03755000  1.0
  H  H59  1  0.54995000  0.74758000  0.96245000  1.0
  H  H60  1  0.53803000  0.12458000  0.95522000  1.0
  H  H61  1  0.46197000  0.62457000  0.04479000  1.0
  H  H62  1  0.34152000  0.12209000  0.98000000  1.0
  H  H63  1  0.65848000  0.62208000  0.02000000  1.0
  H  H64  1  0.31880000  0.51982000  0.77103000  1.0
  H  H65  1  0.68119000  0.01982000  0.22896000  1.0
  H  H66  1  0.50022000  0.50189000  0.70832000  1.0
  H  H67  1  0.49978000  0.00190000  0.29167000  1.0
  H  H68  1  0.47474000  0.52549000  0.86037000  1.0
  H  H69  1  0.52526000  0.02550000  0.13962000  1.0
  C  C70  1  0.09170000  0.30413000  0.45856000  1.0
  C  C71  1  0.90831000  0.80412000  0.54144000  1.0
  C  C72  1  0.15714000  0.23143000  0.37020000  1.0
  C  C73  1  0.84287000  0.73142000  0.62980000  1.0
  C  C74  1  0.30134000  0.25579000  0.32991000  1.0
  C  C75  1  0.69867000  0.75578000  0.67009000  1.0
  C  C76  1  0.38163000  0.35380000  0.37764000  1.0
  C  C77  1  0.61839000  0.85379000  0.62236000  1.0
  C  C78  1  0.31755000  0.42618000  0.46695000  1.0
  C  C79  1  0.68247000  0.92618000  0.53306000  1.0
  C  C80  1  0.17410000  0.40097000  0.50754000  1.0
  C  C81  1  0.82591000  0.90097000  0.49246000  1.0
  C  C82  1  0.93422000  0.27865000  0.50103000  1.0
  C  C83  1  0.06578000  0.77865000  0.49897000  1.0
  C  C84  1  0.82760000  0.38026000  0.46121000  1.0
  C  C85  1  0.17241000  0.88026000  0.53879000  1.0
  C  C86  1  0.99795000  0.16484000  0.67583000  1.0
  C  C87  1  0.00204000  0.66484000  0.32417000  1.0
  C  C88  1  0.91112000  0.52510000  0.87471000  1.0
  C  C89  1  0.08888000  0.02510000  0.12529000  1.0
  C  C90  1  0.14711000  0.38885000  0.08538000  1.0
  C  C91  1  0.85288000  0.88885000  0.91463000  1.0
  C  C92  1  0.74644000  0.31321000  0.11260000  1.0
  C  C93  1  0.25354000  0.81320000  0.88740000  1.0
  C  C94  1  0.43011000  0.16145000  0.65774000  1.0
  C  C95  1  0.56989000  0.66145000  0.34227000  1.0
  C  C96  1  0.43823000  0.18232000  0.96552000  1.0
  C  C97  1  0.56176000  0.68232000  0.03448000  1.0
  C  C98  1  0.42886000  0.48125000  0.78423000  1.0
  C  C99  1  0.57114000  0.98124000  0.21576000  1.0
  N  N100  1  0.92665000  0.27457000  0.62696000  1.0
  N  N101  1  0.07335000  0.77457000  0.37304000  1.0
  O  O102  1  0.92443000  0.22918000  0.90093000  1.0
  O  O103  1  0.07556000  0.72918000  0.09907000  1.0
  O  O104  1  0.12895000  0.06550000  0.85764000  1.0
  O  O105  1  0.87104000  0.56550000  0.14237000  1.0
  O  O106  1  0.17270000  0.29874000  0.81781000  1.0
  O  O107  1  0.82730000  0.79874000  0.18220000  1.0
  O  O108  1  0.68331000  0.30323000  0.80339000  1.0
  O  O109  1  0.31669000  0.80323000  0.19660000  1.0
