# generated using pymatgen
data_CdH18C22(N2O3)2
_symmetry_space_group_name_H-M   'P 1'
_cell_length_a   9.46663000
_cell_length_b   9.70248000
_cell_length_c   11.13010000
_cell_angle_alpha   90.00000000
_cell_angle_beta   90.00000000
_cell_angle_gamma   104.17400000
_symmetry_Int_Tables_number   1
_chemical_formula_structural   CdH18C22(N2O3)2
_chemical_formula_sum   'Cd2 H36 C44 N8 O12'
_cell_volume   991.17508794
_cell_formula_units_Z   2
loop_
 _symmetry_equiv_pos_site_id
 _symmetry_equiv_pos_as_xyz
  1  'x, y, z'
loop_
 _atom_site_type_symbol
 _atom_site_label
 _atom_site_symmetry_multiplicity
 _atom_site_fract_x
 _atom_site_fract_y
 _atom_site_fract_z
 _atom_site_occupancy
  Cd  Cd0  1  0.50000000  0.00000000  0.50000000  1.0
  Cd  Cd1  1  0.50000000  0.50000000  0.00000000  1.0
  H  H2  1  0.06500000  0.98447000  0.30364000  1.0
  H  H3  1  0.93501000  0.51553000  0.80364000  1.0
  H  H4  1  0.93500000  0.01553000  0.69636000  1.0
  H  H5  1  0.06499000  0.48447000  0.19636000  1.0
  H  H6  1  0.80792000  0.76801000  0.00882000  1.0
  H  H7  1  0.19208000  0.73199000  0.50882000  1.0
  H  H8  1  0.19208000  0.23199000  0.99118000  1.0
  H  H9  1  0.80792000  0.26801000  0.49118000  1.0
  H  H10  1  0.99037000  0.63037000  0.97400000  1.0
  H  H11  1  0.00962000  0.86963000  0.47400000  1.0
  H  H12  1  0.00963000  0.36963000  0.02600000  1.0
  H  H13  1  0.99037000  0.13037000  0.52600000  1.0
  H  H14  1  0.21076000  0.66537000  0.10637000  1.0
  H  H15  1  0.78924000  0.83462000  0.60637000  1.0
  H  H16  1  0.78924000  0.33462000  0.89363000  1.0
  H  H17  1  0.21076000  0.16538000  0.39363000  1.0
  H  H18  1  0.78320000  0.02310000  0.99892000  1.0
  H  H19  1  0.21680000  0.47690000  0.49892000  1.0
  H  H20  1  0.21681000  0.97690000  0.00108000  1.0
  H  H21  1  0.78320000  0.52310000  0.50109000  1.0
  H  H22  1  0.50697000  0.14641000  0.24162000  1.0
  H  H23  1  0.49303000  0.35359000  0.74162000  1.0
  H  H24  1  0.49303000  0.85359000  0.75838000  1.0
  H  H25  1  0.50697000  0.64641000  0.25838000  1.0
  H  H26  1  0.79191000  0.91918000  0.37564000  1.0
  H  H27  1  0.20809000  0.58082000  0.87564000  1.0
  H  H28  1  0.20809000  0.08082000  0.62436000  1.0
  H  H29  1  0.79191000  0.41918000  0.12436000  1.0
  H  H30  1  0.55949000  0.74534000  0.61912000  1.0
  H  H31  1  0.44052000  0.75466000  0.11912000  1.0
  H  H32  1  0.44051000  0.25466000  0.38088000  1.0
  H  H33  1  0.55949000  0.24534000  0.88088000  1.0
  H  H34  1  0.55898000  0.70352000  0.48248000  1.0
  H  H35  1  0.44102000  0.79648000  0.98248000  1.0
  H  H36  1  0.44102000  0.29648000  0.51752000  1.0
  H  H37  1  0.55898000  0.20352000  0.01752000  1.0
  C  C38  1  0.28768000  0.85413000  0.28977000  1.0
  C  C39  1  0.71232000  0.64587000  0.78977000  1.0
  C  C40  1  0.71232000  0.14587000  0.71023000  1.0
  C  C41  1  0.28768000  0.35413000  0.21023000  1.0
  C  C42  1  0.15225000  0.82863000  0.21276000  1.0
  C  C43  1  0.84775000  0.67137000  0.71276000  1.0
  C  C44  1  0.84775000  0.17138000  0.78724000  1.0
  C  C45  1  0.15225000  0.32863000  0.28724000  1.0
  C  C46  1  0.04708000  0.90533000  0.23245000  1.0
  C  C47  1  0.95292000  0.59467000  0.73245000  1.0
  C  C48  1  0.95292000  0.09467000  0.76755000  1.0
  C  C49  1  0.04708000  0.40533000  0.26756000  1.0
  C  C50  1  0.92301000  0.88493000  0.15953000  1.0
  C  C51  1  0.07699000  0.61507000  0.65953000  1.0
  C  C52  1  0.07699000  0.11508000  0.84047000  1.0
  C  C53  1  0.92301000  0.38493000  0.34048000  1.0
  C  C54  1  0.90538000  0.78730000  0.06448000  1.0
  C  C55  1  0.09462000  0.71270000  0.56448000  1.0
  C  C56  1  0.09462000  0.21270000  0.93552000  1.0
  C  C57  1  0.90538000  0.28730000  0.43552000  1.0
  C  C58  1  0.00844000  0.70859000  0.04606000  1.0
  C  C59  1  0.99155000  0.79141000  0.54606000  1.0
  C  C60  1  0.99156000  0.29141000  0.95394000  1.0
  C  C61  1  0.00844000  0.20859000  0.45394000  1.0
  C  C62  1  0.13093000  0.72810000  0.11974000  1.0
  C  C63  1  0.86907000  0.77190000  0.61974000  1.0
  C  C64  1  0.86907000  0.27190000  0.88026000  1.0
  C  C65  1  0.13093000  0.22811000  0.38026000  1.0
  C  C66  1  0.80917000  0.96104000  0.18354000  1.0
  C  C67  1  0.19084000  0.53896000  0.68354000  1.0
  C  C68  1  0.19084000  0.03896000  0.81646000  1.0
  C  C69  1  0.80916000  0.46104000  0.31646000  1.0
  C  C70  1  0.74671000  0.02539000  0.09174000  1.0
  C  C71  1  0.25330000  0.47461000  0.59174000  1.0
  C  C72  1  0.25330000  0.97461000  0.90826000  1.0
  C  C73  1  0.74670000  0.52539000  0.40826000  1.0
  C  C74  1  0.59447000  0.09362000  0.22624000  1.0
  C  C75  1  0.40553000  0.40638000  0.72624000  1.0
  C  C76  1  0.40553000  0.90638000  0.77376000  1.0
  C  C77  1  0.59447000  0.59362000  0.27376000  1.0
  C  C78  1  0.75268000  0.96903000  0.29883000  1.0
  C  C79  1  0.24732000  0.53097000  0.79883000  1.0
  C  C80  1  0.24733000  0.03097000  0.70117000  1.0
  C  C81  1  0.75267000  0.46903000  0.20117000  1.0
  N  N82  1  0.64250000  0.09399000  0.11330000  1.0
  N  N83  1  0.35750000  0.40601000  0.61330000  1.0
  N  N84  1  0.35750000  0.90601000  0.88670000  1.0
  N  N85  1  0.64249000  0.59399000  0.38670000  1.0
  N  N86  1  0.64477000  0.03298000  0.31986000  1.0
  N  N87  1  0.35523000  0.46702000  0.81986000  1.0
  N  N88  1  0.35523000  0.96702000  0.68014000  1.0
  N  N89  1  0.64477000  0.53298000  0.18014000  1.0
  O  O90  1  0.51754000  0.76243000  0.53977000  1.0
  O  O91  1  0.48247000  0.73757000  0.03977000  1.0
  O  O92  1  0.48246000  0.23757000  0.46023000  1.0
  O  O93  1  0.51754000  0.26243000  0.96023000  1.0
  O  O94  1  0.29277000  0.93674000  0.38048000  1.0
  O  O95  1  0.70723000  0.56326000  0.88048000  1.0
  O  O96  1  0.70723000  0.06326000  0.61952000  1.0
  O  O97  1  0.29277000  0.43674000  0.11952000  1.0
  O  O98  1  0.38685000  0.79374000  0.26068000  1.0
  O  O99  1  0.61315000  0.70626000  0.76068000  1.0
  O  O100  1  0.61315000  0.20626000  0.73932000  1.0
  O  O101  1  0.38684000  0.29374000  0.23932000  1.0
