# generated using pymatgen
data_Cu2H10C14N6O
_symmetry_space_group_name_H-M   'P 1'
_cell_length_a   6.68282000
_cell_length_b   8.57043000
_cell_length_c   14.04731769
_cell_angle_alpha   89.99877176
_cell_angle_beta   102.11379891
_cell_angle_gamma   89.99960000
_symmetry_Int_Tables_number   1
_chemical_formula_structural   Cu2H10C14N6O
_chemical_formula_sum   'Cu4 H20 C28 N12 O2'
_cell_volume   786.63982795
_cell_formula_units_Z   2
loop_
 _symmetry_equiv_pos_site_id
 _symmetry_equiv_pos_as_xyz
  1  'x, y, z'
loop_
 _atom_site_type_symbol
 _atom_site_label
 _atom_site_symmetry_multiplicity
 _atom_site_fract_x
 _atom_site_fract_y
 _atom_site_fract_z
 _atom_site_occupancy
  Cu  Cu0  1  0.05691000  0.17248000  0.24152000  1.0
  Cu  Cu1  1  0.55691000  0.82752000  0.74152000  1.0
  Cu  Cu2  1  0.43176000  0.66996000  0.25846000  1.0
  Cu  Cu3  1  0.93175000  0.33004000  0.75846000  1.0
  H  H4  1  0.26045000  0.14888000  0.09556000  1.0
  H  H5  1  0.76044000  0.85112000  0.59556000  1.0
  H  H6  1  0.99132000  0.18293000  0.94554000  1.0
  H  H7  1  0.49132000  0.81706000  0.44554000  1.0
  H  H8  1  0.39070000  0.41786000  0.80504000  1.0
  H  H9  1  0.89072000  0.58215000  0.30505000  1.0
  H  H10  1  0.68097000  0.38263000  0.94594000  1.0
  H  H11  1  0.18099000  0.61739000  0.44595000  1.0
  H  H12  1  0.60599000  0.30357000  0.37820000  1.0
  H  H13  1  0.10602000  0.69641000  0.87821000  1.0
  H  H14  1  0.11738000  0.08523000  0.39714000  1.0
  H  H15  1  0.61737000  0.91478000  0.89713000  1.0
  H  H16  1  0.38256000  0.07956000  0.55254000  1.0
  H  H17  1  0.88258000  0.92045000  0.05254000  1.0
  H  H18  1  0.31343000  0.21474000  0.69803000  1.0
  H  H19  1  0.81346000  0.78527000  0.19804000  1.0
  H  H20  1  0.74571000  0.36892000  0.54778000  1.0
  H  H21  1  0.24576000  0.63107000  0.04779000  1.0
  H  H22  1  0.49089000  0.28665000  0.21905000  1.0
  H  H23  1  0.99089000  0.71334000  0.71905000  1.0
  C  C24  1  0.29649000  0.20935000  0.03289000  1.0
  C  C25  1  0.79649000  0.79065000  0.53289000  1.0
  C  C26  1  0.14532000  0.22778000  0.94922000  1.0
  C  C27  1  0.64533000  0.77222000  0.44923000  1.0
  C  C28  1  0.36788000  0.35710000  0.87015000  1.0
  C  C29  1  0.86790000  0.64291000  0.37016000  1.0
  C  C30  1  0.52954000  0.33915000  0.94941000  1.0
  C  C31  1  0.02955000  0.66086000  0.44942000  1.0
  C  C32  1  0.49367000  0.26498000  0.03314000  1.0
  C  C33  1  0.99367000  0.73502000  0.53314000  1.0
  C  C34  1  0.66807000  0.23891000  0.11590000  1.0
  C  C35  1  0.16807000  0.76109000  0.61590000  1.0
  C  C36  1  0.75243000  0.25201000  0.37106000  1.0
  C  C37  1  0.25244000  0.74798000  0.87106000  1.0
  C  C38  1  0.91071000  0.23238000  0.45843000  1.0
  C  C39  1  0.41073000  0.76761000  0.95844000  1.0
  C  C40  1  0.09298000  0.14805000  0.46137000  1.0
  C  C41  1  0.59299000  0.85195000  0.96137000  1.0
  C  C42  1  0.24029000  0.14399000  0.54724000  1.0
  C  C43  1  0.74031000  0.85602000  0.04724000  1.0
  C  C44  1  0.20184000  0.21929000  0.62933000  1.0
  C  C45  1  0.70186000  0.78071000  0.12933000  1.0
  C  C46  1  0.88521000  0.30386000  0.54521000  1.0
  C  C47  1  0.38524000  0.69613000  0.04521000  1.0
  C  C48  1  0.20585000  0.35898000  0.25895000  1.0
  C  C49  1  0.70583000  0.64103000  0.75895000  1.0
  C  C50  1  0.17153000  0.97174000  0.24637000  1.0
  C  C51  1  0.67153000  0.02827000  0.74638000  1.0
  N  N52  1  0.17803000  0.30102000  0.86867000  1.0
  N  N53  1  0.67804000  0.69897000  0.36867000  1.0
  N  N54  1  0.62787000  0.24370000  0.20723000  1.0
  N  N55  1  0.12787000  0.75629000  0.70723000  1.0
  N  N56  1  0.78487000  0.21748000  0.28513000  1.0
  N  N57  1  0.28489000  0.78251000  0.78514000  1.0
  N  N58  1  0.02572000  0.29659000  0.62902000  1.0
  N  N59  1  0.52574000  0.70341000  0.12902000  1.0
  N  N60  1  0.30202000  0.47510000  0.26306000  1.0
  N  N61  1  0.80202000  0.52489000  0.76306000  1.0
  N  N62  1  0.25925000  0.85178000  0.25538000  1.0
  N  N63  1  0.75924000  0.14822000  0.75539000  1.0
  O  O64  1  0.84321000  0.21204000  0.10190000  1.0
  O  O65  1  0.34320000  0.78798000  0.60190000  1.0
