# generated using pymatgen
data_CuH9C5N3Cl2
_symmetry_space_group_name_H-M   'P 1'
_cell_length_a   5.83617000
_cell_length_b   8.51033000
_cell_length_c   8.89072000
_cell_angle_alpha   79.12380000
_cell_angle_beta   89.39030000
_cell_angle_gamma   80.74390000
_symmetry_Int_Tables_number   1
_chemical_formula_structural   CuH9C5N3Cl2
_chemical_formula_sum   'Cu2 H18 C10 N6 Cl4'
_cell_volume   427.91490457
_cell_formula_units_Z   2
loop_
 _symmetry_equiv_pos_site_id
 _symmetry_equiv_pos_as_xyz
  1  'x, y, z'
loop_
 _atom_site_type_symbol
 _atom_site_label
 _atom_site_symmetry_multiplicity
 _atom_site_fract_x
 _atom_site_fract_y
 _atom_site_fract_z
 _atom_site_occupancy
  Cu  Cu0  1  0.75422000  0.47039000  0.11793000  1.0
  Cu  Cu1  1  0.24579000  0.52961000  0.88208000  1.0
  H  H2  1  0.67021000  0.23781000  0.00304000  1.0
  H  H3  1  0.32979000  0.76220000  0.99696000  1.0
  H  H4  1  0.94966000  0.25847000  0.98179000  1.0
  H  H5  1  0.05035000  0.74153000  0.01821000  1.0
  H  H6  1  0.06115000  0.11300000  0.22407000  1.0
  H  H7  1  0.93885000  0.88700000  0.77594000  1.0
  H  H8  1  0.90243000  0.99241000  0.13329000  1.0
  H  H9  1  0.09757000  0.00759000  0.86671000  1.0
  H  H10  1  0.53924000  0.11192000  0.25966000  1.0
  H  H11  1  0.46077000  0.88808000  0.74033000  1.0
  H  H12  1  0.74722000  0.97479000  0.38335000  1.0
  H  H13  1  0.25277000  0.02521000  0.61664000  1.0
  H  H14  1  0.70628000  0.10807000  0.65377000  1.0
  H  H15  1  0.29372000  0.89192000  0.34623000  1.0
  H  H16  1  0.74444000  0.39529000  0.69486000  1.0
  H  H17  1  0.25557000  0.60470000  0.30514000  1.0
  H  H18  1  0.77252000  0.58710000  0.44177000  1.0
  H  H19  1  0.22748000  0.41289000  0.55823000  1.0
  C  C20  1  0.88902000  0.10379000  0.18107000  1.0
  C  C21  1  0.11099000  0.89621000  0.81893000  1.0
  C  C22  1  0.71504000  0.09589000  0.31063000  1.0
  C  C23  1  0.28496000  0.90411000  0.68937000  1.0
  C  C24  1  0.72873000  0.22105000  0.40550000  1.0
  C  C25  1  0.27127000  0.77895000  0.59450000  1.0
  C  C26  1  0.72668000  0.20817000  0.56235000  1.0
  C  C27  1  0.27332000  0.79183000  0.43765000  1.0
  C  C28  1  0.76119000  0.45954000  0.45532000  1.0
  C  C29  1  0.23880000  0.54046000  0.54469000  1.0
  N  N30  1  0.81906000  0.24708000  0.06015000  1.0
  N  N31  1  0.18094000  0.75293000  0.93985000  1.0
  N  N32  1  0.74824000  0.35889000  0.59055000  1.0
  N  N33  1  0.25176000  0.64111000  0.40945000  1.0
  N  N34  1  0.75051000  0.37968000  0.34079000  1.0
  N  N35  1  0.24948000  0.62033000  0.65922000  1.0
  Cl  Cl36  1  0.74507000  0.56575000  0.85527000  1.0
  Cl  Cl37  1  0.25494000  0.43425000  0.14473000  1.0
  Cl  Cl38  1  0.68594000  0.73658000  0.15022000  1.0
  Cl  Cl39  1  0.31407000  0.26342000  0.84979000  1.0
