# generated using pymatgen
data_CdH14C16S2(N2O)2
_symmetry_space_group_name_H-M   'P 1'
_cell_length_a   5.69431000
_cell_length_b   12.55533543
_cell_length_c   14.39580000
_cell_angle_alpha   67.84919885
_cell_angle_beta   78.64300000
_cell_angle_gamma   76.97126521
_symmetry_Int_Tables_number   1
_chemical_formula_structural   CdH14C16S2(N2O)2
_chemical_formula_sum   'Cd2 H28 C32 S4 N8 O4'
_cell_volume   921.54078872
_cell_formula_units_Z   2
loop_
 _symmetry_equiv_pos_site_id
 _symmetry_equiv_pos_as_xyz
  1  'x, y, z'
loop_
 _atom_site_type_symbol
 _atom_site_label
 _atom_site_symmetry_multiplicity
 _atom_site_fract_x
 _atom_site_fract_y
 _atom_site_fract_z
 _atom_site_occupancy
  Cd  Cd0  1  0.00000000  0.00000000  0.99999000  1.0
  Cd  Cd1  1  0.99999000  0.50000000  0.50000000  1.0
  H  H2  1  0.35802000  0.20090000  0.88371000  1.0
  H  H3  1  0.44249000  0.29933000  0.61638000  1.0
  H  H4  1  0.64198000  0.79909000  0.11629000  1.0
  H  H5  1  0.55748000  0.70068000  0.38361000  1.0
  H  H6  1  0.34255000  0.41417000  0.83110000  1.0
  H  H7  1  0.58758000  0.08615000  0.66863000  1.0
  H  H8  1  0.65748000  0.58581000  0.16890000  1.0
  H  H9  1  0.41242000  0.91386000  0.33137000  1.0
  H  H10  1  0.59433000  0.43737000  0.96955000  1.0
  H  H11  1  0.99925000  0.06263000  0.53088000  1.0
  H  H12  1  0.40571000  0.56264000  0.03045000  1.0
  H  H13  1  0.00074000  0.93737000  0.46912000  1.0
  H  H14  1  0.64442000  0.22173000  0.01962000  1.0
  H  H15  1  0.88431000  0.27819000  0.48093000  1.0
  H  H16  1  0.35557000  0.77828000  0.98038000  1.0
  H  H17  1  0.11565000  0.72181000  0.51907000  1.0
  H  H18  1  0.09500000  0.72900000  0.79661000  1.0
  H  H19  1  0.61928000  0.77117000  0.70296000  1.0
  H  H20  1  0.90504000  0.27099000  0.20339000  1.0
  H  H21  1  0.38070000  0.22884000  0.29704000  1.0
  H  H22  1  0.18987000  0.62486000  0.73382000  1.0
  H  H23  1  0.54855000  0.87542000  0.76567000  1.0
  H  H24  1  0.81016000  0.37514000  0.26618000  1.0
  H  H25  1  0.45141000  0.12458000  0.23433000  1.0
  H  H26  1  0.30857000  0.59926000  0.84605000  1.0
  H  H27  1  0.75288000  0.90094000  0.65324000  1.0
  H  H28  1  0.69146000  0.40073000  0.15395000  1.0
  H  H29  1  0.24711000  0.09906000  0.34676000  1.0
  C  C30  1  0.57352000  0.00445000  0.87428000  1.0
  C  C31  1  0.45326000  0.49575000  0.62556000  1.0
  C  C32  1  0.42649000  0.99555000  0.12571000  1.0
  C  C33  1  0.54674000  0.50424000  0.37446000  1.0
  C  C34  1  0.19215000  0.25643000  0.90171000  1.0
  C  C35  1  0.34978000  0.24374000  0.59842000  1.0
  C  C36  1  0.80787000  0.74356000  0.09829000  1.0
  C  C37  1  0.65020000  0.75626000  0.40158000  1.0
  C  C38  1  0.18131000  0.37651000  0.87212000  1.0
  C  C39  1  0.42941000  0.12372000  0.62782000  1.0
  C  C40  1  0.81871000  0.62348000  0.12788000  1.0
  C  C41  1  0.57058000  0.87629000  0.37218000  1.0
  C  C42  1  0.96424000  0.44499000  0.89564000  1.0
  C  C43  1  0.30390000  0.05515000  0.60436000  1.0
  C  C44  1  0.03578000  0.55501000  0.10436000  1.0
  C  C45  1  0.69609000  0.94486000  0.39564000  1.0
  C  C46  1  0.76713000  0.38869000  0.94881000  1.0
  C  C47  1  0.10305000  0.11134000  0.55155000  1.0
  C  C48  1  0.23289000  0.61132000  0.05119000  1.0
  C  C49  1  0.89694000  0.88867000  0.44845000  1.0
  C  C50  1  0.79318000  0.26855000  0.97672000  1.0
  C  C51  1  0.03716000  0.23145000  0.52372000  1.0
  C  C52  1  0.20682000  0.73145000  0.02329000  1.0
  C  C53  1  0.96280000  0.76856000  0.47628000  1.0
  C  C54  1  0.93496000  0.57514000  0.86752000  1.0
  C  C55  1  0.37666000  0.92508000  0.63212000  1.0
  C  C56  1  0.06508000  0.42486000  0.13248000  1.0
  C  C57  1  0.62336000  0.07495000  0.36788000  1.0
  C  C58  1  0.14385000  0.63602000  0.80789000  1.0
  C  C59  1  0.58685000  0.86416000  0.69165000  1.0
  C  C60  1  0.85618000  0.36397000  0.19211000  1.0
  C  C61  1  0.41313000  0.13584000  0.30835000  1.0
  S  S62  1  0.83327000  0.04593000  0.82027000  1.0
  S  S63  1  0.70026000  0.45400000  0.67972000  1.0
  S  S64  1  0.16676000  0.95405000  0.17972000  1.0
  S  S65  1  0.29972000  0.54600000  0.32029000  1.0
  N  N66  1  0.38413000  0.97381000  0.91207000  1.0
  N  N67  1  0.27115000  0.52655000  0.58767000  1.0
  N  N68  1  0.61588000  0.02619000  0.08792000  1.0
  N  N69  1  0.72882000  0.47345000  0.41233000  1.0
  N  N70  1  0.00190000  0.20313000  0.95324000  1.0
  N  N71  1  0.15756000  0.29695000  0.54704000  1.0
  N  N72  1  0.99809000  0.79686000  0.04676000  1.0
  N  N73  1  0.84241000  0.70305000  0.45295000  1.0
  O  O74  1  0.73967000  0.62872000  0.89394000  1.0
  O  O75  1  0.26144000  0.87155000  0.60540000  1.0
  O  O76  1  0.26036000  0.37128000  0.10606000  1.0
  O  O77  1  0.73854000  0.12846000  0.39457000  1.0
