# generated using pymatgen
data_Al3H31C42(S3O16)2
_symmetry_space_group_name_H-M   'P 1'
_cell_length_a   13.85160000
_cell_length_b   13.96485455
_cell_length_c   27.03590000
_cell_angle_alpha   90.49803333
_cell_angle_beta   90.31510000
_cell_angle_gamma   60.37009678
_symmetry_Int_Tables_number   1
_chemical_formula_structural   Al3H31C42(S3O16)2
_chemical_formula_sum   'Al6 H62 C84 S12 O64'
_cell_volume   4545.67707903
_cell_formula_units_Z   2
loop_
 _symmetry_equiv_pos_site_id
 _symmetry_equiv_pos_as_xyz
  1  'x, y, z'
loop_
 _atom_site_type_symbol
 _atom_site_label
 _atom_site_symmetry_multiplicity
 _atom_site_fract_x
 _atom_site_fract_y
 _atom_site_fract_z
 _atom_site_occupancy
  Al  Al0  1  0.82580000  0.53761000  0.49633000  1.0
  Al  Al1  1  0.56250000  0.63315000  0.49762000  1.0
  Al  Al2  1  0.64343000  0.79532000  0.49842000  1.0
  Al  Al3  1  0.84243000  0.04682000  0.98643000  1.0
  Al  Al4  1  0.04180000  0.10093000  0.98561000  1.0
  Al  Al5  1  0.10118000  0.86395000  0.98568000  1.0
  H  H6  1  0.48192000  0.79406000  0.18737000  1.0
  H  H7  1  0.37570000  0.71788000  0.78294000  1.0
  H  H8  1  0.73461000  0.90922000  0.77932000  1.0
  H  H9  1  0.91277000  0.37457000  0.77897000  1.0
  H  H10  1  0.40988000  0.99314000  0.71752000  1.0
  H  H11  1  0.00799000  0.59955000  0.71390000  1.0
  H  H12  1  0.59013000  0.41882000  0.72183000  1.0
  H  H13  1  0.25356000  0.06601000  0.76652000  1.0
  H  H14  1  0.08458000  0.68092000  0.76292000  1.0
  H  H15  1  0.67565000  0.26024000  0.76898000  1.0
  H  H16  1  0.19069000  0.09663000  0.85401000  1.0
  H  H17  1  0.79160000  0.73330000  0.18046000  1.0
  H  H18  1  0.11504000  0.71410000  0.85096000  1.0
  H  H19  1  0.72183000  0.19108000  0.85556000  1.0
  H  H20  1  0.31121000  0.74600000  0.70159000  1.0
  H  H21  1  0.76491000  0.94374000  0.70012000  1.0
  H  H22  1  0.93697000  0.30974000  0.69825000  1.0
  H  H23  1  0.37750000  0.71384000  0.61452000  1.0
  H  H24  1  0.72591000  0.90951000  0.61357000  1.0
  H  H25  1  0.89454000  0.37727000  0.61133000  1.0
  H  H26  1  0.20603000  0.06452000  0.29555000  1.0
  H  H27  1  0.05588000  0.72820000  0.29510000  1.0
  H  H28  1  0.73056000  0.49089000  0.18440000  1.0
  H  H29  1  0.70590000  0.22537000  0.28601000  1.0
  H  H30  1  0.38075000  0.76196000  0.28102000  1.0
  H  H31  1  0.75012000  0.86253000  0.26819000  1.0
  H  H32  1  0.84538000  0.39568000  0.27841000  1.0
  H  H33  1  0.31957000  0.78431000  0.20014000  1.0
  H  H34  1  0.80035000  0.90215000  0.19241000  1.0
  H  H35  1  0.90238000  0.31398000  0.20086000  1.0
  H  H36  1  0.50388000  0.07145000  0.19717000  1.0
  H  H37  1  0.05102000  0.42673000  0.19391000  1.0
  H  H38  1  0.43328000  0.50931000  0.18377000  1.0
  H  H39  1  0.19275000  0.90352000  0.21485000  1.0
  H  H40  1  0.53521000  0.79334000  0.26911000  1.0
  H  H41  1  0.77908000  0.67944000  0.25997000  1.0
  H  H42  1  0.66632000  0.54742000  0.26490000  1.0
  H  H43  1  0.31002000  0.74999000  0.87006000  1.0
  H  H44  1  0.76688000  0.94362000  0.86695000  1.0
  H  H45  1  0.95963000  0.30287000  0.86502000  1.0
  H  H46  1  0.51224000  0.92961000  0.26573000  1.0
  H  H47  1  0.91606000  0.56572000  0.25905000  1.0
  H  H48  1  0.55052000  0.52769000  0.25574000  1.0
  H  H49  1  0.44356000  0.17376000  0.29107000  1.0
  H  H50  1  0.92490000  0.89091000  0.21554000  1.0
  H  H51  1  0.14130000  0.38987000  0.29933000  1.0
  H  H52  1  0.36386000  0.47579000  0.28883000  1.0
  H  H53  1  0.34110000  0.08750000  0.12174000  1.0
  H  H54  1  0.09544000  0.56330000  0.12121000  1.0
  H  H55  1  0.58558000  0.34990000  0.10750000  1.0
  H  H56  1  0.17009000  0.08096000  0.21541000  1.0
  H  H57  1  0.08978000  0.73570000  0.21609000  1.0
  H  H58  1  0.73607000  0.18658000  0.20666000  1.0
  H  H59  1  0.03407000  0.92252000  0.30219000  1.0
  H  H60  1  0.83732000  0.08631000  0.29729000  1.0
  H  H61  1  0.88814000  0.19924000  0.21628000  1.0
  H  H62  1  0.04269000  0.07070000  0.28799000  1.0
  H  H63  1  0.47640000  0.95957000  0.63052000  1.0
  H  H64  1  0.96809000  0.56692000  0.62697000  1.0
  H  H65  1  0.54909000  0.48605000  0.63491000  1.0
  H  H66  1  0.00827000  0.41894000  0.46909000  1.0
  H  H67  1  0.67534000  0.04711000  0.96967000  1.0
  C  C68  1  0.80721000  0.70964000  0.42575000  1.0
  C  C69  1  0.28967000  0.93949000  0.14202000  1.0
  C  C70  1  0.95356000  0.76284000  0.13942000  1.0
  C  C71  1  0.77753000  0.30106000  0.13773000  1.0
  C  C72  1  0.40535000  0.89748000  0.34089000  1.0
  C  C73  1  0.87803000  0.70919000  0.33498000  1.0
  C  C74  1  0.67804000  0.41657000  0.33483000  1.0
  C  C75  1  0.44038000  0.86052000  0.38164000  1.0
  C  C76  1  0.84295000  0.71461000  0.37641000  1.0
  C  C77  1  0.67976000  0.44465000  0.37723000  1.0
  C  C78  1  0.87181000  0.20470000  0.05325000  1.0
  C  C79  1  0.68595000  0.48343000  0.42616000  1.0
  C  C80  1  0.20048000  0.94494000  0.05435000  1.0
  C  C81  1  0.95918000  0.85206000  0.05417000  1.0
  C  C82  1  0.43045000  0.83512000  0.61706000  1.0
  C  C83  1  0.84464000  0.73624000  0.61556000  1.0
  C  C84  1  0.71948000  0.43579000  0.61823000  1.0
  C  C85  1  0.43878000  0.91427000  0.64629000  1.0
  C  C86  1  0.92528000  0.64901000  0.64354000  1.0
  C  C87  1  0.63376000  0.44664000  0.64916000  1.0
  C  C88  1  0.40122000  0.93278000  0.69489000  1.0
  C  C89  1  0.94724000  0.66795000  0.69174000  1.0
  C  C90  1  0.48251000  0.81633000  0.42982000  1.0
  C  C91  1  0.65724000  0.40870000  0.69756000  1.0
  C  C92  1  0.35613000  0.87167000  0.71605000  1.0
  C  C93  1  0.88828000  0.77371000  0.71315000  1.0
  C  C94  1  0.76627000  0.36056000  0.71628000  1.0
  C  C95  1  0.81327000  0.71431000  0.56601000  1.0
  C  C96  1  0.69810000  0.48172000  0.56749000  1.0
  C  C97  1  0.47921000  0.80765000  0.56670000  1.0
  C  C98  1  0.34782000  0.79278000  0.68630000  1.0
  C  C99  1  0.80898000  0.86086000  0.68437000  1.0
  C  C100  1  0.85163000  0.34947000  0.68469000  1.0
  C  C101  1  0.28298000  0.86392000  0.21950000  1.0
  C  C102  1  0.38369000  0.77515000  0.63741000  1.0
  C  C103  1  0.78760000  0.84256000  0.63601000  1.0
  C  C104  1  0.82891000  0.38598000  0.63619000  1.0
  C  C105  1  0.33423000  0.80129000  0.79820000  1.0
  C  C106  1  0.81828000  0.86720000  0.79479000  1.0
  C  C107  1  0.87165000  0.33319000  0.79546000  1.0
  C  C108  1  0.29882000  0.81856000  0.84714000  1.0
  C  C109  1  0.83536000  0.88570000  0.84374000  1.0
  C  C110  1  0.89750000  0.29416000  0.84362000  1.0
  C  C111  1  0.23263000  0.01381000  0.83825000  1.0
  C  C112  1  0.87346000  0.85128000  0.21526000  1.0
  C  C113  1  0.03203000  0.75538000  0.83489000  1.0
  C  C114  1  0.76232000  0.23207000  0.83821000  1.0
  C  C115  1  0.26828000  0.99609000  0.78937000  1.0
  C  C116  1  0.01449000  0.73699000  0.78593000  1.0
  C  C117  1  0.73658000  0.27144000  0.79022000  1.0
  C  C118  1  0.31937000  0.88968000  0.76825000  1.0
  C  C119  1  0.90748000  0.79270000  0.76504000  1.0
  C  C120  1  0.79137000  0.32186000  0.76780000  1.0
  C  C121  1  0.24735000  0.92516000  0.86767000  1.0
  C  C122  1  0.94249000  0.82985000  0.86413000  1.0
  C  C123  1  0.84702000  0.28941000  0.21853000  1.0
  C  C124  1  0.84352000  0.24249000  0.86520000  1.0
  C  C125  1  0.87514000  0.19213000  0.91491000  1.0
  C  C126  1  0.20031000  0.94540000  0.91826000  1.0
  C  C127  1  0.96029000  0.85622000  0.91533000  1.0
  C  C128  1  0.47576000  0.87739000  0.25736000  1.0
  C  C129  1  0.86560000  0.65333000  0.25046000  1.0
  C  C130  1  0.64044000  0.48966000  0.25073000  1.0
  C  C131  1  0.28429000  0.04327000  0.27680000  1.0
  C  C132  1  0.03397000  0.67241000  0.27552000  1.0
  C  C133  1  0.65430000  0.30249000  0.26643000  1.0
  C  C134  1  0.31659000  0.84791000  0.27429000  1.0
  C  C135  1  0.25883000  0.05389000  0.21954000  1.0
  C  C136  1  0.05581000  0.67961000  0.21907000  1.0
  C  C137  1  0.67627000  0.27516000  0.20957000  1.0
  C  C138  1  0.25470000  0.93550000  0.10124000  1.0
  C  C139  1  0.95295000  0.80189000  0.09950000  1.0
  C  C140  1  0.82626000  0.26337000  0.09908000  1.0
  C  C141  1  0.36894000  0.92042000  0.28957000  1.0
  C  C142  1  0.90654000  0.71671000  0.28428000  1.0
  C  C143  1  0.69606000  0.38409000  0.28305000  1.0
  C  C144  1  0.44987000  0.87832000  0.20178000  1.0
  C  C145  1  0.83829000  0.83958000  0.26728000  1.0
  C  C146  1  0.87424000  0.67672000  0.19560000  1.0
  C  C147  1  0.67375000  0.46151000  0.19597000  1.0
  C  C148  1  0.32255000  0.93843000  0.19346000  1.0
  C  C149  1  0.94362000  0.73545000  0.19014000  1.0
  C  C150  1  0.73689000  0.33497000  0.18787000  1.0
  C  C151  1  0.82338000  0.33103000  0.27190000  1.0
  S  S152  1  0.53353000  0.91848000  0.16413000  1.0
  S  S153  1  0.20870000  0.85240000  0.31496000  1.0
  S  S154  1  0.84289000  0.93508000  0.31211000  1.0
  S  S155  1  0.91273000  0.22765000  0.31707000  1.0
  S  S156  1  0.90897000  0.55633000  0.15619000  1.0
  S  S157  1  0.55716000  0.54475000  0.15430000  1.0
  S  S158  1  0.30812000  0.14468000  0.31234000  1.0
  S  S159  1  0.12450000  0.55004000  0.31385000  1.0
  S  S160  1  0.52434000  0.32932000  0.29733000  1.0
  S  S161  1  0.26029000  0.17048000  0.18809000  1.0
  S  S162  1  0.17104000  0.55627000  0.19071000  1.0
  S  S163  1  0.56341000  0.27681000  0.17190000  1.0
  O  O164  1  0.77513000  0.48117000  0.43747000  1.0
  O  O165  1  0.78205000  0.46472000  0.54261000  1.0
  O  O166  1  0.46052000  0.74177000  0.54009000  1.0
  O  O167  1  0.74353000  0.80010000  0.54098000  1.0
  O  O168  1  0.85187000  0.61568000  0.55208000  1.0
  O  O169  1  0.59657000  0.53907000  0.55239000  1.0
  O  O170  1  0.54164000  0.84622000  0.55332000  1.0
  O  O171  1  0.67586000  0.65675000  0.49685000  1.0
  O  O172  1  0.99709000  0.00316000  0.98687000  1.0
  O  O173  1  0.81887000  0.16203000  0.03400000  1.0
  O  O174  1  0.16046000  0.03781000  0.03268000  1.0
  O  O175  1  0.48214000  0.72846000  0.44194000  1.0
  O  O176  1  0.05031000  0.79762000  0.02948000  1.0
  O  O177  1  0.87695000  0.92705000  0.93946000  1.0
  O  O178  1  0.95075000  0.20233000  0.93907000  1.0
  O  O179  1  0.20784000  0.86322000  0.94237000  1.0
  O  O180  1  0.82876000  0.13954000  0.93008000  1.0
  O  O181  1  0.14979000  0.04488000  0.93460000  1.0
  O  O182  1  0.06119000  0.80766000  0.93174000  1.0
  O  O183  1  0.63695000  0.81943000  0.15582000  1.0
  O  O184  1  0.46954000  0.98166000  0.12180000  1.0
  O  O185  1  0.56273000  0.99188000  0.19877000  1.0
  O  O186  1  0.72439000  0.79765000  0.44295000  1.0
  O  O187  1  0.80546000  0.56243000  0.14348000  1.0
  O  O188  1  0.98337000  0.54859000  0.11677000  1.0
  O  O189  1  0.96951000  0.45294000  0.19103000  1.0
  O  O190  1  0.55442000  0.64822000  0.14898000  1.0
  O  O191  1  0.56573000  0.48061000  0.11034000  1.0
  O  O192  1  0.44858000  0.57302000  0.18376000  1.0
  O  O193  1  0.23564000  0.25348000  0.29274000  1.0
  O  O194  1  0.29598000  0.12294000  0.36282000  1.0
  O  O195  1  0.43273000  0.11023000  0.30176000  1.0
  O  O196  1  0.23778000  0.49858000  0.29620000  1.0
  O  O197  1  0.87793000  0.94477000  0.04378000  1.0
  O  O198  1  0.10215000  0.58961000  0.36369000  1.0
  O  O199  1  0.07892000  0.46786000  0.30355000  1.0
  O  O200  1  0.48369000  0.26218000  0.27367000  1.0
  O  O201  1  0.55021000  0.31259000  0.34898000  1.0
  O  O202  1  0.44494000  0.45417000  0.28522000  1.0
  O  O203  1  0.15218000  0.26240000  0.19712000  1.0
  O  O204  1  0.36009000  0.17337000  0.20137000  1.0
  O  O205  1  0.26319000  0.14536000  0.13137000  1.0
  O  O206  1  0.26778000  0.56249000  0.20404000  1.0
  O  O207  1  0.16022000  0.46107000  0.20224000  1.0
  O  O208  1  0.96258000  0.19776000  0.03738000  1.0
  O  O209  1  0.15695000  0.57643000  0.13350000  1.0
  O  O210  1  0.57107000  0.17216000  0.17966000  1.0
  O  O211  1  0.46059000  0.37802000  0.18110000  1.0
  O  O212  1  0.59968000  0.27455000  0.11706000  1.0
  O  O213  1  0.21726000  0.74563000  0.31041000  1.0
  O  O214  1  0.20723000  0.90059000  0.36209000  1.0
  O  O215  1  0.09296000  0.93858000  0.28622000  1.0
  O  O216  1  0.75842000  0.96546000  0.34858000  1.0
  O  O217  1  0.95820000  0.89132000  0.32901000  1.0
  O  O218  1  0.81762000  0.03536000  0.27692000  1.0
  O  O219  1  0.19269000  0.86195000  0.03953000  1.0
  O  O220  1  0.94178000  0.27900000  0.35556000  1.0
  O  O221  1  0.86334000  0.15946000  0.33035000  1.0
  O  O222  1  0.01875000  0.15191000  0.28406000  1.0
  O  O223  1  0.85943000  0.61739000  0.44671000  1.0
  O  O224  1  0.59746000  0.52043000  0.45304000  1.0
  O  O225  1  0.52100000  0.86672000  0.45604000  1.0
  O  O226  1  0.96132000  0.42617000  0.49683000  1.0
  O  O227  1  0.70027000  0.08994000  0.98851000  1.0
