# generated using pymatgen
data_MnH31C34NO12
_symmetry_space_group_name_H-M   'P 1'
_cell_length_a   10.23060000
_cell_length_b   13.35110000
_cell_length_c   13.51090000
_cell_angle_alpha   76.57580000
_cell_angle_beta   78.67730000
_cell_angle_gamma   79.09230000
_symmetry_Int_Tables_number   1
_chemical_formula_structural   MnH31C34NO12
_chemical_formula_sum   'Mn2 H62 C68 N2 O24'
_cell_volume   1740.01461087
_cell_formula_units_Z   2
loop_
 _symmetry_equiv_pos_site_id
 _symmetry_equiv_pos_as_xyz
  1  'x, y, z'
loop_
 _atom_site_type_symbol
 _atom_site_label
 _atom_site_symmetry_multiplicity
 _atom_site_fract_x
 _atom_site_fract_y
 _atom_site_fract_z
 _atom_site_occupancy
  Mn  Mn0  1  0.05531000  0.15650000  0.70842000  1.0
  Mn  Mn1  1  0.94469000  0.84349000  0.29158000  1.0
  H  H2  1  0.14369000  0.96248000  0.99621000  1.0
  H  H3  1  0.85631000  0.03752000  0.00380000  1.0
  H  H4  1  0.54229000  0.96252000  0.81721000  1.0
  H  H5  1  0.45770000  0.03749000  0.18279000  1.0
  H  H6  1  0.48560000  0.78542000  0.12982000  1.0
  H  H7  1  0.51442000  0.21458000  0.87017000  1.0
  H  H8  1  0.71130000  0.78187000  0.10291000  1.0
  H  H9  1  0.28870000  0.21813000  0.89709000  1.0
  H  H10  1  0.65774000  0.68758000  0.05044000  1.0
  H  H11  1  0.34225000  0.31243000  0.94955000  1.0
  H  H12  1  0.81919000  0.61796000  0.89957000  1.0
  H  H13  1  0.18081000  0.38205000  0.10042000  1.0
  H  H14  1  0.05589000  0.55743000  0.83660000  1.0
  H  H15  1  0.94412000  0.44259000  0.16338000  1.0
  H  H16  1  0.17866000  0.73341000  0.02433000  1.0
  H  H17  1  0.82134000  0.26659000  0.97568000  1.0
  H  H18  1  0.94301000  0.79838000  0.08104000  1.0
  H  H19  1  0.05699000  0.20162000  0.91896000  1.0
  H  H20  1  0.24235000  0.46816000  0.84253000  1.0
  H  H21  1  0.75765000  0.53184000  0.15747000  1.0
  H  H22  1  0.48238000  0.40164000  0.79127000  1.0
  H  H23  1  0.51762000  0.59836000  0.20873000  1.0
  H  H24  1  0.59664000  0.65457000  0.88612000  1.0
  H  H25  1  0.40337000  0.34543000  0.11389000  1.0
  H  H26  1  0.35894000  0.72465000  0.93179000  1.0
  H  H27  1  0.64107000  0.27534000  0.06823000  1.0
  H  H28  1  0.76027000  0.47091000  0.87030000  1.0
  H  H29  1  0.23973000  0.52909000  0.12970000  1.0
  H  H30  1  0.71290000  0.40429000  0.78521000  1.0
  H  H31  1  0.28711000  0.59570000  0.21479000  1.0
  H  H32  1  0.85291000  0.67451000  0.56148000  1.0
  H  H33  1  0.14710000  0.32549000  0.43852000  1.0
  H  H34  1  0.26007000  0.50948000  0.54087000  1.0
  H  H35  1  0.73994000  0.49051000  0.45913000  1.0
  H  H36  1  0.94533000  0.38722000  0.77588000  1.0
  H  H37  1  0.05468000  0.61277000  0.22413000  1.0
  H  H38  1  0.04897000  0.93549000  0.81660000  1.0
  H  H39  1  0.95102000  0.06451000  0.18340000  1.0
  H  H40  1  0.00801000  0.82600000  0.78015000  1.0
  H  H41  1  0.99198000  0.17401000  0.21984000  1.0
  H  H42  1  0.88453000  0.89962000  0.85638000  1.0
  H  H43  1  0.11545000  0.10039000  0.14361000  1.0
  H  H44  1  0.84864000  0.79112000  0.65636000  1.0
  H  H45  1  0.15132000  0.20891000  0.34364000  1.0
  H  H46  1  0.68211000  0.86263000  0.66883000  1.0
  H  H47  1  0.31787000  0.13739000  0.33116000  1.0
  H  H48  1  0.77102000  0.82924000  0.77513000  1.0
  H  H49  1  0.22895000  0.17078000  0.22487000  1.0
  H  H50  1  0.67490000  0.04172000  0.58202000  1.0
  H  H51  1  0.32508000  0.95830000  0.41798000  1.0
  H  H52  1  0.80965000  0.98086000  0.49909000  1.0
  H  H53  1  0.19033000  0.01916000  0.50091000  1.0
  H  H54  1  0.83217000  0.09121000  0.54537000  1.0
  H  H55  1  0.16782000  0.90881000  0.45463000  1.0
  H  H56  1  0.24355000  0.73588000  0.34201000  1.0
  H  H57  1  0.75646000  0.26412000  0.65800000  1.0
  H  H58  1  0.37648000  0.27061000  0.69219000  1.0
  H  H59  1  0.62353000  0.72938000  0.30780000  1.0
  H  H60  1  0.23265000  0.20240000  0.55254000  1.0
  H  H61  1  0.76736000  0.79759000  0.44746000  1.0
  H  H62  1  0.29829000  0.11348000  0.64311000  1.0
  H  H63  1  0.70171000  0.88652000  0.35690000  1.0
  C  C64  1  0.22453000  0.83384000  0.17467000  1.0
  C  C65  1  0.77547000  0.16615000  0.82533000  1.0
  C  C66  1  0.30739000  0.87042000  0.07251000  1.0
  C  C67  1  0.69262000  0.12958000  0.92749000  1.0
  C  C68  1  0.25190000  0.93630000  0.98950000  1.0
  C  C69  1  0.74810000  0.06370000  0.01050000  1.0
  C  C70  1  0.33826000  0.96941000  0.89771000  1.0
  C  C71  1  0.66174000  0.03059000  0.10230000  1.0
  C  C72  1  0.47715000  0.93528000  0.88866000  1.0
  C  C73  1  0.52285000  0.06473000  0.11134000  1.0
  C  C74  1  0.53131000  0.86632000  0.97048000  1.0
  C  C75  1  0.46870000  0.13368000  0.02952000  1.0
  C  C76  1  0.44708000  0.83567000  0.06303000  1.0
  C  C77  1  0.55293000  0.16433000  0.93697000  1.0
  C  C78  1  0.28693000  0.03963000  0.80562000  1.0
  C  C79  1  0.71307000  0.96037000  0.19438000  1.0
  C  C80  1  0.71943000  0.75059000  0.03302000  1.0
  C  C81  1  0.28056000  0.24941000  0.96697000  1.0
  C  C82  1  0.86361000  0.71208000  0.99547000  1.0
  C  C83  1  0.13640000  0.28793000  0.00453000  1.0
  C  C84  1  0.89834000  0.64382000  0.92660000  1.0
  C  C85  1  0.10167000  0.35618000  0.07339000  1.0
  C  C86  1  0.03277000  0.60900000  0.89154000  1.0
  C  C87  1  0.96724000  0.39100000  0.10845000  1.0
  C  C88  1  0.13754000  0.63962000  0.92610000  1.0
  C  C89  1  0.86246000  0.36038000  0.07390000  1.0
  C  C90  1  0.10123000  0.70799000  0.99525000  1.0
  C  C91  1  0.89876000  0.29201000  0.00476000  1.0
  C  C92  1  0.96697000  0.74456000  0.02840000  1.0
  C  C93  1  0.03303000  0.25544000  0.97159000  1.0
  C  C94  1  0.28104000  0.60039000  0.89330000  1.0
  C  C95  1  0.71896000  0.39959000  0.10671000  1.0
  C  C96  1  0.31940000  0.50972000  0.85226000  1.0
  C  C97  1  0.68060000  0.49027000  0.14774000  1.0
  C  C98  1  0.45478000  0.47120000  0.82459000  1.0
  C  C99  1  0.54522000  0.52880000  0.17542000  1.0
  C  C100  1  0.55624000  0.52106000  0.83839000  1.0
  C  C101  1  0.44376000  0.47894000  0.16162000  1.0
  C  C102  1  0.51915000  0.61260000  0.87752000  1.0
  C  C103  1  0.48085000  0.38740000  0.12248000  1.0
  C  C104  1  0.38418000  0.65204000  0.90377000  1.0
  C  C105  1  0.61583000  0.34795000  0.09624000  1.0
  C  C106  1  0.70162000  0.48017000  0.80747000  1.0
  C  C107  1  0.29838000  0.51983000  0.19253000  1.0
  C  C108  1  0.88495000  0.53602000  0.67737000  1.0
  C  C109  1  0.11505000  0.46397000  0.32263000  1.0
  C  C110  1  0.92708000  0.61043000  0.59096000  1.0
  C  C111  1  0.07293000  0.38955000  0.40904000  1.0
  C  C112  1  0.06146000  0.60150000  0.54234000  1.0
  C  C113  1  0.93855000  0.39849000  0.45766000  1.0
  C  C114  1  0.15595000  0.51724000  0.57955000  1.0
  C  C115  1  0.84406000  0.48274000  0.42046000  1.0
  C  C116  1  0.11115000  0.43924000  0.66160000  1.0
  C  C117  1  0.88886000  0.56075000  0.33840000  1.0
  C  C118  1  0.97558000  0.44891000  0.71188000  1.0
  C  C119  1  0.02442000  0.55109000  0.28812000  1.0
  C  C120  1  0.09867000  0.67821000  0.44766000  1.0
  C  C121  1  0.90135000  0.32179000  0.55234000  1.0
  C  C122  1  0.19770000  0.34198000  0.69394000  1.0
  C  C123  1  0.80231000  0.65801000  0.30606000  1.0
  C  C124  1  0.97029000  0.90534000  0.79322000  1.0
  C  C125  1  0.02970000  0.09467000  0.20678000  1.0
  C  C126  1  0.92728000  0.97654000  0.69843000  1.0
  C  C127  1  0.07270000  0.02347000  0.30156000  1.0
  C  C128  1  0.78183000  0.85312000  0.69115000  1.0
  C  C129  1  0.21814000  0.14691000  0.30885000  1.0
  C  C130  1  0.78498000  0.02086000  0.56430000  1.0
  C  C131  1  0.21501000  0.97916000  0.43570000  1.0
  N  N132  1  0.83328000  0.95212000  0.65512000  1.0
  N  N133  1  0.16670000  0.04790000  0.34487000  1.0
  O  O134  1  0.37239000  0.07599000  0.72958000  1.0
  O  O135  1  0.62761000  0.92402000  0.27042000  1.0
  O  O136  1  0.15796000  0.05698000  0.80896000  1.0
  O  O137  1  0.84204000  0.94301000  0.19105000  1.0
  O  O138  1  0.09634000  0.84264000  0.17815000  1.0
  O  O139  1  0.90367000  0.15735000  0.82185000  1.0
  O  O140  1  0.28905000  0.79535000  0.24974000  1.0
  O  O141  1  0.71097000  0.20465000  0.75026000  1.0
  O  O142  1  0.66720000  0.83224000  0.95309000  1.0
  O  O143  1  0.33281000  0.16777000  0.04690000  1.0
  O  O144  1  0.75307000  0.55589000  0.72020000  1.0
  O  O145  1  0.24693000  0.44410000  0.27980000  1.0
  O  O146  1  0.00496000  0.73463000  0.40258000  1.0
  O  O147  1  0.99506000  0.26537000  0.59741000  1.0
  O  O148  1  0.22684000  0.68134000  0.41508000  1.0
  O  O149  1  0.77317000  0.31866000  0.58493000  1.0
  O  O150  1  0.33304000  0.34331000  0.67386000  1.0
  O  O151  1  0.66696000  0.65668000  0.32613000  1.0
  O  O152  1  0.15491000  0.25809000  0.73901000  1.0
  O  O153  1  0.84510000  0.74189000  0.26100000  1.0
  O  O154  1  0.97708000  0.05991000  0.65627000  1.0
  O  O155  1  0.02292000  0.94009000  0.34372000  1.0
  O  O156  1  0.22317000  0.13389000  0.59561000  1.0
  O  O157  1  0.77684000  0.86611000  0.40440000  1.0
