# generated using pymatgen
data_MnH9C8NO6
_symmetry_space_group_name_H-M   'P 1'
_cell_length_a   5.17564000
_cell_length_b   9.61332000
_cell_length_c   10.10040000
_cell_angle_alpha   73.39500000
_cell_angle_beta   87.66600000
_cell_angle_gamma   87.95850000
_symmetry_Int_Tables_number   1
_chemical_formula_structural   MnH9C8NO6
_chemical_formula_sum   'Mn2 H18 C16 N2 O12'
_cell_volume   481.03836051
_cell_formula_units_Z   2
loop_
 _symmetry_equiv_pos_site_id
 _symmetry_equiv_pos_as_xyz
  1  'x, y, z'
loop_
 _atom_site_type_symbol
 _atom_site_label
 _atom_site_symmetry_multiplicity
 _atom_site_fract_x
 _atom_site_fract_y
 _atom_site_fract_z
 _atom_site_occupancy
  Mn  Mn0  1  0.93595000  0.19555000  0.30568000  1.0
  Mn  Mn1  1  0.44360000  0.79274000  0.70395000  1.0
  H  H2  1  0.57009000  0.94764000  0.05859000  1.0
  H  H3  1  0.05692000  0.07228000  0.95201000  1.0
  H  H4  1  0.16146000  0.61055000  0.12955000  1.0
  H  H5  1  0.66779000  0.38263000  0.87790000  1.0
  H  H6  1  0.29745000  0.67846000  0.33707000  1.0
  H  H7  1  0.80299000  0.31457000  0.66384000  1.0
  H  H8  1  0.52334000  0.08364000  0.21579000  1.0
  H  H9  1  0.99108000  0.95251000  0.78668000  1.0
  H  H10  1  0.61496000  0.00748000  0.37813000  1.0
  H  H11  1  0.12401000  0.00955000  0.62668000  1.0
  H  H12  1  0.26165000  0.38247000  0.24681000  1.0
  H  H13  1  0.71053000  0.55389000  0.64414000  1.0
  H  H14  1  0.36265000  0.29679000  0.39322000  1.0
  H  H15  1  0.90772000  0.68457000  0.59295000  1.0
  H  H16  1  0.59637000  0.37609000  0.14457000  1.0
  H  H17  1  0.07205000  0.60261000  0.85345000  1.0
  H  H18  1  0.85382000  0.45567000  0.11761000  1.0
  H  H19  1  0.33778000  0.53453000  0.90459000  1.0
  C  C20  1  0.10481000  0.89250000  0.43378000  1.0
  C  C21  1  0.61148000  0.11465000  0.56531000  1.0
  C  C22  1  0.01465000  0.85240000  0.31274000  1.0
  C  C23  1  0.50734000  0.15796000  0.68611000  1.0
  C  C24  1  0.80882000  0.92900000  0.23398000  1.0
  C  C25  1  0.29479000  0.08761000  0.76902000  1.0
  C  C26  1  0.73045000  0.88979000  0.11969000  1.0
  C  C27  1  0.22215000  0.12435000  0.88936000  1.0
  C  C28  1  0.85506000  0.77321000  0.08362000  1.0
  C  C29  1  0.35156000  0.23172000  0.92872000  1.0
  C  C30  1  0.06110000  0.69780000  0.16117000  1.0
  C  C31  1  0.56159000  0.30251000  0.84583000  1.0
  C  C32  1  0.13810000  0.73627000  0.27560000  1.0
  C  C33  1  0.63536000  0.26552000  0.72674000  1.0
  C  C34  1  0.76994000  0.72880000  0.96244000  1.0
  C  C35  1  0.26550000  0.27066000  0.05373000  1.0
  N  N36  1  0.68021000  0.04497000  0.27545000  1.0
  N  N37  1  0.16033000  0.98101000  0.73071000  1.0
  O  O38  1  0.76344000  0.37920000  0.19081000  1.0
  O  O39  1  0.25680000  0.60007000  0.82143000  1.0
  O  O40  1  0.10535000  0.02676000  0.43270000  1.0
  O  O41  1  0.60305000  0.98280000  0.56163000  1.0
  O  O42  1  0.18162000  0.79006000  0.53760000  1.0
  O  O43  1  0.71303000  0.21547000  0.46442000  1.0
  O  O44  1  0.66256000  0.82674000  0.86514000  1.0
  O  O45  1  0.13215000  0.17674000  0.14621000  1.0
  O  O46  1  0.81442000  0.59844000  0.95951000  1.0
  O  O47  1  0.32905000  0.39391000  0.07080000  1.0
  O  O48  1  0.20344000  0.33593000  0.34426000  1.0
  O  O49  1  0.72409000  0.65893000  0.61824000  1.0
