# generated using pymatgen
data_FeH22Au2(C6N)6
_symmetry_space_group_name_H-M   'P 1'
_cell_length_a   12.86380000
_cell_length_b   16.14550000
_cell_length_c   17.83850000
_cell_angle_alpha   110.17300000
_cell_angle_beta   111.11700000
_cell_angle_gamma   90.01880000
_symmetry_Int_Tables_number   1
_chemical_formula_structural   FeH22Au2(C6N)6
_chemical_formula_sum   'Fe4 H88 Au8 C144 N24'
_cell_volume   3211.11349219
_cell_formula_units_Z   4
loop_
 _symmetry_equiv_pos_site_id
 _symmetry_equiv_pos_as_xyz
  1  'x, y, z'
loop_
 _atom_site_type_symbol
 _atom_site_label
 _atom_site_symmetry_multiplicity
 _atom_site_fract_x
 _atom_site_fract_y
 _atom_site_fract_z
 _atom_site_occupancy
  Fe  Fe0  1  0.96243000  0.24044000  0.42859000  1.0
  Fe  Fe1  1  0.46601000  0.74046000  0.42859000  1.0
  Fe  Fe2  1  0.35685000  0.17518000  0.21807000  1.0
  Fe  Fe3  1  0.86129000  0.67487000  0.21779000  1.0
  H  H4  1  0.90270000  0.04619000  0.29354000  1.0
  H  H5  1  0.39057000  0.54634000  0.29366000  1.0
  H  H6  1  0.97658000  0.28855000  0.27885000  1.0
  H  H7  1  0.30230000  0.78866000  0.27877000  1.0
  H  H8  1  0.85345000  0.96588000  0.13692000  1.0
  H  H9  1  0.28361000  0.46598000  0.13701000  1.0
  H  H10  1  0.93304000  0.21883000  0.12170000  1.0
  H  H11  1  0.18866000  0.71880000  0.12162000  1.0
  H  H12  1  0.89534000  0.91156000  0.02194000  1.0
  H  H13  1  0.12656000  0.41163000  0.02193000  1.0
  H  H14  1  0.80282000  0.15816000  0.99120000  1.0
  H  H15  1  0.18873000  0.65823000  0.99127000  1.0
  H  H16  1  0.81839000  0.83509000  0.86557000  1.0
  H  H17  1  0.04718000  0.33520000  0.86554000  1.0
  H  H18  1  0.72779000  0.08281000  0.83544000  1.0
  H  H19  1  0.10802000  0.58293000  0.83550000  1.0
  H  H20  1  0.66964000  0.02135000  0.70884000  1.0
  H  H21  1  0.03901000  0.52161000  0.70887000  1.0
  H  H22  1  0.72852000  0.76921000  0.74108000  1.0
  H  H23  1  0.01320000  0.26935000  0.74111000  1.0
  H  H24  1  0.56377000  0.93650000  0.55459000  1.0
  H  H25  1  0.99079000  0.43685000  0.55463000  1.0
  H  H26  1  0.62037000  0.69530000  0.58447000  1.0
  H  H27  1  0.96436000  0.19553000  0.58442000  1.0
  H  H28  1  0.41101000  0.11650000  0.06162000  1.0
  H  H29  1  0.65071000  0.61656000  0.06171000  1.0
  H  H30  1  0.10446000  0.10261000  0.08641000  1.0
  H  H31  1  0.98229000  0.60287000  0.08672000  1.0
  H  H32  1  0.32297000  0.04575000  0.90254000  1.0
  H  H33  1  0.58015000  0.54599000  0.90292000  1.0
  H  H34  1  0.00068000  0.03298000  0.92689000  1.0
  H  H35  1  0.92676000  0.53336000  0.92745000  1.0
  H  H36  1  0.95518000  0.91931000  0.80323000  1.0
  H  H37  1  0.84835000  0.41927000  0.80347000  1.0
  H  H38  1  0.22938000  0.05116000  0.78218000  1.0
  H  H39  1  0.55365000  0.55155000  0.78259000  1.0
  H  H40  1  0.87659000  0.83775000  0.64579000  1.0
  H  H41  1  0.76936000  0.33766000  0.64602000  1.0
  H  H42  1  0.15026000  0.97113000  0.62521000  1.0
  H  H43  1  0.47536000  0.47123000  0.62568000  1.0
  H  H44  1  0.13985000  0.83548000  0.53260000  1.0
  H  H45  1  0.39306000  0.33591000  0.53305000  1.0
  H  H46  1  0.78994000  0.82864000  0.50254000  1.0
  H  H47  1  0.71300000  0.32864000  0.50301000  1.0
  H  H48  1  0.07426000  0.74540000  0.37589000  1.0
  H  H49  1  0.30186000  0.24567000  0.37605000  1.0
  H  H50  1  0.73931000  0.73810000  0.34719000  1.0
  H  H51  1  0.60809000  0.23800000  0.34744000  1.0
  H  H52  1  0.72479000  0.39970000  0.03301000  1.0
  H  H53  1  0.30771000  0.89943000  0.03310000  1.0
  H  H54  1  0.92099000  0.38156000  0.11161000  1.0
  H  H55  1  0.18984000  0.88131000  0.11154000  1.0
  H  H56  1  0.02810000  0.28633000  0.03261000  1.0
  H  H57  1  0.00364000  0.78607000  0.03238000  1.0
  H  H58  1  0.56084000  0.36766000  0.89512000  1.0
  H  H59  1  0.33409000  0.86730000  0.89515000  1.0
  H  H60  1  0.47121000  0.29081000  0.73655000  1.0
  H  H61  1  0.26517000  0.79058000  0.73659000  1.0
  H  H62  1  0.94952000  0.11090000  0.73493000  1.0
  H  H63  1  0.78486000  0.61076000  0.73470000  1.0
  H  H64  1  0.03797000  0.18620000  0.89361000  1.0
  H  H65  1  0.85501000  0.68585000  0.89337000  1.0
  H  H66  1  0.47921000  0.18876000  0.59871000  1.0
  H  H67  1  0.11922000  0.68896000  0.59868000  1.0
  H  H68  1  0.58885000  0.09853000  0.51806000  1.0
  H  H69  1  0.92896000  0.59875000  0.51793000  1.0
  H  H70  1  0.78542000  0.08208000  0.59580000  1.0
  H  H71  1  0.80995000  0.58215000  0.59558000  1.0
  H  H72  1  0.45590000  0.73052000  0.05359000  1.0
  H  H73  1  0.59730000  0.23048000  0.05358000  1.0
  H  H74  1  0.38646000  0.70662000  0.89746000  1.0
  H  H75  1  0.51093000  0.20656000  0.89742000  1.0
  H  H76  1  0.46615000  0.60136000  0.10020000  1.0
  H  H77  1  0.63377000  0.10136000  0.10020000  1.0
  H  H78  1  0.31564000  0.60401000  0.74332000  1.0
  H  H79  1  0.42773000  0.10390000  0.74327000  1.0
  H  H80  1  0.26140000  0.45073000  0.63391000  1.0
  H  H81  1  0.37271000  0.95060000  0.63388000  1.0
  H  H82  1  0.36314000  0.28568000  0.95351000  1.0
  H  H83  1  0.59063000  0.78572000  0.95357000  1.0
  H  H84  1  0.43201000  0.43780000  0.06304000  1.0
  H  H85  1  0.63119000  0.93787000  0.06308000  1.0
  H  H86  1  0.22917000  0.28682000  0.59693000  1.0
  H  H87  1  0.36787000  0.78671000  0.59695000  1.0
  H  H88  1  0.22546000  0.15907000  0.64291000  1.0
  H  H89  1  0.41764000  0.65901000  0.64299000  1.0
  H  H90  1  0.28456000  0.18372000  0.79907000  1.0
  H  H91  1  0.51474000  0.68373000  0.79915000  1.0
  Au  Au92  1  0.24409000  0.49092000  0.45533000  1.0
  Au  Au93  1  0.21106000  0.99100000  0.45530000  1.0
  Au  Au94  1  0.68179000  0.98715000  0.39555000  1.0
  Au  Au95  1  0.71367000  0.48720000  0.39562000  1.0
  Au  Au96  1  0.12827000  0.44002000  0.25264000  1.0
  Au  Au97  1  0.12384000  0.94038000  0.25234000  1.0
  Au  Au98  1  0.59875000  0.91718000  0.19755000  1.0
  Au  Au99  1  0.59945000  0.41690000  0.19766000  1.0
  C  C100  1  0.15262000  0.39094000  0.45210000  1.0
  C  C101  1  0.29935000  0.89109000  0.45218000  1.0
  C  C102  1  0.33507000  0.59240000  0.46067000  1.0
  C  C103  1  0.12554000  0.09248000  0.46067000  1.0
  C  C104  1  0.90858000  0.08204000  0.25312000  1.0
  C  C105  1  0.34444000  0.58217000  0.25318000  1.0
  C  C106  1  0.94896000  0.21704000  0.24472000  1.0
  C  C107  1  0.29574000  0.71714000  0.24469000  1.0
  C  C108  1  0.77544000  0.09073000  0.40743000  1.0
  C  C109  1  0.63195000  0.59079000  0.40744000  1.0
  C  C110  1  0.88186000  0.03741000  0.16522000  1.0
  C  C111  1  0.28344000  0.53750000  0.16526000  1.0
  C  C112  1  0.92387000  0.17743000  0.15655000  1.0
  C  C113  1  0.23271000  0.67746000  0.15653000  1.0
  C  C114  1  0.88780000  0.08513000  0.11378000  1.0
  C  C115  1  0.22609000  0.58517000  0.11380000  1.0
  C  C116  1  0.79958000  0.38617000  0.39152000  1.0
  C  C117  1  0.59157000  0.88617000  0.39143000  1.0
  C  C118  1  0.85312000  0.04072000  0.01955000  1.0
  C  C119  1  0.16663000  0.54077000  0.01956000  1.0
  C  C120  1  0.85712000  0.94934000  0.98134000  1.0
  C  C121  1  0.12433000  0.44940000  0.98134000  1.0
  C  C122  1  0.80853000  0.08751000  0.96428000  1.0
  C  C123  1  0.15605000  0.58759000  0.96432000  1.0
  C  C124  1  0.81369000  0.90596000  0.89206000  1.0
  C  C125  1  0.07851000  0.40605000  0.89206000  1.0
  C  C126  1  0.76498000  0.04400000  0.87504000  1.0
  C  C127  1  0.11037000  0.54411000  0.87509000  1.0
  C  C128  1  0.76397000  0.95163000  0.83654000  1.0
  C  C129  1  0.07282000  0.45175000  0.83658000  1.0
  C  C130  1  0.70854000  0.90388000  0.74205000  1.0
  C  C131  1  0.03375000  0.40406000  0.74208000  1.0
  C  C132  1  0.66203000  0.94908000  0.68560000  1.0
  C  C133  1  0.02360000  0.44933000  0.68563000  1.0
  C  C134  1  0.69481000  0.81033000  0.70323000  1.0
  C  C135  1  0.00881000  0.31052000  0.70325000  1.0
  C  C136  1  0.60200000  0.90180000  0.59822000  1.0
  C  C137  1  0.99621000  0.40209000  0.59823000  1.0
  C  C138  1  0.63383000  0.76781000  0.61505000  1.0
  C  C139  1  0.98148000  0.26804000  0.61504000  1.0
  C  C140  1  0.20381000  0.33376000  0.23702000  1.0
  C  C141  1  0.03328000  0.83411000  0.23724000  1.0
  C  C142  1  0.04276000  0.54029000  0.25194000  1.0
  C  C143  1  0.20964000  0.04053000  0.25214000  1.0
  C  C144  1  0.51239000  0.01767000  0.20057000  1.0
  C  C145  1  0.68810000  0.51798000  0.20100000  1.0
  C  C146  1  0.32025000  0.09723000  0.02899000  1.0
  C  C147  1  0.70916000  0.59743000  0.02933000  1.0
  C  C148  1  0.14890000  0.08900000  0.04260000  1.0
  C  C149  1  0.89400000  0.58938000  0.04305000  1.0
  C  C150  1  0.26988000  0.05847000  0.93980000  1.0
  C  C151  1  0.67050000  0.55872000  0.94017000  1.0
  C  C152  1  0.09190000  0.04965000  0.95357000  1.0
  C  C153  1  0.86210000  0.55000000  0.95403000  1.0
  C  C154  1  0.50924000  0.31672000  0.19422000  1.0
  C  C155  1  0.68559000  0.81715000  0.19433000  1.0
  C  C156  1  0.15255000  0.03353000  0.89946000  1.0
  C  C157  1  0.74745000  0.53379000  0.89979000  1.0
  C  C158  1  0.09867000  0.99088000  0.80490000  1.0
  C  C159  1  0.70679000  0.49106000  0.80523000  1.0
  C  C160  1  0.99689000  0.93235000  0.76425000  1.0
  C  C161  1  0.76771000  0.43235000  0.76452000  1.0
  C  C162  1  0.15164000  0.00486000  0.75285000  1.0
  C  C163  1  0.60185000  0.50510000  0.75319000  1.0
  C  C164  1  0.95231000  0.88646000  0.67524000  1.0
  C  C165  1  0.72321000  0.38646000  0.67550000  1.0
  C  C166  1  0.10746000  0.95918000  0.66415000  1.0
  C  C167  1  0.55711000  0.45927000  0.66451000  1.0
  C  C168  1  0.00844000  0.89739000  0.62400000  1.0
  C  C169  1  0.61590000  0.39747000  0.62434000  1.0
  C  C170  1  0.97029000  0.84240000  0.53157000  1.0
  C  C171  1  0.56157000  0.34245000  0.53191000  1.0
  C  C172  1  0.04992000  0.81689000  0.49385000  1.0
  C  C173  1  0.44417000  0.31715000  0.49425000  1.0
  C  C174  1  0.85638000  0.81185000  0.47783000  1.0
  C  C175  1  0.62187000  0.31189000  0.47825000  1.0
  C  C176  1  0.01410000  0.76590000  0.40654000  1.0
  C  C177  1  0.39266000  0.26620000  0.40694000  1.0
  C  C178  1  0.82726000  0.76126000  0.39063000  1.0
  C  C179  1  0.56384000  0.26131000  0.39105000  1.0
  C  C180  1  0.77129000  0.35792000  0.99753000  1.0
  C  C181  1  0.22564000  0.85772000  0.99750000  1.0
  C  C182  1  0.88150000  0.34752000  0.04155000  1.0
  C  C183  1  0.15932000  0.84731000  0.04146000  1.0
  C  C184  1  0.71930000  0.31556000  0.90713000  1.0
  C  C185  1  0.18738000  0.81538000  0.90709000  1.0
  C  C186  1  0.78080000  0.26136000  0.86085000  1.0
  C  C187  1  0.07951000  0.76123000  0.86072000  1.0
  C  C188  1  0.89370000  0.25092000  0.90662000  1.0
  C  C189  1  0.01227000  0.75073000  0.90645000  1.0
  C  C190  1  0.94226000  0.29468000  0.99707000  1.0
  C  C191  1  0.05405000  0.79447000  0.99690000  1.0
  C  C192  1  0.60658000  0.32513000  0.85951000  1.0
  C  C193  1  0.25263000  0.82491000  0.85951000  1.0
  C  C194  1  0.55689000  0.28251000  0.77184000  1.0
  C  C195  1  0.21467000  0.78236000  0.77184000  1.0
  C  C196  1  0.61569000  0.22672000  0.72379000  1.0
  C  C197  1  0.10771000  0.72669000  0.72370000  1.0
  C  C198  1  0.72930000  0.21738000  0.76925000  1.0
  C  C199  1  0.03947000  0.71733000  0.76912000  1.0
  C  C200  1  0.79102000  0.16399000  0.72257000  1.0
  C  C201  1  0.93105000  0.66397000  0.72240000  1.0
  C  C202  1  0.90359000  0.15371000  0.77031000  1.0
  C  C203  1  0.86615000  0.65358000  0.77009000  1.0
  C  C204  1  0.95255000  0.19530000  0.85830000  1.0
  C  C205  1  0.90512000  0.69508000  0.85809000  1.0
  C  C206  1  0.56617000  0.18224000  0.63346000  1.0
  C  C207  1  0.06695000  0.68232000  0.63337000  1.0
  C  C208  1  0.62762000  0.13161000  0.58832000  1.0
  C  C209  1  0.96034000  0.63173000  0.58820000  1.0
  C  C210  1  0.73879000  0.12266000  0.63200000  1.0
  C  C211  1  0.89280000  0.62272000  0.63184000  1.0
  C  C212  1  0.43029000  0.66285000  0.00518000  1.0
  C  C213  1  0.57468000  0.16282000  0.00516000  1.0
  C  C214  1  0.39208000  0.64963000  0.91752000  1.0
  C  C215  1  0.52534000  0.14958000  0.91749000  1.0
  C  C216  1  0.35927000  0.56310000  0.85383000  1.0
  C  C217  1  0.49459000  0.06305000  0.85381000  1.0
  C  C218  1  0.36375000  0.48846000  0.88015000  1.0
  C  C219  1  0.51645000  0.98844000  0.88015000  1.0
  C  C220  1  0.40207000  0.50271000  0.97010000  1.0
  C  C221  1  0.56806000  0.00271000  0.97010000  1.0
  C  C222  1  0.43610000  0.59043000  0.03151000  1.0
  C  C223  1  0.59527000  0.09042000  0.03151000  1.0
  C  C224  1  0.32088000  0.54676000  0.76310000  1.0
  C  C225  1  0.44230000  0.04667000  0.76307000  1.0
  C  C226  1  0.29071000  0.46199000  0.70263000  1.0
  C  C227  1  0.41207000  0.96190000  0.70261000  1.0
  C  C228  1  0.29231000  0.38591000  0.72698000  1.0
  C  C229  1  0.43482000  0.88585000  0.72700000  1.0
  C  C230  1  0.32790000  0.40032000  0.81685000  1.0
  C  C231  1  0.48906000  0.90029000  0.81687000  1.0
  C  C232  1  0.32572000  0.32617000  0.84301000  1.0
  C  C233  1  0.51747000  0.82616000  0.84304000  1.0
  C  C234  1  0.36400000  0.34242000  0.93358000  1.0
  C  C235  1  0.56976000  0.84243000  0.93362000  1.0
  C  C236  1  0.40172000  0.42680000  0.99426000  1.0
  C  C237  1  0.59266000  0.92682000  0.99428000  1.0
  C  C238  1  0.25728000  0.29824000  0.66559000  1.0
  C  C239  1  0.40849000  0.79818000  0.66562000  1.0
  C  C240  1  0.25445000  0.22637000  0.69168000  1.0
  C  C241  1  0.43741000  0.72632000  0.69174000  1.0
  C  C242  1  0.28734000  0.24005000  0.77905000  1.0
  C  C243  1  0.49189000  0.74003000  0.77911000  1.0
  N  N244  1  0.09514000  0.33164000  0.44767000  1.0
  N  N245  1  0.35254000  0.83189000  0.44796000  1.0
  N  N246  1  0.94064000  0.17079000  0.29289000  1.0
  N  N247  1  0.35209000  0.67092000  0.29292000  1.0
  N  N248  1  0.38744000  0.65249000  0.46169000  1.0
  N  N249  1  0.07425000  0.15260000  0.46183000  1.0
  N  N250  1  0.83251000  0.15145000  0.41393000  1.0
  N  N251  1  0.58134000  0.65144000  0.41392000  1.0
  N  N252  1  0.85133000  0.32647000  0.39159000  1.0
  N  N253  1  0.53982000  0.82651000  0.39154000  1.0
  N  N254  1  0.58553000  0.81205000  0.56260000  1.0
  N  N255  1  0.97716000  0.31233000  0.56259000  1.0
  N  N256  1  0.24793000  0.26989000  0.22394000  1.0
  N  N257  1  0.97741000  0.76997000  0.22513000  1.0
  N  N258  1  0.98629000  0.59576000  0.24330000  1.0
  N  N259  1  0.25916000  0.09574000  0.24433000  1.0
  N  N260  1  0.46237000  0.07856000  0.20588000  1.0
  N  N261  1  0.74248000  0.57970000  0.20682000  1.0
  N  N262  1  0.45632000  0.25869000  0.19566000  1.0
  N  N263  1  0.73949000  0.75895000  0.19603000  1.0
  N  N264  1  0.26126000  0.11264000  0.08000000  1.0
  N  N265  1  0.81915000  0.61305000  0.08072000  1.0
  N  N266  1  0.90435000  0.73924000  0.35492000  1.0
  N  N267  1  0.45112000  0.23951000  0.35564000  1.0
