# generated using pymatgen
data_ZnBH12C13(N4O)2
_symmetry_space_group_name_H-M   'P 1'
_cell_length_a   8.58459000
_cell_length_b   9.83440000
_cell_length_c   10.62990000
_cell_angle_alpha   99.59910000
_cell_angle_beta   96.97560000
_cell_angle_gamma   105.85800000
_symmetry_Int_Tables_number   1
_chemical_formula_structural   ZnBH12C13(N4O)2
_chemical_formula_sum   'Zn2 B2 H24 C26 N16 O4'
_cell_volume   837.88083848
_cell_formula_units_Z   2
loop_
 _symmetry_equiv_pos_site_id
 _symmetry_equiv_pos_as_xyz
  1  'x, y, z'
loop_
 _atom_site_type_symbol
 _atom_site_label
 _atom_site_symmetry_multiplicity
 _atom_site_fract_x
 _atom_site_fract_y
 _atom_site_fract_z
 _atom_site_occupancy
  Zn  Zn0  1  0.22229000  0.73124000  0.67654000  1.0
  Zn  Zn1  1  0.77772000  0.26879000  0.32348000  1.0
  B  B2  1  0.85718000  0.11336000  0.81146000  1.0
  B  B3  1  0.14282000  0.88664000  0.18853000  1.0
  H  H4  1  0.54339000  0.96510000  0.64623000  1.0
  H  H5  1  0.45662000  0.03489000  0.35376000  1.0
  H  H6  1  0.81081000  0.90581000  0.98331000  1.0
  H  H7  1  0.18919000  0.09418000  0.01668000  1.0
  H  H8  1  0.88094000  0.09572000  0.54127000  1.0
  H  H9  1  0.11905000  0.90427000  0.45872000  1.0
  H  H10  1  0.94119000  0.84593000  0.77201000  1.0
  H  H11  1  0.05880000  0.15407000  0.22800000  1.0
  H  H12  1  0.66815000  0.13034000  0.01457000  1.0
  H  H13  1  0.33185000  0.86964000  0.98543000  1.0
  H  H14  1  0.36876000  0.11434000  0.68336000  1.0
  H  H15  1  0.63123000  0.88565000  0.31663000  1.0
  H  H16  1  0.50892000  0.69244000  0.91320000  1.0
  H  H17  1  0.49107000  0.30756000  0.08679000  1.0
  H  H18  1  0.16179000  0.27767000  0.74064000  1.0
  H  H19  1  0.83819000  0.72232000  0.25934000  1.0
  H  H20  1  0.56892000  0.35917000  0.56672000  1.0
  H  H21  1  0.43106000  0.64082000  0.43329000  1.0
  H  H22  1  0.65948000  0.31028000  0.81198000  1.0
  H  H23  1  0.34054000  0.68973000  0.18803000  1.0
  H  H24  1  0.09420000  0.46415000  0.20426000  1.0
  H  H25  1  0.90578000  0.53586000  0.79574000  1.0
  H  H26  1  0.14326000  0.35146000  0.96013000  1.0
  H  H27  1  0.85674000  0.64853000  0.03987000  1.0
  C  C28  1  0.57435000  0.91936000  0.72816000  1.0
  C  C29  1  0.42565000  0.08064000  0.27183000  1.0
  C  C30  1  0.71135000  0.88588000  0.90302000  1.0
  C  C31  1  0.28865000  0.11413000  0.09697000  1.0
  C  C32  1  0.80591000  0.15921000  0.57996000  1.0
  C  C33  1  0.19408000  0.84079000  0.42003000  1.0
  C  C34  1  0.06478000  0.45712000  0.50614000  1.0
  C  C35  1  0.93523000  0.54288000  0.49386000  1.0
  C  C36  1  0.03238000  0.94135000  0.75985000  1.0
  C  C37  1  0.96762000  0.05865000  0.24016000  1.0
  C  C38  1  0.78896000  0.20892000  0.03294000  1.0
  C  C39  1  0.21104000  0.79107000  0.96707000  1.0
  C  C40  1  0.25013000  0.08216000  0.71342000  1.0
  C  C41  1  0.74986000  0.91784000  0.28658000  1.0
  C  C42  1  0.56127000  0.78122000  0.86786000  1.0
  C  C43  1  0.43873000  0.21878000  0.13213000  1.0
  C  C44  1  0.14962000  0.16567000  0.74427000  1.0
  C  C45  1  0.85037000  0.83432000  0.25573000  1.0
  C  C46  1  0.64521000  0.29492000  0.59730000  1.0
  C  C47  1  0.35479000  0.70508000  0.40271000  1.0
  C  C48  1  0.69045000  0.27305000  0.71921000  1.0
  C  C49  1  0.30956000  0.72696000  0.28079000  1.0
  C  C50  1  0.01143000  0.37928000  0.12757000  1.0
  C  C51  1  0.98856000  0.62072000  0.87243000  1.0
  C  C52  1  0.03765000  0.32310000  0.00739000  1.0
  C  C53  1  0.96234000  0.67690000  0.99261000  1.0
  N  N54  1  0.79404000  0.18704000  0.70760000  1.0
  N  N55  1  0.20596000  0.81296000  0.29240000  1.0
  N  N56  1  0.71895000  0.97417000  0.81330000  1.0
  N  N57  1  0.28104000  0.02583000  0.18669000  1.0
  N  N58  1  0.47596000  0.80392000  0.75839000  1.0
  N  N59  1  0.52404000  0.19608000  0.24160000  1.0
  N  N60  1  0.89537000  0.21317000  0.94748000  1.0
  N  N61  1  0.10463000  0.78682000  0.05252000  1.0
  N  N62  1  0.01065000  0.07483000  0.77479000  1.0
  N  N63  1  0.98934000  0.92516000  0.22521000  1.0
  N  N64  1  0.85474000  0.30672000  0.14251000  1.0
  N  N65  1  0.14526000  0.69327000  0.85749000  1.0
  N  N66  1  0.17545000  0.94183000  0.72362000  1.0
  N  N67  1  0.82455000  0.05816000  0.27639000  1.0
  N  N68  1  0.71849000  0.22265000  0.51079000  1.0
  N  N69  1  0.28151000  0.77735000  0.48921000  1.0
  O  O70  1  0.18892000  0.51133000  0.59675000  1.0
  O  O71  1  0.81112000  0.48870000  0.40326000  1.0
  O  O72  1  0.03589000  0.33975000  0.42513000  1.0
  O  O73  1  0.96414000  0.66029000  0.57488000  1.0
