# generated using pymatgen
data_CdH15C20N4ClO6
_symmetry_space_group_name_H-M   'P 1'
_cell_length_a   9.48972000
_cell_length_b   10.13040000
_cell_length_c   11.24760000
_cell_angle_alpha   100.63700000
_cell_angle_beta   106.00100000
_cell_angle_gamma   99.85560000
_symmetry_Int_Tables_number   1
_chemical_formula_structural   CdH15C20N4ClO6
_chemical_formula_sum   'Cd2 H30 C40 N8 Cl2 O12'
_cell_volume   992.91486298
_cell_formula_units_Z   2
loop_
 _symmetry_equiv_pos_site_id
 _symmetry_equiv_pos_as_xyz
  1  'x, y, z'
loop_
 _atom_site_type_symbol
 _atom_site_label
 _atom_site_symmetry_multiplicity
 _atom_site_fract_x
 _atom_site_fract_y
 _atom_site_fract_z
 _atom_site_occupancy
  Cd  Cd0  1  0.80026000  0.94799000  0.80550000  1.0
  Cd  Cd1  1  0.19974000  0.05202000  0.19451000  1.0
  H  H2  1  0.26708000  0.14479000  0.64634000  1.0
  H  H3  1  0.73292000  0.85521000  0.35366000  1.0
  H  H4  1  0.54639000  0.47968000  0.80049000  1.0
  H  H5  1  0.45360000  0.52033000  0.19950000  1.0
  H  H6  1  0.75005000  0.65019000  0.65814000  1.0
  H  H7  1  0.24997000  0.34981000  0.34188000  1.0
  H  H8  1  0.42507000  0.86895000  0.69705000  1.0
  H  H9  1  0.57494000  0.13105000  0.30296000  1.0
  H  H10  1  0.69970000  0.21131000  0.99363000  1.0
  H  H11  1  0.30030000  0.78869000  0.00638000  1.0
  H  H12  1  0.40175000  0.18194000  0.99371000  1.0
  H  H13  1  0.59824000  0.81806000  0.00631000  1.0
  H  H14  1  0.17087000  0.94817000  0.87948000  1.0
  H  H15  1  0.82913000  0.05182000  0.12052000  1.0
  H  H16  1  0.17903000  0.85316000  0.73381000  1.0
  H  H17  1  0.82097000  0.14685000  0.26619000  1.0
  H  H18  1  0.13391000  0.32609000  0.50137000  1.0
  H  H19  1  0.86610000  0.67390000  0.49862000  1.0
  H  H20  1  0.88780000  0.39516000  0.43536000  1.0
  H  H21  1  0.11221000  0.60484000  0.56464000  1.0
  H  H22  1  0.66808000  0.28807000  0.49061000  1.0
  H  H23  1  0.33192000  0.71193000  0.50938000  1.0
  H  H24  1  0.68585000  0.11357000  0.61961000  1.0
  H  H25  1  0.31415000  0.88643000  0.38038000  1.0
  H  H26  1  0.31722000  0.34682000  0.95645000  1.0
  H  H27  1  0.68279000  0.65316000  0.04353000  1.0
  H  H28  1  0.10552000  0.61361000  0.74923000  1.0
  H  H29  1  0.89448000  0.38639000  0.25077000  1.0
  H  H30  1  0.84221000  0.32077000  0.88324000  1.0
  H  H31  1  0.15780000  0.67923000  0.11676000  1.0
  C  C32  1  0.46061000  0.96098000  0.77462000  1.0
  C  C33  1  0.53939000  0.03903000  0.22539000  1.0
  C  C34  1  0.59776000  0.13815000  0.93029000  1.0
  C  C35  1  0.40224000  0.86185000  0.06972000  1.0
  C  C36  1  0.45176000  0.12669000  0.93043000  1.0
  C  C37  1  0.54823000  0.87331000  0.06958000  1.0
  C  C38  1  0.20427000  0.95805000  0.79474000  1.0
  C  C39  1  0.79572000  0.04194000  0.20527000  1.0
  C  C40  1  0.11195000  0.04160000  0.72384000  1.0
  C  C41  1  0.88805000  0.95840000  0.27617000  1.0
  C  C42  1  0.04529000  0.18233000  0.59881000  1.0
  C  C43  1  0.95471000  0.81767000  0.40119000  1.0
  C  C44  1  0.03730000  0.28054000  0.52666000  1.0
  C  C45  1  0.96271000  0.71947000  0.47333000  1.0
  C  C46  1  0.89934000  0.31682000  0.48955000  1.0
  C  C47  1  0.10068000  0.68318000  0.51045000  1.0
  C  C48  1  0.77390000  0.25644000  0.52149000  1.0
  C  C49  1  0.22610000  0.74356000  0.47851000  1.0
  C  C50  1  0.78269000  0.15877000  0.59388000  1.0
  C  C51  1  0.21731000  0.84123000  0.40611000  1.0
  C  C52  1  0.92154000  0.12363000  0.63452000  1.0
  C  C53  1  0.07845000  0.87638000  0.36548000  1.0
  C  C54  1  0.07161000  0.21301000  0.00319000  1.0
  C  C55  1  0.92839000  0.78700000  0.99681000  1.0
  C  C56  1  0.07971000  0.32322000  0.93050000  1.0
  C  C57  1  0.92029000  0.67677000  0.06950000  1.0
  C  C58  1  0.21666000  0.38146000  0.91564000  1.0
  C  C59  1  0.78334000  0.61854000  0.08435000  1.0
  C  C60  1  0.22513000  0.48356000  0.84788000  1.0
  C  C61  1  0.77488000  0.51644000  0.15211000  1.0
  C  C62  1  0.36459000  0.53653000  0.81775000  1.0
  C  C63  1  0.63540000  0.46346000  0.18224000  1.0
  C  C64  1  0.09738000  0.53190000  0.79921000  1.0
  C  C65  1  0.90262000  0.46810000  0.20079000  1.0
  C  C66  1  0.95957000  0.47252000  0.81129000  1.0
  C  C67  1  0.04042000  0.52747000  0.18871000  1.0
  C  C68  1  0.82037000  0.51715000  0.75410000  1.0
  C  C69  1  0.17965000  0.48286000  0.24590000  1.0
  C  C70  1  0.95059000  0.36715000  0.87558000  1.0
  C  C71  1  0.04941000  0.63284000  0.12442000  1.0
  N  N72  1  0.60179000  0.03428000  0.83294000  1.0
  N  N73  1  0.39822000  0.96573000  0.16708000  1.0
  N  N74  1  0.36600000  0.01449000  0.83051000  1.0
  N  N75  1  0.63399000  0.98551000  0.16950000  1.0
  N  N76  1  0.96799000  0.03814000  0.71397000  1.0
  N  N77  1  0.03200000  0.96187000  0.28603000  1.0
  N  N78  1  0.16230000  0.12624000  0.65560000  1.0
  N  N79  1  0.83770000  0.87375000  0.34440000  1.0
  Cl  Cl80  1  0.63965000  0.78400000  0.58463000  1.0
  Cl  Cl81  1  0.36034000  0.21601000  0.41538000  1.0
  O  O82  1  0.94423000  0.14489000  0.99824000  1.0
  O  O83  1  0.05577000  0.85512000  0.00177000  1.0
  O  O84  1  0.19895000  0.19618000  0.06767000  1.0
  O  O85  1  0.80105000  0.80381000  0.93233000  1.0
  O  O86  1  0.45762000  0.45092000  0.83007000  1.0
  O  O87  1  0.54238000  0.54910000  0.16992000  1.0
  O  O88  1  0.38694000  0.64351000  0.78174000  1.0
  O  O89  1  0.61303000  0.35649000  0.21824000  1.0
  O  O90  1  0.84321000  0.61500000  0.69245000  1.0
  O  O91  1  0.15678000  0.38499000  0.30755000  1.0
  O  O92  1  0.69735000  0.46654000  0.76337000  1.0
  O  O93  1  0.30264000  0.53347000  0.23664000  1.0
