# generated using pymatgen
data_UH16C20(NO3)2
_symmetry_space_group_name_H-M   'P 1'
_cell_length_a   9.85432000
_cell_length_b   10.43480000
_cell_length_c   11.75450000
_cell_angle_alpha   116.15700000
_cell_angle_beta   91.45720000
_cell_angle_gamma   115.96500000
_symmetry_Int_Tables_number   1
_chemical_formula_structural   UH16C20(NO3)2
_chemical_formula_sum   'U2 H32 C40 N4 O12'
_cell_volume   938.98622803
_cell_formula_units_Z   2
loop_
 _symmetry_equiv_pos_site_id
 _symmetry_equiv_pos_as_xyz
  1  'x, y, z'
loop_
 _atom_site_type_symbol
 _atom_site_label
 _atom_site_symmetry_multiplicity
 _atom_site_fract_x
 _atom_site_fract_y
 _atom_site_fract_z
 _atom_site_occupancy
  U  U0  1  0.46407000  0.79280000  0.19547000  1.0
  U  U1  1  0.53593000  0.20719000  0.80452000  1.0
  H  H2  1  0.41664000  0.76585000  0.89289000  1.0
  H  H3  1  0.58337000  0.23415000  0.10711000  1.0
  H  H4  1  0.12990000  0.58256000  0.57009000  1.0
  H  H5  1  0.87010000  0.41744000  0.42990000  1.0
  H  H6  1  0.28169000  0.55706000  0.62414000  1.0
  H  H7  1  0.71832000  0.44294000  0.37586000  1.0
  H  H8  1  0.31977000  0.75592000  0.66364000  1.0
  H  H9  1  0.68023000  0.24408000  0.33636000  1.0
  H  H10  1  0.93443000  0.55662000  0.69621000  1.0
  H  H11  1  0.06558000  0.44338000  0.30379000  1.0
  H  H12  1  0.87112000  0.59420000  0.90591000  1.0
  H  H13  1  0.12888000  0.40580000  0.09409000  1.0
  H  H14  1  0.83280000  0.64615000  0.08552000  1.0
  H  H15  1  0.16720000  0.35386000  0.91448000  1.0
  H  H16  1  0.80424000  0.71407000  0.30876000  1.0
  H  H17  1  0.19576000  0.28593000  0.69124000  1.0
  H  H18  1  0.14744000  0.88298000  0.59252000  1.0
  H  H19  1  0.85255000  0.11702000  0.40748000  1.0
  H  H20  1  0.94386000  0.73069000  0.53033000  1.0
  H  H21  1  0.05614000  0.26931000  0.46967000  1.0
  H  H22  1  0.00537000  0.93600000  0.57040000  1.0
  H  H23  1  0.99463000  0.06400000  0.42960000  1.0
  H  H24  1  0.29019000  0.86456000  0.43310000  1.0
  H  H25  1  0.70981000  0.13544000  0.56690000  1.0
  H  H26  1  0.27019000  0.36700000  0.31305000  1.0
  H  H27  1  0.72981000  0.63300000  0.68695000  1.0
  H  H28  1  0.71374000  0.78654000  0.57619000  1.0
  H  H29  1  0.28626000  0.21346000  0.42381000  1.0
  H  H30  1  0.02692000  0.01520000  0.21702000  1.0
  H  H31  1  0.97308000  0.98480000  0.78297000  1.0
  H  H32  1  0.73757000  0.90503000  0.87060000  1.0
  H  H33  1  0.26243000  0.09497000  0.12940000  1.0
  C  C34  1  0.29402000  0.72557000  0.89178000  1.0
  C  C35  1  0.70598000  0.27443000  0.10821000  1.0
  C  C36  1  0.18243000  0.65930000  0.77616000  1.0
  C  C37  1  0.81757000  0.34070000  0.22384000  1.0
  C  C38  1  0.23046000  0.63776000  0.65205000  1.0
  C  C39  1  0.76954000  0.36224000  0.34795000  1.0
  C  C40  1  0.02801000  0.61235000  0.78303000  1.0
  C  C41  1  0.97200000  0.38765000  0.21697000  1.0
  C  C42  1  0.99169000  0.63224000  0.90099000  1.0
  C  C43  1  0.00832000  0.36776000  0.09901000  1.0
  C  C44  1  0.11002000  0.69774000  0.01155000  1.0
  C  C45  1  0.88999000  0.30226000  0.98845000  1.0
  C  C46  1  0.07950000  0.72248000  0.13930000  1.0
  C  C47  1  0.92050000  0.27752000  0.86070000  1.0
  C  C48  1  0.93346000  0.69490000  0.16339000  1.0
  C  C49  1  0.06655000  0.30510000  0.83661000  1.0
  C  C50  1  0.91672000  0.73101000  0.28903000  1.0
  C  C51  1  0.08327000  0.26899000  0.71097000  1.0
  C  C52  1  0.03557000  0.83791000  0.52827000  1.0
  C  C53  1  0.96443000  0.16208000  0.47173000  1.0
  C  C54  1  0.04575000  0.79485000  0.39053000  1.0
  C  C55  1  0.95425000  0.20515000  0.60947000  1.0
  C  C56  1  0.18664000  0.81675000  0.35808000  1.0
  C  C57  1  0.81336000  0.18325000  0.64192000  1.0
  C  C58  1  0.48236000  0.67350000  0.37046000  1.0
  C  C59  1  0.51764000  0.32650000  0.62954000  1.0
  C  C60  1  0.49134000  0.58514000  0.43845000  1.0
  C  C61  1  0.50866000  0.41486000  0.56154000  1.0
  C  C62  1  0.37009000  0.42413000  0.39525000  1.0
  C  C63  1  0.62991000  0.57587000  0.60475000  1.0
  C  C64  1  0.62126000  0.66097000  0.54361000  1.0
  C  C65  1  0.37874000  0.33903000  0.45639000  1.0
  C  C66  1  0.73038000  0.90455000  0.10032000  1.0
  C  C67  1  0.26962000  0.09545000  0.89968000  1.0
  C  C68  1  0.86927000  0.95512000  0.04862000  1.0
  C  C69  1  0.13073000  0.04488000  0.95138000  1.0
  C  C70  1  0.01693000  0.00964000  0.12232000  1.0
  C  C71  1  0.98307000  0.99037000  0.87768000  1.0
  C  C72  1  0.85280000  0.94612000  0.92614000  1.0
  C  C73  1  0.14720000  0.05389000  0.07386000  1.0
  N  N74  1  0.26068000  0.74415000  0.00603000  1.0
  N  N75  1  0.73932000  0.25585000  0.99397000  1.0
  N  N76  1  0.20302000  0.77975000  0.23633000  1.0
  N  N77  1  0.79698000  0.22025000  0.76367000  1.0
  O  O78  1  0.39963000  0.58293000  0.06959000  1.0
  O  O79  1  0.60037000  0.41707000  0.93042000  1.0
  O  O80  1  0.53056000  0.00424000  0.32099000  1.0
  O  O81  1  0.46944000  0.99577000  0.67901000  1.0
  O  O82  1  0.60608000  0.89931000  0.05763000  1.0
  O  O83  1  0.39392000  0.10068000  0.94237000  1.0
  O  O84  1  0.73442000  0.86468000  0.18820000  1.0
  O  O85  1  0.26558000  0.13532000  0.81180000  1.0
  O  O86  1  0.34874000  0.64017000  0.31531000  1.0
  O  O87  1  0.65126000  0.35983000  0.68468000  1.0
  O  O88  1  0.60782000  0.77836000  0.36314000  1.0
  O  O89  1  0.39219000  0.22165000  0.63686000  1.0
