# generated using pymatgen
data_HgH12C15(N2Cl)2
_symmetry_space_group_name_H-M   'P 1'
_cell_length_a   9.10857000
_cell_length_b   12.95560000
_cell_length_c   13.41550000
_cell_angle_alpha   90.00020000
_cell_angle_beta   90.00010000
_cell_angle_gamma   77.58200000
_symmetry_Int_Tables_number   1
_chemical_formula_structural   HgH12C15(N2Cl)2
_chemical_formula_sum   'Hg4 H48 C60 N16 Cl8'
_cell_volume   1546.08524474
_cell_formula_units_Z   4
loop_
 _symmetry_equiv_pos_site_id
 _symmetry_equiv_pos_as_xyz
  1  'x, y, z'
loop_
 _atom_site_type_symbol
 _atom_site_label
 _atom_site_symmetry_multiplicity
 _atom_site_fract_x
 _atom_site_fract_y
 _atom_site_fract_z
 _atom_site_occupancy
  Hg  Hg0  1  0.15218000  0.54117000  0.80289000  1.0
  Hg  Hg1  1  0.34782000  0.95883000  0.30289000  1.0
  Hg  Hg2  1  0.84782000  0.45883000  0.19711000  1.0
  Hg  Hg3  1  0.65218000  0.04117000  0.69711000  1.0
  H  H4  1  0.38390000  0.41415000  0.61069000  1.0
  H  H5  1  0.11610000  0.08585000  0.11069000  1.0
  H  H6  1  0.61610000  0.58586000  0.38931000  1.0
  H  H7  1  0.88391000  0.91414000  0.88931000  1.0
  H  H8  1  0.58163000  0.12209000  0.44737000  1.0
  H  H9  1  0.91837000  0.37791000  0.94737000  1.0
  H  H10  1  0.41837000  0.87791000  0.55263000  1.0
  H  H11  1  0.08163000  0.62209000  0.05263000  1.0
  H  H12  1  0.74939000  0.22568000  0.36989000  1.0
  H  H13  1  0.75061000  0.27432000  0.86989000  1.0
  H  H14  1  0.25061000  0.77433000  0.63010000  1.0
  H  H15  1  0.24939000  0.72567000  0.13010000  1.0
  H  H16  1  0.18499000  0.74759000  0.35221000  1.0
  H  H17  1  0.31501000  0.75241000  0.85221000  1.0
  H  H18  1  0.81501000  0.25241000  0.64779000  1.0
  H  H19  1  0.68500000  0.24759000  0.14779000  1.0
  H  H20  1  0.93136000  0.71162000  0.63918000  1.0
  H  H21  1  0.56864000  0.78838000  0.13918000  1.0
  H  H22  1  0.06863000  0.28838000  0.36082000  1.0
  H  H23  1  0.43137000  0.21162000  0.86082000  1.0
  H  H24  1  0.79798000  0.75542000  0.47314000  1.0
  H  H25  1  0.70202000  0.74458000  0.97313000  1.0
  H  H26  1  0.20201000  0.24458000  0.52686000  1.0
  H  H27  1  0.29799000  0.25542000  0.02686000  1.0
  H  H28  1  0.87573000  0.68540000  0.36452000  1.0
  H  H29  1  0.62427000  0.81460000  0.86452000  1.0
  H  H30  1  0.12427000  0.31460000  0.63548000  1.0
  H  H31  1  0.37573000  0.18540000  0.13548000  1.0
  H  H32  1  0.11247000  0.56720000  0.29776000  1.0
  H  H33  1  0.38753000  0.93280000  0.79776000  1.0
  H  H34  1  0.88753000  0.43280000  0.70224000  1.0
  H  H35  1  0.61247000  0.06719000  0.20224000  1.0
  H  H36  1  0.00714000  0.13737000  0.31103000  1.0
  H  H37  1  0.49286000  0.36263000  0.81103000  1.0
  H  H38  1  0.99286000  0.86263000  0.68897000  1.0
  H  H39  1  0.50714000  0.63737000  0.18897000  1.0
  H  H40  1  0.32888000  0.41368000  0.29085000  1.0
  H  H41  1  0.17113000  0.08632000  0.79085000  1.0
  H  H42  1  0.67112000  0.58633000  0.70915000  1.0
  H  H43  1  0.82888000  0.91367000  0.20915000  1.0
  H  H44  1  0.46369000  0.33929000  0.44357000  1.0
  H  H45  1  0.03632000  0.16071000  0.94357000  1.0
  H  H46  1  0.53631000  0.66072000  0.55644000  1.0
  H  H47  1  0.96369000  0.83928000  0.05644000  1.0
  H  H48  1  0.65946000  0.92652000  0.46567000  1.0
  H  H49  1  0.84053000  0.57348000  0.96567000  1.0
  H  H50  1  0.34053000  0.07349000  0.53433000  1.0
  H  H51  1  0.15947000  0.42651000  0.03433000  1.0
  C  C52  1  0.97869000  0.98369000  0.36036000  1.0
  C  C53  1  0.52130000  0.51631000  0.86036000  1.0
  C  C54  1  0.02130000  0.01631000  0.63964000  1.0
  C  C55  1  0.47870000  0.48368000  0.13965000  1.0
  C  C56  1  0.88034000  0.92456000  0.40259000  1.0
  C  C57  1  0.61966000  0.57544000  0.90259000  1.0
  C  C58  1  0.11966000  0.07544000  0.59741000  1.0
  C  C59  1  0.38034000  0.42456000  0.09741000  1.0
  C  C60  1  0.20138000  0.53258000  0.54805000  1.0
  C  C61  1  0.29862000  0.96742000  0.04804000  1.0
  C  C62  1  0.79862000  0.46743000  0.45196000  1.0
  C  C63  1  0.70138000  0.03257000  0.95196000  1.0
  C  C64  1  0.32558000  0.44798000  0.54346000  1.0
  C  C65  1  0.17442000  0.05202000  0.04346000  1.0
  C  C66  1  0.67441000  0.55203000  0.45654000  1.0
  C  C67  1  0.82559000  0.94797000  0.95654000  1.0
  C  C68  1  0.69292000  0.08141000  0.42285000  1.0
  C  C69  1  0.80708000  0.41859000  0.92285000  1.0
  C  C70  1  0.30708000  0.91859000  0.57715000  1.0
  C  C71  1  0.19292000  0.58140000  0.07715000  1.0
  C  C72  1  0.78919000  0.14060000  0.37923000  1.0
  C  C73  1  0.71081000  0.35940000  0.87923000  1.0
  C  C74  1  0.21081000  0.85940000  0.62077000  1.0
  C  C75  1  0.28919000  0.64060000  0.12077000  1.0
  C  C76  1  0.12646000  0.57575000  0.46005000  1.0
  C  C77  1  0.37354000  0.92425000  0.96005000  1.0
  C  C78  1  0.87353000  0.42425000  0.53995000  1.0
  C  C79  1  0.62647000  0.07575000  0.03995000  1.0
  C  C80  1  0.09772000  0.81888000  0.36023000  1.0
  C  C81  1  0.40228000  0.68112000  0.86023000  1.0
  C  C82  1  0.90228000  0.18112000  0.63977000  1.0
  C  C83  1  0.59772000  0.31888000  0.13977000  1.0
  C  C84  1  0.01400000  0.65792000  0.59454000  1.0
  C  C85  1  0.48600000  0.84208000  0.09453000  1.0
  C  C86  1  0.98599000  0.34208000  0.40546000  1.0
  C  C87  1  0.51401000  0.15792000  0.90547000  1.0
  C  C88  1  0.90199000  0.72753000  0.43110000  1.0
  C  C89  1  0.59801000  0.77247000  0.93110000  1.0
  C  C90  1  0.09800000  0.27247000  0.56890000  1.0
  C  C91  1  0.40200000  0.22752000  0.06890000  1.0
  C  C92  1  0.17090000  0.53542000  0.36569000  1.0
  C  C93  1  0.32910000  0.96458000  0.86569000  1.0
  C  C94  1  0.82909000  0.46458000  0.63431000  1.0
  C  C95  1  0.67091000  0.03542000  0.13431000  1.0
  C  C96  1  0.93295000  0.09295000  0.34700000  1.0
  C  C97  1  0.56704000  0.40705000  0.84700000  1.0
  C  C98  1  0.06704000  0.90705000  0.65300000  1.0
  C  C99  1  0.43296000  0.59295000  0.15300000  1.0
  C  C100  1  0.29305000  0.44941000  0.36261000  1.0
  C  C101  1  0.20695000  0.05059000  0.86261000  1.0
  C  C102  1  0.70694000  0.55059000  0.63739000  1.0
  C  C103  1  0.79306000  0.94940000  0.13739000  1.0
  C  C104  1  0.36935000  0.40686000  0.44957000  1.0
  C  C105  1  0.13066000  0.09314000  0.94956000  1.0
  C  C106  1  0.63065000  0.59314000  0.55044000  1.0
  C  C107  1  0.86935000  0.90685000  0.05044000  1.0
  C  C108  1  0.73572000  0.97218000  0.43450000  1.0
  C  C109  1  0.76427000  0.52783000  0.93450000  1.0
  C  C110  1  0.26427000  0.02783000  0.56550000  1.0
  C  C111  1  0.23572000  0.47217000  0.06550000  1.0
  N  N112  1  0.12751000  0.58606000  0.62992000  1.0
  N  N113  1  0.37249000  0.91394000  0.12992000  1.0
  N  N114  1  0.87248000  0.41394000  0.37008000  1.0
  N  N115  1  0.62752000  0.08606000  0.87008000  1.0
  N  N116  1  0.95973000  0.81978000  0.40082000  1.0
  N  N117  1  0.54027000  0.68022000  0.90082000  1.0
  N  N118  1  0.04026000  0.18022000  0.59917000  1.0
  N  N119  1  0.45974000  0.31978000  0.09918000  1.0
  N  N120  1  0.11292000  0.91500000  0.33555000  1.0
  N  N121  1  0.38707000  0.58500000  0.83555000  1.0
  N  N122  1  0.88707000  0.08500000  0.66445000  1.0
  N  N123  1  0.61293000  0.41500000  0.16445000  1.0
  N  N124  1  0.00818000  0.65607000  0.49270000  1.0
  N  N125  1  0.49182000  0.84393000  0.99270000  1.0
  N  N126  1  0.99182000  0.34393000  0.50730000  1.0
  N  N127  1  0.50819000  0.15607000  0.00730000  1.0
  Cl  Cl128  1  0.17476000  0.35149000  0.81862000  1.0
  Cl  Cl129  1  0.32524000  0.14851000  0.31862000  1.0
  Cl  Cl130  1  0.82524000  0.64851000  0.18138000  1.0
  Cl  Cl131  1  0.67476000  0.85149000  0.68138000  1.0
  Cl  Cl132  1  0.99114000  0.70740000  0.85891000  1.0
  Cl  Cl133  1  0.50886000  0.79260000  0.35891000  1.0
  Cl  Cl134  1  0.00886000  0.29260000  0.14109000  1.0
  Cl  Cl135  1  0.49114000  0.20740000  0.64109000  1.0
