# generated using pymatgen
data_ZnH15C19(NO)4
_symmetry_space_group_name_H-M   'P 1'
_cell_length_a   9.89089000
_cell_length_b   9.89095000
_cell_length_c   10.96760000
_cell_angle_alpha   86.38120000
_cell_angle_beta   86.38100000
_cell_angle_gamma   64.10530000
_symmetry_Int_Tables_number   1
_chemical_formula_structural   ZnH15C19(NO)4
_chemical_formula_sum   'Zn2 H30 C38 N8 O8'
_cell_volume   962.55571024
_cell_formula_units_Z   2
loop_
 _symmetry_equiv_pos_site_id
 _symmetry_equiv_pos_as_xyz
  1  'x, y, z'
loop_
 _atom_site_type_symbol
 _atom_site_label
 _atom_site_symmetry_multiplicity
 _atom_site_fract_x
 _atom_site_fract_y
 _atom_site_fract_z
 _atom_site_occupancy
  Zn  Zn0  1  0.30953000  0.34342000  0.01653000  1.0
  Zn  Zn1  1  0.65658000  0.69047000  0.98347000  1.0
  H  H2  1  0.75379000  0.10377000  0.97287000  1.0
  H  H3  1  0.89622000  0.24620000  0.02713000  1.0
  H  H4  1  0.30017000  0.45614000  0.72915000  1.0
  H  H5  1  0.54386000  0.69984000  0.27085000  1.0
  H  H6  1  0.38295000  0.24232000  0.54851000  1.0
  H  H7  1  0.75767000  0.61705000  0.45149000  1.0
  H  H8  1  0.47956000  0.02116000  0.89743000  1.0
  H  H9  1  0.97884000  0.52044000  0.10257000  1.0
  H  H10  1  0.42853000  0.94681000  0.58724000  1.0
  H  H11  1  0.05319000  0.57147000  0.41276000  1.0
  H  H12  1  0.52125000  0.86007000  0.72442000  1.0
  H  H13  1  0.13993000  0.47876000  0.27558000  1.0
  H  H14  1  0.56011000  0.02385000  0.41608000  1.0
  H  H15  1  0.97614000  0.43989000  0.58392000  1.0
  H  H16  1  0.04209000  0.84503000  0.41881000  1.0
  H  H17  1  0.15498000  0.95791000  0.58119000  1.0
  H  H18  1  0.03615000  0.74505000  0.63423000  1.0
  H  H19  1  0.25496000  0.96385000  0.36578000  1.0
  H  H20  1  0.79419000  0.78349000  0.73733000  1.0
  H  H21  1  0.21651000  0.20581000  0.26267000  1.0
  H  H22  1  0.91268000  0.99929000  0.24837000  1.0
  H  H23  1  0.00071000  0.08732000  0.75163000  1.0
  H  H24  1  0.81157000  0.89878000  0.21283000  1.0
  H  H25  1  0.10122000  0.18844000  0.78717000  1.0
  H  H26  1  0.73704000  0.29562000  0.29972000  1.0
  H  H27  1  0.70438000  0.26297000  0.70027000  1.0
  H  H28  1  0.47882000  0.48599000  0.17646000  1.0
  H  H29  1  0.51401000  0.52118000  0.82354000  1.0
  H  H30  1  0.55856000  0.03464000  0.13581000  1.0
  H  H31  1  0.96536000  0.44144000  0.86419000  1.0
  C  C32  1  0.19425000  0.64774000  0.96749000  1.0
  C  C33  1  0.35225000  0.80574000  0.03251000  1.0
  C  C34  1  0.86475000  0.80179000  0.94583000  1.0
  C  C35  1  0.19820000  0.13525000  0.05417000  1.0
  C  C36  1  0.87454000  0.04624000  0.98522000  1.0
  C  C37  1  0.95375000  0.12546000  0.01477000  1.0
  C  C38  1  0.94922000  0.89027000  0.97150000  1.0
  C  C39  1  0.10972000  0.05077000  0.02850000  1.0
  C  C40  1  0.10536000  0.81422000  0.98595000  1.0
  C  C41  1  0.18578000  0.89464000  0.01405000  1.0
  C  C42  1  0.35083000  0.33435000  0.73551000  1.0
  C  C43  1  0.66565000  0.64917000  0.26449000  1.0
  C  C44  1  0.39172000  0.23020000  0.64688000  1.0
  C  C45  1  0.76980000  0.60828000  0.35312000  1.0
  C  C46  1  0.44360000  0.11218000  0.82870000  1.0
  C  C47  1  0.88782000  0.55640000  0.17129000  1.0
  C  C48  1  0.51133000  0.94390000  0.65081000  1.0
  C  C49  1  0.05610000  0.48867000  0.34919000  1.0
  C  C50  1  0.66048000  0.91016000  0.58470000  1.0
  C  C51  1  0.08985000  0.33952000  0.41530000  1.0
  C  C52  1  0.66472000  0.96410000  0.46421000  1.0
  C  C53  1  0.03590000  0.33528000  0.53579000  1.0
  C  C54  1  0.80154000  0.94016000  0.40383000  1.0
  C  C55  1  0.05984000  0.19847000  0.59618000  1.0
  C  C56  1  0.93534000  0.86240000  0.46566000  1.0
  C  C57  1  0.13761000  0.06467000  0.53434000  1.0
  C  C58  1  0.93233000  0.80615000  0.58540000  1.0
  C  C59  1  0.19386000  0.06767000  0.41460000  1.0
  C  C60  1  0.79522000  0.82903000  0.64444000  1.0
  C  C61  1  0.17097000  0.20479000  0.35556000  1.0
  C  C62  1  0.80882000  0.98680000  0.27084000  1.0
  C  C63  1  0.01320000  0.19119000  0.72916000  1.0
  C  C64  1  0.66026000  0.27153000  0.24873000  1.0
  C  C65  1  0.72847000  0.33974000  0.75127000  1.0
  C  C66  1  0.53275000  0.36403000  0.18830000  1.0
  C  C67  1  0.63596000  0.46725000  0.81170000  1.0
  C  C68  1  0.56895000  0.13222000  0.16479000  1.0
  C  C69  1  0.86778000  0.43105000  0.83521000  1.0
  N  N70  1  0.38407000  0.25910000  0.84862000  1.0
  N  N71  1  0.74090000  0.61593000  0.15137000  1.0
  N  N72  1  0.44920000  0.09058000  0.70744000  1.0
  N  N73  1  0.90942000  0.55080000  0.29256000  1.0
  N  N74  1  0.68158000  0.12555000  0.23253000  1.0
  N  N75  1  0.87445000  0.31842000  0.76747000  1.0
  N  N76  1  0.47691000  0.27515000  0.13650000  1.0
  N  N77  1  0.72484000  0.52310000  0.86351000  1.0
  O  O78  1  0.27343000  0.60864000  0.87128000  1.0
  O  O79  1  0.39135000  0.72657000  0.12872000  1.0
  O  O80  1  0.19098000  0.55725000  0.05708000  1.0
  O  O81  1  0.44274000  0.80902000  0.94292000  1.0
  O  O82  1  0.93509000  0.67287000  0.90455000  1.0
  O  O83  1  0.32712000  0.06491000  0.09545000  1.0
  O  O84  1  0.72107000  0.86240000  0.97124000  1.0
  O  O85  1  0.13760000  0.27893000  0.02876000  1.0
