# generated using pymatgen
data_CdH14C20(NO3)2
_symmetry_space_group_name_H-M   'P 1'
_cell_length_a   9.99686000
_cell_length_b   10.38670000
_cell_length_c   9.99686000
_cell_angle_alpha   74.58810000
_cell_angle_beta   72.34540000
_cell_angle_gamma   74.58810000
_symmetry_Int_Tables_number   1
_chemical_formula_structural   CdH14C20(NO3)2
_chemical_formula_sum   'Cd2 H28 C40 N4 O12'
_cell_volume   933.99019659
_cell_formula_units_Z   2
loop_
 _symmetry_equiv_pos_site_id
 _symmetry_equiv_pos_as_xyz
  1  'x, y, z'
loop_
 _atom_site_type_symbol
 _atom_site_label
 _atom_site_symmetry_multiplicity
 _atom_site_fract_x
 _atom_site_fract_y
 _atom_site_fract_z
 _atom_site_occupancy
  Cd  Cd0  1  0.03941000  0.75000000  0.96059000  1.0
  Cd  Cd1  1  0.96059000  0.25000000  0.03941000  1.0
  H  H2  1  0.14497000  0.62014000  0.26537000  1.0
  H  H3  1  0.73464000  0.87986000  0.85504000  1.0
  H  H4  1  0.85504000  0.37986000  0.73463000  1.0
  H  H5  1  0.26537000  0.12015000  0.14496000  1.0
  H  H6  1  0.05492000  0.55045000  0.55994000  1.0
  H  H7  1  0.44007000  0.94955000  0.94508000  1.0
  H  H8  1  0.94509000  0.44956000  0.44006000  1.0
  H  H9  1  0.55994000  0.05045000  0.05491000  1.0
  H  H10  1  0.95200000  0.79639000  0.64718000  1.0
  H  H11  1  0.35283000  0.70361000  0.04800000  1.0
  H  H12  1  0.04801000  0.20362000  0.35282000  1.0
  H  H13  1  0.64717000  0.29639000  0.95200000  1.0
  H  H14  1  0.79136000  0.96138000  0.12143000  1.0
  H  H15  1  0.87856000  0.53862000  0.20863000  1.0
  H  H16  1  0.20863000  0.03862000  0.87857000  1.0
  H  H17  1  0.12143000  0.46138000  0.79136000  1.0
  H  H18  1  0.57840000  0.97065000  0.33216000  1.0
  H  H19  1  0.66784000  0.52935000  0.42159000  1.0
  H  H20  1  0.42159000  0.02935000  0.66785000  1.0
  H  H21  1  0.33216000  0.47064000  0.57840000  1.0
  H  H22  1  0.34266000  0.92741000  0.42237000  1.0
  H  H23  1  0.57763000  0.57259000  0.65734000  1.0
  H  H24  1  0.65734000  0.07259000  0.57763000  1.0
  H  H25  1  0.42237000  0.42740000  0.34266000  1.0
  H  H26  1  0.13831000  0.92129000  0.63951000  1.0
  H  H27  1  0.36049000  0.57870000  0.86169000  1.0
  H  H28  1  0.86169000  0.07870000  0.36050000  1.0
  H  H29  1  0.63951000  0.42129000  0.13831000  1.0
  C  C30  1  0.09213000  0.92733000  0.16859000  1.0
  C  C31  1  0.83141000  0.57267000  0.90787000  1.0
  C  C32  1  0.90788000  0.07267000  0.83140000  1.0
  C  C33  1  0.16859000  0.42733000  0.09213000  1.0
  C  C34  1  0.07348000  0.82785000  0.30568000  1.0
  C  C35  1  0.69432000  0.67215000  0.92652000  1.0
  C  C36  1  0.92652000  0.17216000  0.69432000  1.0
  C  C37  1  0.30568000  0.32785000  0.07348000  1.0
  C  C38  1  0.09975000  0.68758000  0.34150000  1.0
  C  C39  1  0.65851000  0.81242000  0.90025000  1.0
  C  C40  1  0.90025000  0.31242000  0.65850000  1.0
  C  C41  1  0.34149000  0.18758000  0.09975000  1.0
  C  C42  1  0.05168000  0.65184000  0.49362000  1.0
  C  C43  1  0.50639000  0.84816000  0.94832000  1.0
  C  C44  1  0.94833000  0.34816000  0.50638000  1.0
  C  C45  1  0.49362000  0.15184000  0.05167000  1.0
  C  C46  1  0.99860000  0.77195000  0.54166000  1.0
  C  C47  1  0.45835000  0.72805000  0.00140000  1.0
  C  C48  1  0.00140000  0.22806000  0.45834000  1.0
  C  C49  1  0.54165000  0.27195000  0.99860000  1.0
  C  C50  1  0.75963000  0.86818000  0.19206000  1.0
  C  C51  1  0.80794000  0.63182000  0.24037000  1.0
  C  C52  1  0.24037000  0.13182000  0.80794000  1.0
  C  C53  1  0.19206000  0.36818000  0.75963000  1.0
  C  C54  1  0.64072000  0.87228000  0.30872000  1.0
  C  C55  1  0.69128000  0.62772000  0.35928000  1.0
  C  C56  1  0.35928000  0.12772000  0.69128000  1.0
  C  C57  1  0.30872000  0.37228000  0.64072000  1.0
  C  C58  1  0.60437000  0.75000000  0.39563000  1.0
  C  C59  1  0.39563000  0.25000000  0.60438000  1.0
  C  C60  1  0.47932000  0.75000000  0.52068000  1.0
  C  C61  1  0.52068000  0.25000000  0.47932000  1.0
  C  C62  1  0.35310000  0.84922000  0.51810000  1.0
  C  C63  1  0.48190000  0.65077000  0.64690000  1.0
  C  C64  1  0.64690000  0.15077000  0.48190000  1.0
  C  C65  1  0.51810000  0.34922000  0.35310000  1.0
  C  C66  1  0.23763000  0.84580000  0.63834000  1.0
  C  C67  1  0.36166000  0.65419000  0.76237000  1.0
  C  C68  1  0.76237000  0.15419000  0.36166000  1.0
  C  C69  1  0.63834000  0.34580000  0.23763000  1.0
  N  N70  1  0.84154000  0.75000000  0.15846000  1.0
  N  N71  1  0.15846000  0.25000000  0.84154000  1.0
  N  N72  1  0.24109000  0.75000000  0.75891000  1.0
  N  N73  1  0.75891000  0.25000000  0.24109000  1.0
  O  O74  1  0.13406000  0.88266000  0.05261000  1.0
  O  O75  1  0.94739000  0.61734000  0.86594000  1.0
  O  O76  1  0.86594000  0.11734000  0.94739000  1.0
  O  O77  1  0.05261000  0.38266000  0.13406000  1.0
  O  O78  1  0.06646000  0.05283000  0.17645000  1.0
  O  O79  1  0.82355000  0.44717000  0.93354000  1.0
  O  O80  1  0.93354000  0.94717000  0.82355000  1.0
  O  O81  1  0.17645000  0.55283000  0.06646000  1.0
  O  O82  1  0.01163000  0.87985000  0.42918000  1.0
  O  O83  1  0.57083000  0.62014000  0.98837000  1.0
  O  O84  1  0.98838000  0.12015000  0.57082000  1.0
  O  O85  1  0.42917000  0.37986000  0.01163000  1.0
