# generated using pymatgen
data_NiH25C12N4Cl3
_symmetry_space_group_name_H-M   'P 1'
_cell_length_a   7.21557000
_cell_length_b   7.31231000
_cell_length_c   7.32240000
_cell_angle_alpha   92.45530000
_cell_angle_beta   91.74820000
_cell_angle_gamma   91.68090000
_symmetry_Int_Tables_number   1
_chemical_formula_structural   NiH25C12N4Cl3
_chemical_formula_sum   'Ni1 H25 C12 N4 Cl3'
_cell_volume   385.63202235
_cell_formula_units_Z   1
loop_
 _symmetry_equiv_pos_site_id
 _symmetry_equiv_pos_as_xyz
  1  'x, y, z'
loop_
 _atom_site_type_symbol
 _atom_site_label
 _atom_site_symmetry_multiplicity
 _atom_site_fract_x
 _atom_site_fract_y
 _atom_site_fract_z
 _atom_site_occupancy
  Ni  Ni0  1  0.49963000  0.50292000  0.49745000  1.0
  H  H1  1  0.77858000  0.45398000  0.81524000  1.0
  H  H2  1  0.81939000  0.77869000  0.45388000  1.0
  H  H3  1  0.54960000  0.22143000  0.18250000  1.0
  H  H4  1  0.45036000  0.81798000  0.77861000  1.0
  H  H5  1  0.18033000  0.54647000  0.22132000  1.0
  H  H6  1  0.22137000  0.18457000  0.54571000  1.0
  H  H7  1  0.60697000  0.58021000  0.93238000  1.0
  H  H8  1  0.93750000  0.60817000  0.57633000  1.0
  H  H9  1  0.42331000  0.39022000  0.06554000  1.0
  H  H10  1  0.57634000  0.93500000  0.60994000  1.0
  H  H11  1  0.06222000  0.42397000  0.39152000  1.0
  H  H12  1  0.39317000  0.06737000  0.41985000  1.0
  H  H13  1  0.85422000  0.71493000  0.10867000  1.0
  H  H14  1  0.11548000  0.85233000  0.71425000  1.0
  H  H15  1  0.28689000  0.14519000  0.89020000  1.0
  H  H16  1  0.71308000  0.11048000  0.85465000  1.0
  H  H17  1  0.88439000  0.28587000  0.14761000  1.0
  H  H18  1  0.14600000  0.89078000  0.28500000  1.0
  H  H19  1  0.02394000  0.64799000  0.94601000  1.0
  H  H20  1  0.95110000  0.01992000  0.64980000  1.0
  H  H21  1  0.35344000  0.97888000  0.05219000  1.0
  H  H22  1  0.64677000  0.94831000  0.02074000  1.0
  H  H23  1  0.04872000  0.35028000  0.98037000  1.0
  H  H24  1  0.97618000  0.05366000  0.35173000  1.0
  H  H25  1  0.00000000  0.99979000  0.00011000  1.0
  C  C26  1  0.73310000  0.59166000  0.85353000  1.0
  C  C27  1  0.85751000  0.73286000  0.59026000  1.0
  C  C28  1  0.41071000  0.26686000  0.14479000  1.0
  C  C29  1  0.58917000  0.85565000  0.73314000  1.0
  C  C30  1  0.14225000  0.40997000  0.26714000  1.0
  C  C31  1  0.26689000  0.14627000  0.40826000  1.0
  C  C32  1  0.88600000  0.70500000  0.96289000  1.0
  C  C33  1  0.96772000  0.88377000  0.70502000  1.0
  C  C34  1  0.29618000  0.11498000  0.03576000  1.0
  C  C35  1  0.70384000  0.96473000  0.88482000  1.0
  C  C36  1  0.03215000  0.29506000  0.11631000  1.0
  C  C37  1  0.11413000  0.03679000  0.29488000  1.0
  N  N38  1  0.68354000  0.68394000  0.68245000  1.0
  N  N39  1  0.31628000  0.31760000  0.31619000  1.0
  N  N40  1  0.89479000  0.89312000  0.89299000  1.0
  N  N41  1  0.10523000  0.10680000  0.10706000  1.0
  Cl  Cl42  1  0.50123000  0.72298000  0.27597000  1.0
  Cl  Cl43  1  0.28545000  0.48782000  0.72596000  1.0
  Cl  Cl44  1  0.71485000  0.27481000  0.51097000  1.0
