# generated using pymatgen
data_SrH12C8O9
_symmetry_space_group_name_H-M   'P 1'
_cell_length_a   7.07227000
_cell_length_b   9.42252000
_cell_length_c   18.73680000
_cell_angle_alpha   90.00020000
_cell_angle_beta   90.00010000
_cell_angle_gamma   99.44570000
_symmetry_Int_Tables_number   1
_chemical_formula_structural   SrH12C8O9
_chemical_formula_sum   'Sr4 H48 C32 O36'
_cell_volume   1231.66525462
_cell_formula_units_Z   4
loop_
 _symmetry_equiv_pos_site_id
 _symmetry_equiv_pos_as_xyz
  1  'x, y, z'
loop_
 _atom_site_type_symbol
 _atom_site_label
 _atom_site_symmetry_multiplicity
 _atom_site_fract_x
 _atom_site_fract_y
 _atom_site_fract_z
 _atom_site_occupancy
  Sr  Sr0  1  0.48585000  0.28948000  0.03789000  1.0
  Sr  Sr1  1  0.01415000  0.71052000  0.53789000  1.0
  Sr  Sr2  1  0.51415000  0.71052000  0.96211000  1.0
  Sr  Sr3  1  0.98585000  0.28948000  0.46211000  1.0
  H  H4  1  0.20425000  0.43036000  0.12536000  1.0
  H  H5  1  0.29574000  0.56965000  0.62536000  1.0
  H  H6  1  0.79574000  0.56964000  0.87464000  1.0
  H  H7  1  0.70425000  0.43035000  0.37464000  1.0
  H  H8  1  0.07009000  0.32606000  0.07692000  1.0
  H  H9  1  0.42991000  0.67394000  0.57692000  1.0
  H  H10  1  0.92991000  0.67394000  0.92308000  1.0
  H  H11  1  0.57009000  0.32606000  0.42308000  1.0
  H  H12  1  0.75713000  0.08504000  0.11179000  1.0
  H  H13  1  0.74287000  0.91496000  0.61179000  1.0
  H  H14  1  0.24287000  0.91496000  0.88821000  1.0
  H  H15  1  0.25713000  0.08504000  0.38821000  1.0
  H  H16  1  0.55585000  0.98227000  0.09519000  1.0
  H  H17  1  0.94415000  0.01773000  0.59519000  1.0
  H  H18  1  0.44415000  0.01774000  0.90481000  1.0
  H  H19  1  0.05585000  0.98226000  0.40481000  1.0
  H  H20  1  0.85840000  0.45359000  0.03867000  1.0
  H  H21  1  0.64159000  0.54641000  0.53867000  1.0
  H  H22  1  0.14159000  0.54641000  0.96133000  1.0
  H  H23  1  0.35840000  0.45359000  0.46133000  1.0
  H  H24  1  0.85906000  0.35512000  0.97234000  1.0
  H  H25  1  0.64094000  0.64488000  0.47234000  1.0
  H  H26  1  0.14094000  0.64488000  0.02766000  1.0
  H  H27  1  0.35906000  0.35512000  0.52766000  1.0
  H  H28  1  0.44447000  0.88193000  0.68336000  1.0
  H  H29  1  0.05553000  0.11807000  0.18336000  1.0
  H  H30  1  0.55553000  0.11807000  0.31664000  1.0
  H  H31  1  0.94447000  0.88193000  0.81664000  1.0
  H  H32  1  0.64919000  0.18591000  0.58460000  1.0
  H  H33  1  0.85081000  0.81409000  0.08461000  1.0
  H  H34  1  0.35081000  0.81408000  0.41540000  1.0
  H  H35  1  0.14920000  0.18591000  0.91540000  1.0
  H  H36  1  0.81965000  0.44758000  0.76864000  1.0
  H  H37  1  0.68035000  0.55242000  0.26864000  1.0
  H  H38  1  0.18035000  0.55242000  0.23136000  1.0
  H  H39  1  0.31966000  0.44758000  0.73136000  1.0
  H  H40  1  0.52335000  0.01178000  0.79532000  1.0
  H  H41  1  0.97666000  0.98822000  0.29533000  1.0
  H  H42  1  0.47665000  0.98822000  0.20468000  1.0
  H  H43  1  0.02335000  0.01178000  0.70468000  1.0
  H  H44  1  0.13817000  0.04071000  0.06499000  1.0
  H  H45  1  0.36183000  0.95929000  0.56498000  1.0
  H  H46  1  0.86183000  0.95930000  0.93502000  1.0
  H  H47  1  0.63817000  0.04070000  0.43501000  1.0
  H  H48  1  0.25344000  0.98746000  0.00009000  1.0
  H  H49  1  0.24656000  0.01254000  0.50009000  1.0
  H  H50  1  0.74656000  0.01254000  0.99991000  1.0
  H  H51  1  0.75344000  0.98746000  0.49991000  1.0
  C  C52  1  0.68224000  0.25818000  0.86989000  1.0
  C  C53  1  0.81776000  0.74182000  0.36989000  1.0
  C  C54  1  0.31776000  0.74182000  0.13011000  1.0
  C  C55  1  0.18224000  0.25818000  0.63011000  1.0
  C  C56  1  0.83375000  0.45200000  0.62578000  1.0
  C  C57  1  0.66625000  0.54800000  0.12578000  1.0
  C  C58  1  0.16625000  0.54800000  0.37422000  1.0
  C  C59  1  0.33375000  0.45200000  0.87422000  1.0
  C  C60  1  0.74246000  0.33012000  0.67221000  1.0
  C  C61  1  0.75754000  0.66987000  0.17222000  1.0
  C  C62  1  0.25754000  0.66987000  0.32778000  1.0
  C  C63  1  0.24246000  0.33013000  0.82779000  1.0
  C  C64  1  0.57940000  0.08655000  0.68697000  1.0
  C  C65  1  0.92060000  0.91345000  0.18697000  1.0
  C  C66  1  0.42060000  0.91345000  0.31303000  1.0
  C  C67  1  0.07940000  0.08656000  0.81303000  1.0
  C  C68  1  0.65576000  0.20000000  0.64233000  1.0
  C  C69  1  0.84424000  0.80000000  0.14233000  1.0
  C  C70  1  0.34425000  0.79999000  0.35767000  1.0
  C  C71  1  0.15576000  0.20000000  0.85767000  1.0
  C  C72  1  0.74934000  0.34630000  0.74616000  1.0
  C  C73  1  0.75066000  0.65370000  0.24617000  1.0
  C  C74  1  0.25066000  0.65370000  0.25383000  1.0
  C  C75  1  0.24934000  0.34630000  0.75383000  1.0
  C  C76  1  0.58415000  0.10135000  0.76106000  1.0
  C  C77  1  0.91586000  0.89865000  0.26107000  1.0
  C  C78  1  0.41586000  0.89865000  0.23894000  1.0
  C  C79  1  0.08415000  0.10135000  0.73894000  1.0
  C  C80  1  0.66982000  0.23330000  0.79079000  1.0
  C  C81  1  0.83018000  0.76670000  0.29079000  1.0
  C  C82  1  0.33018000  0.76670000  0.20921000  1.0
  C  C83  1  0.16982000  0.23330000  0.70921000  1.0
  O  O84  1  0.58618000  0.16870000  0.91300000  1.0
  O  O85  1  0.91383000  0.83130000  0.41300000  1.0
  O  O86  1  0.41382000  0.83130000  0.08700000  1.0
  O  O87  1  0.08617000  0.16870000  0.58700000  1.0
  O  O88  1  0.79088000  0.37153000  0.89145000  1.0
  O  O89  1  0.70912000  0.62847000  0.39145000  1.0
  O  O90  1  0.20912000  0.62847000  0.10855000  1.0
  O  O91  1  0.29087000  0.37153000  0.60855000  1.0
  O  O92  1  0.89792000  0.57195000  0.65362000  1.0
  O  O93  1  0.60208000  0.42805000  0.15362000  1.0
  O  O94  1  0.10208000  0.42805000  0.34638000  1.0
  O  O95  1  0.39792000  0.57195000  0.84638000  1.0
  O  O96  1  0.84117000  0.42913000  0.55756000  1.0
  O  O97  1  0.65883000  0.57086000  0.05756000  1.0
  O  O98  1  0.15883000  0.57086000  0.44244000  1.0
  O  O99  1  0.34117000  0.42914000  0.94244000  1.0
  O  O100  1  0.18179000  0.32897000  0.10977000  1.0
  O  O101  1  0.31820000  0.67103000  0.60977000  1.0
  O  O102  1  0.81820000  0.67103000  0.89023000  1.0
  O  O103  1  0.68179000  0.32897000  0.39023000  1.0
  O  O104  1  0.63415000  0.08067000  0.08716000  1.0
  O  O105  1  0.86585000  0.91934000  0.58716000  1.0
  O  O106  1  0.36585000  0.91934000  0.91284000  1.0
  O  O107  1  0.13415000  0.08066000  0.41284000  1.0
  O  O108  1  0.87432000  0.35489000  0.02619000  1.0
  O  O109  1  0.62568000  0.64511000  0.52619000  1.0
  O  O110  1  0.12568000  0.64511000  0.97381000  1.0
  O  O111  1  0.37432000  0.35489000  0.47381000  1.0
  O  O112  1  0.50542000  0.95910000  0.65200000  1.0
  O  O113  1  0.99458000  0.04089000  0.15200000  1.0
  O  O114  1  0.49457000  0.04089000  0.34800000  1.0
  O  O115  1  0.00543000  0.95911000  0.84800000  1.0
  O  O116  1  0.21831000  0.07282000  0.02350000  1.0
  O  O117  1  0.28169000  0.92718000  0.52350000  1.0
  O  O118  1  0.78169000  0.92718000  0.97650000  1.0
  O  O119  1  0.71831000  0.07282000  0.47650000  1.0
