# generated using pymatgen
data_NdP2H12C6NO11
_symmetry_space_group_name_H-M   'P 1'
_cell_length_a   8.99931000
_cell_length_b   11.01490000
_cell_length_c   15.21720000
_cell_angle_alpha   93.03000000
_cell_angle_beta   90.00000000
_cell_angle_gamma   90.00000000
_symmetry_Int_Tables_number   1
_chemical_formula_structural   NdP2H12C6NO11
_chemical_formula_sum   'Nd4 P8 H48 C24 N4 O44'
_cell_volume   1506.31898169
_cell_formula_units_Z   4
loop_
 _symmetry_equiv_pos_site_id
 _symmetry_equiv_pos_as_xyz
  1  'x, y, z'
loop_
 _atom_site_type_symbol
 _atom_site_label
 _atom_site_symmetry_multiplicity
 _atom_site_fract_x
 _atom_site_fract_y
 _atom_site_fract_z
 _atom_site_occupancy
  Nd  Nd0  1  0.25252000  0.40780000  0.61408000  1.0
  Nd  Nd1  1  0.75252000  0.59220000  0.88591000  1.0
  Nd  Nd2  1  0.74748000  0.59220000  0.38591000  1.0
  Nd  Nd3  1  0.24749000  0.40780000  0.11408000  1.0
  P  P4  1  0.15268000  0.64093000  0.45258000  1.0
  P  P5  1  0.65268000  0.35907000  0.04742000  1.0
  P  P6  1  0.84732000  0.35907000  0.54742000  1.0
  P  P7  1  0.34732000  0.64093000  0.95258000  1.0
  P  P8  1  0.19920000  0.06062000  0.60314000  1.0
  P  P9  1  0.69920000  0.93938000  0.89686000  1.0
  P  P10  1  0.80080000  0.93938000  0.39686000  1.0
  P  P11  1  0.30080000  0.06062000  0.10314000  1.0
  H  H12  1  0.35801000  0.04850000  0.70921000  1.0
  H  H13  1  0.85801000  0.95150000  0.79079000  1.0
  H  H14  1  0.64199000  0.95150000  0.29080000  1.0
  H  H15  1  0.14199000  0.04850000  0.20921000  1.0
  H  H16  1  0.47150000  0.36910000  0.44707000  1.0
  H  H17  1  0.97151000  0.63090000  0.05292000  1.0
  H  H18  1  0.52849000  0.63091000  0.55292000  1.0
  H  H19  1  0.02850000  0.36910000  0.94707000  1.0
  H  H20  1  0.55883000  0.39685000  0.53144000  1.0
  H  H21  1  0.05882000  0.60315000  0.96855000  1.0
  H  H22  1  0.44118000  0.60315000  0.46854000  1.0
  H  H23  1  0.94117000  0.39685000  0.03145000  1.0
  H  H24  1  0.10065000  0.91760000  0.43759000  1.0
  H  H25  1  0.60065000  0.08240000  0.06242000  1.0
  H  H26  1  0.89935000  0.08240000  0.56242000  1.0
  H  H27  1  0.39934000  0.91760000  0.93759000  1.0
  H  H28  1  0.13401000  0.80314000  0.56608000  1.0
  H  H29  1  0.63401000  0.19686000  0.93392000  1.0
  H  H30  1  0.86599000  0.19686000  0.43392000  1.0
  H  H31  1  0.36599000  0.80314000  0.06608000  1.0
  H  H32  1  0.32350000  0.77186000  0.53608000  1.0
  H  H33  1  0.82350000  0.22813000  0.96393000  1.0
  H  H34  1  0.67649000  0.22813000  0.46393000  1.0
  H  H35  1  0.17650000  0.77186000  0.03607000  1.0
  H  H36  1  0.28111000  0.07329000  0.45466000  1.0
  H  H37  1  0.78111000  0.92670000  0.04535000  1.0
  H  H38  1  0.71889000  0.92670000  0.54535000  1.0
  H  H39  1  0.21888000  0.07329000  0.95466000  1.0
  H  H40  1  0.39983000  0.97500000  0.51243000  1.0
  H  H41  1  0.89983000  0.02499000  0.98757000  1.0
  H  H42  1  0.60017000  0.02499000  0.48757000  1.0
  H  H43  1  0.10017000  0.97500000  0.01243000  1.0
  H  H44  1  0.29106000  0.94649000  0.33187000  1.0
  H  H45  1  0.79106000  0.05351000  0.16814000  1.0
  H  H46  1  0.70894000  0.05351000  0.66814000  1.0
  H  H47  1  0.20894000  0.94649000  0.83186000  1.0
  H  H48  1  0.40458000  0.83512000  0.38238000  1.0
  H  H49  1  0.90458000  0.16487000  0.11762000  1.0
  H  H50  1  0.59543000  0.16488000  0.61762000  1.0
  H  H51  1  0.09542000  0.83512000  0.88238000  1.0
  H  H52  1  0.09310000  0.78483000  0.30347000  1.0
  H  H53  1  0.59311000  0.21517000  0.19653000  1.0
  H  H54  1  0.90690000  0.21517000  0.69653000  1.0
  H  H55  1  0.40689000  0.78483000  0.80347000  1.0
  H  H56  1  0.26557000  0.75011000  0.24964000  1.0
  H  H57  1  0.76558000  0.24990000  0.25036000  1.0
  H  H58  1  0.73442000  0.24989000  0.75036000  1.0
  H  H59  1  0.23442000  0.75011000  0.74964000  1.0
  C  C60  1  0.21041000  0.78364000  0.51094000  1.0
  C  C61  1  0.71041000  0.21636000  0.98906000  1.0
  C  C62  1  0.78959000  0.21636000  0.48906000  1.0
  C  C63  1  0.28959000  0.78364000  0.01094000  1.0
  C  C64  1  0.28370000  0.99883000  0.49987000  1.0
  C  C65  1  0.78370000  0.00117000  0.00013000  1.0
  C  C66  1  0.71630000  0.00117000  0.50013000  1.0
  C  C67  1  0.21630000  0.99883000  0.99987000  1.0
  C  C68  1  0.29008000  0.86278000  0.36779000  1.0
  C  C69  1  0.79008000  0.13722000  0.13222000  1.0
  C  C70  1  0.70992000  0.13721000  0.63222000  1.0
  C  C71  1  0.20991000  0.86278000  0.86779000  1.0
  C  C72  1  0.21101000  0.76345000  0.31377000  1.0
  C  C73  1  0.71102000  0.23656000  0.18623000  1.0
  C  C74  1  0.78898000  0.23655000  0.68623000  1.0
  C  C75  1  0.28898000  0.76345000  0.81377000  1.0
  C  C76  1  0.53353000  0.55343000  0.71497000  1.0
  C  C77  1  0.03354000  0.44658000  0.78504000  1.0
  C  C78  1  0.46646000  0.44658000  0.28504000  1.0
  C  C79  1  0.96648000  0.55342000  0.21497000  1.0
  C  C80  1  0.52766000  0.42835000  0.75807000  1.0
  C  C81  1  0.02766000  0.57166000  0.74193000  1.0
  C  C82  1  0.47233000  0.57166000  0.24193000  1.0
  C  C83  1  0.97234000  0.42835000  0.25807000  1.0
  N  N84  1  0.21214000  0.89105000  0.45417000  1.0
  N  N85  1  0.71214000  0.10895000  0.04583000  1.0
  N  N86  1  0.78786000  0.10895000  0.54583000  1.0
  N  N87  1  0.28786000  0.89105000  0.95417000  1.0
  O  O88  1  0.23848000  0.53899000  0.49156000  1.0
  O  O89  1  0.73848000  0.46100000  0.00844000  1.0
  O  O90  1  0.76152000  0.46100000  0.50844000  1.0
  O  O91  1  0.26152000  0.53899000  0.99155000  1.0
  O  O92  1  0.22515000  0.64928000  0.35588000  1.0
  O  O93  1  0.72516000  0.35072000  0.14412000  1.0
  O  O94  1  0.77485000  0.35072000  0.64412000  1.0
  O  O95  1  0.27484000  0.64928000  0.85588000  1.0
  O  O96  1  0.98630000  0.63941000  0.44851000  1.0
  O  O97  1  0.48630000  0.36060000  0.05150000  1.0
  O  O98  1  0.01370000  0.36059000  0.55149000  1.0
  O  O99  1  0.51370000  0.63940000  0.94851000  1.0
  O  O100  1  0.03866000  0.02305000  0.60624000  1.0
  O  O101  1  0.53866000  0.97696000  0.89377000  1.0
  O  O102  1  0.96134000  0.97696000  0.39376000  1.0
  O  O103  1  0.46134000  0.02305000  0.10623000  1.0
  O  O104  1  0.24738000  0.19132000  0.60652000  1.0
  O  O105  1  0.74738000  0.80868000  0.89348000  1.0
  O  O106  1  0.75262000  0.80868000  0.39348000  1.0
  O  O107  1  0.25262000  0.19132000  0.10651000  1.0
  O  O108  1  0.28490000  0.99345000  0.68115000  1.0
  O  O109  1  0.78490000  0.00655000  0.81886000  1.0
  O  O110  1  0.71510000  0.00655000  0.31886000  1.0
  O  O111  1  0.21510000  0.99345000  0.18115000  1.0
  O  O112  1  0.45304000  0.56404000  0.64665000  1.0
  O  O113  1  0.95304000  0.43595000  0.85335000  1.0
  O  O114  1  0.54696000  0.43596000  0.35335000  1.0
  O  O115  1  0.04696000  0.56404000  0.14665000  1.0
  O  O116  1  0.61672000  0.63437000  0.74945000  1.0
  O  O117  1  0.11673000  0.36564000  0.75055000  1.0
  O  O118  1  0.38327000  0.36564000  0.25055000  1.0
  O  O119  1  0.88328000  0.63436000  0.24945000  1.0
  O  O120  1  0.44160000  0.34871000  0.72347000  1.0
  O  O121  1  0.94158000  0.65128000  0.77652000  1.0
  O  O122  1  0.55842000  0.65129000  0.27652000  1.0
  O  O123  1  0.05841000  0.34871000  0.22347000  1.0
  O  O124  1  0.61243000  0.41599000  0.82357000  1.0
  O  O125  1  0.11241000  0.58402000  0.67642000  1.0
  O  O126  1  0.38758000  0.58402000  0.17643000  1.0
  O  O127  1  0.88758000  0.41598000  0.32357000  1.0
  O  O128  1  0.46993000  0.35156000  0.51065000  1.0
  O  O129  1  0.96993000  0.64844000  0.98934000  1.0
  O  O130  1  0.53007000  0.64844000  0.48934000  1.0
  O  O131  1  0.03007000  0.35156000  0.01065000  1.0
