# generated using pymatgen
data_CdH4C6(N2O)2
_symmetry_space_group_name_H-M   'P 1'
_cell_length_a   6.61475000
_cell_length_b   9.86402000
_cell_length_c   24.28190000
_cell_angle_alpha   89.99990000
_cell_angle_beta   89.99990000
_cell_angle_gamma   90.00000000
_symmetry_Int_Tables_number   1
_chemical_formula_structural   CdH4C6(N2O)2
_chemical_formula_sum   'Cd8 H32 C48 N32 O16'
_cell_volume   1584.34604969
_cell_formula_units_Z   8
loop_
 _symmetry_equiv_pos_site_id
 _symmetry_equiv_pos_as_xyz
  1  'x, y, z'
loop_
 _atom_site_type_symbol
 _atom_site_label
 _atom_site_symmetry_multiplicity
 _atom_site_fract_x
 _atom_site_fract_y
 _atom_site_fract_z
 _atom_site_occupancy
  Cd  Cd0  1  0.86068000  0.86493000  0.96046000  1.0
  Cd  Cd1  1  0.13933000  0.63507000  0.46046000  1.0
  Cd  Cd2  1  0.63932000  0.36493000  0.03954000  1.0
  Cd  Cd3  1  0.36067000  0.13508000  0.53954000  1.0
  Cd  Cd4  1  0.13932000  0.13507000  0.03954000  1.0
  Cd  Cd5  1  0.86068000  0.36493000  0.53954000  1.0
  Cd  Cd6  1  0.36068000  0.63507000  0.96046000  1.0
  Cd  Cd7  1  0.63932000  0.86492000  0.46046000  1.0
  H  H8  1  0.75262000  0.32343000  0.85175000  1.0
  H  H9  1  0.24738000  0.17657000  0.35175000  1.0
  H  H10  1  0.74738000  0.82343000  0.14825000  1.0
  H  H11  1  0.25262000  0.67657000  0.64825000  1.0
  H  H12  1  0.24738000  0.67657000  0.14825000  1.0
  H  H13  1  0.75262000  0.82343000  0.64825000  1.0
  H  H14  1  0.25262000  0.17657000  0.85175000  1.0
  H  H15  1  0.74738000  0.32343000  0.35175000  1.0
  H  H16  1  0.80867000  0.23558000  0.75512000  1.0
  H  H17  1  0.19133000  0.26442000  0.25512000  1.0
  H  H18  1  0.69133000  0.73558000  0.24488000  1.0
  H  H19  1  0.30867000  0.76442000  0.74488000  1.0
  H  H20  1  0.19133000  0.76442000  0.24488000  1.0
  H  H21  1  0.80867000  0.73558000  0.74488000  1.0
  H  H22  1  0.30867000  0.26442000  0.75512000  1.0
  H  H23  1  0.69133000  0.23558000  0.25512000  1.0
  H  H24  1  0.92892000  0.99828000  0.74259000  1.0
  H  H25  1  0.07108000  0.50172000  0.24259000  1.0
  H  H26  1  0.57108000  0.49828000  0.25741000  1.0
  H  H27  1  0.42892000  0.00172000  0.75741000  1.0
  H  H28  1  0.07108000  0.00172000  0.25741000  1.0
  H  H29  1  0.92892000  0.49828000  0.75741000  1.0
  H  H30  1  0.42892000  0.50172000  0.74259000  1.0
  H  H31  1  0.57108000  0.99828000  0.24259000  1.0
  H  H32  1  0.98130000  0.85302000  0.82716000  1.0
  H  H33  1  0.01870000  0.64698000  0.32716000  1.0
  H  H34  1  0.51870000  0.35302000  0.17284000  1.0
  H  H35  1  0.48130000  0.14698000  0.67284000  1.0
  H  H36  1  0.01870000  0.14698000  0.17284000  1.0
  H  H37  1  0.98130000  0.35302000  0.67284000  1.0
  H  H38  1  0.48130000  0.64698000  0.82716000  1.0
  H  H39  1  0.51870000  0.85302000  0.32716000  1.0
  C  C40  1  0.79065000  0.17707000  0.94681000  1.0
  C  C41  1  0.20935000  0.32293000  0.44681000  1.0
  C  C42  1  0.70935000  0.67707000  0.05319000  1.0
  C  C43  1  0.29065000  0.82293000  0.55319000  1.0
  C  C44  1  0.20935000  0.82293000  0.05319000  1.0
  C  C45  1  0.79065000  0.67707000  0.55319000  1.0
  C  C46  1  0.29065000  0.32293000  0.94681000  1.0
  C  C47  1  0.70935000  0.17707000  0.44681000  1.0
  C  C48  1  0.82644000  0.13115000  0.88822000  1.0
  C  C49  1  0.17357000  0.36885000  0.38822000  1.0
  C  C50  1  0.67356000  0.63115000  0.11178000  1.0
  C  C51  1  0.32644000  0.86885000  0.61178000  1.0
  C  C52  1  0.17356000  0.86885000  0.11178000  1.0
  C  C53  1  0.82644000  0.63115000  0.61178000  1.0
  C  C54  1  0.32644000  0.36885000  0.88822000  1.0
  C  C55  1  0.67357000  0.13115000  0.38822000  1.0
  C  C56  1  0.79766000  0.21918000  0.84388000  1.0
  C  C57  1  0.20234000  0.28082000  0.34388000  1.0
  C  C58  1  0.70234000  0.71919000  0.15612000  1.0
  C  C59  1  0.29766000  0.78081000  0.65613000  1.0
  C  C60  1  0.20234000  0.78082000  0.15613000  1.0
  C  C61  1  0.79766000  0.71919000  0.65613000  1.0
  C  C62  1  0.29766000  0.28081000  0.84387000  1.0
  C  C63  1  0.70234000  0.21918000  0.34388000  1.0
  C  C64  1  0.83244000  0.17044000  0.79083000  1.0
  C  C65  1  0.16756000  0.32956000  0.29083000  1.0
  C  C66  1  0.66756000  0.67044000  0.20917000  1.0
  C  C67  1  0.33244000  0.82956000  0.70917000  1.0
  C  C68  1  0.16756000  0.82956000  0.20917000  1.0
  C  C69  1  0.83244000  0.67044000  0.70917000  1.0
  C  C70  1  0.33244000  0.32956000  0.79083000  1.0
  C  C71  1  0.66757000  0.17044000  0.29083000  1.0
  C  C72  1  0.89888000  0.03748000  0.78371000  1.0
  C  C73  1  0.10112000  0.46252000  0.28371000  1.0
  C  C74  1  0.60112000  0.53748000  0.21629000  1.0
  C  C75  1  0.39888000  0.96252000  0.71629000  1.0
  C  C76  1  0.10112000  0.96253000  0.21629000  1.0
  C  C77  1  0.89888000  0.53748000  0.71629000  1.0
  C  C78  1  0.39888000  0.46252000  0.78371000  1.0
  C  C79  1  0.60112000  0.03748000  0.28371000  1.0
  C  C80  1  0.92694000  0.95708000  0.83033000  1.0
  C  C81  1  0.07306000  0.54292000  0.33033000  1.0
  C  C82  1  0.57306000  0.45709000  0.16967000  1.0
  C  C83  1  0.42694000  0.04292000  0.66967000  1.0
  C  C84  1  0.07306000  0.04292000  0.16967000  1.0
  C  C85  1  0.92694000  0.45708000  0.66967000  1.0
  C  C86  1  0.42694000  0.54292000  0.83033000  1.0
  C  C87  1  0.57306000  0.95708000  0.33033000  1.0
  N  N88  1  0.04076000  0.68972000  0.92370000  1.0
  N  N89  1  0.95924000  0.81028000  0.42370000  1.0
  N  N90  1  0.45924000  0.18972000  0.07630000  1.0
  N  N91  1  0.54076000  0.31028000  0.57630000  1.0
  N  N92  1  0.95924000  0.31028000  0.07630000  1.0
  N  N93  1  0.04076000  0.18972000  0.57630000  1.0
  N  N94  1  0.54076000  0.81028000  0.92371000  1.0
  N  N95  1  0.45924000  0.68972000  0.42370000  1.0
  N  N96  1  0.96709000  0.62518000  0.88647000  1.0
  N  N97  1  0.03291000  0.87483000  0.38647000  1.0
  N  N98  1  0.53291000  0.12518000  0.11353000  1.0
  N  N99  1  0.46709000  0.37483000  0.61353000  1.0
  N  N100  1  0.03291000  0.37482000  0.11353000  1.0
  N  N101  1  0.96709000  0.12518000  0.61353000  1.0
  N  N102  1  0.46709000  0.87482000  0.88647000  1.0
  N  N103  1  0.53291000  0.62518000  0.38647000  1.0
  N  N104  1  0.89863000  0.56355000  0.85006000  1.0
  N  N105  1  0.10137000  0.93645000  0.35006000  1.0
  N  N106  1  0.60137000  0.06355000  0.14994000  1.0
  N  N107  1  0.39863000  0.43645000  0.64994000  1.0
  N  N108  1  0.10137000  0.43645000  0.14994000  1.0
  N  N109  1  0.89863000  0.06355000  0.64994000  1.0
  N  N110  1  0.39863000  0.93645000  0.85006000  1.0
  N  N111  1  0.60138000  0.56355000  0.35006000  1.0
  N  N112  1  0.88990000  0.00278000  0.88125000  1.0
  N  N113  1  0.11009000  0.49722000  0.38125000  1.0
  N  N114  1  0.61010000  0.50278000  0.11875000  1.0
  N  N115  1  0.38990000  0.99722000  0.61875000  1.0
  N  N116  1  0.11010000  0.99722000  0.11875000  1.0
  N  N117  1  0.88990000  0.50278000  0.61875000  1.0
  N  N118  1  0.38990000  0.49722000  0.88125000  1.0
  N  N119  1  0.61010000  0.00278000  0.38125000  1.0
  O  O120  1  0.82164000  0.09299000  0.98607000  1.0
  O  O121  1  0.17836000  0.40701000  0.48607000  1.0
  O  O122  1  0.67836000  0.59299000  0.01393000  1.0
  O  O123  1  0.32164000  0.90701000  0.51393000  1.0
  O  O124  1  0.17836000  0.90701000  0.01393000  1.0
  O  O125  1  0.82164000  0.59299000  0.51393000  1.0
  O  O126  1  0.32164000  0.40701000  0.98607000  1.0
  O  O127  1  0.67836000  0.09299000  0.48607000  1.0
  O  O128  1  0.76697000  0.79840000  0.04684000  1.0
  O  O129  1  0.23302000  0.70160000  0.54684000  1.0
  O  O130  1  0.73303000  0.29840000  0.95316000  1.0
  O  O131  1  0.26697000  0.20160000  0.45316000  1.0
  O  O132  1  0.23303000  0.20160000  0.95316000  1.0
  O  O133  1  0.76698000  0.29840000  0.45316000  1.0
  O  O134  1  0.26697000  0.70160000  0.04684000  1.0
  O  O135  1  0.73303000  0.79840000  0.54684000  1.0
