# generated using pymatgen
data_ZnH10C6S2(NO2)4
_symmetry_space_group_name_H-M   'P 1'
_cell_length_a   7.06076000
_cell_length_b   7.28849000
_cell_length_c   7.32423000
_cell_angle_alpha   63.02670000
_cell_angle_beta   67.64580000
_cell_angle_gamma   72.06910000
_symmetry_Int_Tables_number   1
_chemical_formula_structural   ZnH10C6S2(NO2)4
_chemical_formula_sum   'Zn1 H10 C6 S2 N4 O8'
_cell_volume   306.45702339
_cell_formula_units_Z   1
loop_
 _symmetry_equiv_pos_site_id
 _symmetry_equiv_pos_as_xyz
  1  'x, y, z'
loop_
 _atom_site_type_symbol
 _atom_site_label
 _atom_site_symmetry_multiplicity
 _atom_site_fract_x
 _atom_site_fract_y
 _atom_site_fract_z
 _atom_site_occupancy
  Zn  Zn0  1  0.00000000  0.00000000  0.00000000  1.0
  H  H1  1  0.19804000  0.32992000  0.82705000  1.0
  H  H2  1  0.80196000  0.67008000  0.17295000  1.0
  H  H3  1  0.98597000  0.39298000  0.76063000  1.0
  H  H4  1  0.01403000  0.60702000  0.23937000  1.0
  H  H5  1  0.23820000  0.28053000  0.50371000  1.0
  H  H6  1  0.76180000  0.71947000  0.49629000  1.0
  H  H7  1  0.39677000  0.17448000  0.18606000  1.0
  H  H8  1  0.60323000  0.82552000  0.81394000  1.0
  H  H9  1  0.12484000  0.67932000  0.76697000  1.0
  H  H10  1  0.87515000  0.32068000  0.23303000  1.0
  C  C11  1  0.32127000  0.07427000  0.34565000  1.0
  C  C12  1  0.67873000  0.92573000  0.65435000  1.0
  C  C13  1  0.28445000  0.87060000  0.42536000  1.0
  C  C14  1  0.71555000  0.12940000  0.57464000  1.0
  C  C15  1  0.18231000  0.82045000  0.64460000  1.0
  C  C16  1  0.81769000  0.17955000  0.35540000  1.0
  S  S17  1  0.34289000  0.72273000  0.27174000  1.0
  S  S18  1  0.65711000  0.27727000  0.72826000  1.0
  N  N19  1  0.15773000  0.98301000  0.69523000  1.0
  N  N20  1  0.84227000  0.01699000  0.30477000  1.0
  N  N21  1  0.24450000  0.13396000  0.51211000  1.0
  N  N22  1  0.75550000  0.86605000  0.48789000  1.0
  O  O23  1  0.29927000  0.87444000  0.06795000  1.0
  O  O24  1  0.70072000  0.12556000  0.93205000  1.0
  O  O25  1  0.20104000  0.56755000  0.39196000  1.0
  O  O26  1  0.79897000  0.43244000  0.60805000  1.0
  O  O27  1  0.56128000  0.62582000  0.23835000  1.0
  O  O28  1  0.43872000  0.37418000  0.76165000  1.0
  O  O29  1  0.05008000  0.31162000  0.87864000  1.0
  O  O30  1  0.94992000  0.68838000  0.12136000  1.0
