# generated using pymatgen
data_ZnH12C20(NO)6
_symmetry_space_group_name_H-M   'P 1'
_cell_length_a   9.97959000
_cell_length_b   10.30350000
_cell_length_c   10.55260000
_cell_angle_alpha   104.98100000
_cell_angle_beta   98.42840000
_cell_angle_gamma   106.95300000
_symmetry_Int_Tables_number   1
_chemical_formula_structural   ZnH12C20(NO)6
_chemical_formula_sum   'Zn2 H24 C40 N12 O12'
_cell_volume   973.28583881
_cell_formula_units_Z   2
loop_
 _symmetry_equiv_pos_site_id
 _symmetry_equiv_pos_as_xyz
  1  'x, y, z'
loop_
 _atom_site_type_symbol
 _atom_site_label
 _atom_site_symmetry_multiplicity
 _atom_site_fract_x
 _atom_site_fract_y
 _atom_site_fract_z
 _atom_site_occupancy
  Zn  Zn0  1  0.90225000  0.12049000  0.47232000  1.0
  Zn  Zn1  1  0.09775000  0.87951000  0.52767000  1.0
  H  H2  1  0.00585000  0.08276000  0.20369000  1.0
  H  H3  1  0.99415000  0.91723000  0.79630000  1.0
  H  H4  1  0.89081000  0.98420000  0.95320000  1.0
  H  H5  1  0.10918000  0.01580000  0.04679000  1.0
  H  H6  1  0.62272000  0.86063000  0.87613000  1.0
  H  H7  1  0.37727000  0.13936000  0.12386000  1.0
  H  H8  1  0.61176000  0.93681000  0.29511000  1.0
  H  H9  1  0.38825000  0.06319000  0.70489000  1.0
  H  H10  1  0.22916000  0.84972000  0.30444000  1.0
  H  H11  1  0.77084000  0.15028000  0.69556000  1.0
  H  H12  1  0.79305000  0.70219000  0.29546000  1.0
  H  H13  1  0.20695000  0.29781000  0.70454000  1.0
  H  H14  1  0.72868000  0.58485000  0.04622000  1.0
  H  H15  1  0.27132000  0.41515000  0.95378000  1.0
  H  H16  1  0.92328000  0.60616000  0.92044000  1.0
  H  H17  1  0.07671000  0.39384000  0.07956000  1.0
  H  H18  1  0.51298000  0.85308000  0.52623000  1.0
  H  H19  1  0.48702000  0.14692000  0.47377000  1.0
  H  H20  1  0.34009000  0.51989000  0.69311000  1.0
  H  H21  1  0.65992000  0.48011000  0.30689000  1.0
  H  H22  1  0.78232000  0.62991000  0.65763000  1.0
  H  H23  1  0.21768000  0.37010000  0.34237000  1.0
  H  H24  1  0.15738000  0.66449000  0.82608000  1.0
  H  H25  1  0.84261000  0.33551000  0.17392000  1.0
  C  C26  1  0.89047000  0.02457000  0.16402000  1.0
  C  C27  1  0.10952000  0.97543000  0.83598000  1.0
  C  C28  1  0.82608000  0.96984000  0.02611000  1.0
  C  C29  1  0.17391000  0.03016000  0.97388000  1.0
  C  C30  1  0.67761000  0.90141000  0.98295000  1.0
  C  C31  1  0.32238000  0.09859000  0.01705000  1.0
  C  C32  1  0.59739000  0.88898000  0.08020000  1.0
  C  C33  1  0.40261000  0.11102000  0.91979000  1.0
  C  C34  1  0.67044000  0.94486000  0.21670000  1.0
  C  C35  1  0.32956000  0.05514000  0.78329000  1.0
  C  C36  1  0.44101000  0.82334000  0.04098000  1.0
  C  C37  1  0.55899000  0.17666000  0.95903000  1.0
  C  C38  1  0.22143000  0.75587000  0.04934000  1.0
  C  C39  1  0.77856000  0.24412000  0.95066000  1.0
  C  C40  1  0.09351000  0.73297000  0.10366000  1.0
  C  C41  1  0.90649000  0.26703000  0.89634000  1.0
  C  C42  1  0.11901000  0.79267000  0.24429000  1.0
  C  C43  1  0.88099000  0.20733000  0.75571000  1.0
  C  C44  1  0.87629000  0.70855000  0.23896000  1.0
  C  C45  1  0.12371000  0.29145000  0.76104000  1.0
  C  C46  1  0.84117000  0.64424000  0.09928000  1.0
  C  C47  1  0.15883000  0.35576000  0.90071000  1.0
  C  C48  1  0.95056000  0.65662000  0.02975000  1.0
  C  C49  1  0.04943000  0.34338000  0.97025000  1.0
  C  C50  1  0.78709000  0.84038000  0.54869000  1.0
  C  C51  1  0.21291000  0.15962000  0.45131000  1.0
  C  C52  1  0.66126000  0.75189000  0.58862000  1.0
  C  C53  1  0.33874000  0.24812000  0.41138000  1.0
  C  C54  1  0.52702000  0.77153000  0.56970000  1.0
  C  C55  1  0.47299000  0.22848000  0.43030000  1.0
  C  C56  1  0.41049000  0.68691000  0.60553000  1.0
  C  C57  1  0.58952000  0.31309000  0.39448000  1.0
  C  C58  1  0.42944000  0.58384000  0.66310000  1.0
  C  C59  1  0.57056000  0.41616000  0.33691000  1.0
  C  C60  1  0.56345000  0.56673000  0.68257000  1.0
  C  C61  1  0.43655000  0.43328000  0.31744000  1.0
  C  C62  1  0.67973000  0.64784000  0.64503000  1.0
  C  C63  1  0.32028000  0.35217000  0.35497000  1.0
  C  C64  1  0.26554000  0.70845000  0.58895000  1.0
  C  C65  1  0.73446000  0.29155000  0.41105000  1.0
  N  N66  1  0.81392000  0.01169000  0.25758000  1.0
  N  N67  1  0.18608000  0.98831000  0.74241000  1.0
  N  N68  1  0.35442000  0.82708000  0.12869000  1.0
  N  N69  1  0.64558000  0.17291000  0.87131000  1.0
  N  N70  1  0.36976000  0.75534000  0.91146000  1.0
  N  N71  1  0.63024000  0.24466000  0.08854000  1.0
  N  N72  1  0.23082000  0.71271000  0.91831000  1.0
  N  N73  1  0.76918000  0.28729000  0.08169000  1.0
  N  N74  1  0.01363000  0.78195000  0.31028000  1.0
  N  N75  1  0.98636000  0.21805000  0.68972000  1.0
  N  N76  1  0.58429000  0.46131000  0.74685000  1.0
  N  N77  1  0.41572000  0.53870000  0.25315000  1.0
  O  O78  1  0.90066000  0.80712000  0.56363000  1.0
  O  O79  1  0.09934000  0.19288000  0.43637000  1.0
  O  O80  1  0.77075000  0.93927000  0.50458000  1.0
  O  O81  1  0.22925000  0.06073000  0.49542000  1.0
  O  O82  1  0.70566000  0.45000000  0.76564000  1.0
  O  O83  1  0.29435000  0.55000000  0.23436000  1.0
  O  O84  1  0.48012000  0.39014000  0.78077000  1.0
  O  O85  1  0.51989000  0.60987000  0.21923000  1.0
  O  O86  1  0.25476000  0.79542000  0.52257000  1.0
  O  O87  1  0.74525000  0.20458000  0.47743000  1.0
  O  O88  1  0.17064000  0.64602000  0.63955000  1.0
  O  O89  1  0.82936000  0.35398000  0.36045000  1.0
