# generated using pymatgen
data_CdH9C13NO6
_symmetry_space_group_name_H-M   'P 1'
_cell_length_a   7.53777000
_cell_length_b   8.76545000
_cell_length_c   19.92170000
_cell_angle_alpha   90.00070000
_cell_angle_beta   90.00040000
_cell_angle_gamma   80.92450000
_symmetry_Int_Tables_number   1
_chemical_formula_structural   CdH9C13NO6
_chemical_formula_sum   'Cd4 H36 C52 N4 O24'
_cell_volume   1299.78761492
_cell_formula_units_Z   4
loop_
 _symmetry_equiv_pos_site_id
 _symmetry_equiv_pos_as_xyz
  1  'x, y, z'
loop_
 _atom_site_type_symbol
 _atom_site_label
 _atom_site_symmetry_multiplicity
 _atom_site_fract_x
 _atom_site_fract_y
 _atom_site_fract_z
 _atom_site_occupancy
  Cd  Cd0  1  0.19254000  0.41310000  0.05185000  1.0
  Cd  Cd1  1  0.30747000  0.58689000  0.55185000  1.0
  Cd  Cd2  1  0.80747000  0.58690000  0.94816000  1.0
  Cd  Cd3  1  0.69253000  0.41310000  0.44814000  1.0
  H  H4  1  0.37704000  0.46764000  0.93464000  1.0
  H  H5  1  0.12297000  0.53236000  0.43464000  1.0
  H  H6  1  0.62298000  0.53236000  0.06536000  1.0
  H  H7  1  0.87702000  0.46764000  0.56536000  1.0
  H  H8  1  0.46324000  0.30588000  0.95937000  1.0
  H  H9  1  0.03676000  0.69411000  0.45937000  1.0
  H  H10  1  0.53678000  0.69412000  0.04064000  1.0
  H  H11  1  0.96323000  0.30588000  0.54063000  1.0
  H  H12  1  0.94631000  0.69115000  0.11781000  1.0
  H  H13  1  0.55370000  0.30886000  0.61781000  1.0
  H  H14  1  0.05370000  0.30887000  0.88219000  1.0
  H  H15  1  0.44625000  0.69113000  0.38218000  1.0
  H  H16  1  0.12702000  0.08101000  0.05514000  1.0
  H  H17  1  0.37300000  0.91899000  0.55512000  1.0
  H  H18  1  0.87298000  0.91900000  0.94488000  1.0
  H  H19  1  0.62702000  0.08101000  0.44486000  1.0
  H  H20  1  0.24985000  0.30442000  0.20317000  1.0
  H  H21  1  0.25015000  0.69559000  0.70317000  1.0
  H  H22  1  0.75015000  0.69558000  0.79683000  1.0
  H  H23  1  0.74986000  0.30442000  0.29683000  1.0
  H  H24  1  0.59109000  0.02646000  0.19323000  1.0
  H  H25  1  0.90891000  0.97355000  0.69321000  1.0
  H  H26  1  0.40891000  0.97354000  0.80679000  1.0
  H  H27  1  0.09108000  0.02645000  0.30677000  1.0
  H  H28  1  0.21311000  0.42157000  0.31874000  1.0
  H  H29  1  0.28689000  0.57842000  0.81874000  1.0
  H  H30  1  0.78689000  0.57841000  0.68126000  1.0
  H  H31  1  0.71315000  0.42159000  0.18126000  1.0
  H  H32  1  0.04224000  0.68935000  0.33198000  1.0
  H  H33  1  0.45774000  0.31064000  0.83197000  1.0
  H  H34  1  0.95775000  0.31064000  0.66802000  1.0
  H  H35  1  0.54229000  0.68935000  0.16802000  1.0
  H  H36  1  0.15843000  0.90643000  0.15207000  1.0
  H  H37  1  0.34156000  0.09358000  0.65205000  1.0
  H  H38  1  0.84158000  0.09359000  0.84795000  1.0
  H  H39  1  0.65842000  0.90641000  0.34793000  1.0
  C  C40  1  0.69132000  0.14347000  0.10888000  1.0
  C  C41  1  0.80869000  0.85654000  0.60886000  1.0
  C  C42  1  0.30868000  0.85653000  0.89114000  1.0
  C  C43  1  0.19132000  0.14347000  0.39112000  1.0
  C  C44  1  0.51339000  0.24173000  0.09567000  1.0
  C  C45  1  0.98662000  0.75828000  0.59566000  1.0
  C  C46  1  0.48662000  0.75828000  0.90435000  1.0
  C  C47  1  0.01339000  0.24173000  0.40433000  1.0
  C  C48  1  0.82194000  0.26007000  0.00786000  1.0
  C  C49  1  0.67804000  0.73993000  0.50785000  1.0
  C  C50  1  0.17805000  0.73994000  0.99215000  1.0
  C  C51  1  0.32195000  0.26006000  0.49213000  1.0
  C  C52  1  0.84190000  0.15816000  0.06885000  1.0
  C  C53  1  0.65810000  0.84186000  0.56884000  1.0
  C  C54  1  0.15811000  0.84185000  0.93116000  1.0
  C  C55  1  0.34190000  0.15815000  0.43114000  1.0
  C  C56  1  0.00525000  0.63670000  0.16350000  1.0
  C  C57  1  0.49476000  0.36331000  0.66350000  1.0
  C  C58  1  0.99475000  0.36331000  0.83650000  1.0
  C  C59  1  0.50522000  0.63669000  0.33650000  1.0
  C  C60  1  0.98457000  0.71109000  0.22578000  1.0
  C  C61  1  0.51542000  0.28892000  0.72577000  1.0
  C  C62  1  0.01543000  0.28891000  0.77423000  1.0
  C  C63  1  0.48457000  0.71108000  0.27422000  1.0
  C  C64  1  0.00871000  0.07216000  0.08527000  1.0
  C  C65  1  0.49129000  0.92786000  0.58525000  1.0
  C  C66  1  0.99129000  0.92785000  0.91475000  1.0
  C  C67  1  0.50871000  0.07215000  0.41473000  1.0
  C  C68  1  0.17367000  0.41908000  0.21181000  1.0
  C  C69  1  0.32634000  0.58093000  0.71181000  1.0
  C  C70  1  0.82634000  0.58093000  0.78819000  1.0
  C  C71  1  0.67367000  0.41907000  0.28819000  1.0
  C  C72  1  0.70795000  0.04064000  0.16302000  1.0
  C  C73  1  0.79205000  0.95937000  0.66301000  1.0
  C  C74  1  0.29205000  0.95937000  0.83699000  1.0
  C  C75  1  0.20794000  0.04063000  0.33698000  1.0
  C  C76  1  0.15355000  0.48522000  0.27533000  1.0
  C  C77  1  0.34645000  0.51478000  0.77533000  1.0
  C  C78  1  0.84645000  0.51477000  0.72467000  1.0
  C  C79  1  0.65357000  0.48522000  0.22467000  1.0
  C  C80  1  0.05801000  0.63383000  0.28290000  1.0
  C  C81  1  0.44197000  0.36616000  0.78289000  1.0
  C  C82  1  0.94198000  0.36616000  0.71710000  1.0
  C  C83  1  0.55804000  0.63383000  0.21710000  1.0
  C  C84  1  0.87560000  0.95572000  0.17780000  1.0
  C  C85  1  0.62439000  0.04429000  0.67778000  1.0
  C  C86  1  0.12440000  0.04428000  0.82222000  1.0
  C  C87  1  0.37560000  0.95571000  0.32220000  1.0
  C  C88  1  0.02739000  0.97227000  0.14002000  1.0
  C  C89  1  0.47261000  0.02775000  0.64001000  1.0
  C  C90  1  0.97261000  0.02775000  0.85999000  1.0
  C  C91  1  0.52738000  0.97226000  0.35998000  1.0
  N  N92  1  0.09986000  0.49451000  0.15725000  1.0
  N  N93  1  0.40015000  0.50550000  0.65725000  1.0
  N  N94  1  0.90014000  0.50550000  0.84275000  1.0
  N  N95  1  0.59983000  0.49450000  0.34274000  1.0
  O  O96  1  0.50895000  0.38739000  0.08819000  1.0
  O  O97  1  0.99105000  0.61261000  0.58818000  1.0
  O  O98  1  0.49105000  0.61260000  0.91182000  1.0
  O  O99  1  0.00895000  0.38739000  0.41181000  1.0
  O  O100  1  0.34359000  0.36737000  0.94962000  1.0
  O  O101  1  0.15641000  0.63262000  0.44962000  1.0
  O  O102  1  0.65642000  0.63263000  0.05038000  1.0
  O  O103  1  0.84358000  0.36737000  0.55038000  1.0
  O  O104  1  0.94020000  0.35220000  0.99965000  1.0
  O  O105  1  0.55979000  0.64780000  0.49964000  1.0
  O  O106  1  0.05979000  0.64780000  0.00036000  1.0
  O  O107  1  0.44021000  0.35220000  0.50035000  1.0
  O  O108  1  0.37282000  0.17912000  0.09332000  1.0
  O  O109  1  0.12718000  0.82088000  0.59331000  1.0
  O  O110  1  0.62717000  0.82089000  0.90671000  1.0
  O  O111  1  0.87282000  0.17912000  0.40668000  1.0
  O  O112  1  0.69651000  0.25573000  0.96726000  1.0
  O  O113  1  0.80348000  0.74425000  0.46724000  1.0
  O  O114  1  0.30349000  0.74426000  0.03275000  1.0
  O  O115  1  0.19652000  0.25573000  0.53274000  1.0
  O  O116  1  0.88752000  0.85691000  0.23322000  1.0
  O  O117  1  0.61247000  0.14309000  0.73321000  1.0
  O  O118  1  0.11248000  0.14309000  0.76679000  1.0
  O  O119  1  0.38751000  0.85690000  0.26677000  1.0
