# generated using pymatgen
data_DyH15C20(N3O5)2
_symmetry_space_group_name_H-M   'P 1'
_cell_length_a   9.30728000
_cell_length_b   9.49354000
_cell_length_c   13.44300000
_cell_angle_alpha   73.97880000
_cell_angle_beta   81.85720000
_cell_angle_gamma   67.23490000
_symmetry_Int_Tables_number   1
_chemical_formula_structural   DyH15C20(N3O5)2
_chemical_formula_sum   'Dy2 H30 C40 N12 O20'
_cell_volume   1051.92398296
_cell_formula_units_Z   2
loop_
 _symmetry_equiv_pos_site_id
 _symmetry_equiv_pos_as_xyz
  1  'x, y, z'
loop_
 _atom_site_type_symbol
 _atom_site_label
 _atom_site_symmetry_multiplicity
 _atom_site_fract_x
 _atom_site_fract_y
 _atom_site_fract_z
 _atom_site_occupancy
  Dy  Dy0  1  0.73333000  0.55390000  0.98642000  1.0
  Dy  Dy1  1  0.26667000  0.44610000  0.01358000  1.0
  H  H2  1  0.50663000  0.89966000  0.91901000  1.0
  H  H3  1  0.49338000  0.10034000  0.08099000  1.0
  H  H4  1  0.40564000  0.78838000  0.96727000  1.0
  H  H5  1  0.59436000  0.21162000  0.03273000  1.0
  H  H6  1  0.75080000  0.86598000  0.84787000  1.0
  H  H7  1  0.24920000  0.13401000  0.15213000  1.0
  H  H8  1  0.92765000  0.73465000  0.86549000  1.0
  H  H9  1  0.07235000  0.26534000  0.13450000  1.0
  H  H10  1  0.15231000  0.13213000  0.41920000  1.0
  H  H11  1  0.84771000  0.86787000  0.58080000  1.0
  H  H12  1  0.17960000  0.02361000  0.95936000  1.0
  H  H13  1  0.82040000  0.97640000  0.04064000  1.0
  H  H14  1  0.03618000  0.90333000  0.71321000  1.0
  H  H15  1  0.96381000  0.09667000  0.28679000  1.0
  H  H16  1  0.33772000  0.44503000  0.54649000  1.0
  H  H17  1  0.66228000  0.55497000  0.45351000  1.0
  H  H18  1  0.95436000  0.18254000  0.61489000  1.0
  H  H19  1  0.04563000  0.81746000  0.38512000  1.0
  H  H20  1  0.73400000  0.69748000  0.51019000  1.0
  H  H21  1  0.26601000  0.30251000  0.48981000  1.0
  H  H22  1  0.66631000  0.24205000  0.82303000  1.0
  H  H23  1  0.33369000  0.75796000  0.17697000  1.0
  H  H24  1  0.07536000  0.54243000  0.72860000  1.0
  H  H25  1  0.92464000  0.45758000  0.27140000  1.0
  H  H26  1  0.24545000  0.72691000  0.45881000  1.0
  H  H27  1  0.75455000  0.27309000  0.54119000  1.0
  H  H28  1  0.44656000  0.81242000  0.69406000  1.0
  H  H29  1  0.55344000  0.18758000  0.30594000  1.0
  H  H30  1  0.46938000  0.97874000  0.72111000  1.0
  H  H31  1  0.53062000  0.02126000  0.27889000  1.0
  C  C32  1  0.12928000  0.05812000  0.88389000  1.0
  C  C33  1  0.87071000  0.94188000  0.11611000  1.0
  C  C34  1  0.07708000  0.21690000  0.83134000  1.0
  C  C35  1  0.92292000  0.78310000  0.16866000  1.0
  C  C36  1  0.09159000  0.33068000  0.88445000  1.0
  C  C37  1  0.90841000  0.66933000  0.11555000  1.0
  C  C38  1  0.16636000  0.77623000  0.90209000  1.0
  C  C39  1  0.83363000  0.22378000  0.09792000  1.0
  C  C40  1  0.11278000  0.94437000  0.84349000  1.0
  C  C41  1  0.88721000  0.05564000  0.15651000  1.0
  C  C42  1  0.01150000  0.26130000  0.73435000  1.0
  C  C43  1  0.98849000  0.73870000  0.26565000  1.0
  C  C44  1  0.43570000  0.47023000  0.67225000  1.0
  C  C45  1  0.56429000  0.52977000  0.32775000  1.0
  C  C46  1  0.04670000  0.99099000  0.74666000  1.0
  C  C47  1  0.95330000  0.00902000  0.25334000  1.0
  C  C48  1  0.53134000  0.53225000  0.82026000  1.0
  C  C49  1  0.46866000  0.46775000  0.17974000  1.0
  C  C50  1  0.46686000  0.57387000  0.71546000  1.0
  C  C51  1  0.53313000  0.42613000  0.28455000  1.0
  C  C52  1  0.35718000  0.52750000  0.57969000  1.0
  C  C53  1  0.64282000  0.47250000  0.42031000  1.0
  C  C54  1  0.99915000  0.14748000  0.69184000  1.0
  C  C55  1  0.00085000  0.85252000  0.30817000  1.0
  C  C56  1  0.81701000  0.61933000  0.56917000  1.0
  C  C57  1  0.18300000  0.38067000  0.43083000  1.0
  C  C58  1  0.59569000  0.20599000  0.78514000  1.0
  C  C59  1  0.40432000  0.79401000  0.21486000  1.0
  C  C60  1  0.98951000  0.54659000  0.68007000  1.0
  C  C61  1  0.01048000  0.45341000  0.31993000  1.0
  C  C62  1  0.30662000  0.68635000  0.53038000  1.0
  C  C63  1  0.69339000  0.31365000  0.46962000  1.0
  C  C64  1  0.42112000  0.73186000  0.66206000  1.0
  C  C65  1  0.57888000  0.26814000  0.33794000  1.0
  C  C66  1  0.49390000  0.07535000  0.73274000  1.0
  C  C67  1  0.50610000  0.92465000  0.26726000  1.0
  C  C68  1  0.28598000  0.96308000  0.52318000  1.0
  C  C69  1  0.71403000  0.03693000  0.47683000  1.0
  C  C70  1  0.33892000  0.79079000  0.57105000  1.0
  C  C71  1  0.66108000  0.20920000  0.42895000  1.0
  N  N72  1  0.95585000  0.42058000  0.67680000  1.0
  N  N73  1  0.04415000  0.57942000  0.32320000  1.0
  N  N74  1  0.48491000  0.30556000  0.71622000  1.0
  N  N75  1  0.51508000  0.69444000  0.28378000  1.0
  N  N76  1  0.90329000  0.67343000  0.61299000  1.0
  N  N77  1  0.09672000  0.32657000  0.38701000  1.0
  N  N78  1  0.84500000  0.46716000  0.60513000  1.0
  N  N79  1  0.15501000  0.53284000  0.39487000  1.0
  N  N80  1  0.60382000  0.05884000  0.79752000  1.0
  N  N81  1  0.39618000  0.94117000  0.20248000  1.0
  N  N82  1  0.41904000  0.22167000  0.68246000  1.0
  N  N83  1  0.58096000  0.77833000  0.31754000  1.0
  O  O84  1  0.46116000  0.47039000  0.89713000  1.0
  O  O85  1  0.53884000  0.52961000  0.10287000  1.0
  O  O86  1  0.12524000  0.67860000  0.87473000  1.0
  O  O87  1  0.87476000  0.32141000  0.12528000  1.0
  O  O88  1  0.25312000  0.72947000  0.97954000  1.0
  O  O89  1  0.74688000  0.27053000  0.02046000  1.0
  O  O90  1  0.51058000  0.79671000  0.96113000  1.0
  O  O91  1  0.48942000  0.20330000  0.03887000  1.0
  O  O92  1  0.96818000  0.42801000  0.91575000  1.0
  O  O93  1  0.03183000  0.57198000  0.08426000  1.0
  O  O94  1  0.22790000  0.31977000  0.89712000  1.0
  O  O95  1  0.77211000  0.68023000  0.10287000  1.0
  O  O96  1  0.81463000  0.75309000  0.87677000  1.0
  O  O97  1  0.18537000  0.24690000  0.12322000  1.0
  O  O98  1  0.64701000  0.56732000  0.82718000  1.0
  O  O99  1  0.35298000  0.43268000  0.17282000  1.0
  O  O100  1  0.32378000  0.05153000  0.55675000  1.0
  O  O101  1  0.67621000  0.94846000  0.44325000  1.0
  O  O102  1  0.19217000  0.01089000  0.44389000  1.0
  O  O103  1  0.80785000  0.98911000  0.55610000  1.0
