# generated using pymatgen
data_CuH8C6N2Cl
_symmetry_space_group_name_H-M   'P 1'
_cell_length_a   6.54719000
_cell_length_b   9.02667000
_cell_length_c   12.46410000
_cell_angle_alpha   90.00110000
_cell_angle_beta   89.99950000
_cell_angle_gamma   89.99920000
_symmetry_Int_Tables_number   1
_chemical_formula_structural   CuH8C6N2Cl
_chemical_formula_sum   'Cu4 H32 C24 N8 Cl4'
_cell_volume   736.61987851
_cell_formula_units_Z   4
loop_
 _symmetry_equiv_pos_site_id
 _symmetry_equiv_pos_as_xyz
  1  'x, y, z'
loop_
 _atom_site_type_symbol
 _atom_site_label
 _atom_site_symmetry_multiplicity
 _atom_site_fract_x
 _atom_site_fract_y
 _atom_site_fract_z
 _atom_site_occupancy
  Cu  Cu0  1  0.62821000  0.60344000  0.50209000  1.0
  Cu  Cu1  1  0.87181000  0.39657000  0.00208000  1.0
  Cu  Cu2  1  0.37180000  0.10344000  0.99792000  1.0
  Cu  Cu3  1  0.12819000  0.89655000  0.49792000  1.0
  H  H4  1  0.55247000  0.31640000  0.85099000  1.0
  H  H5  1  0.94753000  0.68364000  0.35099000  1.0
  H  H6  1  0.44753000  0.81638000  0.64900000  1.0
  H  H7  1  0.05249000  0.18362000  0.14902000  1.0
  H  H8  1  0.07099000  0.58045000  0.83072000  1.0
  H  H9  1  0.42907000  0.41951000  0.33074000  1.0
  H  H10  1  0.92902000  0.08048000  0.66927000  1.0
  H  H11  1  0.57097000  0.91949000  0.16926000  1.0
  H  H12  1  0.97167000  0.65485000  0.64288000  1.0
  H  H13  1  0.52837000  0.34512000  0.14288000  1.0
  H  H14  1  0.02834000  0.15488000  0.85712000  1.0
  H  H15  1  0.47164000  0.84509000  0.35711000  1.0
  H  H16  1  0.32989000  0.42214000  0.59986000  1.0
  H  H17  1  0.17009000  0.57790000  0.09985000  1.0
  H  H18  1  0.67011000  0.92213000  0.90013000  1.0
  H  H19  1  0.82991000  0.07786000  0.40013000  1.0
  H  H20  1  0.33233000  0.28902000  0.70492000  1.0
  H  H21  1  0.16765000  0.71103000  0.20491000  1.0
  H  H22  1  0.66764000  0.78900000  0.79508000  1.0
  H  H23  1  0.83236000  0.21099000  0.29508000  1.0
  H  H24  1  0.39067000  0.15948000  0.52954000  1.0
  H  H25  1  0.10929000  0.84055000  0.02953000  1.0
  H  H26  1  0.60930000  0.65949000  0.97046000  1.0
  H  H27  1  0.89067000  0.34053000  0.47047000  1.0
  H  H28  1  0.61865000  0.15040000  0.60468000  1.0
  H  H29  1  0.88132000  0.84960000  0.10465000  1.0
  H  H30  1  0.38130000  0.65043000  0.89534000  1.0
  H  H31  1  0.11866000  0.34957000  0.39537000  1.0
  H  H32  1  0.59488000  0.28150000  0.49923000  1.0
  H  H33  1  0.90510000  0.71849000  0.99921000  1.0
  H  H34  1  0.40512000  0.78154000  0.00078000  1.0
  H  H35  1  0.09484000  0.21847000  0.50080000  1.0
  C  C36  1  0.59737000  0.42306000  0.69750000  1.0
  C  C37  1  0.90263000  0.57696000  0.19748000  1.0
  C  C38  1  0.40262000  0.92305000  0.80250000  1.0
  C  C39  1  0.09741000  0.07694000  0.30251000  1.0
  C  C40  1  0.64812000  0.39030000  0.80342000  1.0
  C  C41  1  0.85186000  0.60972000  0.30341000  1.0
  C  C42  1  0.35185000  0.89029000  0.69658000  1.0
  C  C43  1  0.14817000  0.10971000  0.19660000  1.0
  C  C44  1  0.93230000  0.53861000  0.79308000  1.0
  C  C45  1  0.56775000  0.46137000  0.29309000  1.0
  C  C46  1  0.06770000  0.03863000  0.70691000  1.0
  C  C47  1  0.43231000  0.96135000  0.20692000  1.0
  C  C48  1  0.87925000  0.57766000  0.68940000  1.0
  C  C49  1  0.62079000  0.42233000  0.18941000  1.0
  C  C50  1  0.12076000  0.07768000  0.81059000  1.0
  C  C51  1  0.37925000  0.92231000  0.31059000  1.0
  C  C52  1  0.42674000  0.34252000  0.64327000  1.0
  C  C53  1  0.07325000  0.65750000  0.14326000  1.0
  C  C54  1  0.57324000  0.84252000  0.85672000  1.0
  C  C55  1  0.92676000  0.15747000  0.35673000  1.0
  C  C56  1  0.51250000  0.22688000  0.56487000  1.0
  C  C57  1  0.98747000  0.77314000  0.06485000  1.0
  C  C58  1  0.48748000  0.72690000  0.93515000  1.0
  C  C59  1  0.01249000  0.27311000  0.43516000  1.0
  N  N60  1  0.70955000  0.52320000  0.64065000  1.0
  N  N61  1  0.79046000  0.47681000  0.14065000  1.0
  N  N62  1  0.29044000  0.02321000  0.85935000  1.0
  N  N63  1  0.20957000  0.97679000  0.35935000  1.0
  N  N64  1  0.81361000  0.44756000  0.85277000  1.0
  N  N65  1  0.68640000  0.55244000  0.35277000  1.0
  N  N66  1  0.18638000  0.94756000  0.64723000  1.0
  N  N67  1  0.31363000  0.05243000  0.14723000  1.0
  Cl  Cl68  1  0.76886000  0.85292000  0.51401000  1.0
  Cl  Cl69  1  0.73113000  0.14710000  0.01401000  1.0
  Cl  Cl70  1  0.23114000  0.35292000  0.98600000  1.0
  Cl  Cl71  1  0.26885000  0.64707000  0.48598000  1.0
