# generated using pymatgen
data_Cd3H28C26S2(NO2)10
_symmetry_space_group_name_H-M   'P 1'
_cell_length_a   7.75480000
_cell_length_b   10.13700000
_cell_length_c   11.71130000
_cell_angle_alpha   86.28300000
_cell_angle_beta   89.10720000
_cell_angle_gamma   79.41800000
_symmetry_Int_Tables_number   1
_chemical_formula_structural   Cd3H28C26S2(NO2)10
_chemical_formula_sum   'Cd3 H28 C26 S2 N10 O20'
_cell_volume   903.06297525
_cell_formula_units_Z   1
loop_
 _symmetry_equiv_pos_site_id
 _symmetry_equiv_pos_as_xyz
  1  'x, y, z'
loop_
 _atom_site_type_symbol
 _atom_site_label
 _atom_site_symmetry_multiplicity
 _atom_site_fract_x
 _atom_site_fract_y
 _atom_site_fract_z
 _atom_site_occupancy
  Cd  Cd0  1  0.26398000  0.97321000  0.65704000  1.0
  Cd  Cd1  1  0.73602000  0.02679000  0.34296000  1.0
  Cd  Cd2  1  0.50000000  0.50000000  0.00000000  1.0
  H  H3  1  0.57928000  0.07562000  0.58534000  1.0
  H  H4  1  0.42072000  0.92438000  0.41467000  1.0
  H  H5  1  0.64764000  0.92567000  0.60549000  1.0
  H  H6  1  0.35235000  0.07434000  0.39451000  1.0
  H  H7  1  0.89149000  0.06391000  0.62038000  1.0
  H  H8  1  0.10850000  0.93608000  0.37962000  1.0
  H  H9  1  0.89323000  0.98728000  0.74704000  1.0
  H  H10  1  0.10676000  0.01271000  0.25296000  1.0
  H  H11  1  0.62773000  0.43339000  0.23797000  1.0
  H  H12  1  0.37227000  0.56661000  0.76203000  1.0
  H  H13  1  0.76721000  0.49541000  0.16552000  1.0
  H  H14  1  0.23279000  0.50459000  0.83447000  1.0
  H  H15  1  0.10793000  0.18630000  0.86914000  1.0
  H  H16  1  0.89207000  0.81370000  0.13086000  1.0
  H  H17  1  0.52262000  0.69143000  0.19989000  1.0
  H  H18  1  0.47738000  0.30857000  0.80011000  1.0
  H  H19  1  0.42600000  0.84975000  0.24759000  1.0
  H  H20  1  0.57400000  0.15025000  0.75242000  1.0
  H  H21  1  0.29119000  0.46729000  0.63680000  1.0
  H  H22  1  0.70880000  0.53272000  0.36320000  1.0
  H  H23  1  0.14659000  0.29798000  0.33467000  1.0
  H  H24  1  0.85340000  0.70202000  0.66533000  1.0
  H  H25  1  0.19129000  0.71600000  0.32232000  1.0
  H  H26  1  0.80870000  0.28400000  0.67768000  1.0
  H  H27  1  0.45543000  0.73282000  0.81658000  1.0
  H  H28  1  0.54458000  0.26718000  0.18341000  1.0
  H  H29  1  0.05276000  0.24947000  0.07159000  1.0
  H  H30  1  0.94724000  0.75053000  0.92841000  1.0
  C  C31  1  0.24994000  0.60520000  0.48654000  1.0
  C  C32  1  0.75005000  0.39480000  0.51346000  1.0
  C  C33  1  0.25825000  0.48053000  0.54651000  1.0
  C  C34  1  0.74174000  0.51948000  0.45349000  1.0
  C  C35  1  0.22132000  0.37028000  0.49266000  1.0
  C  C36  1  0.77866000  0.62972000  0.50735000  1.0
  C  C37  1  0.17742000  0.38355000  0.37666000  1.0
  C  C38  1  0.82257000  0.61645000  0.62335000  1.0
  C  C39  1  0.16967000  0.50790000  0.31676000  1.0
  C  C40  1  0.83032000  0.49210000  0.68324000  1.0
  C  C41  1  0.20357000  0.61932000  0.37041000  1.0
  C  C42  1  0.79643000  0.38068000  0.62959000  1.0
  C  C43  1  0.28375000  0.72213000  0.54864000  1.0
  C  C44  1  0.71624000  0.27787000  0.45136000  1.0
  C  C45  1  0.22910000  0.23873000  0.55970000  1.0
  C  C46  1  0.77089000  0.76127000  0.44030000  1.0
  C  C47  1  0.40286000  0.79721000  0.88414000  1.0
  C  C48  1  0.59715000  0.20279000  0.11586000  1.0
  C  C49  1  0.38556000  0.82517000  0.08098000  1.0
  C  C50  1  0.61445000  0.17483000  0.91902000  1.0
  C  C51  1  0.28335000  0.95401000  0.05414000  1.0
  C  C52  1  0.71665000  0.04600000  0.94585000  1.0
  C  C53  1  0.12827000  0.15332000  0.04898000  1.0
  C  C54  1  0.87174000  0.84668000  0.95102000  1.0
  C  C55  1  0.25552000  0.99559000  0.93833000  1.0
  C  C56  1  0.74448000  0.00441000  0.06167000  1.0
  S  S57  1  0.11924000  0.52069000  0.16811000  1.0
  S  S58  1  0.88077000  0.47932000  0.83189000  1.0
  N  N59  1  0.31661000  0.92000000  0.85007000  1.0
  N  N60  1  0.68339000  0.08000000  0.14993000  1.0
  N  N61  1  0.43420000  0.74563000  0.99162000  1.0
  N  N62  1  0.56581000  0.25437000  0.00837000  1.0
  N  N63  1  0.20178000  0.05422000  0.12217000  1.0
  N  N64  1  0.79823000  0.94578000  0.87783000  1.0
  N  N65  1  0.15876000  0.12280000  0.93712000  1.0
  N  N66  1  0.84124000  0.87720000  0.06288000  1.0
  N  N67  1  0.43832000  0.78149000  0.18650000  1.0
  N  N68  1  0.56169000  0.21851000  0.81350000  1.0
  O  O69  1  0.26213000  0.83896000  0.49468000  1.0
  O  O70  1  0.73787000  0.16104000  0.50532000  1.0
  O  O71  1  0.56208000  0.99961000  0.63874000  1.0
  O  O72  1  0.43792000  0.00040000  0.36126000  1.0
  O  O73  1  0.32883000  0.70639000  0.65296000  1.0
  O  O74  1  0.67117000  0.29361000  0.34703000  1.0
  O  O75  1  0.96629000  0.02421000  0.68547000  1.0
  O  O76  1  0.03371000  0.97577000  0.31452000  1.0
  O  O77  1  0.25005000  0.23044000  0.66683000  1.0
  O  O78  1  0.74993000  0.76956000  0.33317000  1.0
  O  O79  1  0.63665000  0.50465000  0.17693000  1.0
  O  O80  1  0.36335000  0.49535000  0.82307000  1.0
  O  O81  1  0.21597000  0.13646000  0.50260000  1.0
  O  O82  1  0.78402000  0.86354000  0.49740000  1.0
  O  O83  1  0.27852000  0.44623000  0.11361000  1.0
  O  O84  1  0.72150000  0.55377000  0.88640000  1.0
  O  O85  1  0.08166000  0.66324000  0.13241000  1.0
  O  O86  1  0.91835000  0.33676000  0.86758000  1.0
  O  O87  1  0.97370000  0.44783000  0.15559000  1.0
  O  O88  1  0.02631000  0.55217000  0.84440000  1.0
