# generated using pymatgen
data_NiH10C10S(NO)6
_symmetry_space_group_name_H-M   'P 1'
_cell_length_a   8.79677000
_cell_length_b   11.23280000
_cell_length_c   14.23230000
_cell_angle_alpha   90.00000000
_cell_angle_beta   90.00000000
_cell_angle_gamma   92.84560000
_symmetry_Int_Tables_number   1
_chemical_formula_structural   NiH10C10S(NO)6
_chemical_formula_sum   'Ni4 H40 C40 S4 N24 O24'
_cell_volume   1404.59304198
_cell_formula_units_Z   4
loop_
 _symmetry_equiv_pos_site_id
 _symmetry_equiv_pos_as_xyz
  1  'x, y, z'
loop_
 _atom_site_type_symbol
 _atom_site_label
 _atom_site_symmetry_multiplicity
 _atom_site_fract_x
 _atom_site_fract_y
 _atom_site_fract_z
 _atom_site_occupancy
  Ni  Ni0  1  0.91099000  0.77846000  0.74413000  1.0
  Ni  Ni1  1  0.58906000  0.72154000  0.24413000  1.0
  Ni  Ni2  1  0.08906000  0.22154000  0.25588000  1.0
  Ni  Ni3  1  0.41099000  0.27846000  0.75587000  1.0
  H  H4  1  0.71927000  0.95429000  0.85129000  1.0
  H  H5  1  0.78075000  0.54576000  0.35130000  1.0
  H  H6  1  0.28074000  0.04575000  0.14870000  1.0
  H  H7  1  0.21927000  0.45429000  0.64871000  1.0
  H  H8  1  0.70998000  0.02990000  0.01784000  1.0
  H  H9  1  0.79001000  0.47011000  0.51784000  1.0
  H  H10  1  0.29002000  0.97011000  0.98216000  1.0
  H  H11  1  0.20998000  0.52990000  0.48216000  1.0
  H  H12  1  0.05192000  0.80468000  0.09096000  1.0
  H  H13  1  0.44807000  0.69531000  0.59098000  1.0
  H  H14  1  0.94807000  0.19531000  0.90902000  1.0
  H  H15  1  0.55192000  0.30468000  0.40904000  1.0
  H  H16  1  0.00809000  0.60189000  0.93811000  1.0
  H  H17  1  0.49187000  0.89811000  0.43814000  1.0
  H  H18  1  0.99187000  0.39811000  0.06186000  1.0
  H  H19  1  0.50809000  0.10189000  0.56189000  1.0
  H  H20  1  0.17343000  0.68936000  0.96768000  1.0
  H  H21  1  0.32654000  0.81063000  0.46770000  1.0
  H  H22  1  0.82654000  0.31062000  0.03231000  1.0
  H  H23  1  0.67343000  0.18936000  0.53233000  1.0
  H  H24  1  0.32386000  0.80967000  0.85871000  1.0
  H  H25  1  0.17613000  0.69029000  0.35869000  1.0
  H  H26  1  0.67613000  0.19029000  0.14131000  1.0
  H  H27  1  0.82386000  0.30967000  0.64129000  1.0
  H  H28  1  0.34697000  0.77346000  0.73855000  1.0
  H  H29  1  0.15302000  0.72654000  0.23854000  1.0
  H  H30  1  0.65302000  0.22655000  0.26146000  1.0
  H  H31  1  0.84696000  0.27346000  0.76146000  1.0
  H  H32  1  0.91470000  0.03281000  0.65771000  1.0
  H  H33  1  0.58531000  0.46719000  0.15771000  1.0
  H  H34  1  0.08531000  0.96719000  0.34229000  1.0
  H  H35  1  0.41470000  0.53280000  0.84229000  1.0
  H  H36  1  0.09488000  0.21501000  0.66408000  1.0
  H  H37  1  0.40520000  0.28498000  0.16416000  1.0
  H  H38  1  0.90520000  0.78498000  0.33584000  1.0
  H  H39  1  0.59488000  0.71500000  0.83591000  1.0
  H  H40  1  0.41781000  0.01391000  0.79456000  1.0
  H  H41  1  0.08225000  0.48609000  0.29464000  1.0
  H  H42  1  0.58224000  0.98609000  0.20536000  1.0
  H  H43  1  0.91781000  0.51390000  0.70544000  1.0
  C  C44  1  0.79039000  0.91934000  0.90635000  1.0
  C  C45  1  0.70962000  0.58069000  0.40637000  1.0
  C  C46  1  0.20962000  0.08069000  0.09363000  1.0
  C  C47  1  0.29039000  0.41934000  0.59365000  1.0
  C  C48  1  0.78781000  0.96137000  0.99827000  1.0
  C  C49  1  0.71219000  0.53865000  0.49828000  1.0
  C  C50  1  0.21219000  0.03864000  0.00172000  1.0
  C  C51  1  0.28781000  0.46137000  0.50173000  1.0
  C  C52  1  0.97322000  0.83698000  0.03882000  1.0
  C  C53  1  0.52677000  0.66302000  0.53884000  1.0
  C  C54  1  0.02677000  0.16302000  0.96116000  1.0
  C  C55  1  0.47322000  0.33698000  0.46118000  1.0
  C  C56  1  0.97324000  0.78883000  0.94803000  1.0
  C  C57  1  0.52675000  0.71117000  0.44804000  1.0
  C  C58  1  0.02675000  0.21117000  0.05195000  1.0
  C  C59  1  0.47324000  0.28884000  0.55197000  1.0
  C  C60  1  0.07038000  0.68764000  0.92412000  1.0
  C  C61  1  0.42958000  0.81236000  0.42414000  1.0
  C  C62  1  0.92958000  0.31236000  0.07586000  1.0
  C  C63  1  0.57038000  0.18764000  0.57588000  1.0
  C  C64  1  0.26388000  0.80097000  0.79103000  1.0
  C  C65  1  0.23611000  0.69904000  0.29102000  1.0
  C  C66  1  0.73611000  0.19904000  0.20897000  1.0
  C  C67  1  0.76388000  0.30096000  0.70897000  1.0
  C  C68  1  0.20679000  0.91747000  0.75924000  1.0
  C  C69  1  0.29324000  0.58253000  0.25928000  1.0
  C  C70  1  0.79323000  0.08253000  0.24072000  1.0
  C  C71  1  0.70679000  0.41747000  0.74076000  1.0
  C  C72  1  0.02688000  0.03014000  0.68981000  1.0
  C  C73  1  0.47317000  0.46985000  0.18986000  1.0
  C  C74  1  0.97317000  0.96985000  0.31014000  1.0
  C  C75  1  0.52689000  0.53013000  0.81019000  1.0
  C  C76  1  0.12657000  0.13004000  0.69283000  1.0
  C  C77  1  0.37351000  0.36994000  0.19292000  1.0
  C  C78  1  0.87351000  0.86994000  0.30708000  1.0
  C  C79  1  0.62657000  0.63004000  0.80717000  1.0
  C  C80  1  0.30505000  0.01923000  0.76380000  1.0
  C  C81  1  0.19500000  0.48075000  0.26389000  1.0
  C  C82  1  0.69500000  0.98075000  0.23611000  1.0
  C  C83  1  0.80506000  0.51923000  0.73620000  1.0
  S  S84  1  0.12125000  0.68048000  0.80084000  1.0
  S  S85  1  0.37872000  0.81954000  0.30086000  1.0
  S  S86  1  0.87872000  0.31953000  0.19914000  1.0
  S  S87  1  0.62125000  0.18048000  0.69916000  1.0
  N  N88  1  0.88328000  0.83355000  0.88140000  1.0
  N  N89  1  0.61672000  0.66648000  0.38142000  1.0
  N  N90  1  0.11672000  0.16647000  0.11858000  1.0
  N  N91  1  0.38328000  0.33355000  0.61860000  1.0
  N  N92  1  0.88139000  0.92239000  0.06434000  1.0
  N  N93  1  0.61861000  0.57761000  0.56436000  1.0
  N  N94  1  0.11862000  0.07761000  0.93564000  1.0
  N  N95  1  0.38139000  0.42239000  0.43566000  1.0
  N  N96  1  0.26543000  0.12506000  0.73205000  1.0
  N  N97  1  0.23460000  0.37497000  0.23205000  1.0
  N  N98  1  0.73460000  0.87497000  0.26795000  1.0
  N  N99  1  0.76544000  0.62506000  0.76795000  1.0
  N  N100  1  0.06579000  0.92403000  0.72415000  1.0
  N  N101  1  0.43417000  0.57598000  0.22409000  1.0
  N  N102  1  0.93416000  0.07598000  0.27591000  1.0
  N  N103  1  0.56579000  0.42403000  0.77585000  1.0
  N  N104  1  0.04281000  0.71101000  0.55830000  1.0
  N  N105  1  0.45713000  0.78899000  0.05830000  1.0
  N  N106  1  0.95712000  0.28899000  0.44170000  1.0
  N  N107  1  0.54283000  0.21101000  0.94170000  1.0
  N  N108  1  0.65624000  0.90231000  0.63491000  1.0
  N  N109  1  0.84376000  0.59767000  0.13492000  1.0
  N  N110  1  0.34376000  0.09767000  0.36508000  1.0
  N  N111  1  0.15624000  0.40231000  0.86509000  1.0
  O  O112  1  0.91980000  0.72041000  0.60657000  1.0
  O  O113  1  0.58015000  0.77962000  0.10656000  1.0
  O  O114  1  0.08015000  0.27963000  0.39344000  1.0
  O  O115  1  0.41981000  0.22042000  0.89344000  1.0
  O  O116  1  0.17111000  0.72351000  0.59690000  1.0
  O  O117  1  0.32883000  0.77646000  0.09689000  1.0
  O  O118  1  0.82882000  0.27646000  0.40311000  1.0
  O  O119  1  0.67112000  0.22350000  0.90310000  1.0
  O  O120  1  0.02887000  0.68741000  0.47203000  1.0
  O  O121  1  0.47108000  0.81259000  0.97204000  1.0
  O  O122  1  0.97108000  0.31260000  0.52797000  1.0
  O  O123  1  0.52888000  0.18741000  0.02796000  1.0
  O  O124  1  0.70895000  0.86224000  0.71383000  1.0
  O  O125  1  0.79103000  0.63773000  0.21385000  1.0
  O  O126  1  0.29104000  0.13773000  0.28616000  1.0
  O  O127  1  0.20895000  0.36224000  0.78617000  1.0
  O  O128  1  0.74438000  0.93378000  0.56984000  1.0
  O  O129  1  0.75562000  0.56621000  0.06985000  1.0
  O  O130  1  0.25562000  0.06621000  0.43015000  1.0
  O  O131  1  0.24438000  0.43378000  0.93016000  1.0
  O  O132  1  0.51419000  0.90933000  0.62907000  1.0
  O  O133  1  0.98581000  0.59066000  0.12908000  1.0
  O  O134  1  0.48581000  0.09066000  0.37092000  1.0
  O  O135  1  0.01418000  0.40933000  0.87093000  1.0
