# generated using pymatgen
data_AgPH12C15S2(NO2)2
_symmetry_space_group_name_H-M   'P 1'
_cell_length_a   7.18132000
_cell_length_b   10.77120000
_cell_length_c   12.19070000
_cell_angle_alpha   105.13300000
_cell_angle_beta   99.13630000
_cell_angle_gamma   95.27970000
_symmetry_Int_Tables_number   1
_chemical_formula_structural   AgPH12C15S2(NO2)2
_chemical_formula_sum   'Ag2 P2 H24 C30 S4 N4 O8'
_cell_volume   889.86379551
_cell_formula_units_Z   2
loop_
 _symmetry_equiv_pos_site_id
 _symmetry_equiv_pos_as_xyz
  1  'x, y, z'
loop_
 _atom_site_type_symbol
 _atom_site_label
 _atom_site_symmetry_multiplicity
 _atom_site_fract_x
 _atom_site_fract_y
 _atom_site_fract_z
 _atom_site_occupancy
  Ag  Ag0  1  0.55198000  0.66860000  0.99992000  1.0
  Ag  Ag1  1  0.44800000  0.33136000  0.00005000  1.0
  P  P2  1  0.36324000  0.64581000  0.21755000  1.0
  P  P3  1  0.63677000  0.35419000  0.78245000  1.0
  H  H4  1  0.37273000  0.88545000  0.17242000  1.0
  H  H5  1  0.62727000  0.11455000  0.82758000  1.0
  H  H6  1  0.14289000  0.44245000  0.62443000  1.0
  H  H7  1  0.85712000  0.55755000  0.37555000  1.0
  H  H8  1  0.15578000  0.62458000  0.51328000  1.0
  H  H9  1  0.84425000  0.37543000  0.48671000  1.0
  H  H10  1  0.21530000  0.85838000  0.65853000  1.0
  H  H11  1  0.78473000  0.14163000  0.34146000  1.0
  H  H12  1  0.10556000  0.02289000  0.73588000  1.0
  H  H13  1  0.89440000  0.97711000  0.26413000  1.0
  H  H14  1  0.05305000  0.25987000  0.84776000  1.0
  H  H15  1  0.94692000  0.74012000  0.15224000  1.0
  H  H16  1  0.13146000  0.28853000  0.07497000  1.0
  H  H17  1  0.86853000  0.71148000  0.92503000  1.0
  H  H18  1  0.35985000  0.98603000  0.34154000  1.0
  H  H19  1  0.64015000  0.01398000  0.65846000  1.0
  H  H20  1  0.40203000  0.17868000  0.53359000  1.0
  H  H21  1  0.59792000  0.82132000  0.46642000  1.0
  H  H22  1  0.35968000  0.40151000  0.48694000  1.0
  H  H23  1  0.64037000  0.59850000  0.51308000  1.0
  H  H24  1  0.50870000  0.50028000  0.27700000  1.0
  H  H25  1  0.49132000  0.49972000  0.72299000  1.0
  H  H26  1  0.08614000  0.53127000  0.19937000  1.0
  H  H27  1  0.91390000  0.46872000  0.80062000  1.0
  C  C28  1  0.16489000  0.54709000  0.66151000  1.0
  C  C29  1  0.83512000  0.45291000  0.33848000  1.0
  C  C30  1  0.17087000  0.64333000  0.60662000  1.0
  C  C31  1  0.82914000  0.35668000  0.39336000  1.0
  C  C32  1  0.20224000  0.76991000  0.68526000  1.0
  C  C33  1  0.79778000  0.23009000  0.31473000  1.0
  C  C34  1  0.22214000  0.76919000  0.79960000  1.0
  C  C35  1  0.77785000  0.23081000  0.20040000  1.0
  C  C36  1  0.25209000  0.87470000  0.90602000  1.0
  C  C37  1  0.74789000  0.12530000  0.09398000  1.0
  C  C38  1  0.21034000  0.00195000  0.91197000  1.0
  C  C39  1  0.78961000  0.99804000  0.08803000  1.0
  C  C40  1  0.14014000  0.06417000  0.82893000  1.0
  C  C41  1  0.85981000  0.93583000  0.17107000  1.0
  C  C42  1  0.11716000  0.19098000  0.88792000  1.0
  C  C43  1  0.88279000  0.80901000  0.11208000  1.0
  C  C44  1  0.17624000  0.21282000  0.01031000  1.0
  C  C45  1  0.82372000  0.78718000  0.98969000  1.0
  C  C46  1  0.23178000  0.09330000  0.02631000  1.0
  C  C47  1  0.76818000  0.90670000  0.97368000  1.0
  C  C48  1  0.29008000  0.05144000  0.12429000  1.0
  C  C49  1  0.70992000  0.94856000  0.87571000  1.0
  C  C50  1  0.31278000  0.12758000  0.24379000  1.0
  C  C51  1  0.68728000  0.87243000  0.75621000  1.0
  C  C52  1  0.34853000  0.08679000  0.34345000  1.0
  C  C53  1  0.65148000  0.91322000  0.65656000  1.0
  C  C54  1  0.36958000  0.18930000  0.44643000  1.0
  C  C55  1  0.63042000  0.81070000  0.55357000  1.0
  C  C56  1  0.34790000  0.30711000  0.42485000  1.0
  C  C57  1  0.65213000  0.69289000  0.57515000  1.0
  S  S58  1  0.20273000  0.61029000  0.80966000  1.0
  S  S59  1  0.79727000  0.38971000  0.19033000  1.0
  S  S60  1  0.30173000  0.29310000  0.28030000  1.0
  S  S61  1  0.69835000  0.70690000  0.71970000  1.0
  N  N62  1  0.33074000  0.92768000  0.10498000  1.0
  N  N63  1  0.66923000  0.07232000  0.89502000  1.0
  N  N64  1  0.31342000  0.84081000  0.00214000  1.0
  N  N65  1  0.68653000  0.15919000  0.99786000  1.0
  O  O66  1  0.42162000  0.78999000  0.25430000  1.0
  O  O67  1  0.57839000  0.21001000  0.74572000  1.0
  O  O68  1  0.48670000  0.58915000  0.31168000  1.0
  O  O69  1  0.51330000  0.41084000  0.68833000  1.0
  O  O70  1  0.14609000  0.62110000  0.23660000  1.0
  O  O71  1  0.85391000  0.37890000  0.76338000  1.0
  O  O72  1  0.37532000  0.56416000  0.09693000  1.0
  O  O73  1  0.62471000  0.43585000  0.90308000  1.0
