# generated using pymatgen
data_CoH18C18(NO)4
_symmetry_space_group_name_H-M   'P 1'
_cell_length_a   7.63491000
_cell_length_b   8.08140000
_cell_length_c   14.65170000
_cell_angle_alpha   101.42800000
_cell_angle_beta   89.99930000
_cell_angle_gamma   89.99890000
_symmetry_Int_Tables_number   1
_chemical_formula_structural   CoH18C18(NO)4
_chemical_formula_sum   'Co2 H36 C36 N8 O8'
_cell_volume   886.09834764
_cell_formula_units_Z   2
loop_
 _symmetry_equiv_pos_site_id
 _symmetry_equiv_pos_as_xyz
  1  'x, y, z'
loop_
 _atom_site_type_symbol
 _atom_site_label
 _atom_site_symmetry_multiplicity
 _atom_site_fract_x
 _atom_site_fract_y
 _atom_site_fract_z
 _atom_site_occupancy
  Co  Co0  1  0.59025000  0.24999000  0.25000000  1.0
  Co  Co1  1  0.40974000  0.75001000  0.75000000  1.0
  H  H2  1  0.96165000  0.97352000  0.40154000  1.0
  H  H3  1  0.96163000  0.52643000  0.09845000  1.0
  H  H4  1  0.03833000  0.02647000  0.59847000  1.0
  H  H5  1  0.03837000  0.47357000  0.90156000  1.0
  H  H6  1  0.84089000  0.80072000  0.34157000  1.0
  H  H7  1  0.84089000  0.69925000  0.15842000  1.0
  H  H8  1  0.15909000  0.19927000  0.65844000  1.0
  H  H9  1  0.15911000  0.30075000  0.84159000  1.0
  H  H10  1  0.04542000  0.63194000  0.44136000  1.0
  H  H11  1  0.04541000  0.86807000  0.05864000  1.0
  H  H12  1  0.95460000  0.36809000  0.55864000  1.0
  H  H13  1  0.95460000  0.13191000  0.94136000  1.0
  H  H14  1  0.11640000  0.63579000  0.55912000  1.0
  H  H15  1  0.11641000  0.86421000  0.94088000  1.0
  H  H16  1  0.88361000  0.36424000  0.44087000  1.0
  H  H17  1  0.88360000  0.13577000  0.05912000  1.0
  H  H18  1  0.23494000  0.48677000  0.31491000  1.0
  H  H19  1  0.23492000  0.01324000  0.18509000  1.0
  H  H20  1  0.76506000  0.51323000  0.68509000  1.0
  H  H21  1  0.76507000  0.98678000  0.81491000  1.0
  H  H22  1  0.56522000  0.20131000  0.45617000  1.0
  H  H23  1  0.56521000  0.29869000  0.04383000  1.0
  H  H24  1  0.43480000  0.79873000  0.54384000  1.0
  H  H25  1  0.43481000  0.70128000  0.95615000  1.0
  H  H26  1  0.26392000  0.97717000  0.39097000  1.0
  H  H27  1  0.26393000  0.52278000  0.10900000  1.0
  H  H28  1  0.73607000  0.02284000  0.60904000  1.0
  H  H29  1  0.73607000  0.47722000  0.89101000  1.0
  H  H30  1  0.54502000  0.86433000  0.32225000  1.0
  H  H31  1  0.54503000  0.63562000  0.17771000  1.0
  H  H32  1  0.45496000  0.13568000  0.67775000  1.0
  H  H33  1  0.45497000  0.36438000  0.82230000  1.0
  H  H34  1  0.30739000  0.36309000  0.57912000  1.0
  H  H35  1  0.30737000  0.13692000  0.92088000  1.0
  H  H36  1  0.69263000  0.63696000  0.42088000  1.0
  H  H37  1  0.69264000  0.86303000  0.07911000  1.0
  C  C38  1  0.84543000  0.01008000  0.27360000  1.0
  C  C39  1  0.84544000  0.48989000  0.22641000  1.0
  C  C40  1  0.15456000  0.98991000  0.72641000  1.0
  C  C41  1  0.15456000  0.51011000  0.77361000  1.0
  C  C42  1  0.10296000  0.81586000  0.28982000  1.0
  C  C43  1  0.10296000  0.68409000  0.21015000  1.0
  C  C44  1  0.89703000  0.18413000  0.71019000  1.0
  C  C45  1  0.89703000  0.31590000  0.78985000  1.0
  C  C46  1  0.93688000  0.89745000  0.33184000  1.0
  C  C47  1  0.93688000  0.60250000  0.16813000  1.0
  C  C48  1  0.06311000  0.10254000  0.66816000  1.0
  C  C49  1  0.06312000  0.39749000  0.83187000  1.0
  C  C50  1  0.07847000  0.55523000  0.49269000  1.0
  C  C51  1  0.07847000  0.94477000  0.00731000  1.0
  C  C52  1  0.92155000  0.44480000  0.50731000  1.0
  C  C53  1  0.92154000  0.05520000  0.99269000  1.0
  C  C54  1  0.29281000  0.42909000  0.36853000  1.0
  C  C55  1  0.29279000  0.07091000  0.13147000  1.0
  C  C56  1  0.70720000  0.57092000  0.63147000  1.0
  C  C57  1  0.70721000  0.92908000  0.86852000  1.0
  C  C58  1  0.45782000  0.28277000  0.44531000  1.0
  C  C59  1  0.45781000  0.21723000  0.05470000  1.0
  C  C60  1  0.54219000  0.71726000  0.55470000  1.0
  C  C61  1  0.54220000  0.78275000  0.94529000  1.0
  C  C62  1  0.26361000  0.87601000  0.32922000  1.0
  C  C63  1  0.26361000  0.62393000  0.17074000  1.0
  C  C64  1  0.73638000  0.12399000  0.67078000  1.0
  C  C65  1  0.73639000  0.37606000  0.82926000  1.0
  C  C66  1  0.42291000  0.81238000  0.29034000  1.0
  C  C67  1  0.42291000  0.68757000  0.20962000  1.0
  C  C68  1  0.57708000  0.18763000  0.70967000  1.0
  C  C69  1  0.57708000  0.31244000  0.79038000  1.0
  C  C70  1  0.33119000  0.35832000  0.50580000  1.0
  C  C71  1  0.33117000  0.14169000  0.99420000  1.0
  C  C72  1  0.66883000  0.64172000  0.49420000  1.0
  C  C73  1  0.66883000  0.85828000  0.00579000  1.0
  N  N74  1  0.43328000  0.32843000  0.35965000  1.0
  N  N75  1  0.43326000  0.17157000  0.14036000  1.0
  N  N76  1  0.56674000  0.67158000  0.64035000  1.0
  N  N77  1  0.56674000  0.82843000  0.85964000  1.0
  N  N78  1  0.22824000  0.45060000  0.45624000  1.0
  N  N79  1  0.22823000  0.04941000  0.04376000  1.0
  N  N80  1  0.77177000  0.54942000  0.54376000  1.0
  N  N81  1  0.77177000  0.95058000  0.95623000  1.0
  O  O82  1  0.72619000  0.10841000  0.31822000  1.0
  O  O83  1  0.72619000  0.39157000  0.18178000  1.0
  O  O84  1  0.27381000  0.89159000  0.68178000  1.0
  O  O85  1  0.27380000  0.60842000  0.81821000  1.0
  O  O86  1  0.88080000  0.00041000  0.18968000  1.0
  O  O87  1  0.88082000  0.49955000  0.31030000  1.0
  O  O88  1  0.11919000  0.99957000  0.81032000  1.0
  O  O89  1  0.11915000  0.50043000  0.68969000  1.0
