# generated using pymatgen
data_AlH7C9SO8
_symmetry_space_group_name_H-M   'P 1'
_cell_length_a   6.65956000
_cell_length_b   8.68208000
_cell_length_c   10.68069649
_cell_angle_alpha   75.23547094
_cell_angle_beta   78.48196833
_cell_angle_gamma   75.14180000
_symmetry_Int_Tables_number   1
_chemical_formula_structural   AlH7C9SO8
_chemical_formula_sum   'Al2 H14 C18 S2 O16'
_cell_volume   571.19603809
_cell_formula_units_Z   2
loop_
 _symmetry_equiv_pos_site_id
 _symmetry_equiv_pos_as_xyz
  1  'x, y, z'
loop_
 _atom_site_type_symbol
 _atom_site_label
 _atom_site_symmetry_multiplicity
 _atom_site_fract_x
 _atom_site_fract_y
 _atom_site_fract_z
 _atom_site_occupancy
  Al  Al0  1  0.99254000  0.49249000  0.51480000  1.0
  Al  Al1  1  0.49212000  0.48744000  0.51842000  1.0
  H  H2  1  0.81488000  0.42171000  0.36989000  1.0
  H  H3  1  0.16727000  0.63012000  0.62485000  1.0
  H  H4  1  0.51479000  0.78571000  0.20205000  1.0
  H  H5  1  0.89373000  0.66100000  0.78108000  1.0
  H  H6  1  0.36356000  0.34155000  0.90851000  1.0
  H  H7  1  0.21037000  0.37311000  0.13472000  1.0
  H  H8  1  0.85061000  0.89566000  0.61677000  1.0
  H  H9  1  0.65324000  0.06338000  0.65797000  1.0
  H  H10  1  0.81544000  0.08774000  0.50639000  1.0
  H  H11  1  0.14263000  0.91853000  0.50089000  1.0
  H  H12  1  0.32545000  0.91874000  0.35675000  1.0
  H  H13  1  0.13979000  0.10053000  0.37835000  1.0
  H  H14  1  0.93308000  0.82743000  0.29726000  1.0
  H  H15  1  0.03781000  0.11985000  0.68987000  1.0
  C  C16  1  0.32107000  0.53790000  0.27953000  1.0
  C  C17  1  0.32515000  0.20289000  0.52241000  1.0
  C  C18  1  0.66015000  0.46391000  0.74784000  1.0
  C  C19  1  0.65358000  0.78135000  0.49606000  1.0
  C  C20  1  0.58356000  0.94941000  0.51900000  1.0
  C  C21  1  0.39129000  0.03867000  0.49211000  1.0
  C  C22  1  0.39164000  0.54316000  0.13698000  1.0
  C  C23  1  0.54793000  0.63208000  0.06480000  1.0
  C  C24  1  0.32765000  0.44152000  0.07934000  1.0
  C  C25  1  0.60158000  0.75311000  0.11189000  1.0
  C  C26  1  0.75824000  0.83417000  0.04672000  1.0
  C  C27  1  0.58073000  0.49420000  0.88302000  1.0
  C  C28  1  0.41819000  0.42045000  0.95267000  1.0
  C  C29  1  0.64992000  0.60235000  0.93892000  1.0
  C  C30  1  0.81077000  0.68690000  0.87402000  1.0
  C  C31  1  0.86741000  0.79799000  0.92521000  1.0
  C  C32  1  0.73316000  0.00151000  0.57854000  1.0
  C  C33  1  0.24181000  0.99142000  0.42848000  1.0
  S  S34  1  0.80135000  0.98123000  0.12577000  1.0
  S  S35  1  0.08429000  0.88108000  0.83070000  1.0
  O  O36  1  0.14431000  0.50283000  0.33445000  1.0
  O  O37  1  0.46529000  0.28327000  0.50538000  1.0
  O  O38  1  0.53644000  0.41618000  0.69609000  1.0
  O  O39  1  0.85162000  0.72592000  0.46077000  1.0
  O  O40  1  0.83888000  0.49077000  0.68912000  1.0
  O  O41  1  0.51449000  0.69860000  0.52022000  1.0
  O  O42  1  0.45557000  0.55948000  0.33935000  1.0
  O  O43  1  0.12854000  0.25768000  0.56114000  1.0
  O  O44  1  0.78396000  0.42844000  0.46135000  1.0
  O  O45  1  0.20253000  0.55204000  0.56809000  1.0
  O  O46  1  0.98885000  0.88077000  0.20643000  1.0
  O  O47  1  0.87744000  0.11056000  0.03127000  1.0
  O  O48  1  0.61503000  0.01843000  0.21796000  1.0
  O  O49  1  0.96347000  0.05872000  0.77245000  1.0
  O  O50  1  0.22666000  0.88442000  0.91435000  1.0
  O  O51  1  0.16885000  0.79267000  0.72657000  1.0
