# generated using pymatgen
data_CdH8C14(S2N)2
_symmetry_space_group_name_H-M   'P 1'
_cell_length_a   7.13356000
_cell_length_b   10.25770000
_cell_length_c   22.51967021
_cell_angle_alpha   89.18963687
_cell_angle_beta   80.91391380
_cell_angle_gamma   69.69400000
_symmetry_Int_Tables_number   1
_chemical_formula_structural   CdH8C14(S2N)2
_chemical_formula_sum   'Cd4 H32 C56 S16 N8'
_cell_volume   1524.57925888
_cell_formula_units_Z   4
loop_
 _symmetry_equiv_pos_site_id
 _symmetry_equiv_pos_as_xyz
  1  'x, y, z'
loop_
 _atom_site_type_symbol
 _atom_site_label
 _atom_site_symmetry_multiplicity
 _atom_site_fract_x
 _atom_site_fract_y
 _atom_site_fract_z
 _atom_site_occupancy
  Cd  Cd0  1  0.21689000  0.50737000  0.03606000  1.0
  Cd  Cd1  1  0.26061000  0.99275000  0.46380000  1.0
  Cd  Cd2  1  0.78312000  0.49263000  0.96393000  1.0
  Cd  Cd3  1  0.73940000  0.00725000  0.53620000  1.0
  H  H4  1  0.75917000  0.15347000  0.92771000  1.0
  H  H5  1  0.33932000  0.34683000  0.57264000  1.0
  H  H6  1  0.24085000  0.84654000  0.07228000  1.0
  H  H7  1  0.66067000  0.65316000  0.42736000  1.0
  H  H8  1  0.73038000  0.12779000  0.82064000  1.0
  H  H9  1  0.17793000  0.37283000  0.67968000  1.0
  H  H10  1  0.26964000  0.87222000  0.17935000  1.0
  H  H11  1  0.82207000  0.62716000  0.32032000  1.0
  H  H12  1  0.72005000  0.90812000  0.77927000  1.0
  H  H13  1  0.90680000  0.59249000  0.72090000  1.0
  H  H14  1  0.27996000  0.09188000  0.22072000  1.0
  H  H15  1  0.09320000  0.40751000  0.27911000  1.0
  H  H16  1  0.74575000  0.70591000  0.84476000  1.0
  H  H17  1  0.79589000  0.79442000  0.65526000  1.0
  H  H18  1  0.25423000  0.29410000  0.15524000  1.0
  H  H19  1  0.20413000  0.20558000  0.34474000  1.0
  H  H20  1  0.36099000  0.55609000  0.70951000  1.0
  H  H21  1  0.12486000  0.94460000  0.79032000  1.0
  H  H22  1  0.63901000  0.44391000  0.29049000  1.0
  H  H23  1  0.87517000  0.05539000  0.20968000  1.0
  H  H24  1  0.67635000  0.37411000  0.65840000  1.0
  H  H25  1  0.20821000  0.12610000  0.84160000  1.0
  H  H26  1  0.32365000  0.62589000  0.34160000  1.0
  H  H27  1  0.79176000  0.87390000  0.15840000  1.0
  H  H28  1  0.95185000  0.25029000  0.71447000  1.0
  H  H29  1  0.41667000  0.24968000  0.78570000  1.0
  H  H30  1  0.04815000  0.74970000  0.28553000  1.0
  H  H31  1  0.58330000  0.75033000  0.21430000  1.0
  H  H32  1  0.92911000  0.31364000  0.82291000  1.0
  H  H33  1  0.56561000  0.18637000  0.67726000  1.0
  H  H34  1  0.07087000  0.68635000  0.17710000  1.0
  H  H35  1  0.43437000  0.81365000  0.32274000  1.0
  C  C36  1  0.80113000  0.75584000  0.01857000  1.0
  C  C37  1  0.07526000  0.74414000  0.48152000  1.0
  C  C38  1  0.19887000  0.24417000  0.98143000  1.0
  C  C39  1  0.92476000  0.25586000  0.51848000  1.0
  C  C40  1  0.76796000  0.94378000  0.94673000  1.0
  C  C41  1  0.15752000  0.55633000  0.55344000  1.0
  C  C42  1  0.23204000  0.05622000  0.05326000  1.0
  C  C43  1  0.84248000  0.44367000  0.44656000  1.0
  C  C44  1  0.75633000  0.05626000  0.90993000  1.0
  C  C45  1  0.22145000  0.44401000  0.59033000  1.0
  C  C46  1  0.24367000  0.94375000  0.09007000  1.0
  C  C47  1  0.77855000  0.55599000  0.40967000  1.0
  C  C48  1  0.73968000  0.04105000  0.84985000  1.0
  C  C49  1  0.12959000  0.45940000  0.65040000  1.0
  C  C50  1  0.26031000  0.95896000  0.15015000  1.0
  C  C51  1  0.87041000  0.54060000  0.34960000  1.0
  C  C52  1  0.73485000  0.91619000  0.82640000  1.0
  C  C53  1  0.97662000  0.58428000  0.67377000  1.0
  C  C54  1  0.26515000  0.08382000  0.17360000  1.0
  C  C55  1  0.02339000  0.41572000  0.32624000  1.0
  C  C56  1  0.74760000  0.80355000  0.86254000  1.0
  C  C57  1  0.91284000  0.69671000  0.63752000  1.0
  C  C58  1  0.25239000  0.19646000  0.13745000  1.0
  C  C59  1  0.08716000  0.30329000  0.36249000  1.0
  C  C60  1  0.23485000  0.18305000  0.07688000  1.0
  C  C61  1  0.99559000  0.31684000  0.42304000  1.0
  C  C62  1  0.76514000  0.81696000  0.92312000  1.0
  C  C63  1  0.00441000  0.68316000  0.57697000  1.0
  C  C64  1  0.40891000  0.60873000  0.90300000  1.0
  C  C65  1  0.41991000  0.89143000  0.59699000  1.0
  C  C66  1  0.59109000  0.39127000  0.09699000  1.0
  C  C67  1  0.58013000  0.10855000  0.40301000  1.0
  C  C68  1  0.46841000  0.53548000  0.79540000  1.0
  C  C69  1  0.29802000  0.96502000  0.70452000  1.0
  C  C70  1  0.53159000  0.46451000  0.20459000  1.0
  C  C71  1  0.70199000  0.03497000  0.29548000  1.0
  C  C72  1  0.48357000  0.50365000  0.73430000  1.0
  C  C73  1  0.22012000  0.99689000  0.76560000  1.0
  C  C74  1  0.51642000  0.49635000  0.26570000  1.0
  C  C75  1  0.77987000  0.00311000  0.23440000  1.0
  C  C76  1  0.65970000  0.40124000  0.70604000  1.0
  C  C77  1  0.26622000  0.09901000  0.79396000  1.0
  C  C78  1  0.34030000  0.59875000  0.29396000  1.0
  C  C79  1  0.73377000  0.90099000  0.20604000  1.0
  C  C80  1  0.81756000  0.33146000  0.73783000  1.0
  C  C81  1  0.38653000  0.16865000  0.76228000  1.0
  C  C82  1  0.18243000  0.66853000  0.26218000  1.0
  C  C83  1  0.61346000  0.83136000  0.23772000  1.0
  C  C84  1  0.80573000  0.36538000  0.79824000  1.0
  C  C85  1  0.46901000  0.13474000  0.70187000  1.0
  C  C86  1  0.19426000  0.63461000  0.20176000  1.0
  C  C87  1  0.53098000  0.86528000  0.29813000  1.0
  C  C88  1  0.37036000  0.53173000  0.17249000  1.0
  C  C89  1  0.57529000  0.96803000  0.32747000  1.0
  C  C90  1  0.62964000  0.46826000  0.82751000  1.0
  C  C91  1  0.42471000  0.03198000  0.67253000  1.0
  S  S92  1  0.83518000  0.64629000  0.07771000  1.0
  S  S93  1  0.05937000  0.85343000  0.42230000  1.0
  S  S94  1  0.16481000  0.35372000  0.92229000  1.0
  S  S95  1  0.94065000  0.14656000  0.57770000  1.0
  S  S96  1  0.78948000  0.92826000  0.02258000  1.0
  S  S97  1  0.23970000  0.57173000  0.47762000  1.0
  S  S98  1  0.21051000  0.07174000  0.97742000  1.0
  S  S99  1  0.76031000  0.42826000  0.52238000  1.0
  S  S100  1  0.31732000  0.68911000  0.97308000  1.0
  S  S101  1  0.47901000  0.81093000  0.52692000  1.0
  S  S102  1  0.68268000  0.31089000  0.02691000  1.0
  S  S103  1  0.52102000  0.18907000  0.47308000  1.0
  S  S104  1  0.26916000  0.65215000  0.84395000  1.0
  S  S105  1  0.26390000  0.84831000  0.65592000  1.0
  S  S106  1  0.73084000  0.34785000  0.15604000  1.0
  S  S107  1  0.73612000  0.15168000  0.34408000  1.0
  N  N108  1  0.21599000  0.28515000  0.03527000  1.0
  N  N109  1  0.03686000  0.21480000  0.46468000  1.0
  N  N110  1  0.78400000  0.71486000  0.96472000  1.0
  N  N111  1  0.96316000  0.78519000  0.53532000  1.0
  N  N112  1  0.40809000  0.48636000  0.11276000  1.0
  N  N113  1  0.50768000  0.01356000  0.38717000  1.0
  N  N114  1  0.59189000  0.51363000  0.88724000  1.0
  N  N115  1  0.49231000  0.98645000  0.61284000  1.0
