# generated using pymatgen
data_Tb2H16C14S2O17
_symmetry_space_group_name_H-M   'P 1'
_cell_length_a   12.18385495
_cell_length_b   12.18370000
_cell_length_c   12.18380000
_cell_angle_alpha   115.76400000
_cell_angle_beta   97.50865130
_cell_angle_gamma   115.76416223
_symmetry_Int_Tables_number   1
_chemical_formula_structural   Tb2H16C14S2O17
_chemical_formula_sum   'Tb4 H32 C28 S4 O34'
_cell_volume   1348.20887287
_cell_formula_units_Z   2
loop_
 _symmetry_equiv_pos_site_id
 _symmetry_equiv_pos_as_xyz
  1  'x, y, z'
loop_
 _atom_site_type_symbol
 _atom_site_label
 _atom_site_symmetry_multiplicity
 _atom_site_fract_x
 _atom_site_fract_y
 _atom_site_fract_z
 _atom_site_occupancy
  Tb  Tb0  1  0.73158000  0.18280000  0.60693000  1.0
  Tb  Tb1  1  0.39306000  0.12465000  0.57587000  1.0
  Tb  Tb2  1  0.42413000  0.81719000  0.54878000  1.0
  Tb  Tb3  1  0.45122000  0.87535000  0.26841000  1.0
  H  H4  1  0.57794000  0.13718000  0.76263000  1.0
  H  H5  1  0.23736000  0.81530000  0.37454000  1.0
  H  H6  1  0.62546000  0.86283000  0.44077000  1.0
  H  H7  1  0.55923000  0.18470000  0.42206000  1.0
  H  H8  1  0.88223000  0.44255000  0.89823000  1.0
  H  H9  1  0.10175000  0.98398000  0.54430000  1.0
  H  H10  1  0.45569000  0.55745000  0.43967000  1.0
  H  H11  1  0.56031000  0.01600000  0.11776000  1.0
  H  H12  1  0.87893000  0.31666000  0.90606000  1.0
  H  H13  1  0.09393000  0.97285000  0.41058000  1.0
  H  H14  1  0.58941000  0.68334000  0.56227000  1.0
  H  H15  1  0.43772000  0.02713000  0.12107000  1.0
  H  H16  1  0.01853000  0.33798000  0.67164000  1.0
  H  H17  1  0.32837000  0.34690000  0.66634000  1.0
  H  H18  1  0.33364000  0.66202000  0.68055000  1.0
  H  H19  1  0.31945000  0.65310000  0.98147000  1.0
  H  H20  1  0.01450000  0.47190000  0.75436000  1.0
  H  H21  1  0.24564000  0.26014000  0.71754000  1.0
  H  H22  1  0.28246000  0.52810000  0.54259000  1.0
  H  H23  1  0.45741000  0.73986000  0.98551000  1.0
  H  H24  1  0.08011000  0.35600000  0.25910000  1.0
  H  H25  1  0.74090000  0.82101000  0.09691000  1.0
  H  H26  1  0.90311000  0.64400000  0.72411000  1.0
  H  H27  1  0.27591000  0.17902000  0.91991000  1.0
  H  H28  1  0.88231000  0.10580000  0.07689000  1.0
  H  H29  1  0.92311000  0.80542000  0.02891000  1.0
  H  H30  1  0.97109000  0.89420000  0.77652000  1.0
  H  H31  1  0.22348000  0.19458000  0.11768000  1.0
  H  H32  1  0.20708000  0.42374000  0.96810000  1.0
  H  H33  1  0.03190000  0.23898000  0.45564000  1.0
  H  H34  1  0.54436000  0.57625000  0.78333000  1.0
  H  H35  1  0.21668000  0.76104000  0.79292000  1.0
  C  C36  1  0.26347000  0.55579000  0.23378000  1.0
  C  C37  1  0.76622000  0.02969000  0.32201000  1.0
  C  C38  1  0.67800000  0.44421000  0.70769000  1.0
  C  C39  1  0.29233000  0.97032000  0.73654000  1.0
  C  C40  1  0.15351000  0.40383000  0.12402000  1.0
  C  C41  1  0.87598000  0.02949000  0.27981000  1.0
  C  C42  1  0.72020000  0.59617000  0.74969000  1.0
  C  C43  1  0.25033000  0.97053000  0.84650000  1.0
  C  C44  1  0.06430000  0.31384000  0.15537000  1.0
  C  C45  1  0.84463000  0.90893000  0.15848000  1.0
  C  C46  1  0.84154000  0.68616000  0.75047000  1.0
  C  C47  1  0.24955000  0.09108000  0.93570000  1.0
  C  C48  1  0.95613000  0.17553000  0.05571000  1.0
  C  C49  1  0.94428000  0.90042000  0.11982000  1.0
  C  C50  1  0.88019000  0.82447000  0.78061000  1.0
  C  C51  1  0.21940000  0.09959000  0.04386000  1.0
  C  C52  1  0.93749000  0.12832000  0.92402000  1.0
  C  C53  1  0.07597000  0.01347000  0.20430000  1.0
  C  C54  1  0.79570000  0.87167000  0.80918000  1.0
  C  C55  1  0.19083000  0.98653000  0.06250000  1.0
  C  C56  1  0.02761000  0.21450000  0.89032000  1.0
  C  C57  1  0.10968000  0.13729000  0.32419000  1.0
  C  C58  1  0.67581000  0.78548000  0.81311000  1.0
  C  C59  1  0.18690000  0.86271000  0.97238000  1.0
  C  C60  1  0.13645000  0.35373000  0.99144000  1.0
  C  C61  1  0.00856000  0.14502000  0.36230000  1.0
  C  C62  1  0.63772000  0.64626000  0.78273000  1.0
  C  C63  1  0.21728000  0.85499000  0.86354000  1.0
  S  S64  1  0.99863000  0.14144000  0.71838000  1.0
  S  S65  1  0.28162000  0.28026000  0.42306000  1.0
  S  S66  1  0.57694000  0.85855000  0.85719000  1.0
  S  S67  1  0.14280000  0.71975000  0.00136000  1.0
  O  O68  1  0.34255000  0.63644000  0.20378000  1.0
  O  O69  1  0.79621000  0.13877000  0.43266000  1.0
  O  O70  1  0.56734000  0.36355000  0.70611000  1.0
  O  O71  1  0.29390000  0.86125000  0.65745000  1.0
  O  O72  1  0.26983000  0.59604000  0.35110000  1.0
  O  O73  1  0.64890000  0.91874000  0.24494000  1.0
  O  O74  1  0.75506000  0.40395000  0.67379000  1.0
  O  O75  1  0.32622000  0.08129000  0.73017000  1.0
  O  O76  1  0.82292000  0.99999000  0.82292000  1.0
  O  O77  1  0.17708000  1.00000000  0.17708000  1.0
  O  O78  1  0.01381000  0.01816000  0.66772000  1.0
  O  O79  1  0.33227000  0.34609000  0.35044000  1.0
  O  O80  1  0.64956000  0.98183000  0.99565000  1.0
  O  O81  1  0.00435000  0.65391000  0.98618000  1.0
  O  O82  1  0.09834000  0.26275000  0.71496000  1.0
  O  O83  1  0.28504000  0.38338000  0.54779000  1.0
  O  O84  1  0.45220000  0.73724000  0.83558000  1.0
  O  O85  1  0.16442000  0.61663000  0.90167000  1.0
  O  O86  1  0.86181000  0.09712000  0.65409000  1.0
  O  O87  1  0.34592000  0.20773000  0.44303000  1.0
  O  O88  1  0.55698000  0.90288000  0.76470000  1.0
  O  O89  1  0.23530000  0.79229000  0.13819000  1.0
  O  O90  1  0.55022000  0.08804000  0.66684000  1.0
  O  O91  1  0.33316000  0.88338000  0.42121000  1.0
  O  O92  1  0.57879000  0.91195000  0.46217000  1.0
  O  O93  1  0.53782000  0.11662000  0.44978000  1.0
  O  O94  1  0.82760000  0.33600000  0.85751000  1.0
  O  O95  1  0.14249000  0.97009000  0.47849000  1.0
  O  O96  1  0.52151000  0.66401000  0.49161000  1.0
  O  O97  1  0.50839000  0.02990000  0.17240000  1.0
  O  O98  1  0.96044000  0.37454000  0.67146000  1.0
  O  O99  1  0.32853000  0.28898000  0.70308000  1.0
  O  O100  1  0.29691000  0.62545000  0.58589000  1.0
  O  O101  1  0.41410000  0.71102000  0.03955000  1.0
