# generated using pymatgen
data_CoH20C26N4(ClO2)2
_symmetry_space_group_name_H-M   'P 1'
_cell_length_a   9.78858000
_cell_length_b   10.02610000
_cell_length_c   13.20880000
_cell_angle_alpha   81.74050000
_cell_angle_beta   69.75900000
_cell_angle_gamma   87.25210000
_symmetry_Int_Tables_number   1
_chemical_formula_structural   CoH20C26N4(ClO2)2
_chemical_formula_sum   'Co2 H40 C52 N8 Cl4 O8'
_cell_volume   1203.65682061
_cell_formula_units_Z   2
loop_
 _symmetry_equiv_pos_site_id
 _symmetry_equiv_pos_as_xyz
  1  'x, y, z'
loop_
 _atom_site_type_symbol
 _atom_site_label
 _atom_site_symmetry_multiplicity
 _atom_site_fract_x
 _atom_site_fract_y
 _atom_site_fract_z
 _atom_site_occupancy
  Co  Co0  1  0.33230000  0.67571000  0.71344000  1.0
  Co  Co1  1  0.66769000  0.32429000  0.28656000  1.0
  H  H2  1  0.81177000  0.66241000  0.47271000  1.0
  H  H3  1  0.18822000  0.33758000  0.52730000  1.0
  H  H4  1  0.63703000  0.51037000  0.66303000  1.0
  H  H5  1  0.36297000  0.48963000  0.33697000  1.0
  H  H6  1  0.49595000  0.65121000  0.46015000  1.0
  H  H7  1  0.50405000  0.34879000  0.53985000  1.0
  H  H8  1  0.73076000  0.17184000  0.53199000  1.0
  H  H9  1  0.26923000  0.82816000  0.46802000  1.0
  H  H10  1  0.85231000  0.05611000  0.57046000  1.0
  H  H11  1  0.14769000  0.94389000  0.42954000  1.0
  H  H12  1  0.14371000  0.53625000  0.94765000  1.0
  H  H13  1  0.85629000  0.46375000  0.05235000  1.0
  H  H14  1  0.49942000  0.92547000  0.74724000  1.0
  H  H15  1  0.50058000  0.07453000  0.25276000  1.0
  H  H16  1  0.89573000  0.21335000  0.69286000  1.0
  H  H17  1  0.10427000  0.78665000  0.30714000  1.0
  H  H18  1  0.79485000  0.32463000  0.63118000  1.0
  H  H19  1  0.20515000  0.67537000  0.36883000  1.0
  H  H20  1  0.53679000  0.25433000  0.04052000  1.0
  H  H21  1  0.46321000  0.74568000  0.95948000  1.0
  H  H22  1  0.69139000  0.05106000  0.76885000  1.0
  H  H23  1  0.30861000  0.94894000  0.23115000  1.0
  H  H24  1  0.57279000  0.16737000  0.72706000  1.0
  H  H25  1  0.42720000  0.83263000  0.27295000  1.0
  H  H26  1  0.85785000  0.88442000  0.22604000  1.0
  H  H27  1  0.14215000  0.11558000  0.77396000  1.0
  H  H28  1  0.85856000  0.03165000  0.36253000  1.0
  H  H29  1  0.14144000  0.96835000  0.63747000  1.0
  H  H30  1  0.08369000  0.16324000  0.08996000  1.0
  H  H31  1  0.91631000  0.83675000  0.91004000  1.0
  H  H32  1  0.68163000  0.69882000  0.27236000  1.0
  H  H33  1  0.31837000  0.30118000  0.72763000  1.0
  H  H34  1  0.72057000  0.25100000  0.87865000  1.0
  H  H35  1  0.27943000  0.74900000  0.12135000  1.0
  H  H36  1  0.81802000  0.39572000  0.79859000  1.0
  H  H37  1  0.18198000  0.60428000  0.20141000  1.0
  H  H38  1  0.29293000  0.27670000  0.17946000  1.0
  H  H39  1  0.70708000  0.72330000  0.82054000  1.0
  H  H40  1  0.09777000  0.41210000  0.13495000  1.0
  H  H41  1  0.90224000  0.58790000  0.86505000  1.0
  C  C42  1  0.89348000  0.59072000  0.48505000  1.0
  C  C43  1  0.10651000  0.40927000  0.51495000  1.0
  C  C44  1  0.56061000  0.48033000  0.74441000  1.0
  C  C45  1  0.43939000  0.51967000  0.25559000  1.0
  C  C46  1  0.07429000  0.52178000  0.57049000  1.0
  C  C47  1  0.92571000  0.47821000  0.42951000  1.0
  C  C48  1  0.36594000  0.46382000  0.88981000  1.0
  C  C49  1  0.63407000  0.53619000  0.11019000  1.0
  C  C50  1  0.15437000  0.54566000  0.64503000  1.0
  C  C51  1  0.84562000  0.45434000  0.35497000  1.0
  C  C52  1  0.67998000  0.91859000  0.48934000  1.0
  C  C53  1  0.32001000  0.08141000  0.51066000  1.0
  C  C54  1  0.57753000  0.81250000  0.51686000  1.0
  C  C55  1  0.42247000  0.18750000  0.48314000  1.0
  C  C56  1  0.96733000  0.61168000  0.55453000  1.0
  C  C57  1  0.03266000  0.38832000  0.44547000  1.0
  C  C58  1  0.57489000  0.73260000  0.43874000  1.0
  C  C59  1  0.42511000  0.26740000  0.56126000  1.0
  C  C60  1  0.47423000  0.38115000  0.91506000  1.0
  C  C61  1  0.52577000  0.61886000  0.08494000  1.0
  C  C62  1  0.20132000  0.82247000  0.86272000  1.0
  C  C63  1  0.79869000  0.17753000  0.13728000  1.0
  C  C64  1  0.73734000  0.08748000  0.59349000  1.0
  C  C65  1  0.26266000  0.91252000  0.40651000  1.0
  C  C66  1  0.10122000  0.91373000  0.93505000  1.0
  C  C67  1  0.89878000  0.08627000  0.06495000  1.0
  C  C68  1  0.22796000  0.47508000  0.96806000  1.0
  C  C69  1  0.77205000  0.52493000  0.03194000  1.0
  C  C70  1  0.54335000  0.90464000  0.66369000  1.0
  C  C71  1  0.45665000  0.09536000  0.33631000  1.0
  C  C72  1  0.78455000  0.25026000  0.70334000  1.0
  C  C73  1  0.21545000  0.74974000  0.29666000  1.0
  C  C74  1  0.45178000  0.31296000  0.01926000  1.0
  C  C75  1  0.54823000  0.68704000  0.98074000  1.0
  C  C76  1  0.68693000  0.13411000  0.70564000  1.0
  C  C77  1  0.31306000  0.86589000  0.29436000  1.0
  C  C78  1  0.77924000  0.86646000  0.30835000  1.0
  C  C79  1  0.22076000  0.13354000  0.69165000  1.0
  C  C80  1  0.78223000  0.94791000  0.38477000  1.0
  C  C81  1  0.21777000  0.05209000  0.61523000  1.0
  C  C82  1  0.04723000  0.09071000  0.05078000  1.0
  C  C83  1  0.95277000  0.90929000  0.94923000  1.0
  C  C84  1  0.67731000  0.76116000  0.33450000  1.0
  C  C85  1  0.32269000  0.23884000  0.66550000  1.0
  C  C86  1  0.14742000  0.00630000  0.98738000  1.0
  C  C87  1  0.85258000  0.99370000  0.01262000  1.0
  C  C88  1  0.73487000  0.32224000  0.80442000  1.0
  C  C89  1  0.26513000  0.67777000  0.19558000  1.0
  C  C90  1  0.31496000  0.32731000  0.09668000  1.0
  C  C91  1  0.68505000  0.67270000  0.90332000  1.0
  C  C92  1  0.20392000  0.40524000  0.07174000  1.0
  C  C93  1  0.79609000  0.59477000  0.92826000  1.0
  N  N94  1  0.42451000  0.52559000  0.78253000  1.0
  N  N95  1  0.57549000  0.47441000  0.21747000  1.0
  N  N96  1  0.65413000  0.97509000  0.58447000  1.0
  N  N97  1  0.34587000  0.02491000  0.41553000  1.0
  N  N98  1  0.59526000  0.39156000  0.81995000  1.0
  N  N99  1  0.40474000  0.60845000  0.18005000  1.0
  N  N100  1  0.49375000  0.80660000  0.62695000  1.0
  N  N101  1  0.50625000  0.19340000  0.37305000  1.0
  Cl  Cl102  1  0.92775000  0.75403000  0.62058000  1.0
  Cl  Cl103  1  0.07225000  0.24596000  0.37942000  1.0
  Cl  Cl104  1  0.32803000  0.02572000  0.97364000  1.0
  Cl  Cl105  1  0.67197000  0.97428000  0.02637000  1.0
  O  O106  1  0.26967000  0.62063000  0.59807000  1.0
  O  O107  1  0.73032000  0.37936000  0.40193000  1.0
  O  O108  1  0.10803000  0.49666000  0.74270000  1.0
  O  O109  1  0.89197000  0.50335000  0.25730000  1.0
  O  O110  1  0.32485000  0.79150000  0.86826000  1.0
  O  O111  1  0.67516000  0.20849000  0.13174000  1.0
  O  O112  1  0.15626000  0.77652000  0.79327000  1.0
  O  O113  1  0.84374000  0.22349000  0.20672000  1.0
