# generated using pymatgen
data_CoH16C12N2O9
_symmetry_space_group_name_H-M   'P 1'
_cell_length_a   6.36036000
_cell_length_b   7.62681000
_cell_length_c   16.11263482
_cell_angle_alpha   101.60898883
_cell_angle_beta   90.15428769
_cell_angle_gamma   91.20890000
_symmetry_Int_Tables_number   1
_chemical_formula_structural   CoH16C12N2O9
_chemical_formula_sum   'Co2 H32 C24 N4 O18'
_cell_volume   765.43342778
_cell_formula_units_Z   2
loop_
 _symmetry_equiv_pos_site_id
 _symmetry_equiv_pos_as_xyz
  1  'x, y, z'
loop_
 _atom_site_type_symbol
 _atom_site_label
 _atom_site_symmetry_multiplicity
 _atom_site_fract_x
 _atom_site_fract_y
 _atom_site_fract_z
 _atom_site_occupancy
  Co  Co0  1  0.00001000  0.50000000  0.00000000  1.0
  Co  Co1  1  0.00001000  0.00001000  0.00000000  1.0
  H  H2  1  0.54003000  0.41809000  0.21351000  1.0
  H  H3  1  0.54828000  0.07860000  0.79056000  1.0
  H  H4  1  0.45997000  0.58192000  0.78649000  1.0
  H  H5  1  0.45172000  0.92141000  0.20944000  1.0
  H  H6  1  0.79511000  0.47066000  0.25921000  1.0
  H  H7  1  0.80292000  0.03696000  0.74503000  1.0
  H  H8  1  0.20490000  0.52933000  0.74079000  1.0
  H  H9  1  0.19708000  0.96303000  0.25497000  1.0
  H  H10  1  0.41473000  0.64339000  0.31492000  1.0
  H  H11  1  0.41890000  0.84958000  0.68867000  1.0
  H  H12  1  0.58528000  0.35662000  0.68508000  1.0
  H  H13  1  0.58107000  0.15044000  0.31134000  1.0
  H  H14  1  0.25248000  0.82573000  0.39237000  1.0
  H  H15  1  0.25673000  0.68105000  0.60263000  1.0
  H  H16  1  0.74753000  0.17427000  0.60763000  1.0
  H  H17  1  0.74324000  0.31895000  0.39737000  1.0
  H  H18  1  0.88169000  0.99276000  0.47564000  1.0
  H  H19  1  0.88098000  0.50778000  0.52876000  1.0
  H  H20  1  0.11833000  0.00725000  0.52437000  1.0
  H  H21  1  0.11898000  0.49222000  0.47124000  1.0
  H  H22  1  0.77996000  0.74264000  0.94633000  1.0
  H  H23  1  0.78066000  0.76605000  0.05507000  1.0
  H  H24  1  0.22005000  0.25735000  0.05366000  1.0
  H  H25  1  0.21935000  0.23395000  0.94493000  1.0
  H  H26  1  0.78807000  0.24482000  0.90259000  1.0
  H  H27  1  0.77607000  0.24701000  0.10262000  1.0
  H  H28  1  0.21194000  0.75518000  0.09741000  1.0
  H  H29  1  0.22394000  0.75299000  0.89738000  1.0
  H  H30  1  0.79129000  0.41628000  0.85880000  1.0
  H  H31  1  0.79935000  0.07865000  0.14560000  1.0
  H  H32  1  0.20871000  0.58371000  0.14119000  1.0
  H  H33  1  0.20067000  0.92136000  0.85441000  1.0
  C  C34  1  0.65674000  0.52700000  0.23352000  1.0
  C  C35  1  0.66483000  0.97448000  0.76965000  1.0
  C  C36  1  0.34327000  0.47299000  0.76648000  1.0
  C  C37  1  0.33516000  0.02553000  0.23036000  1.0
  C  C38  1  0.58324000  0.89431000  0.42604000  1.0
  C  C39  1  0.58526000  0.60968000  0.57398000  1.0
  C  C40  1  0.41678000  0.10569000  0.57396000  1.0
  C  C41  1  0.41471000  0.39032000  0.42602000  1.0
  C  C42  1  0.36510000  0.89921000  0.43847000  1.0
  C  C43  1  0.36758000  0.60410000  0.55888000  1.0
  C  C44  1  0.63492000  0.10079000  0.56153000  1.0
  C  C45  1  0.63239000  0.39591000  0.44112000  1.0
  C  C46  1  0.69018000  0.78152000  0.35170000  1.0
  C  C47  1  0.69469000  0.72553000  0.64884000  1.0
  C  C48  1  0.30986000  0.21846000  0.64831000  1.0
  C  C49  1  0.30525000  0.27448000  0.35116000  1.0
  C  C50  1  0.72858000  0.58931000  0.15393000  1.0
  C  C51  1  0.73800000  0.90789000  0.84780000  1.0
  C  C52  1  0.27143000  0.41070000  0.84607000  1.0
  C  C53  1  0.26201000  0.09211000  0.15220000  1.0
  C  C54  1  0.71432000  0.99666000  0.48800000  1.0
  C  C55  1  0.71389000  0.50379000  0.51458000  1.0
  C  C56  1  0.28570000  0.00333000  0.51200000  1.0
  C  C57  1  0.28607000  0.49622000  0.48543000  1.0
  N  N58  1  0.56575000  0.66194000  0.29819000  1.0
  N  N59  1  0.57255000  0.83931000  0.70327000  1.0
  N  N60  1  0.43426000  0.33806000  0.70181000  1.0
  N  N61  1  0.42743000  0.16070000  0.29673000  1.0
  O  O62  1  0.77378000  0.37865000  0.91268000  1.0
  O  O63  1  0.75820000  0.11371000  0.09310000  1.0
  O  O64  1  0.22623000  0.62135000  0.08732000  1.0
  O  O65  1  0.24181000  0.88628000  0.90690000  1.0
  O  O66  1  0.81710000  0.46458000  0.10013000  1.0
  O  O67  1  0.83218000  0.03216000  0.90298000  1.0
  O  O68  1  0.18290000  0.53543000  0.89987000  1.0
  O  O69  1  0.16783000  0.96784000  0.09702000  1.0
  O  O70  1  0.70185000  0.74660000  0.14393000  1.0
  O  O71  1  0.70943000  0.74870000  0.85568000  1.0
  O  O72  1  0.29816000  0.25339000  0.85606000  1.0
  O  O73  1  0.29057000  0.25130000  0.14432000  1.0
  O  O74  1  0.88287000  0.79364000  0.34020000  1.0
  O  O75  1  0.88783000  0.71960000  0.66015000  1.0
  O  O76  1  0.11715000  0.20633000  0.65981000  1.0
  O  O77  1  0.11216000  0.28040000  0.33984000  1.0
  O  O78  1  0.86936000  0.75914000  0.00094000  1.0
  O  O79  1  0.13064000  0.24086000  0.99906000  1.0
