# generated using pymatgen
data_NdH3C4O9
_symmetry_space_group_name_H-M   'P 1'
_cell_length_a   10.35210000
_cell_length_b   10.63430000
_cell_length_c   11.95070000
_cell_angle_alpha   89.99930000
_cell_angle_beta   70.95800000
_cell_angle_gamma   89.99910000
_symmetry_Int_Tables_number   1
_chemical_formula_structural   NdH3C4O9
_chemical_formula_sum   'Nd4 H12 C16 O36'
_cell_volume   1243.62953441
_cell_formula_units_Z   4
loop_
 _symmetry_equiv_pos_site_id
 _symmetry_equiv_pos_as_xyz
  1  'x, y, z'
loop_
 _atom_site_type_symbol
 _atom_site_label
 _atom_site_symmetry_multiplicity
 _atom_site_fract_x
 _atom_site_fract_y
 _atom_site_fract_z
 _atom_site_occupancy
  Nd  Nd0  1  0.19730000  0.60678000  0.62444000  1.0
  Nd  Nd1  1  0.30269000  0.10678000  0.87555000  1.0
  Nd  Nd2  1  0.80271000  0.39321000  0.37555000  1.0
  Nd  Nd3  1  0.69727000  0.89321000  0.12445000  1.0
  H  H4  1  0.99319000  0.74287000  0.87735000  1.0
  H  H5  1  0.50680000  0.24285000  0.62264000  1.0
  H  H6  1  0.00681000  0.25714000  0.12264000  1.0
  H  H7  1  0.49320000  0.75714000  0.37736000  1.0
  H  H8  1  0.94486000  0.61870000  0.82878000  1.0
  H  H9  1  0.55513000  0.11869000  0.67122000  1.0
  H  H10  1  0.05516000  0.38129000  0.17122000  1.0
  H  H11  1  0.44487000  0.88131000  0.32880000  1.0
  H  H12  1  0.10964000  0.55899000  0.89803000  1.0
  H  H13  1  0.39035000  0.05898000  0.60197000  1.0
  H  H14  1  0.89038000  0.44103000  0.10197000  1.0
  H  H15  1  0.60967000  0.94101000  0.39803000  1.0
  C  C16  1  0.93785000  0.53168000  0.54773000  1.0
  C  C17  1  0.56213000  0.03168000  0.95226000  1.0
  C  C18  1  0.06217000  0.46833000  0.45226000  1.0
  C  C19  1  0.43783000  0.96832000  0.04774000  1.0
  C  C20  1  0.51655000  0.55216000  0.45224000  1.0
  C  C21  1  0.98346000  0.05216000  0.04775000  1.0
  C  C22  1  0.48349000  0.44784000  0.54776000  1.0
  C  C23  1  0.01651000  0.94783000  0.95224000  1.0
  C  C24  1  0.34822000  0.84818000  0.70199000  1.0
  C  C25  1  0.15176000  0.34817000  0.79800000  1.0
  C  C26  1  0.65177000  0.15184000  0.29800000  1.0
  C  C27  1  0.84823000  0.65182000  0.20199000  1.0
  C  C28  1  0.29518000  0.90022000  0.60286000  1.0
  C  C29  1  0.20481000  0.40022000  0.89714000  1.0
  C  C30  1  0.70484000  0.09978000  0.39714000  1.0
  C  C31  1  0.79519000  0.59978000  0.10286000  1.0
  O  O32  1  0.82005000  0.50580000  0.54399000  1.0
  O  O33  1  0.67996000  0.00579000  0.95602000  1.0
  O  O34  1  0.17997000  0.49421000  0.45600000  1.0
  O  O35  1  0.32001000  0.99420000  0.04399000  1.0
  O  O36  1  0.96525000  0.60380000  0.62135000  1.0
  O  O37  1  0.53475000  0.10378000  0.87865000  1.0
  O  O38  1  0.03478000  0.39621000  0.37863000  1.0
  O  O39  1  0.46522000  0.89621000  0.12136000  1.0
  O  O40  1  0.63012000  0.54719000  0.37106000  1.0
  O  O41  1  0.86987000  0.04718000  0.12895000  1.0
  O  O42  1  0.36991000  0.45283000  0.62895000  1.0
  O  O43  1  0.13009000  0.95281000  0.87106000  1.0
  O  O44  1  0.42619000  0.63675000  0.46359000  1.0
  O  O45  1  0.07379000  0.13674000  0.03641000  1.0
  O  O46  1  0.57383000  0.36325000  0.53641000  1.0
  O  O47  1  0.92615000  0.86325000  0.96358000  1.0
  O  O48  1  0.32995000  0.73225000  0.72110000  1.0
  O  O49  1  0.17003000  0.23225000  0.77891000  1.0
  O  O50  1  0.67009000  0.26775000  0.27889000  1.0
  O  O51  1  0.82994000  0.76775000  0.22111000  1.0
  O  O52  1  0.40309000  0.92575000  0.75248000  1.0
  O  O53  1  0.09689000  0.42578000  0.74752000  1.0
  O  O54  1  0.59688000  0.07421000  0.24754000  1.0
  O  O55  1  0.90312000  0.57425000  0.25247000  1.0
  O  O56  1  0.22172000  0.83336000  0.56353000  1.0
  O  O57  1  0.27827000  0.33333333  0.93647000  1.0
  O  O58  1  0.77829000  0.16665000  0.43647000  1.0
  O  O59  1  0.72173000  0.66666667  0.06354000  1.0
  O  O60  1  0.33156000  0.01376000  0.56130000  1.0
  O  O61  1  0.16843000  0.51378000  0.93870000  1.0
  O  O62  1  0.66845000  0.98621000  0.43870000  1.0
  O  O63  1  0.83159000  0.48624000  0.06130000  1.0
  O  O64  1  0.02637000  0.66045000  0.83529000  1.0
  O  O65  1  0.47363000  0.16044000  0.66470000  1.0
  O  O66  1  0.97365000  0.33955000  0.16470000  1.0
  O  O67  1  0.52637000  0.83956000  0.33530000  1.0
