# generated using pymatgen
data_CuH14C15(NO)4
_symmetry_space_group_name_H-M   'P 1'
_cell_length_a   12.76020000
_cell_length_b   14.25350000
_cell_length_c   15.41910000
_cell_angle_alpha   66.01330000
_cell_angle_beta   89.73830000
_cell_angle_gamma   83.30280000
_symmetry_Int_Tables_number   1
_chemical_formula_structural   CuH14C15(NO)4
_chemical_formula_sum   'Cu6 H84 C90 N24 O24'
_cell_volume   2541.87875586
_cell_formula_units_Z   6
loop_
 _symmetry_equiv_pos_site_id
 _symmetry_equiv_pos_as_xyz
  1  'x, y, z'
loop_
 _atom_site_type_symbol
 _atom_site_label
 _atom_site_symmetry_multiplicity
 _atom_site_fract_x
 _atom_site_fract_y
 _atom_site_fract_z
 _atom_site_occupancy
  Cu  Cu0  1  0.26488000  0.00309000  0.25669000  1.0
  Cu  Cu1  1  0.73512000  0.99691000  0.74332000  1.0
  Cu  Cu2  1  0.75961000  0.40665000  0.17323000  1.0
  Cu  Cu3  1  0.24039000  0.59335000  0.82677000  1.0
  Cu  Cu4  1  0.74458000  0.58088000  0.32437000  1.0
  Cu  Cu5  1  0.25542000  0.41911000  0.67564000  1.0
  H  H6  1  0.06596000  0.95349000  0.17410000  1.0
  H  H7  1  0.93404000  0.04651000  0.82591000  1.0
  H  H8  1  0.12509000  0.94018000  0.44771000  1.0
  H  H9  1  0.87490000  0.05982000  0.55229000  1.0
  H  H10  1  0.91727000  0.90459000  0.43323000  1.0
  H  H11  1  0.08273000  0.09541000  0.56677000  1.0
  H  H12  1  0.84838000  0.83593000  0.28221000  1.0
  H  H13  1  0.15162000  0.16407000  0.71778000  1.0
  H  H14  1  0.88102000  0.93328000  0.17345000  1.0
  H  H15  1  0.11898000  0.06672000  0.82655000  1.0
  H  H16  1  0.74470000  0.96275000  0.32723000  1.0
  H  H17  1  0.25530000  0.03726000  0.67277000  1.0
  H  H18  1  0.78936000  0.06861000  0.22986000  1.0
  H  H19  1  0.21064000  0.93139000  0.77014000  1.0
  H  H20  1  0.69929000  0.02368000  0.11474000  1.0
  H  H21  1  0.30070000  0.97632000  0.88526000  1.0
  H  H22  1  0.67248000  0.90439000  0.20548000  1.0
  H  H23  1  0.32752000  0.09562000  0.79452000  1.0
  H  H24  1  0.48695000  0.90853000  0.21867000  1.0
  H  H25  1  0.51305000  0.09147000  0.78133000  1.0
  H  H26  1  0.60812000  0.18185000  0.19482000  1.0
  H  H27  1  0.39188000  0.81816000  0.80518000  1.0
  H  H28  1  0.39150000  0.20177000  0.21857000  1.0
  H  H29  1  0.60849000  0.79823000  0.78143000  1.0
  H  H30  1  0.83938000  0.18019000  0.32548000  1.0
  H  H31  1  0.16062000  0.81981000  0.67452000  1.0
  H  H32  1  0.70046000  0.06841000  0.45955000  1.0
  H  H33  1  0.29954000  0.93159000  0.54046000  1.0
  H  H34  1  0.54622000  0.36558000  0.28106000  1.0
  H  H35  1  0.45378000  0.63441000  0.71894000  1.0
  H  H36  1  0.48000000  0.11303000  0.44267000  1.0
  H  H37  1  0.52000000  0.88697000  0.55732000  1.0
  H  H38  1  0.43717000  0.24673000  0.40189000  1.0
  H  H39  1  0.56284000  0.75327000  0.59811000  1.0
  H  H40  1  0.58748000  0.12357000  0.57719000  1.0
  H  H41  1  0.41252000  0.87643000  0.42281000  1.0
  H  H42  1  0.44902000  0.14383000  0.58190000  1.0
  H  H43  1  0.55098000  0.85617000  0.41809000  1.0
  H  H44  1  0.44739000  0.33422000  0.51550000  1.0
  H  H45  1  0.55260000  0.66578000  0.48450000  1.0
  H  H46  1  0.51204000  0.26681000  0.62758000  1.0
  H  H47  1  0.48796000  0.73319000  0.37242000  1.0
  H  H48  1  0.53568000  0.47685000  0.40683000  1.0
  H  H49  1  0.46432000  0.52315000  0.59317000  1.0
  H  H50  1  0.85676000  0.37729000  0.49356000  1.0
  H  H51  1  0.14324000  0.62270000  0.50644000  1.0
  H  H52  1  0.73712000  0.22326000  0.60510000  1.0
  H  H53  1  0.26287000  0.77674000  0.39490000  1.0
  H  H54  1  0.97015000  0.51671000  0.10890000  1.0
  H  H55  1  0.02986000  0.48328000  0.89110000  1.0
  H  H56  1  0.66401000  0.58421000  0.98077000  1.0
  H  H57  1  0.33599000  0.41578000  0.01924000  1.0
  H  H58  1  0.78913000  0.73316000  0.86563000  1.0
  H  H59  1  0.21087000  0.26684000  0.13437000  1.0
  H  H60  1  0.01579000  0.70076000  0.87578000  1.0
  H  H61  1  0.98421000  0.29924000  0.12422000  1.0
  H  H62  1  0.06415000  0.65151000  0.99438000  1.0
  H  H63  1  0.93586000  0.34849000  0.00562000  1.0
  H  H64  1  0.04644000  0.84491000  0.90432000  1.0
  H  H65  1  0.95355000  0.15509000  0.09568000  1.0
  H  H66  1  0.90718000  0.85024000  0.90078000  1.0
  H  H67  1  0.09282000  0.14975000  0.09922000  1.0
  H  H68  1  0.05095000  0.76859000  0.08310000  1.0
  H  H69  1  0.94905000  0.23141000  0.91690000  1.0
  H  H70  1  0.98438000  0.89594000  0.02718000  1.0
  H  H71  1  0.01561000  0.10405000  0.97282000  1.0
  H  H72  1  0.95660000  0.64993000  0.21992000  1.0
  H  H73  1  0.04340000  0.35007000  0.78008000  1.0
  H  H74  1  0.76591000  0.89363000  0.99977000  1.0
  H  H75  1  0.23409000  0.10636000  0.00023000  1.0
  H  H76  1  0.63902000  0.77706000  0.14240000  1.0
  H  H77  1  0.36098000  0.22294000  0.85761000  1.0
  H  H78  1  0.28811000  0.17024000  0.50352000  1.0
  H  H79  1  0.71189000  0.82977000  0.49647000  1.0
  H  H80  1  0.03885000  0.42098000  0.44853000  1.0
  H  H81  1  0.96115000  0.57903000  0.55147000  1.0
  H  H82  1  0.05970000  0.25131000  0.27225000  1.0
  H  H83  1  0.94030000  0.74868000  0.72775000  1.0
  H  H84  1  0.44676000  0.74149000  0.23708000  1.0
  H  H85  1  0.55325000  0.25851000  0.76292000  1.0
  H  H86  1  0.21759000  0.83935000  0.00350000  1.0
  H  H87  1  0.78241000  0.16065000  0.99650000  1.0
  H  H88  1  0.45961000  0.58415000  0.05111000  1.0
  H  H89  1  0.54039000  0.41585000  0.94889000  1.0
  C  C90  1  0.05363000  0.94600000  0.24619000  1.0
  C  C91  1  0.94637000  0.05400000  0.75381000  1.0
  C  C92  1  0.08118000  0.93907000  0.38825000  1.0
  C  C93  1  0.91882000  0.06093000  0.61175000  1.0
  C  C94  1  0.97819000  0.92203000  0.38178000  1.0
  C  C95  1  0.02180000  0.07797000  0.61822000  1.0
  C  C96  1  0.86496000  0.91654000  0.24807000  1.0
  C  C97  1  0.13504000  0.08346000  0.75193000  1.0
  C  C98  1  0.76976000  0.98914000  0.25369000  1.0
  C  C99  1  0.23024000  0.01087000  0.74631000  1.0
  C  C100  1  0.68088000  0.98531000  0.18996000  1.0
  C  C101  1  0.31912000  0.01469000  0.81004000  1.0
  C  C102  1  0.48886000  0.98587000  0.21474000  1.0
  C  C103  1  0.51114000  0.01413000  0.78526000  1.0
  C  C104  1  0.55032000  0.12925000  0.20292000  1.0
  C  C105  1  0.44968000  0.87075000  0.79708000  1.0
  C  C106  1  0.44334000  0.13810000  0.21457000  1.0
  C  C107  1  0.55666000  0.86191000  0.78543000  1.0
  C  C108  1  0.75787000  0.20130000  0.33698000  1.0
  C  C109  1  0.24214000  0.79869000  0.66302000  1.0
  C  C110  1  0.69058000  0.14562000  0.40250000  1.0
  C  C111  1  0.30943000  0.85438000  0.59750000  1.0
  C  C112  1  0.60742000  0.30041000  0.31144000  1.0
  C  C113  1  0.39258000  0.69959000  0.68856000  1.0
  C  C114  1  0.50191000  0.18601000  0.44106000  1.0
  C  C115  1  0.49809000  0.81399000  0.55894000  1.0
  C  C116  1  0.51668000  0.17806000  0.54234000  1.0
  C  C117  1  0.48332000  0.82194000  0.45766000  1.0
  C  C118  1  0.51752000  0.28029000  0.55251000  1.0
  C  C119  1  0.48248000  0.71971000  0.44749000  1.0
  C  C120  1  0.60726000  0.42966000  0.44494000  1.0
  C  C121  1  0.39273000  0.57034000  0.55506000  1.0
  C  C122  1  0.77234000  0.37465000  0.49241000  1.0
  C  C123  1  0.22766000  0.62534000  0.50759000  1.0
  C  C124  1  0.71437000  0.29782000  0.54701000  1.0
  C  C125  1  0.28563000  0.70218000  0.45299000  1.0
  C  C126  1  0.90310000  0.55449000  0.05926000  1.0
  C  C127  1  0.09691000  0.44551000  0.94075000  1.0
  C  C128  1  0.74601000  0.59286000  0.98947000  1.0
  C  C129  1  0.25399000  0.40714000  0.01054000  1.0
  C  C130  1  0.80628000  0.66633000  0.93281000  1.0
  C  C131  1  0.19372000  0.33367000  0.06719000  1.0
  C  C132  1  0.99647000  0.69764000  0.94630000  1.0
  C  C133  1  0.00354000  0.30235000  0.05370000  1.0
  C  C134  1  0.97994000  0.80704000  0.94283000  1.0
  C  C135  1  0.02006000  0.19296000  0.05717000  1.0
  C  C136  1  0.98070000  0.81498000  0.03881000  1.0
  C  C137  1  0.01930000  0.18502000  0.96119000  1.0
  C  C138  1  0.88727000  0.70042000  0.18019000  1.0
  C  C139  1  0.11273000  0.29957000  0.81981000  1.0
  C  C140  1  0.78481000  0.82550000  0.06569000  1.0
  C  C141  1  0.21519000  0.17450000  0.93431000  1.0
  C  C142  1  0.72389000  0.76861000  0.13699000  1.0
  C  C143  1  0.27610000  0.23139000  0.86302000  1.0
  C  C144  1  0.23701000  0.12213000  0.35579000  1.0
  C  C145  1  0.76298000  0.87787000  0.64421000  1.0
  C  C146  1  0.18193000  0.20408000  0.38283000  1.0
  C  C147  1  0.81807000  0.79592000  0.61717000  1.0
  C  C148  1  0.21899000  0.21911000  0.46087000  1.0
  C  C149  1  0.78101000  0.78090000  0.53913000  1.0
  C  C150  1  0.16814000  0.29711000  0.48487000  1.0
  C  C151  1  0.83186000  0.70290000  0.51512000  1.0
  C  C152  1  0.21299000  0.31262000  0.56811000  1.0
  C  C153  1  0.78701000  0.68739000  0.43189000  1.0
  C  C154  1  0.07813000  0.35923000  0.43103000  1.0
  C  C155  1  0.92187000  0.64078000  0.56897000  1.0
  C  C156  1  0.03807000  0.34168000  0.35524000  1.0
  C  C157  1  0.96193000  0.65833000  0.64476000  1.0
  C  C158  1  0.09074000  0.26478000  0.33113000  1.0
  C  C159  1  0.90926000  0.73523000  0.66887000  1.0
  C  C160  1  0.93811000  0.40406000  0.29980000  1.0
  C  C161  1  0.06189000  0.59594000  0.70020000  1.0
  C  C162  1  0.56366000  0.59056000  0.20164000  1.0
  C  C163  1  0.43635000  0.40944000  0.79836000  1.0
  C  C164  1  0.46380000  0.65672000  0.14917000  1.0
  C  C165  1  0.53621000  0.34328000  0.85083000  1.0
  C  C166  1  0.41462000  0.73330000  0.17573000  1.0
  C  C167  1  0.58538000  0.26670000  0.82427000  1.0
  C  C168  1  0.32582000  0.79943000  0.12403000  1.0
  C  C169  1  0.67418000  0.20057000  0.87597000  1.0
  C  C170  1  0.27590000  0.88407000  0.15066000  1.0
  C  C171  1  0.72411000  0.11593000  0.84934000  1.0
  C  C172  1  0.28590000  0.78765000  0.04519000  1.0
  C  C173  1  0.71411000  0.21235000  0.95481000  1.0
  C  C174  1  0.33296000  0.70975000  0.01929000  1.0
  C  C175  1  0.66705000  0.29025000  0.98071000  1.0
  C  C176  1  0.42202000  0.64436000  0.07143000  1.0
  C  C177  1  0.57798000  0.35564000  0.92857000  1.0
  C  C178  1  0.28671000  0.69698000  0.93560000  1.0
  C  C179  1  0.71330000  0.30302000  0.06440000  1.0
  N  N180  1  0.12735000  0.95370000  0.30317000  1.0
  N  N181  1  0.87265000  0.04630000  0.69683000  1.0
  N  N182  1  0.96212000  0.92731000  0.29116000  1.0
  N  N183  1  0.03788000  0.07269000  0.70884000  1.0
  N  N184  1  0.57761000  0.03220000  0.20350000  1.0
  N  N185  1  0.42239000  0.96780000  0.79650000  1.0
  N  N186  1  0.40582000  0.04814000  0.22175000  1.0
  N  N187  1  0.59418000  0.95186000  0.77826000  1.0
  N  N188  1  0.70501000  0.29736000  0.28115000  1.0
  N  N189  1  0.29499000  0.70264000  0.71885000  1.0
  N  N190  1  0.59591000  0.20990000  0.38555000  1.0
  N  N191  1  0.40409000  0.79010000  0.61445000  1.0
  N  N192  1  0.60997000  0.33385000  0.51593000  1.0
  N  N193  1  0.39003000  0.66615000  0.48407000  1.0
  N  N194  1  0.70458000  0.45613000  0.42883000  1.0
  N  N195  1  0.29543000  0.54386000  0.57117000  1.0
  N  N196  1  0.80747000  0.52386000  0.06796000  1.0
  N  N197  1  0.19253000  0.47614000  0.93204000  1.0
  N  N198  1  0.90541000  0.64079000  0.97828000  1.0
  N  N199  1  0.09459000  0.35921000  0.02172000  1.0
  N  N200  1  0.88812000  0.78114000  0.09403000  1.0
  N  N201  1  0.11188000  0.21886000  0.90597000  1.0
  N  N202  1  0.78851000  0.69102000  0.20758000  1.0
  N  N203  1  0.21149000  0.30898000  0.79242000  1.0
  O  O204  1  0.21359000  0.13232000  0.27014000  1.0
  O  O205  1  0.78640000  0.86768000  0.72986000  1.0
  O  O206  1  0.29974000  0.04908000  0.41335000  1.0
  O  O207  1  0.70026000  0.95092000  0.58665000  1.0
  O  O208  1  0.90096000  0.36907000  0.24277000  1.0
  O  O209  1  0.09904000  0.63093000  0.75723000  1.0
  O  O210  1  0.90052000  0.48265000  0.31217000  1.0
  O  O211  1  0.09947000  0.51735000  0.68783000  1.0
  O  O212  1  0.29206000  0.25218000  0.61541000  1.0
  O  O213  1  0.70794000  0.74783000  0.38459000  1.0
  O  O214  1  0.16536000  0.38886000  0.58352000  1.0
  O  O215  1  0.83464000  0.61114000  0.41648000  1.0
  O  O216  1  0.60590000  0.52197000  0.17703000  1.0
  O  O217  1  0.39411000  0.47803000  0.82296000  1.0
  O  O218  1  0.59704000  0.61370000  0.26849000  1.0
  O  O219  1  0.40295000  0.38629000  0.73151000  1.0
  O  O220  1  0.33009000  0.61815000  0.92169000  1.0
  O  O221  1  0.66991000  0.38185000  0.07831000  1.0
  O  O222  1  0.21098000  0.76115000  0.88635000  1.0
  O  O223  1  0.78902000  0.23884000  0.11365000  1.0
  O  O224  1  0.31011000  0.87934000  0.23173000  1.0
  O  O225  1  0.68989000  0.12066000  0.76827000  1.0
  O  O226  1  0.20756000  0.95354000  0.09584000  1.0
  O  O227  1  0.79244000  0.04645000  0.90416000  1.0
