# generated using pymatgen
data_TlH10C8NO3
_symmetry_space_group_name_H-M   'P 1'
_cell_length_a   8.43373000
_cell_length_b   8.43380000
_cell_length_c   15.03850000
_cell_angle_alpha   98.17690000
_cell_angle_beta   98.17710000
_cell_angle_gamma   103.03700000
_symmetry_Int_Tables_number   1
_chemical_formula_structural   TlH10C8NO3
_chemical_formula_sum   'Tl4 H40 C32 N4 O12'
_cell_volume   1014.50598738
_cell_formula_units_Z   4
loop_
 _symmetry_equiv_pos_site_id
 _symmetry_equiv_pos_as_xyz
  1  'x, y, z'
loop_
 _atom_site_type_symbol
 _atom_site_label
 _atom_site_symmetry_multiplicity
 _atom_site_fract_x
 _atom_site_fract_y
 _atom_site_fract_z
 _atom_site_occupancy
  Tl  Tl0  1  0.31939000  0.63920000  0.00667000  1.0
  Tl  Tl1  1  0.36080000  0.68061000  0.49333000  1.0
  Tl  Tl2  1  0.68061000  0.36080000  0.99333000  1.0
  Tl  Tl3  1  0.63920000  0.31939000  0.50667000  1.0
  H  H4  1  0.06861000  0.62556000  0.31347000  1.0
  H  H5  1  0.37445000  0.93139000  0.18654000  1.0
  H  H6  1  0.93139000  0.37444000  0.68653000  1.0
  H  H7  1  0.62555000  0.06860000  0.81346000  1.0
  H  H8  1  0.10817000  0.54310000  0.11708000  1.0
  H  H9  1  0.45689000  0.89183000  0.38292000  1.0
  H  H10  1  0.89184000  0.45689000  0.88292000  1.0
  H  H11  1  0.54311000  0.10817000  0.61708000  1.0
  H  H12  1  0.28636000  0.46158000  0.14051000  1.0
  H  H13  1  0.53842000  0.71364000  0.35948000  1.0
  H  H14  1  0.71365000  0.53842000  0.85949000  1.0
  H  H15  1  0.46158000  0.28635000  0.64052000  1.0
  H  H16  1  0.12590000  0.36186000  0.04328000  1.0
  H  H17  1  0.63814000  0.87410000  0.45672000  1.0
  H  H18  1  0.87410000  0.63814000  0.95672000  1.0
  H  H19  1  0.36186000  0.12590000  0.54328000  1.0
  H  H20  1  0.37530000  0.70402000  0.84098000  1.0
  H  H21  1  0.29597000  0.62470000  0.65902000  1.0
  H  H22  1  0.62470000  0.29597000  0.15902000  1.0
  H  H23  1  0.70402000  0.37530000  0.34098000  1.0
  H  H24  1  0.54923000  0.81232000  0.92796000  1.0
  H  H25  1  0.18768000  0.45077000  0.57204000  1.0
  H  H26  1  0.45077000  0.18768000  0.07204000  1.0
  H  H27  1  0.81232000  0.54923000  0.42796000  1.0
  H  H28  1  0.37016000  0.89376000  0.91161000  1.0
  H  H29  1  0.10624000  0.62983000  0.58839000  1.0
  H  H30  1  0.62984000  0.10624000  0.08839000  1.0
  H  H31  1  0.89376000  0.37016000  0.41161000  1.0
  H  H32  1  0.85448000  0.56812000  0.18656000  1.0
  H  H33  1  0.43189000  0.14553000  0.31344000  1.0
  H  H34  1  0.14552000  0.43189000  0.81344000  1.0
  H  H35  1  0.56811000  0.85447000  0.68656000  1.0
  H  H36  1  0.96021000  0.07010000  0.42209000  1.0
  H  H37  1  0.92989000  0.03979000  0.07791000  1.0
  H  H38  1  0.03979000  0.92990000  0.57791000  1.0
  H  H39  1  0.07010000  0.96021000  0.92209000  1.0
  H  H40  1  0.72670000  0.01581000  0.29048000  1.0
  H  H41  1  0.98418000  0.27330000  0.20952000  1.0
  H  H42  1  0.27330000  0.98419000  0.70952000  1.0
  H  H43  1  0.01582000  0.72671000  0.79048000  1.0
  C  C44  1  0.19305000  0.47975000  0.08715000  1.0
  C  C45  1  0.52024000  0.80694000  0.41285000  1.0
  C  C46  1  0.80695000  0.52024000  0.91285000  1.0
  C  C47  1  0.47975000  0.19305000  0.58715000  1.0
  C  C48  1  0.41416000  0.78099000  0.90926000  1.0
  C  C49  1  0.21901000  0.58584000  0.59074000  1.0
  C  C50  1  0.58584000  0.21901000  0.09074000  1.0
  C  C51  1  0.78099000  0.41416000  0.40926000  1.0
  C  C52  1  0.62579000  0.74697000  0.15211000  1.0
  C  C53  1  0.25303000  0.37421000  0.34789000  1.0
  C  C54  1  0.37421000  0.25303000  0.84789000  1.0
  C  C55  1  0.74697000  0.62579000  0.65211000  1.0
  C  C56  1  0.77117000  0.78730000  0.22760000  1.0
  C  C57  1  0.21270000  0.22883000  0.27240000  1.0
  C  C58  1  0.22883000  0.21269000  0.77240000  1.0
  C  C59  1  0.78730000  0.77117000  0.72760000  1.0
  C  C60  1  0.87337000  0.68181000  0.23563000  1.0
  C  C61  1  0.31820000  0.12663000  0.26437000  1.0
  C  C62  1  0.12663000  0.31819000  0.76437000  1.0
  C  C63  1  0.68180000  0.87337000  0.73563000  1.0
  C  C64  1  0.04016000  0.85118000  0.37638000  1.0
  C  C65  1  0.14882000  0.95984000  0.12362000  1.0
  C  C66  1  0.95985000  0.14882000  0.62362000  1.0
  C  C67  1  0.85117000  0.04016000  0.87638000  1.0
  C  C68  1  0.93622000  0.96335000  0.36761000  1.0
  C  C69  1  0.03665000  0.06379000  0.13240000  1.0
  C  C70  1  0.06378000  0.03665000  0.63239000  1.0
  C  C71  1  0.96335000  0.93622000  0.86761000  1.0
  C  C72  1  0.80661000  0.93126000  0.29611000  1.0
  C  C73  1  0.06874000  0.19339000  0.20389000  1.0
  C  C74  1  0.19340000  0.06874000  0.70389000  1.0
  C  C75  1  0.93126000  0.80661000  0.79611000  1.0
  N  N76  1  0.00152000  0.71365000  0.30600000  1.0
  N  N77  1  0.28636000  0.99849000  0.19400000  1.0
  N  N78  1  0.99848000  0.28636000  0.69400000  1.0
  N  N79  1  0.71364000  0.00151000  0.80600000  1.0
  O  O80  1  0.52434000  0.83880000  0.15333000  1.0
  O  O81  1  0.16119000  0.47566000  0.34667000  1.0
  O  O82  1  0.47566000  0.16120000  0.84668000  1.0
  O  O83  1  0.83881000  0.52435000  0.65332000  1.0
  O  O84  1  0.60604000  0.62188000  0.08932000  1.0
  O  O85  1  0.37812000  0.39396000  0.41068000  1.0
  O  O86  1  0.39396000  0.37812000  0.91068000  1.0
  O  O87  1  0.62188000  0.60604000  0.58932000  1.0
  O  O88  1  0.15769000  0.86810000  0.44150000  1.0
  O  O89  1  0.13190000  0.84232000  0.05851000  1.0
  O  O90  1  0.84231000  0.13190000  0.55850000  1.0
  O  O91  1  0.86809000  0.15768000  0.94149000  1.0
