# generated using pymatgen
data_CuH20C10(NO2)2
_symmetry_space_group_name_H-M   'P 1'
_cell_length_a   7.27510000
_cell_length_b   14.65160000
_cell_length_c   15.24030000
_cell_angle_alpha   115.73700000
_cell_angle_beta   89.99970000
_cell_angle_gamma   89.99930000
_symmetry_Int_Tables_number   1
_chemical_formula_structural   CuH20C10(NO2)2
_chemical_formula_sum   'Cu4 H80 C40 N8 O16'
_cell_volume   1463.33704162
_cell_formula_units_Z   4
loop_
 _symmetry_equiv_pos_site_id
 _symmetry_equiv_pos_as_xyz
  1  'x, y, z'
loop_
 _atom_site_type_symbol
 _atom_site_label
 _atom_site_symmetry_multiplicity
 _atom_site_fract_x
 _atom_site_fract_y
 _atom_site_fract_z
 _atom_site_occupancy
  Cu  Cu0  1  0.77898000  0.85091000  0.99287000  1.0
  Cu  Cu1  1  0.27897000  0.14910000  0.50714000  1.0
  Cu  Cu2  1  0.22105000  0.14908000  0.00714000  1.0
  Cu  Cu3  1  0.72102000  0.85091000  0.49285000  1.0
  H  H4  1  0.76901000  0.95791000  0.90468000  1.0
  H  H5  1  0.26903000  0.04209000  0.59533000  1.0
  H  H6  1  0.23101000  0.04209000  0.09534000  1.0
  H  H7  1  0.73096000  0.95791000  0.40466000  1.0
  H  H8  1  0.55451000  0.92275000  0.90724000  1.0
  H  H9  1  0.05452000  0.07725000  0.59276000  1.0
  H  H10  1  0.44551000  0.07726000  0.09277000  1.0
  H  H11  1  0.94546000  0.92275000  0.40723000  1.0
  H  H12  1  0.70853000  0.84078000  0.73931000  1.0
  H  H13  1  0.20855000  0.15922000  0.76070000  1.0
  H  H14  1  0.29148000  0.15923000  0.26071000  1.0
  H  H15  1  0.79145000  0.84077000  0.23929000  1.0
  H  H16  1  0.59730000  0.75989000  0.78033000  1.0
  H  H17  1  0.09731000  0.24011000  0.71967000  1.0
  H  H18  1  0.40269000  0.24012000  0.21968000  1.0
  H  H19  1  0.90268000  0.75988000  0.28032000  1.0
  H  H20  1  0.91803000  0.70006000  0.72166000  1.0
  H  H21  1  0.41804000  0.29994000  0.77835000  1.0
  H  H22  1  0.08197000  0.29994000  0.27835000  1.0
  H  H23  1  0.58196000  0.70005000  0.22165000  1.0
  H  H24  1  0.00550000  0.81911000  0.80666000  1.0
  H  H25  1  0.50551000  0.18089000  0.69334000  1.0
  H  H26  1  0.99450000  0.18089000  0.19335000  1.0
  H  H27  1  0.49448000  0.81910000  0.30664000  1.0
  H  H28  1  0.83126000  0.58046000  0.77779000  1.0
  H  H29  1  0.33125000  0.41955000  0.72221000  1.0
  H  H30  1  0.16872000  0.41954000  0.22220000  1.0
  H  H31  1  0.66873000  0.58046000  0.27779000  1.0
  H  H32  1  0.64972000  0.66163000  0.84393000  1.0
  H  H33  1  0.14970000  0.33838000  0.65607000  1.0
  H  H34  1  0.35027000  0.33837000  0.15607000  1.0
  H  H35  1  0.85027000  0.66163000  0.34393000  1.0
  H  H36  1  0.69441000  0.53799000  0.90717000  1.0
  H  H37  1  0.19439000  0.46201000  0.59284000  1.0
  H  H38  1  0.30557000  0.46200000  0.09282000  1.0
  H  H39  1  0.80561000  0.53800000  0.40716000  1.0
  H  H40  1  0.76319000  0.65802000  0.99863000  1.0
  H  H41  1  0.26317000  0.34199000  0.50138000  1.0
  H  H42  1  0.23680000  0.34197000  0.00137000  1.0
  H  H43  1  0.73682000  0.65802000  0.49862000  1.0
  H  H44  1  0.93174000  0.56617000  0.92956000  1.0
  H  H45  1  0.43173000  0.43384000  0.57044000  1.0
  H  H46  1  0.06824000  0.43382000  0.07043000  1.0
  H  H47  1  0.56827000  0.56616000  0.42956000  1.0
  H  H48  1  0.10578000  0.69949000  0.95633000  1.0
  H  H49  1  0.60578000  0.30052000  0.54368000  1.0
  H  H50  1  0.89421000  0.30050000  0.04367000  1.0
  H  H51  1  0.39421000  0.69948000  0.45632000  1.0
  H  H52  1  0.17009000  0.79075000  0.91686000  1.0
  H  H53  1  0.67008000  0.20926000  0.58314000  1.0
  H  H54  1  0.82992000  0.20924000  0.08313000  1.0
  H  H55  1  0.32990000  0.79075000  0.41686000  1.0
  H  H56  1  0.22247000  0.65403000  0.74633000  1.0
  H  H57  1  0.72247000  0.34596000  0.75366000  1.0
  H  H58  1  0.77751000  0.34595000  0.25366000  1.0
  H  H59  1  0.27749000  0.65405000  0.24634000  1.0
  H  H60  1  0.14340000  0.56088000  0.78299000  1.0
  H  H61  1  0.64340000  0.43912000  0.71702000  1.0
  H  H62  1  0.85658000  0.43910000  0.21702000  1.0
  H  H63  1  0.35656000  0.56089000  0.28297000  1.0
  H  H64  1  0.34673000  0.62995000  0.83452000  1.0
  H  H65  1  0.84672000  0.37005000  0.66548000  1.0
  H  H66  1  0.65326000  0.37003000  0.16548000  1.0
  H  H67  1  0.15325000  0.62997000  0.33452000  1.0
  H  H68  1  0.21375000  0.78640000  0.16016000  1.0
  H  H69  1  0.71372000  0.21361000  0.33985000  1.0
  H  H70  1  0.78632000  0.21360000  0.83985000  1.0
  H  H71  1  0.28626000  0.78638000  0.66014000  1.0
  H  H72  1  0.12187000  0.89740000  0.25610000  1.0
  H  H73  1  0.62186000  0.10261000  0.24389000  1.0
  H  H74  1  0.87817000  0.10259000  0.74388000  1.0
  H  H75  1  0.37814000  0.89738000  0.75611000  1.0
  H  H76  1  0.34253000  0.00436000  0.21470000  1.0
  H  H77  1  0.84253000  0.99566000  0.28533000  1.0
  H  H78  1  0.65749000  0.99564000  0.78530000  1.0
  H  H79  1  0.15748000  0.00436000  0.71469000  1.0
  H  H80  1  0.45031000  0.92350000  0.25462000  1.0
  H  H81  1  0.95031000  0.07651000  0.24540000  1.0
  H  H82  1  0.54971000  0.07653000  0.74540000  1.0
  H  H83  1  0.04968000  0.92349000  0.75461000  1.0
  C  C84  1  0.71134000  0.81391000  0.79647000  1.0
  C  C85  1  0.21135000  0.18609000  0.70354000  1.0
  C  C86  1  0.28866000  0.18610000  0.20355000  1.0
  C  C87  1  0.78864000  0.81390000  0.29645000  1.0
  C  C88  1  0.89485000  0.76368000  0.79387000  1.0
  C  C89  1  0.39486000  0.23632000  0.70613000  1.0
  C  C90  1  0.10515000  0.23632000  0.20614000  1.0
  C  C91  1  0.60513000  0.76367000  0.29386000  1.0
  C  C92  1  0.79168000  0.63966000  0.85021000  1.0
  C  C93  1  0.29167000  0.36034000  0.64979000  1.0
  C  C94  1  0.20831000  0.36033000  0.14978000  1.0
  C  C95  1  0.70830000  0.63966000  0.35021000  1.0
  C  C96  1  0.79721000  0.59856000  0.92625000  1.0
  C  C97  1  0.29719000  0.40145000  0.57375000  1.0
  C  C98  1  0.20277000  0.40143000  0.07374000  1.0
  C  C99  1  0.70280000  0.59856000  0.42625000  1.0
  C  C100  1  0.10320000  0.71673000  0.89333000  1.0
  C  C101  1  0.60320000  0.28327000  0.60667000  1.0
  C  C102  1  0.89679000  0.28326000  0.10667000  1.0
  C  C103  1  0.39679000  0.71674000  0.39333000  1.0
  C  C104  1  0.20822000  0.63576000  0.80872000  1.0
  C  C105  1  0.70821000  0.36424000  0.69129000  1.0
  C  C106  1  0.79177000  0.36422000  0.19128000  1.0
  C  C107  1  0.29176000  0.63577000  0.30871000  1.0
  C  C108  1  0.05596000  0.87921000  0.11337000  1.0
  C  C109  1  0.55592000  0.12079000  0.38663000  1.0
  C  C110  1  0.94410000  0.12076000  0.88665000  1.0
  C  C111  1  0.44411000  0.87923000  0.61334000  1.0
  C  C112  1  0.18939000  0.86781000  0.18445000  1.0
  C  C113  1  0.68937000  0.13220000  0.31555000  1.0
  C  C114  1  0.81069000  0.13218000  0.81556000  1.0
  C  C115  1  0.31065000  0.86780000  0.68443000  1.0
  C  C116  1  0.36856000  0.92407000  0.19414000  1.0
  C  C117  1  0.86855000  0.07594000  0.30588000  1.0
  C  C118  1  0.63146000  0.07593000  0.80587000  1.0
  C  C119  1  0.13144000  0.92407000  0.69413000  1.0
  C  C120  1  0.48897000  0.88001000  0.10372000  1.0
  C  C121  1  0.98894000  0.12003000  0.39631000  1.0
  C  C122  1  0.51108000  0.12002000  0.89631000  1.0
  C  C123  1  0.01102000  0.87999000  0.60369000  1.0
  N  N124  1  0.68664000  0.89583000  0.89542000  1.0
  N  N125  1  0.18667000  0.10417000  0.60458000  1.0
  N  N126  1  0.31336000  0.10417000  0.10459000  1.0
  N  N127  1  0.81333000  0.89583000  0.39541000  1.0
  N  N128  1  0.90780000  0.73096000  0.87324000  1.0
  N  N129  1  0.40780000  0.26904000  0.62675000  1.0
  N  N130  1  0.09219000  0.26903000  0.12675000  1.0
  N  N131  1  0.59218000  0.73096000  0.37324000  1.0
  O  O132  1  0.91425000  0.82036000  0.09015000  1.0
  O  O133  1  0.41422000  0.17964000  0.40984000  1.0
  O  O134  1  0.08583000  0.17962000  0.90983000  1.0
  O  O135  1  0.58578000  0.82036000  0.59017000  1.0
  O  O136  1  0.08214000  0.94225000  0.07868000  1.0
  O  O137  1  0.58211000  0.05776000  0.42132000  1.0
  O  O138  1  0.91788000  0.05773000  0.92131000  1.0
  O  O139  1  0.41785000  0.94225000  0.57869000  1.0
  O  O140  1  0.60710000  0.94304000  0.09610000  1.0
  O  O141  1  0.10703000  0.05699000  0.40393000  1.0
  O  O142  1  0.39300000  0.05695000  0.90393000  1.0
  O  O143  1  0.89297000  0.94305000  0.59607000  1.0
  O  O144  1  0.47836000  0.78850000  0.04414000  1.0
  O  O145  1  0.97830000  0.21154000  0.45586000  1.0
  O  O146  1  0.52170000  0.21154000  0.95585000  1.0
  O  O147  1  0.02166000  0.78846000  0.54415000  1.0
