# generated using pymatgen
data_CuH32C32N4(ClO)2
_symmetry_space_group_name_H-M   'P 1'
_cell_length_a   8.93777000
_cell_length_b   8.93913000
_cell_length_c   11.32556151
_cell_angle_alpha   91.32843652
_cell_angle_beta   112.63177512
_cell_angle_gamma   118.87100000
_symmetry_Int_Tables_number   1
_chemical_formula_structural   CuH32C32N4(ClO)2
_chemical_formula_sum   'Cu1 H32 C32 N4 Cl2 O2'
_cell_volume   706.51258348
_cell_formula_units_Z   1
loop_
 _symmetry_equiv_pos_site_id
 _symmetry_equiv_pos_as_xyz
  1  'x, y, z'
loop_
 _atom_site_type_symbol
 _atom_site_label
 _atom_site_symmetry_multiplicity
 _atom_site_fract_x
 _atom_site_fract_y
 _atom_site_fract_z
 _atom_site_occupancy
  Cu  Cu0  1  0.10089000  0.60074000  0.50007000  1.0
  H  H1  1  0.10090000  0.38974000  0.28945000  1.0
  H  H2  1  0.10054000  0.81158000  0.71067000  1.0
  H  H3  1  0.18421000  0.39101000  0.67510000  1.0
  H  H4  1  0.71647000  0.50935000  0.32502000  1.0
  H  H5  1  0.20184000  0.12324000  0.66475000  1.0
  H  H6  1  0.45884000  0.53720000  0.33529000  1.0
  H  H7  1  0.18721000  0.99143000  0.45647000  1.0
  H  H8  1  0.53507000  0.73066000  0.54353000  1.0
  H  H9  1  0.30127000  0.20722000  0.24643000  1.0
  H  H10  1  0.96066000  0.05488000  0.75343000  1.0
  H  H11  1  0.13665000  0.98706000  0.23649000  1.0
  H  H12  1  0.75043000  0.90012000  0.76341000  1.0
  H  H13  1  0.75275000  0.95365000  0.94550000  1.0
  H  H14  1  0.00817000  0.80738000  0.05446000  1.0
  H  H15  1  0.84036000  0.82470000  0.19661000  1.0
  H  H16  1  0.62808000  0.64381000  0.80344000  1.0
  H  H17  1  0.70121000  0.92063000  0.14267000  1.0
  H  H18  1  0.77810000  0.55872000  0.85732000  1.0
  H  H19  1  0.49727000  0.58944000  0.08583000  1.0
  H  H20  1  0.50398000  0.41150000  0.91440000  1.0
  H  H21  1  0.46545000  0.66777000  0.94200000  1.0
  H  H22  1  0.72618000  0.52372000  0.05815000  1.0
  H  H23  1  0.16262000  0.40876000  0.88404000  1.0
  H  H24  1  0.52470000  0.27865000  0.11599000  1.0
  H  H25  1  0.94698000  0.42262000  0.67087000  1.0
  H  H26  1  0.75152000  0.27592000  0.32917000  1.0
  H  H27  1  0.60073000  0.28685000  0.60872000  1.0
  H  H28  1  0.67773000  0.99177000  0.39121000  1.0
  H  H29  1  0.47684000  0.15328000  0.76878000  1.0
  H  H30  1  0.38418000  0.70798000  0.23099000  1.0
  H  H31  1  0.68968000  0.14486000  0.97889000  1.0
  H  H32  1  0.16586000  0.71094000  0.02088000  1.0
  C  C33  1  0.12704000  0.32671000  0.36978000  1.0
  C  C34  1  0.95722000  0.75739000  0.63032000  1.0
  C  C35  1  0.16893000  0.32556000  0.58545000  1.0
  C  C36  1  0.74058000  0.58372000  0.41462000  1.0
  C  C37  1  0.18299000  0.17788000  0.57898000  1.0
  C  C38  1  0.59925000  0.60412000  0.42106000  1.0
  C  C39  1  0.17466000  0.10655000  0.46425000  1.0
  C  C40  1  0.64248000  0.71039000  0.53578000  1.0
  C  C41  1  0.14925000  0.18341000  0.35778000  1.0
  C  C42  1  0.82580000  0.79151000  0.64227000  1.0
  C  C43  1  0.15704000  0.11835000  0.23736000  1.0
  C  C44  1  0.88096000  0.91976000  0.76259000  1.0
  C  C45  1  0.84979000  0.93408000  0.02887000  1.0
  C  C46  1  0.90520000  0.82101000  0.97109000  1.0
  C  C47  1  0.74338000  0.83843000  0.10798000  1.0
  C  C48  1  0.73053000  0.63549000  0.89204000  1.0
  C  C49  1  0.56956000  0.65465000  0.02606000  1.0
  C  C50  1  0.62886000  0.54360000  0.97407000  1.0
  C  C51  1  0.07484000  0.26198000  0.06780000  1.0
  C  C52  1  0.19419000  0.00728000  0.93216000  1.0
  C  C53  1  0.93862000  0.26707000  0.94187000  1.0
  C  C54  1  0.32516000  0.99686000  0.05804000  1.0
  C  C55  1  0.01104000  0.35049000  0.85607000  1.0
  C  C56  1  0.49435000  0.15502000  0.14391000  1.0
  C  C57  1  0.88959000  0.35703000  0.73671000  1.0
  C  C58  1  0.62010000  0.15277000  0.26326000  1.0
  C  C59  1  0.69567000  0.28231000  0.70241000  1.0
  C  C60  1  0.57960000  0.99314000  0.29751000  1.0
  C  C61  1  0.62523000  0.20669000  0.79036000  1.0
  C  C62  1  0.41606000  0.83482000  0.20948000  1.0
  C  C63  1  0.74622000  0.20042000  0.91001000  1.0
  C  C64  1  0.29029000  0.83629000  0.08982000  1.0
  N  N65  1  0.13834000  0.39724000  0.48166000  1.0
  N  N66  1  0.91597000  0.65685000  0.51846000  1.0
  N  N67  1  0.01875000  0.11036000  0.11024000  1.0
  N  N68  1  0.00012000  0.90869000  0.88974000  1.0
  Cl  Cl69  1  0.03753000  0.63423000  0.29503000  1.0
  Cl  Cl70  1  0.33942000  0.74236000  0.70509000  1.0
  O  O71  1  0.23762000  0.39745000  0.13412000  1.0
  O  O72  1  0.26329000  0.10375000  0.86584000  1.0
