# generated using pymatgen
data_Cu2H20C21(SN3)2
_symmetry_space_group_name_H-M   'P 1'
_cell_length_a   10.07550000
_cell_length_b   10.31580000
_cell_length_c   11.05000000
_cell_angle_alpha   109.15100000
_cell_angle_beta   102.96200000
_cell_angle_gamma   93.34440000
_symmetry_Int_Tables_number   1
_chemical_formula_structural   Cu2H20C21(SN3)2
_chemical_formula_sum   'Cu4 H40 C42 S4 N12'
_cell_volume   1046.38305049
_cell_formula_units_Z   2
loop_
 _symmetry_equiv_pos_site_id
 _symmetry_equiv_pos_as_xyz
  1  'x, y, z'
loop_
 _atom_site_type_symbol
 _atom_site_label
 _atom_site_symmetry_multiplicity
 _atom_site_fract_x
 _atom_site_fract_y
 _atom_site_fract_z
 _atom_site_occupancy
  Cu  Cu0  1  0.03920000  0.18067000  0.28661000  1.0
  Cu  Cu1  1  0.96080000  0.81933000  0.71339000  1.0
  Cu  Cu2  1  0.13517000  0.08484000  0.77561000  1.0
  Cu  Cu3  1  0.86483000  0.91516000  0.22439000  1.0
  H  H4  1  0.88885000  0.40918000  0.20255000  1.0
  H  H5  1  0.11115000  0.59081000  0.79745000  1.0
  H  H6  1  0.74749000  0.60348000  0.21838000  1.0
  H  H7  1  0.25251000  0.39652000  0.78161000  1.0
  H  H8  1  0.64503000  0.69342000  0.40698000  1.0
  H  H9  1  0.35497000  0.30658000  0.59301000  1.0
  H  H10  1  0.67331000  0.59125000  0.58474000  1.0
  H  H11  1  0.32669000  0.40875000  0.41526000  1.0
  H  H12  1  0.97046000  0.21075000  0.56606000  1.0
  H  H13  1  0.02954000  0.78926000  0.43395000  1.0
  H  H14  1  0.83660000  0.50318000  0.76107000  1.0
  H  H15  1  0.16340000  0.49683000  0.23893000  1.0
  H  H16  1  0.88042000  0.33775000  0.75461000  1.0
  H  H17  1  0.11958000  0.66225000  0.24539000  1.0
  H  H18  1  0.63955000  0.22842000  0.64452000  1.0
  H  H19  1  0.36045000  0.77158000  0.35548000  1.0
  H  H20  1  0.59377000  0.38192000  0.61938000  1.0
  H  H21  1  0.40623000  0.61808000  0.38062000  1.0
  H  H22  1  0.65104000  0.50798000  0.86533000  1.0
  H  H23  1  0.34896000  0.49202000  0.13467000  1.0
  H  H24  1  0.51036000  0.37461000  0.80450000  1.0
  H  H25  1  0.48963000  0.62539000  0.19550000  1.0
  H  H26  1  0.80292000  0.34950000  0.94605000  1.0
  H  H27  1  0.19708000  0.65050000  0.05396000  1.0
  H  H28  1  0.66399000  0.38567000  0.01831000  1.0
  H  H29  1  0.33601000  0.61432000  0.98168000  1.0
  H  H30  1  0.52744000  0.15520000  0.83475000  1.0
  H  H31  1  0.47256000  0.84480000  0.16525000  1.0
  H  H32  1  0.68841000  0.11386000  0.80756000  1.0
  H  H33  1  0.31159000  0.88614000  0.19244000  1.0
  H  H34  1  0.42863000  0.27259000  0.03026000  1.0
  H  H35  1  0.57137000  0.72741000  0.96974000  1.0
  H  H36  1  0.33977000  0.28864000  0.22603000  1.0
  H  H37  1  0.66023000  0.71136000  0.77397000  1.0
  H  H38  1  0.45025000  0.18893000  0.39182000  1.0
  H  H39  1  0.54975000  0.81107000  0.60818000  1.0
  H  H40  1  0.65337000  0.06343000  0.36469000  1.0
  H  H41  1  0.34664000  0.93657000  0.63531000  1.0
  H  H42  1  0.83186000  0.01281000  0.96505000  1.0
  H  H43  1  0.16814000  0.98719000  0.03495000  1.0
  C  C44  1  0.86083000  0.39323000  0.38603000  1.0
  C  C45  1  0.13917000  0.60677000  0.61397000  1.0
  C  C46  1  0.84180000  0.44863000  0.28469000  1.0
  C  C47  1  0.15820000  0.55136000  0.71531000  1.0
  C  C48  1  0.76260000  0.55609000  0.29443000  1.0
  C  C49  1  0.23740000  0.44391000  0.70557000  1.0
  C  C50  1  0.70334000  0.60704000  0.40169000  1.0
  C  C51  1  0.29666000  0.39296000  0.59831000  1.0
  C  C52  1  0.72002000  0.55185000  0.50257000  1.0
  C  C53  1  0.27998000  0.44815000  0.49743000  1.0
  C  C54  1  0.79971000  0.44446000  0.49276000  1.0
  C  C55  1  0.20030000  0.55554000  0.50724000  1.0
  C  C56  1  0.92240000  0.28001000  0.51964000  1.0
  C  C57  1  0.07760000  0.71999000  0.48036000  1.0
  C  C58  1  0.81044000  0.39153000  0.70274000  1.0
  C  C59  1  0.18957000  0.60848000  0.29726000  1.0
  C  C60  1  0.65990000  0.34247000  0.68905000  1.0
  C  C61  1  0.34010000  0.65753000  0.31095000  1.0
  C  C62  1  0.62287000  0.39457000  0.82219000  1.0
  C  C63  1  0.37714000  0.60543000  0.17782000  1.0
  C  C64  1  0.68985000  0.33212000  0.92454000  1.0
  C  C65  1  0.31015000  0.66788000  0.07546000  1.0
  C  C66  1  0.63896000  0.17702000  0.88101000  1.0
  C  C67  1  0.36104000  0.82298000  0.11899000  1.0
  C  C68  1  0.59151000  0.15849000  0.08953000  1.0
  C  C69  1  0.40849000  0.84150000  0.91046000  1.0
  C  C70  1  0.47898000  0.22940000  0.10335000  1.0
  C  C71  1  0.52102000  0.77060000  0.89666000  1.0
  C  C72  1  0.43056000  0.23860000  0.21402000  1.0
  C  C73  1  0.56944000  0.76140000  0.78598000  1.0
  C  C74  1  0.49301000  0.18058000  0.30773000  1.0
  C  C75  1  0.50699000  0.81942000  0.69227000  1.0
  C  C76  1  0.60518000  0.10954000  0.29334000  1.0
  C  C77  1  0.39482000  0.89046000  0.70666000  1.0
  C  C78  1  0.65399000  0.09795000  0.18182000  1.0
  C  C79  1  0.34601000  0.90205000  0.81818000  1.0
  C  C80  1  0.76174000  0.05200000  0.02552000  1.0
  C  C81  1  0.23826000  0.94800000  0.97448000  1.0
  C  C82  1  0.07754000  0.24422000  0.04347000  1.0
  C  C83  1  0.92246000  0.75578000  0.95652000  1.0
  C  C84  1  0.15694000  0.05556000  0.49623000  1.0
  C  C85  1  0.84306000  0.94445000  0.50377000  1.0
  S  S86  1  0.09658000  0.28553000  0.91684000  1.0
  S  S87  1  0.90342000  0.71447000  0.08316000  1.0
  S  S88  1  0.15631000  0.02168000  0.34025000  1.0
  S  S89  1  0.84369000  0.97832000  0.65975000  1.0
  N  N90  1  0.93674000  0.28985000  0.40603000  1.0
  N  N91  1  0.06326000  0.71014000  0.59397000  1.0
  N  N92  1  0.84095000  0.36988000  0.57534000  1.0
  N  N93  1  0.15905000  0.63012000  0.42466000  1.0
  N  N94  1  0.66312000  0.12778000  0.99229000  1.0
  N  N95  1  0.33688000  0.87222000  0.00770000  1.0
  N  N96  1  0.76046000  0.03160000  0.13830000  1.0
  N  N97  1  0.23955000  0.96839000  0.86170000  1.0
  N  N98  1  0.06286000  0.21743000  0.13659000  1.0
  N  N99  1  0.93714000  0.78257000  0.86341000  1.0
  N  N100  1  0.15726000  0.07831000  0.60850000  1.0
  N  N101  1  0.84274000  0.92169000  0.39150000  1.0
