# generated using pymatgen
data_CuH7C7NO6
_symmetry_space_group_name_H-M   'P 1'
_cell_length_a   6.99847000
_cell_length_b   7.83017000
_cell_length_c   7.83015000
_cell_angle_alpha   97.63000000
_cell_angle_beta   100.41200000
_cell_angle_gamma   100.41300000
_symmetry_Int_Tables_number   1
_chemical_formula_structural   CuH7C7NO6
_chemical_formula_sum   'Cu2 H14 C14 N2 O12'
_cell_volume   408.95460551
_cell_formula_units_Z   2
loop_
 _symmetry_equiv_pos_site_id
 _symmetry_equiv_pos_as_xyz
  1  'x, y, z'
loop_
 _atom_site_type_symbol
 _atom_site_label
 _atom_site_symmetry_multiplicity
 _atom_site_fract_x
 _atom_site_fract_y
 _atom_site_fract_z
 _atom_site_occupancy
  Cu  Cu0  1  0.75000000  0.33884000  0.66116000  1.0
  Cu  Cu1  1  0.25000000  0.66116000  0.33884000  1.0
  H  H2  1  0.10831000  0.49265000  0.67690000  1.0
  H  H3  1  0.39169000  0.32309000  0.50735000  1.0
  H  H4  1  0.89169000  0.50735000  0.32309000  1.0
  H  H5  1  0.60831000  0.67691000  0.49265000  1.0
  H  H6  1  0.09565000  0.38484000  0.83723000  1.0
  H  H7  1  0.40435000  0.16277000  0.61516000  1.0
  H  H8  1  0.90436000  0.61517000  0.16277000  1.0
  H  H9  1  0.59565000  0.83723000  0.38484000  1.0
  H  H10  1  0.75000000  0.83421000  0.16579000  1.0
  H  H11  1  0.25000000  0.16579000  0.83421000  1.0
  H  H12  1  0.72168000  0.34978000  0.03802000  1.0
  H  H13  1  0.77832000  0.96197000  0.65022000  1.0
  H  H14  1  0.27833000  0.65022000  0.96197000  1.0
  H  H15  1  0.22168000  0.03802000  0.34978000  1.0
  C  C16  1  0.73213000  0.16275000  0.31732000  1.0
  C  C17  1  0.76787000  0.68267000  0.83725000  1.0
  C  C18  1  0.26787000  0.83725000  0.68267000  1.0
  C  C19  1  0.23213000  0.31732000  0.16275000  1.0
  C  C20  1  0.74053000  0.10123000  0.12914000  1.0
  C  C21  1  0.75947000  0.87086000  0.89877000  1.0
  C  C22  1  0.25947000  0.89877000  0.87086000  1.0
  C  C23  1  0.24053000  0.12914000  0.10123000  1.0
  C  C24  1  0.75000000  0.92661000  0.07339000  1.0
  C  C25  1  0.25000000  0.07339000  0.92661000  1.0
  C  C26  1  0.73635000  0.21415000  0.00532000  1.0
  C  C27  1  0.76364000  0.99468000  0.78585000  1.0
  C  C28  1  0.26365000  0.78585000  0.99468000  1.0
  C  C29  1  0.23636000  0.00532000  0.21415000  1.0
  N  N30  1  0.75000000  0.16191000  0.83808000  1.0
  N  N31  1  0.25000000  0.83808000  0.16192000  1.0
  O  O32  1  0.03994000  0.38075000  0.70867000  1.0
  O  O33  1  0.46006000  0.29134000  0.61925000  1.0
  O  O34  1  0.96007000  0.61925000  0.29133000  1.0
  O  O35  1  0.53994000  0.70867000  0.38075000  1.0
  O  O36  1  0.75913000  0.32801000  0.37427000  1.0
  O  O37  1  0.74087000  0.62573000  0.67199000  1.0
  O  O38  1  0.24087000  0.67199000  0.62573000  1.0
  O  O39  1  0.25914000  0.37427000  0.32801000  1.0
  O  O40  1  0.69721000  0.04707000  0.41210000  1.0
  O  O41  1  0.80278000  0.58790000  0.95293000  1.0
  O  O42  1  0.30278000  0.95293000  0.58790000  1.0
  O  O43  1  0.19720000  0.41210000  0.04707000  1.0
