# generated using pymatgen
data_Cu3H15C17S(IN)3
_symmetry_space_group_name_H-M   'P 1'
_cell_length_a   7.26771000
_cell_length_b   10.11980000
_cell_length_c   14.85570000
_cell_angle_alpha   82.03330000
_cell_angle_beta   88.45550000
_cell_angle_gamma   77.74070000
_symmetry_Int_Tables_number   1
_chemical_formula_structural   Cu3H15C17S(IN)3
_chemical_formula_sum   'Cu6 H30 C34 S2 I6 N6'
_cell_volume   1057.38066306
_cell_formula_units_Z   2
loop_
 _symmetry_equiv_pos_site_id
 _symmetry_equiv_pos_as_xyz
  1  'x, y, z'
loop_
 _atom_site_type_symbol
 _atom_site_label
 _atom_site_symmetry_multiplicity
 _atom_site_fract_x
 _atom_site_fract_y
 _atom_site_fract_z
 _atom_site_occupancy
  Cu  Cu0  1  0.59557000  0.88930000  0.97485000  1.0
  Cu  Cu1  1  0.40444000  0.11071000  0.02515000  1.0
  Cu  Cu2  1  0.10348000  0.36907000  0.44164000  1.0
  Cu  Cu3  1  0.89653000  0.63093000  0.55836000  1.0
  Cu  Cu4  1  0.46967000  0.41312000  0.56492000  1.0
  Cu  Cu5  1  0.53034000  0.58688000  0.43508000  1.0
  H  H6  1  0.51105000  0.73848000  0.13468000  1.0
  H  H7  1  0.48892000  0.26154000  0.86531000  1.0
  H  H8  1  0.58423000  0.50420000  0.22081000  1.0
  H  H9  1  0.41575000  0.49581000  0.77918000  1.0
  H  H10  1  0.76668000  0.31198000  0.14171000  1.0
  H  H11  1  0.23330000  0.68803000  0.85829000  1.0
  H  H12  1  0.92652000  0.23609000  0.00496000  1.0
  H  H13  1  0.07347000  0.76391000  0.99505000  1.0
  H  H14  1  0.03291000  0.29212000  0.84583000  1.0
  H  H15  1  0.96709000  0.70787000  0.15418000  1.0
  H  H16  1  0.92038000  0.52388000  0.76286000  1.0
  H  H17  1  0.07962000  0.47612000  0.23713000  1.0
  H  H18  1  0.54698000  0.77350000  0.81866000  1.0
  H  H19  1  0.45302000  0.22650000  0.18134000  1.0
  H  H20  1  0.74529000  0.72829000  0.74596000  1.0
  H  H21  1  0.25470000  0.27172000  0.25404000  1.0
  H  H22  1  0.84708000  0.14417000  0.83876000  1.0
  H  H23  1  0.15293000  0.85583000  0.16123000  1.0
  H  H24  1  0.73734000  0.34691000  0.72269000  1.0
  H  H25  1  0.26267000  0.65309000  0.27731000  1.0
  H  H26  1  0.48794000  0.12260000  0.56823000  1.0
  H  H27  1  0.51204000  0.87740000  0.43177000  1.0
  H  H28  1  0.58485000  0.91053000  0.67621000  1.0
  H  H29  1  0.41514000  0.08947000  0.32379000  1.0
  H  H30  1  0.73782000  0.02090000  0.40725000  1.0
  H  H31  1  0.26219000  0.97908000  0.59276000  1.0
  H  H32  1  0.96429000  0.91890000  0.38870000  1.0
  H  H33  1  0.03572000  0.08109000  0.61130000  1.0
  H  H34  1  0.83961000  0.03107000  0.29638000  1.0
  H  H35  1  0.16041000  0.96892000  0.70362000  1.0
  C  C36  1  0.72201000  0.57998000  0.96853000  1.0
  C  C37  1  0.27797000  0.42003000  0.03146000  1.0
  C  C38  1  0.58264000  0.65269000  0.10114000  1.0
  C  C39  1  0.41734000  0.34731000  0.89885000  1.0
  C  C40  1  0.62581000  0.52074000  0.14980000  1.0
  C  C41  1  0.37418000  0.47927000  0.85020000  1.0
  C  C42  1  0.72541000  0.41600000  0.10664000  1.0
  C  C43  1  0.27459000  0.58401000  0.89336000  1.0
  C  C44  1  0.77752000  0.44314000  0.01465000  1.0
  C  C45  1  0.22247000  0.55686000  0.98535000  1.0
  C  C46  1  0.88657000  0.33938000  0.96873000  1.0
  C  C47  1  0.11344000  0.66063000  0.03127000  1.0
  C  C48  1  0.94163000  0.36963000  0.88033000  1.0
  C  C49  1  0.05836000  0.63037000  0.11967000  1.0
  C  C50  1  0.88037000  0.50218000  0.83387000  1.0
  C  C51  1  0.11964000  0.49782000  0.16613000  1.0
  C  C52  1  0.76948000  0.60603000  0.87479000  1.0
  C  C53  1  0.23053000  0.39397000  0.12521000  1.0
  C  C54  1  0.70111000  0.73945000  0.81614000  1.0
  C  C55  1  0.29889000  0.26055000  0.18385000  1.0
  C  C56  1  0.72484000  0.00979000  0.76800000  1.0
  C  C57  1  0.27516000  0.99021000  0.23200000  1.0
  C  C58  1  0.76849000  0.13514000  0.77935000  1.0
  C  C59  1  0.23150000  0.86485000  0.22066000  1.0
  C  C60  1  0.70772000  0.24791000  0.71497000  1.0
  C  C61  1  0.29230000  0.75208000  0.28503000  1.0
  C  C62  1  0.56841000  0.12235000  0.62934000  1.0
  C  C63  1  0.43159000  0.87765000  0.37067000  1.0
  C  C64  1  0.62242000  0.00415000  0.69032000  1.0
  C  C65  1  0.37755000  0.99586000  0.30969000  1.0
  C  C66  1  0.95315000  0.12837000  0.39123000  1.0
  C  C67  1  0.04685000  0.87160000  0.60877000  1.0
  C  C68  1  0.87031000  0.01891000  0.36965000  1.0
  C  C69  1  0.12970000  0.98107000  0.63036000  1.0
  S  S70  1  0.80260000  0.87278000  0.85265000  1.0
  S  S71  1  0.19739000  0.12721000  0.14734000  1.0
  I  I72  1  0.11329000  0.39093000  0.61826000  1.0
  I  I73  1  0.88673000  0.60908000  0.38174000  1.0
  I  I74  1  0.73572000  0.00110000  0.09880000  1.0
  I  I75  1  0.26427000  0.99889000  0.90120000  1.0
  I  I76  1  0.46386000  0.36067000  0.39430000  1.0
  I  I77  1  0.53616000  0.63933000  0.60569000  1.0
  N  N78  1  0.62806000  0.68352000  0.01426000  1.0
  N  N79  1  0.37194000  0.31648000  0.98574000  1.0
  N  N80  1  0.60671000  0.24375000  0.64069000  1.0
  N  N81  1  0.39329000  0.75625000  0.35931000  1.0
  N  N82  1  0.01732000  0.21741000  0.40990000  1.0
  N  N83  1  0.98270000  0.78258000  0.59011000  1.0
