# generated using pymatgen
data_CdH14C14N2O5
_symmetry_space_group_name_H-M   'P 1'
_cell_length_a   7.42837000
_cell_length_b   8.16671000
_cell_length_c   12.50588385
_cell_angle_alpha   72.53432615
_cell_angle_beta   81.69902023
_cell_angle_gamma   80.89520000
_symmetry_Int_Tables_number   1
_chemical_formula_structural   CdH14C14N2O5
_chemical_formula_sum   'Cd2 H28 C28 N4 O10'
_cell_volume   710.78829855
_cell_formula_units_Z   2
loop_
 _symmetry_equiv_pos_site_id
 _symmetry_equiv_pos_as_xyz
  1  'x, y, z'
loop_
 _atom_site_type_symbol
 _atom_site_label
 _atom_site_symmetry_multiplicity
 _atom_site_fract_x
 _atom_site_fract_y
 _atom_site_fract_z
 _atom_site_occupancy
  Cd  Cd0  1  0.04522000  0.16675000  0.76801000  1.0
  Cd  Cd1  1  0.95477000  0.83325000  0.23199000  1.0
  H  H2  1  0.68781000  0.24163000  0.84220000  1.0
  H  H3  1  0.31219000  0.75835000  0.15781000  1.0
  H  H4  1  0.78158000  0.14264000  0.95883000  1.0
  H  H5  1  0.21842000  0.85737000  0.04116000  1.0
  H  H6  1  0.89833000  0.58009000  0.46737000  1.0
  H  H7  1  0.10167000  0.41991000  0.53263000  1.0
  H  H8  1  0.51693000  0.96739000  0.30568000  1.0
  H  H9  1  0.48307000  0.03260000  0.69432000  1.0
  H  H10  1  0.36489000  0.65828000  0.64370000  1.0
  H  H11  1  0.63511000  0.34171000  0.35630000  1.0
  H  H12  1  0.21789000  0.04271000  0.40029000  1.0
  H  H13  1  0.78210000  0.95728000  0.59971000  1.0
  H  H14  1  0.17364000  0.95035000  0.54935000  1.0
  H  H15  1  0.82636000  0.04964000  0.45065000  1.0
  H  H16  1  0.12958000  0.84160000  0.45492000  1.0
  H  H17  1  0.87042000  0.15839000  0.54508000  1.0
  H  H18  1  0.04983000  0.57340000  0.74915000  1.0
  H  H19  1  0.95017000  0.42661000  0.25085000  1.0
  H  H20  1  0.25034000  0.11971000  0.97784000  1.0
  H  H21  1  0.74966000  0.88030000  0.02216000  1.0
  H  H22  1  0.29933000  0.60393000  0.03217000  1.0
  H  H23  1  0.70067000  0.39607000  0.96784000  1.0
  H  H24  1  0.40799000  0.33955000  0.16813000  1.0
  H  H25  1  0.59201000  0.66045000  0.83187000  1.0
  H  H26  1  0.48366000  0.15896000  0.11336000  1.0
  H  H27  1  0.51634000  0.84105000  0.88664000  1.0
  H  H28  1  0.26247000  0.17632000  0.18679000  1.0
  H  H29  1  0.73754000  0.82368000  0.81322000  1.0
  C  C30  1  0.63793000  0.60067000  0.56886000  1.0
  C  C31  1  0.36207000  0.39932000  0.43114000  1.0
  C  C32  1  0.76042000  0.64733000  0.47226000  1.0
  C  C33  1  0.23957000  0.35267000  0.52774000  1.0
  C  C34  1  0.54709000  0.86331000  0.38164000  1.0
  C  C35  1  0.45290000  0.13669000  0.61836000  1.0
  C  C36  1  0.41322000  0.82551000  0.47353000  1.0
  C  C37  1  0.58678000  0.17448000  0.52647000  1.0
  C  C38  1  0.46269000  0.69219000  0.56904000  1.0
  C  C39  1  0.53731000  0.30781000  0.43096000  1.0
  C  C40  1  0.22410000  0.92205000  0.46916000  1.0
  C  C41  1  0.77589000  0.07794000  0.53084000  1.0
  C  C42  1  0.69944000  0.45346000  0.66764000  1.0
  C  C43  1  0.30056000  0.54655000  0.33235000  1.0
  C  C44  1  0.17355000  0.61397000  0.88437000  1.0
  C  C45  1  0.82645000  0.38604000  0.11563000  1.0
  C  C46  1  0.11927000  0.51296000  0.82502000  1.0
  C  C47  1  0.88073000  0.48703000  0.17499000  1.0
  C  C48  1  0.23009000  0.26032000  0.95335000  1.0
  C  C49  1  0.76992000  0.73968000  0.04665000  1.0
  C  C50  1  0.28520000  0.34923000  0.02032000  1.0
  C  C51  1  0.71481000  0.65078000  0.97968000  1.0
  C  C52  1  0.25683000  0.52952000  0.98316000  1.0
  C  C53  1  0.74318000  0.47048000  0.01684000  1.0
  C  C54  1  0.13761000  0.80727000  0.84394000  1.0
  C  C55  1  0.86239000  0.19274000  0.15606000  1.0
  C  C56  1  0.36512000  0.25138000  0.12830000  1.0
  C  C57  1  0.63488000  0.74863000  0.87170000  1.0
  N  N58  1  0.71723000  0.77704000  0.38104000  1.0
  N  N59  1  0.28277000  0.22295000  0.61896000  1.0
  N  N60  1  0.14770000  0.33951000  0.85922000  1.0
  N  N61  1  0.85231000  0.66049000  0.14078000  1.0
  O  O62  1  0.86235000  0.37889000  0.65158000  1.0
  O  O63  1  0.13765000  0.62110000  0.34842000  1.0
  O  O64  1  0.59027000  0.41495000  0.75622000  1.0
  O  O65  1  0.40973000  0.58505000  0.24378000  1.0
  O  O66  1  0.06484000  0.87730000  0.75235000  1.0
  O  O67  1  0.93516000  0.12270000  0.24765000  1.0
  O  O68  1  0.18058000  0.89646000  0.90297000  1.0
  O  O69  1  0.81942000  0.10354000  0.09703000  1.0
  O  O70  1  0.76800000  0.13499000  0.88251000  1.0
  O  O71  1  0.23200000  0.86501000  0.11749000  1.0
