# generated using pymatgen
data_CuHgH14C22I2(NO)4
_symmetry_space_group_name_H-M   'P 1'
_cell_length_a   5.06187000
_cell_length_b   15.41180000
_cell_length_c   16.36250000
_cell_angle_alpha   107.86800000
_cell_angle_beta   89.99230000
_cell_angle_gamma   99.46110000
_symmetry_Int_Tables_number   1
_chemical_formula_structural   CuHgH14C22I2(NO)4
_chemical_formula_sum   'Cu2 Hg2 H28 C44 I4 N8 O8'
_cell_volume   1196.66291286
_cell_formula_units_Z   2
loop_
 _symmetry_equiv_pos_site_id
 _symmetry_equiv_pos_as_xyz
  1  'x, y, z'
loop_
 _atom_site_type_symbol
 _atom_site_label
 _atom_site_symmetry_multiplicity
 _atom_site_fract_x
 _atom_site_fract_y
 _atom_site_fract_z
 _atom_site_occupancy
  Cu  Cu0  1  0.00000000  0.50000000  0.00000000  1.0
  Cu  Cu1  1  0.50000000  0.50000000  0.50000000  1.0
  Hg  Hg2  1  0.05457000  0.00000000  0.75004000  1.0
  Hg  Hg3  1  0.94542000  0.00000000  0.24996000  1.0
  H  H4  1  0.43830000  0.72501000  0.99095000  1.0
  H  H5  1  0.71340000  0.27501000  0.50912000  1.0
  H  H6  1  0.56170000  0.27499000  0.00905000  1.0
  H  H7  1  0.28661000  0.72499000  0.49088000  1.0
  H  H8  1  0.92627000  0.66001000  0.76894000  1.0
  H  H9  1  0.26661000  0.33997000  0.73102000  1.0
  H  H10  1  0.07372000  0.33999000  0.23106000  1.0
  H  H11  1  0.73340000  0.66003000  0.26898000  1.0
  H  H12  1  0.10794000  0.55071000  0.83142000  1.0
  H  H13  1  0.55749000  0.44935000  0.66855000  1.0
  H  H14  1  0.89205000  0.44929000  0.16858000  1.0
  H  H15  1  0.44252000  0.55065000  0.33146000  1.0
  H  H16  1  0.30152000  0.97225000  0.92177000  1.0
  H  H17  1  0.32914000  0.02776000  0.57823000  1.0
  H  H18  1  0.69847000  0.02775000  0.07823000  1.0
  H  H19  1  0.67086000  0.97224000  0.42177000  1.0
  H  H20  1  0.53250000  0.86705000  0.97471000  1.0
  H  H21  1  0.66530000  0.13300000  0.52528000  1.0
  H  H22  1  0.46750000  0.13295000  0.02529000  1.0
  H  H23  1  0.33470000  0.86700000  0.47472000  1.0
  H  H24  1  0.54414000  0.69769000  0.70895000  1.0
  H  H25  1  0.84650000  0.30228000  0.79106000  1.0
  H  H26  1  0.45586000  0.30231000  0.29105000  1.0
  H  H27  1  0.15350000  0.69772000  0.20894000  1.0
  H  H28  1  0.31405000  0.80930000  0.66826000  1.0
  H  H29  1  0.50460000  0.19067000  0.83173000  1.0
  H  H30  1  0.68595000  0.19070000  0.33174000  1.0
  H  H31  1  0.49540000  0.80933000  0.16827000  1.0
  C  C32  1  0.69612000  0.62663000  0.98195000  1.0
  C  C33  1  0.06962000  0.37337000  0.51807000  1.0
  C  C34  1  0.30387000  0.37337000  0.01805000  1.0
  C  C35  1  0.93039000  0.62663000  0.48194000  1.0
  C  C36  1  0.58919000  0.68991000  0.95325000  1.0
  C  C37  1  0.89941000  0.31012000  0.54680000  1.0
  C  C38  1  0.41081000  0.31009000  0.04675000  1.0
  C  C39  1  0.10060000  0.68988000  0.45320000  1.0
  C  C40  1  0.67210000  0.70506000  0.87622000  1.0
  C  C41  1  0.96738000  0.29490000  0.62377000  1.0
  C  C42  1  0.32789000  0.29494000  0.12378000  1.0
  C  C43  1  0.03263000  0.70510000  0.37623000  1.0
  C  C44  1  0.85791000  0.65285000  0.83010000  1.0
  C  C45  1  0.20542000  0.34714000  0.66986000  1.0
  C  C46  1  0.14209000  0.34715000  0.16990000  1.0
  C  C47  1  0.79458000  0.65287000  0.33014000  1.0
  C  C48  1  0.96054000  0.59179000  0.86390000  1.0
  C  C49  1  0.36903000  0.40824000  0.63606000  1.0
  C  C50  1  0.03945000  0.40821000  0.13610000  1.0
  C  C51  1  0.63098000  0.59176000  0.36394000  1.0
  C  C52  1  0.60577000  0.60261000  0.06139000  1.0
  C  C53  1  0.00323000  0.39732000  0.43861000  1.0
  C  C54  1  0.39423000  0.39739000  0.93861000  1.0
  C  C55  1  0.99677000  0.60268000  0.56139000  1.0
  C  C56  1  0.36168000  0.91084000  0.87713000  1.0
  C  C57  1  0.45072000  0.08917000  0.62286000  1.0
  C  C58  1  0.63832000  0.08916000  0.12287000  1.0
  C  C59  1  0.54928000  0.91083000  0.37714000  1.0
  C  C60  1  0.48766000  0.85153000  0.90610000  1.0
  C  C61  1  0.63603000  0.14851000  0.59389000  1.0
  C  C62  1  0.51233000  0.14847000  0.09390000  1.0
  C  C63  1  0.36397000  0.85149000  0.40611000  1.0
  C  C64  1  0.55792000  0.77275000  0.84623000  1.0
  C  C65  1  0.78533000  0.22724000  0.65377000  1.0
  C  C66  1  0.44208000  0.22725000  0.15377000  1.0
  C  C67  1  0.21468000  0.77276000  0.34623000  1.0
  C  C68  1  0.50179000  0.75840000  0.75886000  1.0
  C  C69  1  0.74340000  0.24159000  0.74114000  1.0
  C  C70  1  0.49821000  0.24160000  0.24114000  1.0
  C  C71  1  0.25660000  0.75841000  0.25886000  1.0
  C  C72  1  0.37032000  0.82053000  0.73544000  1.0
  C  C73  1  0.54963000  0.17948000  0.76455000  1.0
  C  C74  1  0.62968000  0.17947000  0.26456000  1.0
  C  C75  1  0.45037000  0.82052000  0.23545000  1.0
  I  I76  1  0.85051000  0.89134000  0.59153000  1.0
  I  I77  1  0.95912000  0.10880000  0.90849000  1.0
  I  I78  1  0.14949000  0.10866000  0.40847000  1.0
  I  I79  1  0.04088000  0.89120000  0.09151000  1.0
  N  N80  1  0.88306000  0.58025000  0.93901000  1.0
  N  N81  1  0.30299000  0.41977000  0.56097000  1.0
  N  N82  1  0.11693000  0.41975000  0.06099000  1.0
  N  N83  1  0.69702000  0.58023000  0.43903000  1.0
  N  N84  1  0.30133000  0.89504000  0.79331000  1.0
  N  N85  1  0.40615000  0.10496000  0.70668000  1.0
  N  N86  1  0.69867000  0.10496000  0.20669000  1.0
  N  N87  1  0.59385000  0.89504000  0.29332000  1.0
  O  O88  1  0.74476000  0.55016000  0.08546000  1.0
  O  O89  1  0.19469000  0.44972000  0.41446000  1.0
  O  O90  1  0.25524000  0.44985000  0.91455000  1.0
  O  O91  1  0.80531000  0.55028000  0.58554000  1.0
  O  O92  1  0.40444000  0.63021000  0.09686000  1.0
  O  O93  1  0.77417000  0.36974000  0.40320000  1.0
  O  O94  1  0.59556000  0.36979000  0.90314000  1.0
  O  O95  1  0.22583000  0.63026000  0.59680000  1.0
