# generated using pymatgen
data_Co5H34C44(NO2)12
_symmetry_space_group_name_H-M   'P 1'
_cell_length_a   10.97970000
_cell_length_b   12.10690000
_cell_length_c   12.85050000
_cell_angle_alpha   65.32870000
_cell_angle_beta   86.22300000
_cell_angle_gamma   84.18150000
_symmetry_Int_Tables_number   1
_chemical_formula_structural   Co5H34C44(NO2)12
_chemical_formula_sum   'Co5 H34 C44 N12 O24'
_cell_volume   1543.76623033
_cell_formula_units_Z   1
loop_
 _symmetry_equiv_pos_site_id
 _symmetry_equiv_pos_as_xyz
  1  'x, y, z'
loop_
 _atom_site_type_symbol
 _atom_site_label
 _atom_site_symmetry_multiplicity
 _atom_site_fract_x
 _atom_site_fract_y
 _atom_site_fract_z
 _atom_site_occupancy
  Co  Co0  1  0.75503000  0.11819000  0.05030000  1.0
  Co  Co1  1  0.24497000  0.88180000  0.94971000  1.0
  Co  Co2  1  0.00000000  0.99999000  0.00000000  1.0
  Co  Co3  1  0.09759000  0.82221000  0.22890000  1.0
  Co  Co4  1  0.90241000  0.17779000  0.77110000  1.0
  H  H5  1  0.84904000  0.17718000  0.33748000  1.0
  H  H6  1  0.15096000  0.82282000  0.66251000  1.0
  H  H7  1  0.14857000  0.13357000  0.55253000  1.0
  H  H8  1  0.85143000  0.86643000  0.44748000  1.0
  H  H9  1  0.20521000  0.03886000  0.26240000  1.0
  H  H10  1  0.79478000  0.96114000  0.73762000  1.0
  H  H11  1  0.33423000  0.92049000  0.38520000  1.0
  H  H12  1  0.66577000  0.07949000  0.61483000  1.0
  H  H13  1  0.45659000  0.92931000  0.46654000  1.0
  H  H14  1  0.54341000  0.07068000  0.53348000  1.0
  H  H15  1  0.47515000  0.21532000  0.03128000  1.0
  H  H16  1  0.52483000  0.78468000  0.96873000  1.0
  H  H17  1  0.64701000  0.98834000  0.33987000  1.0
  H  H18  1  0.35299000  0.01166000  0.66015000  1.0
  H  H19  1  0.40047000  0.10570000  0.91857000  1.0
  H  H20  1  0.59954000  0.89431000  0.08144000  1.0
  H  H21  1  0.21578000  0.29266000  0.59833000  1.0
  H  H22  1  0.78420000  0.70735000  0.40166000  1.0
  H  H23  1  0.61189000  0.27234000  0.60413000  1.0
  H  H24  1  0.38808000  0.72767000  0.39587000  1.0
  H  H25  1  0.29318000  0.26828000  0.43353000  1.0
  H  H26  1  0.70681000  0.73173000  0.56647000  1.0
  H  H27  1  0.39077000  0.35929000  0.31774000  1.0
  H  H28  1  0.60922000  0.64072000  0.68225000  1.0
  H  H29  1  0.98363000  0.57242000  0.38942000  1.0
  H  H30  1  0.01637000  0.42759000  0.61058000  1.0
  H  H31  1  0.34143000  0.60621000  0.24825000  1.0
  H  H32  1  0.65856000  0.39379000  0.75175000  1.0
  H  H33  1  0.05206000  0.77632000  0.06553000  1.0
  H  H34  1  0.94795000  0.22367000  0.93446000  1.0
  H  H35  1  0.77101000  0.31427000  0.06980000  1.0
  H  H36  1  0.22899000  0.68576000  0.93018000  1.0
  H  H37  1  0.77297000  0.36576000  0.93681000  1.0
  H  H38  1  0.22704000  0.63423000  0.06317000  1.0
  C  C39  1  0.02321000  0.10610000  0.29060000  1.0
  C  C40  1  0.97680000  0.89389000  0.70940000  1.0
  C  C41  1  0.94580000  0.15279000  0.35632000  1.0
  C  C42  1  0.05421000  0.84722000  0.64367000  1.0
  C  C43  1  0.99133000  0.16285000  0.45054000  1.0
  C  C44  1  0.00868000  0.83715000  0.54946000  1.0
  C  C45  1  0.11493000  0.12926000  0.47662000  1.0
  C  C46  1  0.88507000  0.87074000  0.52339000  1.0
  C  C47  1  0.19241000  0.08673000  0.40866000  1.0
  C  C48  1  0.80759000  0.91327000  0.59134000  1.0
  C  C49  1  0.14751000  0.07349000  0.31591000  1.0
  C  C50  1  0.85251000  0.92651000  0.68410000  1.0
  C  C51  1  0.97180000  0.08751000  0.19510000  1.0
  C  C52  1  0.02822000  0.91247000  0.80489000  1.0
  C  C53  1  0.90584000  0.19929000  0.52992000  1.0
  C  C54  1  0.09415000  0.80073000  0.47005000  1.0
  C  C55  1  0.38927000  0.98264000  0.40097000  1.0
  C  C56  1  0.61074000  0.01736000  0.59905000  1.0
  C  C57  1  0.48957000  0.15690000  0.12081000  1.0
  C  C58  1  0.51043000  0.84309000  0.87920000  1.0
  C  C59  1  0.58066000  0.04191000  0.27513000  1.0
  C  C60  1  0.41934000  0.95809000  0.72488000  1.0
  C  C61  1  0.51755000  0.18827000  0.76878000  1.0
  C  C62  1  0.48244000  0.81174000  0.23122000  1.0
  C  C63  1  0.40449000  0.15968000  0.82630000  1.0
  C  C64  1  0.59551000  0.84032000  0.17370000  1.0
  C  C65  1  0.29731000  0.19661000  0.76374000  1.0
  C  C66  1  0.70270000  0.80339000  0.23625000  1.0
  C  C67  1  0.30148000  0.26361000  0.64415000  1.0
  C  C68  1  0.69851000  0.73640000  0.35584000  1.0
  C  C69  1  0.41531000  0.28997000  0.58812000  1.0
  C  C70  1  0.58469000  0.71004000  0.41187000  1.0
  C  C71  1  0.52341000  0.25337000  0.64959000  1.0
  C  C72  1  0.47657000  0.74663000  0.35040000  1.0
  C  C73  1  0.63477000  0.14815000  0.83244000  1.0
  C  C74  1  0.36523000  0.85187000  0.16756000  1.0
  C  C75  1  0.17557000  0.16356000  0.82228000  1.0
  C  C76  1  0.82445000  0.83643000  0.17771000  1.0
  C  C77  1  0.34180000  0.35147000  0.39744000  1.0
  C  C78  1  0.65819000  0.64854000  0.60255000  1.0
  C  C79  1  0.07802000  0.54945000  0.37068000  1.0
  C  C80  1  0.92197000  0.45056000  0.62933000  1.0
  C  C81  1  0.25811000  0.57126000  0.29579000  1.0
  C  C82  1  0.74188000  0.42872000  0.70421000  1.0
  N  N83  1  0.45882000  0.05222000  0.29681000  1.0
  N  N84  1  0.54119000  0.94778000  0.70320000  1.0
  N  N85  1  0.39968000  0.12574000  0.19859000  1.0
  N  N86  1  0.60034000  0.87425000  0.80142000  1.0
  N  N87  1  0.60299000  0.10619000  0.16354000  1.0
  N  N88  1  0.39702000  0.89380000  0.83647000  1.0
  N  N89  1  0.24905000  0.45369000  0.36963000  1.0
  N  N90  1  0.75093000  0.54630000  0.63037000  1.0
  N  N91  1  0.13431000  0.43860000  0.41855000  1.0
  N  N92  1  0.86568000  0.56140000  0.58146000  1.0
  N  N93  1  0.15097000  0.63425000  0.29447000  1.0
  N  N94  1  0.84902000  0.36574000  0.70554000  1.0
  O  O95  1  0.03713000  0.02505000  0.14848000  1.0
  O  O96  1  0.96289000  0.97495000  0.85150000  1.0
  O  O97  1  0.86381000  0.13628000  0.16451000  1.0
  O  O98  1  0.13621000  0.86369000  0.83549000  1.0
  O  O99  1  0.79621000  0.23334000  0.50568000  1.0
  O  O100  1  0.20379000  0.76668000  0.49429000  1.0
  O  O101  1  0.95843000  0.18701000  0.62214000  1.0
  O  O102  1  0.04155000  0.81300000  0.37785000  1.0
  O  O103  1  0.31458000  0.05909000  0.44178000  1.0
  O  O104  1  0.68541000  0.94089000  0.55825000  1.0
  O  O105  1  0.73093000  0.13858000  0.77508000  1.0
  O  O106  1  0.26906000  0.86144000  0.22491000  1.0
  O  O107  1  0.62997000  0.12966000  0.93771000  1.0
  O  O108  1  0.37003000  0.87036000  0.06228000  1.0
  O  O109  1  0.17215000  0.06508000  0.91563000  1.0
  O  O110  1  0.82788000  0.93490000  0.08436000  1.0
  O  O111  1  0.08246000  0.23403000  0.77717000  1.0
  O  O112  1  0.91755000  0.76596000  0.22283000  1.0
  O  O113  1  0.43229000  0.35155000  0.47066000  1.0
  O  O114  1  0.56770000  0.64845000  0.52933000  1.0
  O  O115  1  0.10336000  0.83745000  0.06527000  1.0
  O  O116  1  0.89665000  0.16254000  0.93472000  1.0
  O  O117  1  0.72135000  0.32674000  0.00463000  1.0
  O  O118  1  0.27865000  0.67328000  0.99536000  1.0
