# generated using pymatgen
data_ZnH21C24(N6O5)2
_symmetry_space_group_name_H-M   'P 1'
_cell_length_a   16.46210000
_cell_length_b   17.08790000
_cell_length_c   18.82380000
_cell_angle_alpha   87.95720000
_cell_angle_beta   86.55320000
_cell_angle_gamma   85.47610000
_symmetry_Int_Tables_number   1
_chemical_formula_structural   ZnH21C24(N6O5)2
_chemical_formula_sum   'Zn2 H42 C48 N24 O20'
_cell_volume   5266.59848784
_cell_formula_units_Z   2
loop_
 _symmetry_equiv_pos_site_id
 _symmetry_equiv_pos_as_xyz
  1  'x, y, z'
loop_
 _atom_site_type_symbol
 _atom_site_label
 _atom_site_symmetry_multiplicity
 _atom_site_fract_x
 _atom_site_fract_y
 _atom_site_fract_z
 _atom_site_occupancy
  Zn  Zn0  1  0.59599000  0.50147000  0.49442000  1.0
  Zn  Zn1  1  0.41461000  0.50745000  0.49196000  1.0
  H  H2  1  0.61521000  0.49315000  0.71109000  1.0
  H  H3  1  0.41556000  0.45643000  0.31304000  1.0
  H  H4  1  0.36674000  0.43226000  0.85744000  1.0
  H  H5  1  0.61067000  0.51974000  0.11338000  1.0
  H  H6  1  0.56384000  0.90289000  0.57314000  1.0
  H  H7  1  0.42147000  0.10631000  0.42003000  1.0
  H  H8  1  0.61115000  0.11671000  0.56535000  1.0
  H  H9  1  0.39409000  0.88907000  0.41038000  1.0
  H  H10  1  0.60759000  0.26321000  0.54467000  1.0
  H  H11  1  0.39245000  0.74357000  0.43554000  1.0
  H  H12  1  0.95602000  0.39877000  0.57939000  1.0
  H  H13  1  0.84859000  0.30695000  0.49844000  1.0
  H  H14  1  0.92948000  0.26689000  0.55094000  1.0
  H  H15  1  0.95176000  0.32345000  0.47124000  1.0
  H  H16  1  0.11913000  0.67305000  0.44399000  1.0
  H  H17  1  0.11384000  0.69774000  0.57678000  1.0
  H  H18  1  0.02660000  0.64105000  0.58046000  1.0
  H  H19  1  0.02515000  0.73040000  0.52953000  1.0
  H  H20  1  0.35801000  0.37244000  0.50546000  1.0
  H  H21  1  0.33172000  0.24788000  0.52532000  1.0
  H  H22  1  0.22548000  0.27252000  0.51861000  1.0
  H  H23  1  0.26947000  0.27592000  0.60276000  1.0
  H  H24  1  0.64738000  0.64071000  0.47832000  1.0
  H  H25  1  0.67540000  0.76434000  0.45826000  1.0
  H  H26  1  0.74812000  0.73276000  0.38855000  1.0
  H  H27  1  0.77932000  0.74131000  0.47692000  1.0
  H  H28  1  0.34900000  0.44892000  0.66439000  1.0
  H  H29  1  0.21959000  0.44220000  0.72051000  1.0
  H  H30  1  0.25510000  0.48606000  0.79645000  1.0
  H  H31  1  0.26572000  0.38207000  0.78796000  1.0
  H  H32  1  0.67697000  0.58882000  0.18583000  1.0
  H  H33  1  0.68399000  0.68600000  0.26284000  1.0
  H  H34  1  0.68355000  0.61019000  0.33089000  1.0
  H  H35  1  0.59039000  0.66181000  0.30760000  1.0
  H  H36  1  0.59981000  0.79385000  0.63872000  1.0
  H  H37  1  0.57716000  0.68939000  0.70851000  1.0
  H  H38  1  0.57566000  0.62929000  0.63354000  1.0
  H  H39  1  0.48477000  0.68428000  0.66490000  1.0
  H  H40  1  0.40051000  0.31951000  0.38517000  1.0
  H  H41  1  0.31776000  0.26006000  0.31345000  1.0
  H  H42  1  0.30531000  0.18750000  0.38355000  1.0
  H  H43  1  0.38511000  0.17353000  0.31577000  1.0
  C  C44  1  0.50994000  0.35477000  0.46904000  1.0
  C  C45  1  0.48291000  0.65385000  0.51823000  1.0
  C  C46  1  0.49560000  0.47279000  0.62861000  1.0
  C  C47  1  0.52964000  0.52879000  0.36058000  1.0
  C  C48  1  0.56010000  0.48005000  0.74259000  1.0
  C  C49  1  0.45842000  0.47102000  0.26929000  1.0
  C  C50  1  0.56036000  0.47948000  0.81636000  1.0
  C  C51  1  0.45005000  0.44103000  0.20284000  1.0
  C  C52  1  0.49007000  0.46008000  0.85808000  1.0
  C  C53  1  0.50603000  0.45869000  0.14575000  1.0
  C  C54  1  0.41985000  0.44791000  0.82435000  1.0
  C  C55  1  0.56947000  0.50383000  0.15836000  1.0
  C  C56  1  0.41633000  0.45342000  0.74912000  1.0
  C  C57  1  0.57995000  0.53440000  0.22629000  1.0
  C  C58  1  0.49017000  0.46706000  0.70765000  1.0
  C  C59  1  0.52299000  0.51544000  0.28315000  1.0
  C  C60  1  0.49476000  0.44126000  0.07094000  1.0
  C  C61  1  0.48931000  0.44672000  0.93577000  1.0
  C  C62  1  0.51133000  0.26802000  0.47279000  1.0
  C  C63  1  0.47837000  0.74125000  0.51703000  1.0
  C  C64  1  0.45704000  0.22440000  0.43534000  1.0
  C  C65  1  0.52749000  0.78550000  0.55794000  1.0
  C  C66  1  0.46125000  0.14228000  0.44670000  1.0
  C  C67  1  0.52793000  0.86648000  0.54259000  1.0
  C  C68  1  0.51623000  0.10476000  0.49309000  1.0
  C  C69  1  0.48072000  0.90292000  0.48967000  1.0
  C  C70  1  0.56956000  0.14757000  0.52908000  1.0
  C  C71  1  0.43071000  0.85922000  0.45096000  1.0
  C  C72  1  0.56697000  0.22831000  0.51775000  1.0
  C  C73  1  0.42964000  0.77914000  0.46552000  1.0
  C  C74  1  0.22977000  0.56233000  0.48692000  1.0
  C  C75  1  0.77448000  0.46017000  0.53406000  1.0
  C  C76  1  0.14443000  0.56777000  0.49425000  1.0
  C  C77  1  0.85999000  0.45531000  0.53330000  1.0
  C  C78  1  0.10971000  0.49761000  0.51957000  1.0
  C  C79  1  0.89705000  0.52017000  0.49791000  1.0
  C  C80  1  0.16271000  0.43391000  0.54054000  1.0
  C  C81  1  0.84604000  0.58015000  0.46696000  1.0
  C  C82  1  0.24891000  0.43167000  0.52353000  1.0
  C  C83  1  0.75949000  0.58249000  0.47699000  1.0
  C  C84  1  0.90814000  0.31735000  0.51765000  1.0
  C  C85  1  0.06424000  0.67895000  0.54601000  1.0
  C  C86  1  0.27997000  0.28679000  0.54511000  1.0
  C  C87  1  0.72961000  0.72489000  0.44536000  1.0
  C  C88  1  0.26784000  0.43871000  0.75824000  1.0
  C  C89  1  0.65050000  0.63753000  0.28639000  1.0
  C  C90  1  0.55163000  0.68518000  0.65642000  1.0
  C  C91  1  0.35028000  0.21790000  0.34891000  1.0
  N  N92  1  0.42076000  0.47143000  0.97423000  1.0
  N  N93  1  0.55531000  0.40085000  0.03349000  1.0
  N  N94  1  0.42306000  0.46800000  0.04412000  1.0
  N  N95  1  0.55161000  0.40191000  0.96343000  1.0
  N  N96  1  0.52183000  0.02298000  0.50853000  1.0
  N  N97  1  0.47691000  0.98433000  0.47274000  1.0
  N  N98  1  0.28147000  0.49900000  0.49675000  1.0
  N  N99  1  0.72497000  0.51719000  0.50725000  1.0
  N  N100  1  0.02447000  0.49611000  0.53463000  1.0
  N  N101  1  0.98128000  0.52058000  0.48342000  1.0
  N  N102  1  0.90142000  0.38817000  0.56049000  1.0
  N  N103  1  0.09533000  0.63673000  0.48231000  1.0
  N  N104  1  0.12920000  0.37143000  0.58445000  1.0
  N  N105  1  0.88302000  0.63882000  0.41984000  1.0
  N  N106  1  0.29971000  0.36681000  0.52824000  1.0
  N  N107  1  0.70851000  0.64556000  0.46346000  1.0
  N  N108  1  0.63057000  0.50746000  0.84821000  1.0
  N  N109  1  0.38865000  0.38573000  0.19626000  1.0
  N  N110  1  0.34531000  0.44567000  0.71877000  1.0
  N  N111  1  0.64111000  0.58258000  0.23101000  1.0
  N  N112  1  0.57404000  0.75271000  0.61189000  1.0
  N  N113  1  0.40334000  0.26009000  0.38969000  1.0
  N  N114  1  0.73484000  0.39576000  0.57515000  1.0
  N  N115  1  0.26689000  0.63515000  0.45996000  1.0
  O  O116  1  0.57381000  0.38670000  0.48222000  1.0
  O  O117  1  0.41739000  0.61913000  0.52589000  1.0
  O  O118  1  0.44168000  0.39418000  0.45427000  1.0
  O  O119  1  0.55421000  0.61917000  0.50722000  1.0
  O  O120  1  0.56450000  0.48717000  0.59902000  1.0
  O  O121  1  0.46263000  0.54488000  0.39625000  1.0
  O  O122  1  0.43124000  0.46403000  0.59470000  1.0
  O  O123  1  0.59977000  0.51744000  0.38657000  1.0
  O  O124  1  0.07000000  0.33926000  0.56401000  1.0
  O  O125  1  0.16118000  0.35597000  0.64200000  1.0
  O  O126  1  0.85911000  0.64347000  0.35816000  1.0
  O  O127  1  0.93487000  0.67861000  0.44265000  1.0
  O  O128  1  0.61969000  0.53492000  0.90904000  1.0
  O  O129  1  0.69665000  0.50565000  0.81247000  1.0
  O  O130  1  0.39561000  0.34223000  0.14427000  1.0
  O  O131  1  0.33317000  0.38289000  0.24447000  1.0
  O  O132  1  0.72081000  0.40634000  0.63913000  1.0
  O  O133  1  0.72092000  0.33769000  0.54195000  1.0
  O  O134  1  0.25323000  0.69362000  0.49680000  1.0
  O  O135  1  0.30594000  0.63153000  0.40193000  1.0
