# generated using pymatgen
data_Cu2H4CO5
_symmetry_space_group_name_H-M   'P 1'
_cell_length_a   5.70918000
_cell_length_b   6.07691000
_cell_length_c   6.89387000
_cell_angle_alpha   89.99680000
_cell_angle_beta   110.37400000
_cell_angle_gamma   89.99950000
_symmetry_Int_Tables_number   1
_chemical_formula_structural   Cu2H4CO5
_chemical_formula_sum   'Cu4 H8 C2 O10'
_cell_volume   224.21421439
_cell_formula_units_Z   2
loop_
 _symmetry_equiv_pos_site_id
 _symmetry_equiv_pos_as_xyz
  1  'x, y, z'
loop_
 _atom_site_type_symbol
 _atom_site_label
 _atom_site_symmetry_multiplicity
 _atom_site_fract_x
 _atom_site_fract_y
 _atom_site_fract_z
 _atom_site_occupancy
  Cu  Cu0  1  0.49898000  0.31296000  0.00567000  1.0
  Cu  Cu1  1  0.50101000  0.81294000  0.99432000  1.0
  Cu  Cu2  1  0.99660000  0.56575000  0.00213000  1.0
  Cu  Cu3  1  0.00341000  0.06574000  0.99790000  1.0
  H  H4  1  0.66098000  0.29744000  0.73139000  1.0
  H  H5  1  0.33904000  0.79739000  0.26863000  1.0
  H  H6  1  0.37371000  0.55419000  0.70136000  1.0
  H  H7  1  0.62630000  0.05415000  0.29863000  1.0
  H  H8  1  0.29868000  0.30448000  0.27887000  1.0
  H  H9  1  0.70134000  0.80447000  0.72113000  1.0
  H  H10  1  0.05274000  0.10543000  0.41333000  1.0
  H  H11  1  0.94726000  0.60543000  0.58666000  1.0
  C  C12  1  0.22208000  0.13958000  0.55058000  1.0
  C  C13  1  0.77789000  0.63959000  0.44942000  1.0
  O  O14  1  0.77026000  0.31359000  0.88073000  1.0
  O  O15  1  0.22975000  0.81357000  0.11928000  1.0
  O  O16  1  0.22458000  0.07541000  0.72464000  1.0
  O  O17  1  0.77541000  0.57542000  0.27537000  1.0
  O  O18  1  0.33824000  0.56333000  0.83018000  1.0
  O  O19  1  0.66174000  0.06332000  0.16979000  1.0
  O  O20  1  0.22494000  0.31825000  0.12063000  1.0
  O  O21  1  0.77506000  0.81827000  0.87938000  1.0
  O  O22  1  0.39852000  0.24544000  0.51487000  1.0
  O  O23  1  0.60146000  0.74543000  0.48512000  1.0
