# generated using pymatgen
data_NaH13(C2O)4
_symmetry_space_group_name_H-M   'P 1'
_cell_length_a   6.73461000
_cell_length_b   10.13170000
_cell_length_c   12.99720000
_cell_angle_alpha   91.19610000
_cell_angle_beta   89.99990000
_cell_angle_gamma   90.00000000
_symmetry_Int_Tables_number   1
_chemical_formula_structural   NaH13(C2O)4
_chemical_formula_sum   'Na4 H52 C32 O16'
_cell_volume   886.64533703
_cell_formula_units_Z   4
loop_
 _symmetry_equiv_pos_site_id
 _symmetry_equiv_pos_as_xyz
  1  'x, y, z'
loop_
 _atom_site_type_symbol
 _atom_site_label
 _atom_site_symmetry_multiplicity
 _atom_site_fract_x
 _atom_site_fract_y
 _atom_site_fract_z
 _atom_site_occupancy
  Na  Na0  1  0.15715000  0.11299000  0.44067000  1.0
  Na  Na1  1  0.65714000  0.38701000  0.55933000  1.0
  Na  Na2  1  0.84285000  0.88701000  0.55933000  1.0
  Na  Na3  1  0.34285000  0.61299000  0.44067000  1.0
  H  H4  1  0.38091000  0.88641000  0.43323000  1.0
  H  H5  1  0.88091000  0.61359000  0.56677000  1.0
  H  H6  1  0.61909000  0.11359000  0.56677000  1.0
  H  H7  1  0.11909000  0.38641000  0.43323000  1.0
  H  H8  1  0.08059000  0.91001000  0.18341000  1.0
  H  H9  1  0.58059000  0.58998000  0.81660000  1.0
  H  H10  1  0.91941000  0.08998000  0.81659000  1.0
  H  H11  1  0.41941000  0.41001000  0.18340000  1.0
  H  H12  1  0.27539000  0.02527000  0.18628000  1.0
  H  H13  1  0.77539000  0.47473000  0.81372000  1.0
  H  H14  1  0.72461000  0.97473000  0.81372000  1.0
  H  H15  1  0.22461000  0.52527000  0.18629000  1.0
  H  H16  1  0.29951000  0.74482000  0.08962000  1.0
  H  H17  1  0.79951000  0.75518000  0.91038000  1.0
  H  H18  1  0.70049000  0.25518000  0.91038000  1.0
  H  H19  1  0.20049000  0.24482000  0.08962000  1.0
  H  H20  1  0.49136000  0.86198000  0.08675000  1.0
  H  H21  1  0.99135000  0.63802000  0.91325000  1.0
  H  H22  1  0.50865000  0.13802000  0.91325000  1.0
  H  H23  1  0.00865000  0.36198000  0.08675000  1.0
  H  H24  1  0.08234000  0.89418000  0.98607000  1.0
  H  H25  1  0.58234000  0.60582000  0.01393000  1.0
  H  H26  1  0.91766000  0.10582000  0.01393000  1.0
  H  H27  1  0.41766000  0.39418000  0.98607000  1.0
  H  H28  1  0.27295000  0.01322000  0.98447000  1.0
  H  H29  1  0.77295000  0.48678000  0.01553000  1.0
  H  H30  1  0.72705000  0.98678000  0.01553000  1.0
  H  H31  1  0.22705000  0.51322000  0.98447000  1.0
  H  H32  1  0.29799000  0.73202000  0.89303000  1.0
  H  H33  1  0.79799000  0.76798000  0.10697000  1.0
  H  H34  1  0.70201000  0.26798000  0.10697000  1.0
  H  H35  1  0.20201000  0.23202000  0.89303000  1.0
  H  H36  1  0.49681000  0.84445000  0.89543000  1.0
  H  H37  1  0.99681000  0.65555000  0.10457000  1.0
  H  H38  1  0.50319000  0.15555000  0.10457000  1.0
  H  H39  1  0.00319000  0.34445000  0.89543000  1.0
  H  H40  1  0.09944000  0.89081000  0.78585000  1.0
  H  H41  1  0.59944000  0.60919000  0.21415000  1.0
  H  H42  1  0.90056000  0.10919000  0.21415000  1.0
  H  H43  1  0.40056000  0.39081000  0.78585000  1.0
  H  H44  1  0.30405000  0.99971000  0.78617000  1.0
  H  H45  1  0.80405000  0.50029000  0.21383000  1.0
  H  H46  1  0.69595000  0.00029000  0.21383000  1.0
  H  H47  1  0.19595000  0.49971000  0.78617000  1.0
  H  H48  1  0.51375000  0.81225000  0.70706000  1.0
  H  H49  1  0.01374000  0.68775000  0.29294000  1.0
  H  H50  1  0.48626000  0.18775000  0.29294000  1.0
  H  H51  1  0.98626000  0.31225000  0.70706000  1.0
  H  H52  1  0.29796000  0.71648000  0.69535000  1.0
  H  H53  1  0.79796000  0.78353000  0.30465000  1.0
  H  H54  1  0.70204000  0.28352000  0.30465000  1.0
  H  H55  1  0.20204000  0.21648000  0.69535000  1.0
  C  C56  1  0.31381000  0.85772000  0.28187000  1.0
  C  C57  1  0.81382000  0.64228000  0.71813000  1.0
  C  C58  1  0.68619000  0.14228000  0.71813000  1.0
  C  C59  1  0.18619000  0.35772000  0.28187000  1.0
  C  C60  1  0.24396000  0.91893000  0.18322000  1.0
  C  C61  1  0.74396000  0.58107000  0.81678000  1.0
  C  C62  1  0.75604000  0.08107000  0.81677000  1.0
  C  C63  1  0.25604000  0.41893000  0.18322000  1.0
  C  C64  1  0.32850000  0.85154000  0.08666000  1.0
  C  C65  1  0.82850000  0.64846000  0.91334000  1.0
  C  C66  1  0.67149000  0.14846000  0.91334000  1.0
  C  C67  1  0.17149000  0.35154000  0.08666000  1.0
  C  C68  1  0.24491000  0.90596000  0.98703000  1.0
  C  C69  1  0.74491000  0.59404000  0.01297000  1.0
  C  C70  1  0.75509000  0.09404000  0.01297000  1.0
  C  C71  1  0.25509000  0.40596000  0.98703000  1.0
  C  C72  1  0.33345000  0.83840000  0.89158000  1.0
  C  C73  1  0.83345000  0.66160000  0.10842000  1.0
  C  C74  1  0.66655000  0.16160000  0.10842000  1.0
  C  C75  1  0.16655000  0.33841000  0.89158000  1.0
  C  C76  1  0.26205000  0.89471000  0.78996000  1.0
  C  C77  1  0.76205000  0.60529000  0.21004000  1.0
  C  C78  1  0.73795000  0.10529000  0.21004000  1.0
  C  C79  1  0.23795000  0.39471000  0.78996000  1.0
  C  C80  1  0.35187000  0.81945000  0.69845000  1.0
  C  C81  1  0.85187000  0.68055000  0.30155000  1.0
  C  C82  1  0.64813000  0.18055000  0.30155000  1.0
  C  C83  1  0.14813000  0.31945000  0.69845000  1.0
  C  C84  1  0.31333000  0.87647000  0.59385000  1.0
  C  C85  1  0.81333000  0.62353000  0.40615000  1.0
  C  C86  1  0.68668000  0.12353000  0.40615000  1.0
  C  C87  1  0.18667000  0.37647000  0.59385000  1.0
  O  O88  1  0.33902000  0.94078000  0.35996000  1.0
  O  O89  1  0.83902000  0.55922000  0.64004000  1.0
  O  O90  1  0.66098000  0.05922000  0.64004000  1.0
  O  O91  1  0.16098000  0.44078000  0.35996000  1.0
  O  O92  1  0.34049000  0.73669000  0.28899000  1.0
  O  O93  1  0.84049000  0.76331000  0.71101000  1.0
  O  O94  1  0.65951000  0.26331000  0.71101000  1.0
  O  O95  1  0.15951000  0.23669000  0.28899000  1.0
  O  O96  1  0.42527000  0.82905000  0.51950000  1.0
  O  O97  1  0.92527000  0.67096000  0.48050000  1.0
  O  O98  1  0.57473000  0.17096000  0.48050000  1.0
  O  O99  1  0.07473000  0.32904000  0.51950000  1.0
  O  O100  1  0.18145000  0.96211000  0.57987000  1.0
  O  O101  1  0.68145000  0.53790000  0.42014000  1.0
  O  O102  1  0.81855000  0.03789000  0.42013000  1.0
  O  O103  1  0.31853000  0.46211000  0.57987000  1.0
