# generated using pymatgen
data_CaPH9C3O7
_symmetry_space_group_name_H-M   'P 1'
_cell_length_a   5.47238000
_cell_length_b   7.88236000
_cell_length_c   18.17590000
_cell_angle_alpha   89.99920000
_cell_angle_beta   89.99950000
_cell_angle_gamma   84.73350000
_symmetry_Int_Tables_number   1
_chemical_formula_structural   CaPH9C3O7
_chemical_formula_sum   'Ca4 P4 H36 C12 O28'
_cell_volume   780.71261735
_cell_formula_units_Z   4
loop_
 _symmetry_equiv_pos_site_id
 _symmetry_equiv_pos_as_xyz
  1  'x, y, z'
loop_
 _atom_site_type_symbol
 _atom_site_label
 _atom_site_symmetry_multiplicity
 _atom_site_fract_x
 _atom_site_fract_y
 _atom_site_fract_z
 _atom_site_occupancy
  Ca  Ca0  1  0.11506000  0.16620000  0.43826000  1.0
  Ca  Ca1  1  0.88494000  0.33380000  0.93825000  1.0
  Ca  Ca2  1  0.88494000  0.83380000  0.56175000  1.0
  Ca  Ca3  1  0.11505000  0.66620000  0.06174000  1.0
  P  P4  1  0.35735000  0.14812000  0.59088000  1.0
  P  P5  1  0.64265000  0.35188000  0.09088000  1.0
  P  P6  1  0.64265000  0.85188000  0.40912000  1.0
  P  P7  1  0.35734000  0.64812000  0.90912000  1.0
  H  H8  1  0.24022000  0.12639000  0.71549000  1.0
  H  H9  1  0.75978000  0.37360000  0.21548000  1.0
  H  H10  1  0.75979000  0.87361000  0.28452000  1.0
  H  H11  1  0.24022000  0.62639000  0.78451000  1.0
  H  H12  1  0.39177000  0.31037000  0.69995000  1.0
  H  H13  1  0.60823000  0.18961000  0.19995000  1.0
  H  H14  1  0.60823000  0.68962000  0.30006000  1.0
  H  H15  1  0.39178000  0.81037000  0.80005000  1.0
  H  H16  1  0.00945000  0.46155000  0.64722000  1.0
  H  H17  1  0.99055000  0.03844000  0.14722000  1.0
  H  H18  1  0.99055000  0.53844000  0.35278000  1.0
  H  H19  1  0.00948000  0.96156000  0.85278000  1.0
  H  H20  1  0.86001000  0.27467000  0.64989000  1.0
  H  H21  1  0.13998000  0.22533000  0.14989000  1.0
  H  H22  1  0.13999000  0.72532000  0.35011000  1.0
  H  H23  1  0.86003000  0.77468000  0.85011000  1.0
  H  H24  1  0.66328000  0.51910000  0.81595000  1.0
  H  H25  1  0.33672000  0.98090000  0.31595000  1.0
  H  H26  1  0.33672000  0.48090000  0.18405000  1.0
  H  H27  1  0.66329000  0.01910000  0.68405000  1.0
  H  H28  1  0.64569000  0.33539000  0.49833000  1.0
  H  H29  1  0.35430000  0.16461000  0.99833000  1.0
  H  H30  1  0.35430000  0.66462000  0.50167000  1.0
  H  H31  1  0.64569000  0.83539000  0.00167000  1.0
  H  H32  1  0.74867000  0.50072000  0.46589000  1.0
  H  H33  1  0.25132000  0.99929000  0.96589000  1.0
  H  H34  1  0.25132000  0.49929000  0.53411000  1.0
  H  H35  1  0.74867000  0.00071000  0.03411000  1.0
  H  H36  1  0.54719000  0.35001000  0.39466000  1.0
  H  H37  1  0.45280000  0.15000000  0.89466000  1.0
  H  H38  1  0.45281000  0.64999000  0.60534000  1.0
  H  H39  1  0.54718000  0.85000000  0.10533000  1.0
  H  H40  1  0.37644000  0.38834000  0.32417000  1.0
  H  H41  1  0.62356000  0.11167000  0.82417000  1.0
  H  H42  1  0.62357000  0.61167000  0.67583000  1.0
  H  H43  1  0.37643000  0.88832000  0.17582000  1.0
  C  C44  1  0.24793000  0.23541000  0.67819000  1.0
  C  C45  1  0.75206000  0.26458000  0.17819000  1.0
  C  C46  1  0.75207000  0.76458000  0.32182000  1.0
  C  C47  1  0.24795000  0.73542000  0.82181000  1.0
  C  C48  1  0.00209000  0.34184000  0.67771000  1.0
  C  C49  1  0.99790000  0.15816000  0.17771000  1.0
  C  C50  1  0.99791000  0.65816000  0.32229000  1.0
  C  C51  1  0.00211000  0.84185000  0.82229000  1.0
  C  C52  1  0.91385000  0.38392000  0.75472000  1.0
  C  C53  1  0.08615000  0.11608000  0.25472000  1.0
  C  C54  1  0.08614000  0.61608000  0.24528000  1.0
  C  C55  1  0.91385000  0.88393000  0.74528000  1.0
  O  O56  1  0.17774000  0.02985000  0.55816000  1.0
  O  O57  1  0.82226000  0.47015000  0.05816000  1.0
  O  O58  1  0.82226000  0.97016000  0.44184000  1.0
  O  O59  1  0.17774000  0.52985000  0.94183000  1.0
  O  O60  1  0.37957000  0.29306000  0.53434000  1.0
  O  O61  1  0.62042000  0.20694000  0.03434000  1.0
  O  O62  1  0.62043000  0.70695000  0.46567000  1.0
  O  O63  1  0.37957000  0.79306000  0.96566000  1.0
  O  O64  1  0.61180000  0.05604000  0.61050000  1.0
  O  O65  1  0.38820000  0.44395000  0.11050000  1.0
  O  O66  1  0.38820000  0.94396000  0.38950000  1.0
  O  O67  1  0.61180000  0.55605000  0.88950000  1.0
  O  O68  1  0.01848000  0.32083000  0.81013000  1.0
  O  O69  1  0.98153000  0.17917000  0.31013000  1.0
  O  O70  1  0.98153000  0.67916000  0.18987000  1.0
  O  O71  1  0.01848000  0.82083000  0.68986000  1.0
  O  O72  1  0.71437000  0.49299000  0.75872000  1.0
  O  O73  1  0.28564000  0.00700000  0.25872000  1.0
  O  O74  1  0.28564000  0.50700000  0.24128000  1.0
  O  O75  1  0.71436000  0.99301000  0.74128000  1.0
  O  O76  1  0.77929000  0.37371000  0.46573000  1.0
  O  O77  1  0.22070000  0.12629000  0.96573000  1.0
  O  O78  1  0.22071000  0.62630000  0.53427000  1.0
  O  O79  1  0.77928000  0.87371000  0.03427000  1.0
  O  O80  1  0.38388000  0.33719000  0.37344000  1.0
  O  O81  1  0.61612000  0.16282000  0.87344000  1.0
  O  O82  1  0.61613000  0.66281000  0.62656000  1.0
  O  O83  1  0.38387000  0.83718000  0.12656000  1.0
