# generated using pymatgen
data_CuH8C13N3O5
_symmetry_space_group_name_H-M   'P 1'
_cell_length_a   18.84790000
_cell_length_b   18.84790000
_cell_length_c   23.10484075
_cell_angle_alpha   111.04370600
_cell_angle_beta   111.04370600
_cell_angle_gamma   96.87400000
_symmetry_Int_Tables_number   1
_chemical_formula_structural   CuH8C13N3O5
_chemical_formula_sum   'Cu8 H64 C104 N24 O40'
_cell_volume   6852.11640107
_cell_formula_units_Z   8
loop_
 _symmetry_equiv_pos_site_id
 _symmetry_equiv_pos_as_xyz
  1  'x, y, z'
loop_
 _atom_site_type_symbol
 _atom_site_label
 _atom_site_symmetry_multiplicity
 _atom_site_fract_x
 _atom_site_fract_y
 _atom_site_fract_z
 _atom_site_occupancy
  Cu  Cu0  1  0.49622000  0.05304000  0.54924000  1.0
  Cu  Cu1  1  0.05304000  0.49622000  0.54924000  1.0
  Cu  Cu2  1  0.94698000  0.50379000  0.45077000  1.0
  Cu  Cu3  1  0.50378000  0.94697000  0.45076000  1.0
  Cu  Cu4  1  0.48736000  0.48736000  0.54550000  1.0
  Cu  Cu5  1  0.05812000  0.05812000  0.54552000  1.0
  Cu  Cu6  1  0.51264000  0.51264000  0.45450000  1.0
  Cu  Cu7  1  0.94191000  0.94191000  0.45450000  1.0
  H  H8  1  0.52346000  0.95194000  0.69024000  1.0
  H  H9  1  0.16677000  0.73828000  0.69021000  1.0
  H  H10  1  0.04806000  0.47654000  0.30976000  1.0
  H  H11  1  0.26172000  0.83323000  0.30979000  1.0
  H  H12  1  0.47653000  0.04806000  0.30976000  1.0
  H  H13  1  0.83323000  0.26172000  0.30979000  1.0
  H  H14  1  0.95194000  0.52346000  0.69024000  1.0
  H  H15  1  0.73828000  0.16677000  0.69021000  1.0
  H  H16  1  0.50890000  0.75615000  0.51414000  1.0
  H  H17  1  0.00523000  0.75796000  0.51411000  1.0
  H  H18  1  0.24386000  0.49110000  0.48586000  1.0
  H  H19  1  0.24206000  0.99478000  0.48589000  1.0
  H  H20  1  0.49110000  0.24386000  0.48586000  1.0
  H  H21  1  0.99478000  0.24206000  0.48589000  1.0
  H  H22  1  0.75615000  0.50890000  0.51414000  1.0
  H  H23  1  0.75796000  0.00523000  0.51411000  1.0
  H  H24  1  0.53089000  0.72555000  0.69531000  1.0
  H  H25  1  0.16437000  0.96975000  0.69529000  1.0
  H  H26  1  0.27446000  0.46912000  0.30469000  1.0
  H  H27  1  0.03025000  0.83564000  0.30472000  1.0
  H  H28  1  0.46912000  0.27446000  0.30469000  1.0
  H  H29  1  0.83564000  0.03025000  0.30472000  1.0
  H  H30  1  0.72554000  0.53088000  0.69531000  1.0
  H  H31  1  0.96976000  0.16437000  0.69529000  1.0
  H  H32  1  0.52254000  0.99043000  0.79089000  1.0
  H  H33  1  0.26832000  0.80043000  0.79085000  1.0
  H  H34  1  0.00956000  0.47746000  0.20911000  1.0
  H  H35  1  0.19955000  0.73168000  0.20914000  1.0
  H  H36  1  0.47746000  0.00956000  0.20911000  1.0
  H  H37  1  0.73168000  0.19955000  0.20914000  1.0
  H  H38  1  0.99043000  0.52254000  0.79089000  1.0
  H  H39  1  0.80043000  0.26832000  0.79085000  1.0
  H  H40  1  0.64574000  0.96798000  0.00002000  1.0
  H  H41  1  0.35426000  0.03201000  0.99998000  1.0
  H  H42  1  0.03201000  0.35426000  0.99998000  1.0
  H  H43  1  0.96798000  0.64574000  0.00002000  1.0
  H  H44  1  0.47847000  0.06361000  0.88942000  1.0
  H  H45  1  0.41093000  0.82577000  0.88938000  1.0
  H  H46  1  0.93638000  0.52154000  0.11058000  1.0
  H  H47  1  0.17422000  0.58907000  0.11062000  1.0
  H  H48  1  0.52153000  0.93638000  0.11058000  1.0
  H  H49  1  0.58906000  0.17421000  0.11061000  1.0
  H  H50  1  0.06360000  0.47846000  0.88942000  1.0
  H  H51  1  0.82577000  0.41093000  0.88938000  1.0
  H  H52  1  0.49697000  0.16849000  0.00001000  1.0
  H  H53  1  0.50303000  0.83150000  0.99999000  1.0
  H  H54  1  0.83150000  0.50304000  0.99999000  1.0
  H  H55  1  0.16849000  0.49696000  0.00001000  1.0
  H  H56  1  0.45264000  0.39773000  0.60526000  1.0
  H  H57  1  0.15255000  0.20745000  0.60517000  1.0
  H  H58  1  0.60226000  0.54736000  0.39472000  1.0
  H  H59  1  0.79256000  0.84746000  0.39483000  1.0
  H  H60  1  0.54735000  0.60226000  0.39472000  1.0
  H  H61  1  0.84745000  0.79256000  0.39483000  1.0
  H  H62  1  0.39773000  0.45263000  0.60526000  1.0
  H  H63  1  0.20745000  0.15255000  0.60517000  1.0
  H  H64  1  0.40922000  0.12794000  0.59869000  1.0
  H  H65  1  0.18943000  0.47084000  0.59836000  1.0
  H  H66  1  0.87206000  0.59079000  0.40132000  1.0
  H  H67  1  0.52915000  0.81057000  0.40164000  1.0
  H  H68  1  0.59078000  0.87205000  0.40131000  1.0
  H  H69  1  0.81057000  0.52915000  0.40164000  1.0
  H  H70  1  0.12794000  0.40921000  0.59868000  1.0
  H  H71  1  0.47084000  0.18943000  0.59836000  1.0
  C  C72  1  0.51620000  0.64746000  0.56542000  1.0
  C  C73  1  0.04919000  0.91796000  0.56538000  1.0
  C  C74  1  0.35255000  0.48381000  0.43458000  1.0
  C  C75  1  0.08205000  0.95083000  0.43463000  1.0
  C  C76  1  0.48380000  0.35255000  0.43458000  1.0
  C  C77  1  0.95083000  0.08205000  0.43463000  1.0
  C  C78  1  0.64745000  0.51619000  0.56542000  1.0
  C  C79  1  0.91796000  0.04919000  0.56538000  1.0
  C  C80  1  0.50798000  0.91023000  0.56181000  1.0
  C  C81  1  0.05383000  0.65154000  0.56181000  1.0
  C  C82  1  0.08977000  0.49202000  0.43819000  1.0
  C  C83  1  0.34847000  0.94617000  0.43819000  1.0
  C  C84  1  0.49202000  0.08977000  0.43819000  1.0
  C  C85  1  0.94617000  0.34847000  0.43819000  1.0
  C  C86  1  0.91023000  0.50798000  0.56181000  1.0
  C  C87  1  0.65154000  0.05384000  0.56181000  1.0
  C  C88  1  0.51482000  0.85885000  0.59880000  1.0
  C  C89  1  0.08396000  0.73992000  0.59878000  1.0
  C  C90  1  0.14114000  0.48517000  0.40119000  1.0
  C  C91  1  0.26009000  0.91605000  0.40122000  1.0
  C  C92  1  0.48516000  0.14114000  0.40119000  1.0
  C  C93  1  0.91605000  0.26009000  0.40122000  1.0
  C  C94  1  0.85886000  0.51483000  0.59881000  1.0
  C  C95  1  0.73992000  0.08396000  0.59878000  1.0
  C  C96  1  0.52218000  0.89018000  0.66622000  1.0
  C  C97  1  0.14404000  0.77603000  0.66619000  1.0
  C  C98  1  0.10982000  0.47782000  0.33378000  1.0
  C  C99  1  0.22397000  0.85597000  0.33381000  1.0
  C  C100  1  0.47782000  0.10982000  0.33378000  1.0
  C  C101  1  0.85597000  0.22397000  0.33381000  1.0
  C  C102  1  0.89018000  0.52217000  0.66622000  1.0
  C  C103  1  0.77603000  0.14404000  0.66619000  1.0
  C  C104  1  0.52862000  0.84222000  0.70090000  1.0
  C  C105  1  0.17226000  0.85867000  0.70088000  1.0
  C  C106  1  0.15777000  0.47138000  0.29909000  1.0
  C  C107  1  0.14134000  0.82776000  0.29913000  1.0
  C  C108  1  0.47138000  0.15777000  0.29909000  1.0
  C  C109  1  0.82775000  0.14134000  0.29913000  1.0
  C  C110  1  0.84222000  0.52861000  0.70090000  1.0
  C  C111  1  0.85867000  0.17226000  0.70088000  1.0
  C  C112  1  0.51440000  0.78034000  0.56642000  1.0
  C  C113  1  0.05199000  0.78605000  0.56640000  1.0
  C  C114  1  0.21966000  0.48560000  0.43358000  1.0
  C  C115  1  0.21396000  0.94803000  0.43360000  1.0
  C  C116  1  0.48560000  0.21966000  0.43358000  1.0
  C  C117  1  0.94803000  0.21396000  0.43360000  1.0
  C  C118  1  0.78034000  0.51440000  0.56642000  1.0
  C  C119  1  0.78605000  0.05199000  0.56640000  1.0
  C  C120  1  0.51982000  0.73252000  0.60121000  1.0
  C  C121  1  0.08134000  0.86867000  0.60117000  1.0
  C  C122  1  0.26749000  0.48018000  0.39879000  1.0
  C  C123  1  0.13133000  0.91868000  0.39883000  1.0
  C  C124  1  0.48018000  0.26749000  0.39879000  1.0
  C  C125  1  0.91868000  0.13133000  0.39883000  1.0
  C  C126  1  0.73252000  0.51981000  0.60121000  1.0
  C  C127  1  0.86867000  0.08133000  0.60117000  1.0
  C  C128  1  0.52666000  0.76293000  0.66838000  1.0
  C  C129  1  0.14169000  0.90545000  0.66835000  1.0
  C  C130  1  0.23706000  0.47333000  0.33161000  1.0
  C  C131  1  0.09456000  0.85832000  0.33166000  1.0
  C  C132  1  0.47333000  0.23706000  0.33161000  1.0
  C  C133  1  0.85832000  0.09456000  0.33166000  1.0
  C  C134  1  0.76293000  0.52666000  0.66838000  1.0
  C  C135  1  0.90545000  0.14169000  0.66835000  1.0
  C  C136  1  0.53531000  0.94612000  0.80940000  1.0
  C  C137  1  0.27407000  0.86327000  0.80938000  1.0
  C  C138  1  0.05387000  0.46469000  0.19060000  1.0
  C  C139  1  0.13672000  0.72593000  0.19062000  1.0
  C  C140  1  0.46469000  0.05388000  0.19060000  1.0
  C  C141  1  0.72593000  0.13673000  0.19062000  1.0
  C  C142  1  0.94612000  0.53530000  0.80940000  1.0
  C  C143  1  0.86327000  0.27407000  0.80938000  1.0
  C  C144  1  0.55356000  0.94697000  0.87328000  1.0
  C  C145  1  0.31973000  0.92628000  0.87327000  1.0
  C  C146  1  0.05301000  0.44644000  0.12672000  1.0
  C  C147  1  0.07371000  0.68027000  0.12673000  1.0
  C  C148  1  0.44644000  0.05301000  0.12672000  1.0
  C  C149  1  0.68027000  0.07371000  0.12673000  1.0
  C  C150  1  0.94697000  0.55356000  0.87328000  1.0
  C  C151  1  0.92628000  0.31973000  0.87327000  1.0
  C  C152  1  0.61387000  0.01253000  0.00002000  1.0
  C  C153  1  0.38613000  0.98747000  0.99999000  1.0
  C  C154  1  0.98747000  0.38614000  0.99999000  1.0
  C  C155  1  0.01253000  0.61387000  0.00002000  1.0
  C  C156  1  0.56249000  0.00969000  0.93739000  1.0
  C  C157  1  0.37490000  0.92764000  0.93738000  1.0
  C  C158  1  0.99029000  0.43752000  0.06261000  1.0
  C  C159  1  0.07235000  0.62510000  0.06262000  1.0
  C  C160  1  0.43751000  0.99029000  0.06261000  1.0
  C  C161  1  0.62510000  0.07235000  0.06262000  1.0
  C  C162  1  0.00969000  0.56248000  0.93739000  1.0
  C  C163  1  0.92764000  0.37491000  0.93738000  1.0
  C  C164  1  0.52116000  0.06700000  0.93775000  1.0
  C  C165  1  0.41656000  0.87068000  0.93772000  1.0
  C  C166  1  0.93299000  0.47884000  0.06225000  1.0
  C  C167  1  0.12931000  0.58344000  0.06228000  1.0
  C  C168  1  0.47884000  0.93299000  0.06225000  1.0
  C  C169  1  0.58344000  0.12931000  0.06228000  1.0
  C  C170  1  0.06700000  0.52116000  0.93775000  1.0
  C  C171  1  0.87068000  0.41656000  0.93772000  1.0
  C  C172  1  0.53156000  0.12613000  1.00000000  1.0
  C  C173  1  0.46843000  0.87384000  0.99999000  1.0
  C  C174  1  0.87385000  0.46843000  0.99999000  1.0
  C  C175  1  0.12614000  0.53157000  0.00001000  1.0
  N  N176  1  0.53811000  0.87369000  0.76966000  1.0
  N  N177  1  0.23154000  0.89596000  0.76963000  1.0
  N  N178  1  0.12631000  0.46190000  0.23034000  1.0
  N  N179  1  0.10404000  0.76846000  0.23037000  1.0
  N  N180  1  0.46190000  0.12631000  0.23034000  1.0
  N  N181  1  0.76846000  0.10404000  0.23037000  1.0
  N  N182  1  0.87369000  0.53810000  0.76966000  1.0
  N  N183  1  0.89596000  0.23154000  0.76963000  1.0
  N  N184  1  0.55700000  0.83098000  0.80738000  1.0
  N  N185  1  0.25039000  0.97639000  0.80737000  1.0
  N  N186  1  0.16901000  0.44300000  0.19261000  1.0
  N  N187  1  0.02361000  0.74962000  0.19264000  1.0
  N  N188  1  0.44300000  0.16901000  0.19261000  1.0
  N  N189  1  0.74962000  0.02361000  0.19264000  1.0
  N  N190  1  0.83098000  0.55699000  0.80738000  1.0
  N  N191  1  0.97639000  0.25039000  0.80737000  1.0
  N  N192  1  0.56626000  0.87507000  0.86914000  1.0
  N  N193  1  0.30288000  0.99404000  0.86912000  1.0
  N  N194  1  0.12492000  0.43375000  0.13086000  1.0
  N  N195  1  0.00594000  0.69712000  0.13088000  1.0
  N  N196  1  0.43374000  0.12493000  0.13086000  1.0
  N  N197  1  0.69712000  0.00594000  0.13088000  1.0
  N  N198  1  0.87507000  0.56626000  0.86914000  1.0
  N  N199  1  0.99404000  0.30288000  0.86912000  1.0
  O  O200  1  0.50257000  0.60229000  0.59245000  1.0
  O  O201  1  0.08987000  0.99016000  0.59245000  1.0
  O  O202  1  0.39772000  0.49744000  0.40756000  1.0
  O  O203  1  0.00986000  0.91015000  0.40756000  1.0
  O  O204  1  0.49744000  0.39772000  0.40756000  1.0
  O  O205  1  0.91015000  0.00986000  0.40756000  1.0
  O  O206  1  0.60229000  0.50256000  0.59245000  1.0
  O  O207  1  0.99015000  0.08987000  0.59245000  1.0
  O  O208  1  0.50165000  0.97907000  0.59200000  1.0
  O  O209  1  0.09042000  0.61294000  0.59201000  1.0
  O  O210  1  0.02094000  0.49836000  0.40801000  1.0
  O  O211  1  0.38707000  0.90960000  0.40800000  1.0
  O  O212  1  0.49836000  0.02094000  0.40801000  1.0
  O  O213  1  0.90959000  0.38707000  0.40800000  1.0
  O  O214  1  0.97907000  0.50165000  0.59200000  1.0
  O  O215  1  0.61294000  0.09042000  0.59201000  1.0
  O  O216  1  0.52582000  0.62669000  0.51025000  1.0
  O  O217  1  0.98441000  0.88356000  0.51020000  1.0
  O  O218  1  0.37330000  0.47418000  0.48975000  1.0
  O  O219  1  0.11646000  0.01561000  0.48981000  1.0
  O  O220  1  0.47418000  0.37330000  0.48975000  1.0
  O  O221  1  0.01561000  0.11646000  0.48981000  1.0
  O  O222  1  0.62669000  0.52582000  0.51025000  1.0
  O  O223  1  0.88356000  0.98441000  0.51020000  1.0
  O  O224  1  0.50916000  0.88166000  0.50299000  1.0
  O  O225  1  0.99379000  0.62128000  0.50301000  1.0
  O  O226  1  0.11834000  0.49084000  0.49701000  1.0
  O  O227  1  0.37873000  0.00622000  0.49699000  1.0
  O  O228  1  0.49084000  0.11834000  0.49701000  1.0
  O  O229  1  0.00622000  0.37873000  0.49699000  1.0
  O  O230  1  0.88166000  0.50916000  0.50299000  1.0
  O  O231  1  0.62128000  0.99379000  0.50301000  1.0
  O  O232  1  0.45320000  0.45320000  0.62013000  1.0
  O  O233  1  0.16690000  0.16690000  0.62011000  1.0
  O  O234  1  0.54678000  0.54678000  0.37986000  1.0
  O  O235  1  0.83312000  0.83311000  0.37990000  1.0
  O  O236  1  0.46577000  0.15534000  0.62082000  1.0
  O  O237  1  0.15534000  0.46577000  0.62082000  1.0
  O  O238  1  0.84467000  0.53423000  0.37919000  1.0
  O  O239  1  0.53422000  0.84466000  0.37918000  1.0
