# generated using pymatgen
data_MnH4(CN2)4
_symmetry_space_group_name_H-M   'P 1'
_cell_length_a   7.52780000
_cell_length_b   8.30867000
_cell_length_c   8.30869000
_cell_angle_alpha   95.28660000
_cell_angle_beta   115.89500000
_cell_angle_gamma   115.89400000
_symmetry_Int_Tables_number   1
_chemical_formula_structural   MnH4(CN2)4
_chemical_formula_sum   'Mn2 H8 C8 N16'
_cell_volume   394.03760260
_cell_formula_units_Z   2
loop_
 _symmetry_equiv_pos_site_id
 _symmetry_equiv_pos_as_xyz
  1  'x, y, z'
loop_
 _atom_site_type_symbol
 _atom_site_label
 _atom_site_symmetry_multiplicity
 _atom_site_fract_x
 _atom_site_fract_y
 _atom_site_fract_z
 _atom_site_occupancy
  Mn  Mn0  1  0.00000000  0.00000000  0.50000000  1.0
  Mn  Mn1  1  0.99999000  0.50000000  0.99999000  1.0
  H  H2  1  0.05314000  0.24981000  0.24982000  1.0
  H  H3  1  0.94686000  0.75019000  0.75018000  1.0
  H  H4  1  0.57412000  0.06539000  0.41688000  1.0
  H  H5  1  0.57414000  0.41690000  0.06540000  1.0
  H  H6  1  0.42588000  0.93461000  0.58312000  1.0
  H  H7  1  0.42586000  0.58311000  0.93460000  1.0
  H  H8  1  0.39234000  0.23468000  0.23468000  1.0
  H  H9  1  0.60767000  0.76532000  0.76532000  1.0
  C  C10  1  0.90584000  0.24725000  0.24725000  1.0
  C  C11  1  0.09416000  0.75275000  0.75275000  1.0
  C  C12  1  0.63883000  0.14417000  0.33745000  1.0
  C  C13  1  0.63883000  0.33746000  0.14418000  1.0
  C  C14  1  0.36117000  0.85583000  0.66255000  1.0
  C  C15  1  0.36117000  0.66254000  0.85582000  1.0
  C  C16  1  0.53997000  0.23794000  0.23793000  1.0
  C  C17  1  0.46003000  0.76206000  0.76207000  1.0
  N  N18  1  0.82202000  0.14825000  0.34187000  1.0
  N  N19  1  0.82204000  0.34188000  0.14826000  1.0
  N  N20  1  0.17798000  0.85175000  0.65813000  1.0
  N  N21  1  0.17796000  0.65812000  0.85174000  1.0
  N  N22  1  0.89908000  0.02720000  0.70001000  1.0
  N  N23  1  0.89910000  0.70003000  0.02720000  1.0
  N  N24  1  0.10092000  0.97280000  0.29999000  1.0
  N  N25  1  0.10090000  0.29997000  0.97280000  1.0
  N  N26  1  0.99998000  0.16404000  0.83594000  1.0
  N  N27  1  0.00002000  0.83596000  0.16406000  1.0
  N  N28  1  0.68296000  0.72585000  0.33429000  1.0
  N  N29  1  0.68295000  0.33431000  0.72586000  1.0
  N  N30  1  0.31704000  0.27415000  0.66571000  1.0
  N  N31  1  0.31705000  0.66569000  0.27414000  1.0
  N  N32  1  0.50000000  0.69543000  0.30456000  1.0
  N  N33  1  0.49999000  0.30457000  0.69544000  1.0
