# generated using pymatgen
data_Zn2H19C26NO9
_symmetry_space_group_name_H-M   'P 1'
_cell_length_a   12.56050000
_cell_length_b   15.62400000
_cell_length_c   18.06230000
_cell_angle_alpha   89.99990000
_cell_angle_beta   89.99990000
_cell_angle_gamma   111.62900000
_symmetry_Int_Tables_number   1
_chemical_formula_structural   Zn2H19C26NO9
_chemical_formula_sum   'Zn8 H76 C104 N4 O36'
_cell_volume   3295.06261912
_cell_formula_units_Z   4
loop_
 _symmetry_equiv_pos_site_id
 _symmetry_equiv_pos_as_xyz
  1  'x, y, z'
loop_
 _atom_site_type_symbol
 _atom_site_label
 _atom_site_symmetry_multiplicity
 _atom_site_fract_x
 _atom_site_fract_y
 _atom_site_fract_z
 _atom_site_occupancy
  Zn  Zn0  1  0.74495000  0.77236000  0.61596000  1.0
  Zn  Zn1  1  0.95655000  0.79888000  0.50454000  1.0
  Zn  Zn2  1  0.25506000  0.72764000  0.11597000  1.0
  Zn  Zn3  1  0.04346000  0.70112000  0.00454000  1.0
  Zn  Zn4  1  0.25505000  0.22764000  0.38404000  1.0
  Zn  Zn5  1  0.04345000  0.20111000  0.49546000  1.0
  Zn  Zn6  1  0.74494000  0.27236000  0.88403000  1.0
  Zn  Zn7  1  0.95655000  0.29888000  0.99546000  1.0
  H  H8  1  0.90449000  0.97264000  0.75429000  1.0
  H  H9  1  0.01191000  0.11257000  0.83015000  1.0
  H  H10  1  0.20712000  0.21487000  0.79338000  1.0
  H  H11  1  0.19344000  0.03790000  0.60779000  1.0
  H  H12  1  0.49132000  0.30147000  0.52620000  1.0
  H  H13  1  0.40242000  0.19363000  0.78438000  1.0
  H  H14  1  0.63443000  0.49241000  0.61537000  1.0
  H  H15  1  0.97812000  0.53436000  0.54839000  1.0
  H  H16  1  0.93523000  0.36510000  0.56115000  1.0
  H  H17  1  0.74200000  0.26133000  0.60208000  1.0
  H  H18  1  0.16709000  0.97547000  0.47398000  1.0
  H  H19  1  0.25056000  0.01956000  0.39218000  1.0
  H  H20  1  0.29658000  0.95747000  0.45937000  1.0
  H  H21  1  0.26567000  0.95067000  0.24229000  1.0
  H  H22  1  0.32802000  0.86758000  0.26335000  1.0
  H  H23  1  0.34609000  0.96184000  0.32456000  1.0
  H  H24  1  0.14606000  0.72040000  0.28384000  1.0
  H  H25  1  0.10209000  0.79505000  0.22804000  1.0
  H  H26  1  0.02461000  0.74674000  0.31077000  1.0
  H  H27  1  0.09551000  0.52735000  0.25428000  1.0
  H  H28  1  0.98809000  0.38742000  0.33015000  1.0
  H  H29  1  0.79287000  0.28513000  0.29338000  1.0
  H  H30  1  0.80656000  0.46210000  0.10778000  1.0
  H  H31  1  0.50868000  0.19853000  0.02620000  1.0
  H  H32  1  0.59758000  0.30637000  0.28438000  1.0
  H  H33  1  0.36557000  0.00758000  0.11538000  1.0
  H  H34  1  0.02188000  0.96564000  0.04839000  1.0
  H  H35  1  0.06477000  0.13490000  0.06115000  1.0
  H  H36  1  0.25800000  0.23867000  0.10209000  1.0
  H  H37  1  0.83291000  0.52453000  0.97398000  1.0
  H  H38  1  0.74944000  0.48044000  0.89218000  1.0
  H  H39  1  0.70342000  0.54253000  0.95937000  1.0
  H  H40  1  0.73433000  0.54933000  0.74229000  1.0
  H  H41  1  0.67198000  0.63243000  0.76335000  1.0
  H  H42  1  0.65392000  0.53816000  0.82456000  1.0
  H  H43  1  0.85394000  0.77960000  0.78384000  1.0
  H  H44  1  0.89791000  0.70495000  0.72804000  1.0
  H  H45  1  0.97539000  0.75327000  0.81077000  1.0
  H  H46  1  0.09551000  0.02736000  0.24571000  1.0
  H  H47  1  0.98809000  0.88743000  0.16985000  1.0
  H  H48  1  0.79287000  0.78513000  0.20663000  1.0
  H  H49  1  0.80656000  0.96210000  0.39222000  1.0
  H  H50  1  0.50867000  0.69851000  0.47380000  1.0
  H  H51  1  0.59758000  0.80637000  0.21563000  1.0
  H  H52  1  0.36557000  0.50757000  0.38462000  1.0
  H  H53  1  0.02187000  0.46563000  0.45161000  1.0
  H  H54  1  0.06478000  0.63490000  0.43885000  1.0
  H  H55  1  0.25800000  0.73866000  0.39792000  1.0
  H  H56  1  0.83291000  0.02453000  0.52602000  1.0
  H  H57  1  0.74945000  0.98044000  0.60782000  1.0
  H  H58  1  0.70342000  0.04252000  0.54063000  1.0
  H  H59  1  0.73433000  0.04933000  0.75771000  1.0
  H  H60  1  0.67197000  0.13242000  0.73664000  1.0
  H  H61  1  0.65392000  0.03816000  0.67544000  1.0
  H  H62  1  0.85394000  0.27960000  0.71616000  1.0
  H  H63  1  0.89791000  0.20495000  0.77196000  1.0
  H  H64  1  0.97539000  0.25326000  0.68923000  1.0
  H  H65  1  0.90450000  0.47265000  0.74571000  1.0
  H  H66  1  0.01191000  0.61258000  0.66985000  1.0
  H  H67  1  0.20713000  0.71488000  0.70662000  1.0
  H  H68  1  0.19345000  0.53790000  0.89221000  1.0
  H  H69  1  0.49132000  0.80148000  0.97380000  1.0
  H  H70  1  0.40242000  0.69363000  0.71562000  1.0
  H  H71  1  0.63443000  0.99243000  0.88462000  1.0
  H  H72  1  0.97813000  0.03437000  0.95161000  1.0
  H  H73  1  0.93523000  0.86510000  0.93885000  1.0
  H  H74  1  0.74200000  0.76134000  0.89792000  1.0
  H  H75  1  0.16709000  0.47547000  0.02602000  1.0
  H  H76  1  0.25056000  0.51956000  0.10782000  1.0
  H  H77  1  0.29658000  0.45747000  0.04064000  1.0
  H  H78  1  0.26567000  0.45067000  0.25771000  1.0
  H  H79  1  0.32802000  0.36758000  0.23664000  1.0
  H  H80  1  0.34608000  0.46184000  0.17544000  1.0
  H  H81  1  0.14606000  0.22040000  0.21616000  1.0
  H  H82  1  0.10209000  0.29505000  0.27197000  1.0
  H  H83  1  0.02460000  0.24674000  0.18923000  1.0
  C  C84  1  0.98064000  0.91534000  0.63084000  1.0
  C  C85  1  0.04353000  0.99772000  0.67656000  1.0
  C  C86  1  0.99130000  0.01784000  0.73955000  1.0
  C  C87  1  0.05128000  0.09579000  0.78131000  1.0
  C  C88  1  0.16184000  0.15322000  0.76095000  1.0
  C  C89  1  0.21453000  0.13395000  0.69795000  1.0
  C  C90  1  0.15420000  0.05541000  0.65639000  1.0
  C  C91  1  0.33145000  0.19463000  0.67582000  1.0
  C  C92  1  0.35911000  0.22489000  0.60221000  1.0
  C  C93  1  0.47193000  0.27947000  0.58354000  1.0
  C  C94  1  0.55903000  0.30824000  0.63645000  1.0
  C  C95  1  0.53231000  0.27678000  0.70974000  1.0
  C  C96  1  0.42014000  0.21986000  0.72793000  1.0
  C  C97  1  0.27207000  0.20759000  0.54197000  1.0
  C  C98  1  0.62092000  0.30418000  0.77024000  1.0
  C  C99  1  0.67565000  0.36990000  0.61274000  1.0
  C  C100  1  0.69981000  0.46399000  0.60369000  1.0
  C  C101  1  0.80842000  0.52310000  0.58030000  1.0
  C  C102  1  0.89362000  0.48750000  0.56546000  1.0
  C  C103  1  0.86976000  0.39351000  0.57325000  1.0
  C  C104  1  0.76110000  0.33503000  0.59659000  1.0
  C  C105  1  0.83168000  0.62351000  0.57252000  1.0
  C  C106  1  0.15382000  0.87216000  0.39405000  1.0
  C  C107  1  0.22091000  0.96194000  0.43136000  1.0
  C  C108  1  0.28660000  0.91217000  0.28713000  1.0
  C  C109  1  0.10935000  0.77415000  0.28518000  1.0
  C  C110  1  0.01937000  0.58465000  0.13084000  1.0
  C  C111  1  0.95648000  0.50228000  0.17656000  1.0
  C  C112  1  0.00870000  0.48215000  0.23955000  1.0
  C  C113  1  0.94872000  0.40421000  0.28131000  1.0
  C  C114  1  0.83816000  0.34678000  0.26095000  1.0
  C  C115  1  0.78546000  0.36605000  0.19795000  1.0
  C  C116  1  0.84580000  0.44459000  0.15639000  1.0
  C  C117  1  0.66855000  0.30537000  0.17582000  1.0
  C  C118  1  0.64089000  0.27510000  0.10221000  1.0
  C  C119  1  0.52807000  0.22053000  0.08354000  1.0
  C  C120  1  0.44097000  0.19176000  0.13645000  1.0
  C  C121  1  0.46769000  0.22323000  0.20974000  1.0
  C  C122  1  0.57986000  0.28015000  0.22793000  1.0
  C  C123  1  0.72793000  0.29240000  0.04197000  1.0
  C  C124  1  0.37907000  0.19582000  0.27024000  1.0
  C  C125  1  0.32434000  0.13010000  0.11274000  1.0
  C  C126  1  0.30019000  0.03601000  0.10369000  1.0
  C  C127  1  0.19158000  0.97691000  0.08030000  1.0
  C  C128  1  0.10637000  0.01250000  0.06546000  1.0
  C  C129  1  0.13024000  0.10649000  0.07325000  1.0
  C  C130  1  0.23890000  0.16498000  0.09659000  1.0
  C  C131  1  0.16831000  0.87649000  0.07252000  1.0
  C  C132  1  0.84618000  0.62784000  0.89405000  1.0
  C  C133  1  0.77909000  0.53806000  0.93136000  1.0
  C  C134  1  0.71340000  0.58783000  0.78713000  1.0
  C  C135  1  0.89065000  0.72585000  0.78518000  1.0
  C  C136  1  0.01936000  0.08466000  0.36916000  1.0
  C  C137  1  0.95647000  0.00228000  0.32344000  1.0
  C  C138  1  0.00870000  0.98216000  0.26045000  1.0
  C  C139  1  0.94872000  0.90421000  0.21870000  1.0
  C  C140  1  0.83816000  0.84678000  0.23905000  1.0
  C  C141  1  0.78546000  0.86605000  0.30205000  1.0
  C  C142  1  0.84580000  0.94459000  0.34361000  1.0
  C  C143  1  0.66855000  0.80537000  0.32418000  1.0
  C  C144  1  0.64089000  0.77510000  0.39779000  1.0
  C  C145  1  0.52807000  0.72052000  0.41646000  1.0
  C  C146  1  0.44097000  0.69175000  0.36355000  1.0
  C  C147  1  0.46769000  0.72322000  0.29026000  1.0
  C  C148  1  0.57986000  0.78014000  0.27208000  1.0
  C  C149  1  0.72793000  0.79241000  0.45803000  1.0
  C  C150  1  0.37907000  0.69581000  0.22976000  1.0
  C  C151  1  0.32434000  0.63010000  0.38726000  1.0
  C  C152  1  0.30018000  0.53601000  0.39631000  1.0
  C  C153  1  0.19158000  0.47690000  0.41970000  1.0
  C  C154  1  0.10637000  0.51250000  0.43454000  1.0
  C  C155  1  0.13024000  0.60649000  0.42674000  1.0
  C  C156  1  0.23890000  0.66497000  0.40342000  1.0
  C  C157  1  0.16831000  0.37648000  0.42748000  1.0
  C  C158  1  0.84618000  0.12784000  0.60595000  1.0
  C  C159  1  0.77909000  0.03806000  0.56864000  1.0
  C  C160  1  0.71340000  0.08784000  0.71287000  1.0
  C  C161  1  0.89064000  0.22585000  0.71482000  1.0
  C  C162  1  0.98064000  0.41534000  0.86916000  1.0
  C  C163  1  0.04353000  0.49771000  0.82343000  1.0
  C  C164  1  0.99130000  0.51784000  0.76045000  1.0
  C  C165  1  0.05128000  0.59579000  0.71869000  1.0
  C  C166  1  0.16184000  0.65322000  0.73905000  1.0
  C  C167  1  0.21454000  0.63395000  0.80205000  1.0
  C  C168  1  0.15421000  0.55540000  0.84361000  1.0
  C  C169  1  0.33145000  0.69463000  0.82418000  1.0
  C  C170  1  0.35911000  0.72490000  0.89779000  1.0
  C  C171  1  0.47193000  0.77948000  0.91646000  1.0
  C  C172  1  0.55903000  0.80824000  0.86355000  1.0
  C  C173  1  0.53231000  0.77678000  0.79026000  1.0
  C  C174  1  0.42014000  0.71986000  0.77207000  1.0
  C  C175  1  0.27207000  0.70760000  0.95803000  1.0
  C  C176  1  0.62093000  0.80418000  0.72977000  1.0
  C  C177  1  0.67566000  0.86990000  0.88726000  1.0
  C  C178  1  0.69982000  0.96400000  0.89631000  1.0
  C  C179  1  0.80842000  0.02310000  0.91970000  1.0
  C  C180  1  0.89363000  0.98751000  0.93454000  1.0
  C  C181  1  0.86976000  0.89352000  0.92674000  1.0
  C  C182  1  0.76110000  0.83503000  0.90341000  1.0
  C  C183  1  0.83168000  0.12352000  0.92748000  1.0
  C  C184  1  0.15382000  0.37216000  0.10595000  1.0
  C  C185  1  0.22091000  0.46194000  0.06864000  1.0
  C  C186  1  0.28660000  0.41217000  0.21287000  1.0
  C  C187  1  0.10935000  0.27415000  0.21482000  1.0
  N  N188  1  0.18280000  0.85487000  0.32600000  1.0
  N  N189  1  0.81720000  0.64513000  0.82601000  1.0
  N  N190  1  0.81720000  0.14513000  0.67399000  1.0
  N  N191  1  0.18280000  0.35487000  0.17400000  1.0
  O  O192  1  0.17816000  0.21699000  0.55779000  1.0
  O  O193  1  0.89009000  0.85636000  0.65823000  1.0
  O  O194  1  0.02145000  0.90869000  0.56683000  1.0
  O  O195  1  0.30105000  0.18806000  0.47822000  1.0
  O  O196  1  0.62272000  0.23573000  0.81095000  1.0
  O  O197  1  0.68407000  0.38621000  0.77910000  1.0
  O  O198  1  0.75175000  0.65039000  0.59204000  1.0
  O  O199  1  0.92981000  0.67591000  0.54743000  1.0
  O  O200  1  0.06924000  0.81065000  0.42586000  1.0
  O  O201  1  0.82183000  0.28300000  0.05779000  1.0
  O  O202  1  0.10991000  0.64363000  0.15824000  1.0
  O  O203  1  0.97857000  0.59131000  0.06683000  1.0
  O  O204  1  0.69895000  0.31194000  0.97822000  1.0
  O  O205  1  0.37727000  0.26428000  0.31095000  1.0
  O  O206  1  0.31593000  0.11380000  0.27910000  1.0
  O  O207  1  0.24824000  0.84961000  0.09204000  1.0
  O  O208  1  0.07020000  0.82410000  0.04742000  1.0
  O  O209  1  0.93076000  0.68934000  0.92586000  1.0
  O  O210  1  0.82184000  0.78300000  0.44221000  1.0
  O  O211  1  0.10990000  0.14364000  0.34177000  1.0
  O  O212  1  0.97856000  0.09131000  0.43317000  1.0
  O  O213  1  0.69896000  0.81194000  0.52178000  1.0
  O  O214  1  0.37727000  0.76427000  0.18905000  1.0
  O  O215  1  0.31592000  0.61380000  0.22091000  1.0
  O  O216  1  0.24825000  0.34961000  0.40796000  1.0
  O  O217  1  0.07019000  0.32409000  0.45257000  1.0
  O  O218  1  0.93076000  0.18935000  0.57414000  1.0
  O  O219  1  0.17816000  0.71699000  0.94221000  1.0
  O  O220  1  0.89009000  0.35636000  0.84177000  1.0
  O  O221  1  0.02145000  0.40869000  0.93317000  1.0
  O  O222  1  0.30105000  0.68807000  0.02178000  1.0
  O  O223  1  0.62274000  0.73573000  0.68905000  1.0
  O  O224  1  0.68408000  0.88621000  0.72090000  1.0
  O  O225  1  0.75175000  0.15039000  0.90797000  1.0
  O  O226  1  0.92981000  0.17591000  0.95258000  1.0
  O  O227  1  0.06924000  0.31065000  0.07414000  1.0
