# generated using pymatgen
data_Zn2H27C21(NO3)3
_symmetry_space_group_name_H-M   'P 1'
_cell_length_a   9.86164000
_cell_length_b   10.92940000
_cell_length_c   11.23030000
_cell_angle_alpha   88.28220000
_cell_angle_beta   80.97930000
_cell_angle_gamma   74.88820000
_symmetry_Int_Tables_number   1
_chemical_formula_structural   Zn2H27C21(NO3)3
_chemical_formula_sum   'Zn2 H27 C21 N3 O9'
_cell_volume   1154.03589618
_cell_formula_units_Z   1
loop_
 _symmetry_equiv_pos_site_id
 _symmetry_equiv_pos_as_xyz
  1  'x, y, z'
loop_
 _atom_site_type_symbol
 _atom_site_label
 _atom_site_symmetry_multiplicity
 _atom_site_fract_x
 _atom_site_fract_y
 _atom_site_fract_z
 _atom_site_occupancy
  Zn  Zn0  1  0.36608000  0.52436000  0.49462000  1.0
  Zn  Zn1  1  0.65288000  0.45463000  0.50635000  1.0
  H  H2  1  0.32255000  0.95699000  0.39209000  1.0
  H  H3  1  0.66787000  0.03246000  0.61249000  1.0
  H  H4  1  0.45944000  0.88680000  0.68353000  1.0
  H  H5  1  0.40304000  0.10828000  0.69998000  1.0
  H  H6  1  0.62566000  0.44365000  0.88859000  1.0
  H  H7  1  0.39018000  0.53398000  0.11237000  1.0
  H  H8  1  0.71152000  0.40708000  0.09517000  1.0
  H  H9  1  0.13413000  0.40671000  0.53110000  1.0
  H  H10  1  0.86496000  0.60503000  0.45710000  1.0
  H  H11  1  0.48770000  0.90717000  0.29707000  1.0
  H  H12  1  0.92025000  0.34958000  0.55304000  1.0
  H  H13  1  0.54226000  0.10143000  0.31600000  1.0
  H  H14  1  0.36017000  0.16140000  0.37377000  1.0
  H  H15  1  0.30362000  0.91022000  0.61723000  1.0
  H  H16  1  0.28068000  0.12978000  0.59708000  1.0
  H  H17  1  0.70158000  0.82141000  0.55185000  1.0
  H  H18  1  0.71196000  0.86162000  0.39741000  1.0
  H  H19  1  0.72608000  0.06113000  0.46076000  1.0
  H  H20  1  0.09838000  0.72880000  0.92765000  1.0
  H  H21  1  0.21955000  0.72499000  0.79100000  1.0
  H  H22  1  0.26656000  0.80019000  0.04059000  1.0
  H  H23  1  0.38175000  0.80236000  0.90378000  1.0
  H  H24  1  0.18708000  0.96932000  0.82296000  1.0
  H  H25  1  0.22875000  0.02179000  0.95740000  1.0
  H  H26  1  0.07281000  0.96835000  0.96176000  1.0
  H  H27  1  0.17840000  0.74864000  0.43528000  1.0
  H  H28  1  0.00104000  0.73716000  0.43394000  1.0
  C  C29  1  0.57220000  0.45857000  0.26780000  1.0
  C  C30  1  0.49736000  0.11379000  0.51128000  1.0
  C  C31  1  0.38835000  0.07795000  0.61142000  1.0
  C  C32  1  0.64523000  0.02635000  0.52034000  1.0
  C  C33  1  0.60120000  0.44844000  0.13501000  1.0
  C  C34  1  0.49779000  0.49224000  0.06623000  1.0
  C  C35  1  0.41788000  0.54078000  0.86897000  1.0
  C  C36  1  0.52081000  0.48934000  0.93731000  1.0
  C  C37  1  0.92741000  0.51652000  0.49121000  1.0
  C  C38  1  0.07440000  0.49835000  0.50147000  1.0
  C  C39  1  0.49365000  0.73780000  0.47883000  1.0
  C  C40  1  0.45125000  0.52910000  0.73365000  1.0
  C  C41  1  0.49383000  0.25378000  0.52110000  1.0
  C  C42  1  0.43592000  0.95422000  0.38379000  1.0
  C  C43  1  0.45712000  0.08942000  0.38788000  1.0
  C  C44  1  0.40687000  0.93295000  0.60830000  1.0
  C  C45  1  0.65011000  0.88873000  0.48759000  1.0
  C  C46  1  0.49834000  0.87566000  0.48830000  1.0
  C  C47  1  0.21068000  0.71779000  0.88976000  1.0
  C  C48  1  0.26905000  0.81640000  0.94306000  1.0
  C  C49  1  0.18483000  0.95131000  0.92001000  1.0
  N  N50  1  0.85969000  0.43079000  0.52044000  1.0
  N  N51  1  0.15018000  0.58051000  0.47739000  1.0
  N  N52  1  0.10533000  0.69665000  0.43866000  1.0
  O  O53  1  0.44232000  0.49567000  0.31810000  1.0
  O  O54  1  0.67975000  0.42986000  0.32332000  1.0
  O  O55  1  0.37258000  0.71709000  0.47487000  1.0
  O  O56  1  0.60872000  0.65205000  0.47888000  1.0
  O  O57  1  0.34577000  0.54922000  0.67626000  1.0
  O  O58  1  0.58175000  0.49796000  0.68752000  1.0
  O  O59  1  0.37452000  0.33382000  0.51738000  1.0
  O  O60  1  0.60950000  0.28127000  0.53007000  1.0
  O  O61  1  0.28109000  0.59041000  0.92256000  1.0
