# generated using pymatgen
data_ZnH14C14N2O5
_symmetry_space_group_name_H-M   'P 1'
_cell_length_a   7.59125000
_cell_length_b   9.07778000
_cell_length_c   11.12190000
_cell_angle_alpha   90.00000000
_cell_angle_beta   90.00040000
_cell_angle_gamma   106.26100000
_symmetry_Int_Tables_number   1
_chemical_formula_structural   ZnH14C14N2O5
_chemical_formula_sum   'Zn2 H28 C28 N4 O10'
_cell_volume   735.76886845
_cell_formula_units_Z   2
loop_
 _symmetry_equiv_pos_site_id
 _symmetry_equiv_pos_as_xyz
  1  'x, y, z'
loop_
 _atom_site_type_symbol
 _atom_site_label
 _atom_site_symmetry_multiplicity
 _atom_site_fract_x
 _atom_site_fract_y
 _atom_site_fract_z
 _atom_site_occupancy
  Zn  Zn0  1  0.53079000  0.51677000  0.75056000  1.0
  Zn  Zn1  1  0.46921000  0.48323000  0.25056000  1.0
  H  H2  1  0.75054000  0.99474000  0.69458000  1.0
  H  H3  1  0.24946000  0.00526000  0.19458000  1.0
  H  H4  1  0.83881000  0.49747000  0.81531000  1.0
  H  H5  1  0.16118000  0.50253000  0.31530000  1.0
  H  H6  1  0.73481000  0.49728000  0.94789000  1.0
  H  H7  1  0.26518000  0.50272000  0.44788000  1.0
  H  H8  1  0.96506000  0.24232000  0.47386000  1.0
  H  H9  1  0.03494000  0.75768000  0.97385000  1.0
  H  H10  1  0.83150000  0.28013000  0.69941000  1.0
  H  H11  1  0.16850000  0.71987000  0.19940000  1.0
  H  H12  1  0.43565000  0.97215000  0.01783000  1.0
  H  H13  1  0.56436000  0.02786000  0.51783000  1.0
  H  H14  1  0.29051000  0.06149000  0.71891000  1.0
  H  H15  1  0.70949000  0.93850000  0.21890000  1.0
  H  H16  1  0.14511000  0.79803000  0.64312000  1.0
  H  H17  1  0.85490000  0.20196000  0.14311000  1.0
  H  H18  1  0.51870000  0.25777000  0.02645000  1.0
  H  H19  1  0.48131000  0.74224000  0.52645000  1.0
  H  H20  1  0.82923000  0.72032000  0.38736000  1.0
  H  H21  1  0.17077000  0.27967000  0.88735000  1.0
  H  H22  1  0.98705000  0.66031000  0.46447000  1.0
  H  H23  1  0.01295000  0.33969000  0.96447000  1.0
  H  H24  1  0.82832000  0.98094000  0.39241000  1.0
  H  H25  1  0.17168000  0.01906000  0.89241000  1.0
  H  H26  1  0.62263000  0.41402000  0.53553000  1.0
  H  H27  1  0.37737000  0.58599000  0.03552000  1.0
  H  H28  1  0.74220000  0.59031000  0.55389000  1.0
  H  H29  1  0.25780000  0.40970000  0.05389000  1.0
  C  C30  1  0.69788000  0.05312000  0.76571000  1.0
  C  C31  1  0.30212000  0.94689000  0.26571000  1.0
  C  C32  1  0.67938000  0.28633000  0.86263000  1.0
  C  C33  1  0.32061000  0.71367000  0.36263000  1.0
  C  C34  1  0.00528000  0.14505000  0.51048000  1.0
  C  C35  1  0.99472000  0.85494000  0.01049000  1.0
  C  C36  1  0.52699000  0.79493000  0.84768000  1.0
  C  C37  1  0.47301000  0.20507000  0.34769000  1.0
  C  C38  1  0.74530000  0.21222000  0.76951000  1.0
  C  C39  1  0.25470000  0.78778000  0.26950000  1.0
  C  C40  1  0.22469000  0.32619000  0.64824000  1.0
  C  C41  1  0.77530000  0.67380000  0.14824000  1.0
  C  C42  1  0.58236000  0.96559000  0.85378000  1.0
  C  C43  1  0.41764000  0.03442000  0.35378000  1.0
  C  C44  1  0.13532000  0.16926000  0.60345000  1.0
  C  C45  1  0.86468000  0.83074000  0.10345000  1.0
  C  C46  1  0.52051000  0.04084000  0.94783000  1.0
  C  C47  1  0.47949000  0.95915000  0.44783000  1.0
  C  C48  1  0.18407000  0.04228000  0.65034000  1.0
  C  C49  1  0.81593000  0.95771000  0.15033000  1.0
  C  C50  1  0.97562000  0.87210000  0.51315000  1.0
  C  C51  1  0.02439000  0.12790000  0.01315000  1.0
  C  C52  1  0.10414000  0.89538000  0.60712000  1.0
  C  C53  1  0.89586000  0.10462000  0.10711000  1.0
  C  C54  1  0.56772000  0.20040000  0.95278000  1.0
  C  C55  1  0.43227000  0.79960000  0.45278000  1.0
  C  C56  1  0.92681000  0.99863000  0.46570000  1.0
  C  C57  1  0.07319000  0.00136000  0.96570000  1.0
  N  N58  1  0.72012000  0.45003000  0.86164000  1.0
  N  N59  1  0.27988000  0.54998000  0.36164000  1.0
  N  N60  1  0.89557000  0.72372000  0.46847000  1.0
  N  N61  1  0.10444000  0.27628000  0.96847000  1.0
  O  O62  1  0.58841000  0.73728000  0.75503000  1.0
  O  O63  1  0.41159000  0.26273000  0.25503000  1.0
  O  O64  1  0.32185000  0.33449000  0.74689000  1.0
  O  O65  1  0.67814000  0.66552000  0.24690000  1.0
  O  O66  1  0.42517000  0.71529000  0.92692000  1.0
  O  O67  1  0.57482000  0.28471000  0.42692000  1.0
  O  O68  1  0.21043000  0.44406000  0.59426000  1.0
  O  O69  1  0.78957000  0.55594000  0.09427000  1.0
  O  O70  1  0.66733000  0.49565000  0.59730000  1.0
  O  O71  1  0.33268000  0.50435000  0.09729000  1.0
