# generated using pymatgen
data_Na2Zn3H24(C5O6)4
_symmetry_space_group_name_H-M   'P 1'
_cell_length_a   7.45843000
_cell_length_b   10.32560000
_cell_length_c   21.21300000
_cell_angle_alpha   88.75670000
_cell_angle_beta   86.55580000
_cell_angle_gamma   68.82850000
_symmetry_Int_Tables_number   1
_chemical_formula_structural   Na2Zn3H24(C5O6)4
_chemical_formula_sum   'Na4 Zn6 H48 C40 O48'
_cell_volume   1520.65315398
_cell_formula_units_Z   2
loop_
 _symmetry_equiv_pos_site_id
 _symmetry_equiv_pos_as_xyz
  1  'x, y, z'
loop_
 _atom_site_type_symbol
 _atom_site_label
 _atom_site_symmetry_multiplicity
 _atom_site_fract_x
 _atom_site_fract_y
 _atom_site_fract_z
 _atom_site_occupancy
  Na  Na0  1  0.78364000  0.75762000  0.69274000  1.0
  Na  Na1  1  0.45873000  0.75760000  0.80728000  1.0
  Na  Na2  1  0.21636000  0.24238000  0.30726000  1.0
  Na  Na3  1  0.54127000  0.24240000  0.19272000  1.0
  Zn  Zn4  1  0.02537000  0.94913000  0.75000000  1.0
  Zn  Zn5  1  0.97463000  0.05087000  0.25000000  1.0
  Zn  Zn6  1  0.18235000  0.50077000  0.41950000  1.0
  Zn  Zn7  1  0.31700000  0.50076000  0.08045000  1.0
  Zn  Zn8  1  0.81765000  0.49923000  0.58050000  1.0
  Zn  Zn9  1  0.68300000  0.49924000  0.91955000  1.0
  H  H10  1  0.49500000  0.51239000  0.35740000  1.0
  H  H11  1  0.99284000  0.51238000  0.14253000  1.0
  H  H12  1  0.50500000  0.48761000  0.64260000  1.0
  H  H13  1  0.00716000  0.48762000  0.85747000  1.0
  H  H14  1  0.32062000  0.66168000  0.35077000  1.0
  H  H15  1  0.01789000  0.66167000  0.14922000  1.0
  H  H16  1  0.67938000  0.33832000  0.64923000  1.0
  H  H17  1  0.98210000  0.33833000  0.85078000  1.0
  H  H18  1  0.12062000  0.15575000  0.67793000  1.0
  H  H19  1  0.72365000  0.15575000  0.82208000  1.0
  H  H20  1  0.87938000  0.84425000  0.32207000  1.0
  H  H21  1  0.27635000  0.84425000  0.17792000  1.0
  H  H22  1  0.13161000  0.15242000  0.75594000  1.0
  H  H23  1  0.71589000  0.15243000  0.74407000  1.0
  H  H24  1  0.86839000  0.84758000  0.24406000  1.0
  H  H25  1  0.28411000  0.84758000  0.25593000  1.0
  H  H26  1  0.24899000  0.70360000  0.69392000  1.0
  H  H27  1  0.04737000  0.70356000  0.80614000  1.0
  H  H28  1  0.75101000  0.29640000  0.30608000  1.0
  H  H29  1  0.95263000  0.29644000  0.19386000  1.0
  H  H30  1  0.36052000  0.80226000  0.67937000  1.0
  H  H31  1  0.83720000  0.80224000  0.82067000  1.0
  H  H32  1  0.63948000  0.19774000  0.32062000  1.0
  H  H33  1  0.16280000  0.19776000  0.17933000  1.0
  H  H34  1  0.68534000  0.99014000  0.39455000  1.0
  H  H35  1  0.32456000  0.99008000  0.10540000  1.0
  H  H36  1  0.31466000  0.00987000  0.60545000  1.0
  H  H37  1  0.67544000  0.00991000  0.89460000  1.0
  H  H38  1  0.55361000  0.24739000  0.55981000  1.0
  H  H39  1  0.19891000  0.24743000  0.94018000  1.0
  H  H40  1  0.44639000  0.75261000  0.44019000  1.0
  H  H41  1  0.80109000  0.75257000  0.05982000  1.0
  H  H42  1  0.96348000  0.82799000  0.56617000  1.0
  H  H43  1  0.20848000  0.82800000  0.93378000  1.0
  H  H44  1  0.03652000  0.17201000  0.43383000  1.0
  H  H45  1  0.79151000  0.17199000  0.06622000  1.0
  H  H46  1  0.76831000  0.55614000  0.41930000  1.0
  H  H47  1  0.67565000  0.55625000  0.08061000  1.0
  H  H48  1  0.23168000  0.44387000  0.58070000  1.0
  H  H49  1  0.32435000  0.44375000  0.91939000  1.0
  H  H50  1  0.40835000  0.00118000  0.73280000  1.0
  H  H51  1  0.59039000  0.00115000  0.76716000  1.0
  H  H52  1  0.59164000  0.99882000  0.26720000  1.0
  H  H53  1  0.40960000  0.99885000  0.23284000  1.0
  H  H54  1  0.68994000  0.51933000  0.71815000  1.0
  H  H55  1  0.79087000  0.51932000  0.78189000  1.0
  H  H56  1  0.31006000  0.48067000  0.28185000  1.0
  H  H57  1  0.20913000  0.48069000  0.21811000  1.0
  C  C58  1  0.76146000  0.03990000  0.57049000  1.0
  C  C59  1  0.19855000  0.03994000  0.92948000  1.0
  C  C60  1  0.23854000  0.96010000  0.42951000  1.0
  C  C61  1  0.80145000  0.96006000  0.07051000  1.0
  C  C62  1  0.70919000  0.00402000  0.44360000  1.0
  C  C63  1  0.28685000  0.00399000  0.05635000  1.0
  C  C64  1  0.29081000  0.99598000  0.55640000  1.0
  C  C65  1  0.71316000  0.99601000  0.94365000  1.0
  C  C66  1  0.46784000  0.24512000  0.43730000  1.0
  C  C67  1  0.28714000  0.24506000  0.06269000  1.0
  C  C68  1  0.53216000  0.75488000  0.56270000  1.0
  C  C69  1  0.71287000  0.75494000  0.93731000  1.0
  C  C70  1  0.60803000  0.13099000  0.47323000  1.0
  C  C71  1  0.26103000  0.13096000  0.02674000  1.0
  C  C72  1  0.39197000  0.86901000  0.52677000  1.0
  C  C73  1  0.73897000  0.86904000  0.97326000  1.0
  C  C74  1  0.83723000  0.89446000  0.47686000  1.0
  C  C75  1  0.26835000  0.89445000  0.02308000  1.0
  C  C76  1  0.16277000  0.10554000  0.52314000  1.0
  C  C77  1  0.73165000  0.10555000  0.97692000  1.0
  C  C78  1  0.78941000  0.05749000  0.63861000  1.0
  C  C79  1  0.15292000  0.05757000  0.86138000  1.0
  C  C80  1  0.21059000  0.94250000  0.36139000  1.0
  C  C81  1  0.84708000  0.94243000  0.13862000  1.0
  C  C82  1  0.94467000  0.75986000  0.44396000  1.0
  C  C83  1  0.29550000  0.75985000  0.05598000  1.0
  C  C84  1  0.05533000  0.24014000  0.55604000  1.0
  C  C85  1  0.70450000  0.24015000  0.94402000  1.0
  C  C86  1  0.63434000  0.14872000  0.53678000  1.0
  C  C87  1  0.21693000  0.14872000  0.96320000  1.0
  C  C88  1  0.36566000  0.85129000  0.46322000  1.0
  C  C89  1  0.78308000  0.85128000  0.03680000  1.0
  C  C90  1  0.86305000  0.91276000  0.54030000  1.0
  C  C91  1  0.22416000  0.91278000  0.95965000  1.0
  C  C92  1  0.13695000  0.08724000  0.45970000  1.0
  C  C93  1  0.77584000  0.08722000  0.04035000  1.0
  C  C94  1  0.83203000  0.47333000  0.38357000  1.0
  C  C95  1  0.69479000  0.47342000  0.11634000  1.0
  C  C96  1  0.16797000  0.52667000  0.61643000  1.0
  C  C97  1  0.30521000  0.52658000  0.88366000  1.0
  O  O98  1  0.89493000  0.94805000  0.66711000  1.0
  O  O99  1  0.15673000  0.94816000  0.83289000  1.0
  O  O100  1  0.10507000  0.05195000  0.33289000  1.0
  O  O101  1  0.84327000  0.05184000  0.16711000  1.0
  O  O102  1  0.35001000  0.55890000  0.35392000  1.0
  O  O103  1  0.09130000  0.55889000  0.14606000  1.0
  O  O104  1  0.64999000  0.44110000  0.64608000  1.0
  O  O105  1  0.90870000  0.44111000  0.85394000  1.0
  O  O106  1  0.15872000  0.09530000  0.71638000  1.0
  O  O107  1  0.74593000  0.09532000  0.78363000  1.0
  O  O108  1  0.84128000  0.90470000  0.28362000  1.0
  O  O109  1  0.25407000  0.90468000  0.21637000  1.0
  O  O110  1  0.27512000  0.78223000  0.71309000  1.0
  O  O111  1  0.94266000  0.78219000  0.78696000  1.0
  O  O112  1  0.72488000  0.21777000  0.28691000  1.0
  O  O113  1  0.05734000  0.21781000  0.21304000  1.0
  O  O114  1  0.01541000  0.42151000  0.37543000  1.0
  O  O115  1  0.56317000  0.42168000  0.12455000  1.0
  O  O116  1  0.98459000  0.57849000  0.62457000  1.0
  O  O117  1  0.43683000  0.57832000  0.87545000  1.0
  O  O118  1  0.36548000  0.35404000  0.46923000  1.0
  O  O119  1  0.28060000  0.35397000  0.03077000  1.0
  O  O120  1  0.63452000  0.64596000  0.53077000  1.0
  O  O121  1  0.71940000  0.64603000  0.96923000  1.0
  O  O122  1  0.05012000  0.65826000  0.47767000  1.0
  O  O123  1  0.29177000  0.65822000  0.02227000  1.0
  O  O124  1  0.94988000  0.34174000  0.52233000  1.0
  O  O125  1  0.70823000  0.34178000  0.97773000  1.0
  O  O126  1  0.70853000  0.17528000  0.66516000  1.0
  O  O127  1  0.11606000  0.17536000  0.83483000  1.0
  O  O128  1  0.29147000  0.82471000  0.33484000  1.0
  O  O129  1  0.88394000  0.82464000  0.16517000  1.0
  O  O130  1  0.45318000  0.23073000  0.37891000  1.0
  O  O131  1  0.31617000  0.23061000  0.12107000  1.0
  O  O132  1  0.54682000  0.76927000  0.62109000  1.0
  O  O133  1  0.68383000  0.76939000  0.87893000  1.0
  O  O134  1  0.93198000  0.74719000  0.38541000  1.0
  O  O135  1  0.32069000  0.74725000  0.11454000  1.0
  O  O136  1  0.06802000  0.25281000  0.61459000  1.0
  O  O137  1  0.67931000  0.25275000  0.88546000  1.0
  O  O138  1  0.72028000  0.43436000  0.35312000  1.0
  O  O139  1  0.84567000  0.43432000  0.14671000  1.0
  O  O140  1  0.27972000  0.56564000  0.64688000  1.0
  O  O141  1  0.15433000  0.56568000  0.85329000  1.0
  O  O142  1  0.53033000  0.93929000  0.74996000  1.0
  O  O143  1  0.46967000  0.06071000  0.25004000  1.0
  O  O144  1  0.70997000  0.58031000  0.75001000  1.0
  O  O145  1  0.29003000  0.41969000  0.24999000  1.0
