# generated using pymatgen
data_LiYH10C16O9
_symmetry_space_group_name_H-M   'P 1'
_cell_length_a   10.53090000
_cell_length_b   12.25690000
_cell_length_c   14.33780000
_cell_angle_alpha   89.99890000
_cell_angle_beta   89.99800000
_cell_angle_gamma   109.43900000
_symmetry_Int_Tables_number   1
_chemical_formula_structural   LiYH10C16O9
_chemical_formula_sum   'Li4 Y4 H40 C64 O36'
_cell_volume   1745.17369572
_cell_formula_units_Z   4
loop_
 _symmetry_equiv_pos_site_id
 _symmetry_equiv_pos_as_xyz
  1  'x, y, z'
loop_
 _atom_site_type_symbol
 _atom_site_label
 _atom_site_symmetry_multiplicity
 _atom_site_fract_x
 _atom_site_fract_y
 _atom_site_fract_z
 _atom_site_occupancy
  Li  Li0  1  0.88668000  0.81987000  0.10903000  1.0
  Li  Li1  1  0.61330000  0.68013000  0.60902000  1.0
  Li  Li2  1  0.11329000  0.18012000  0.89098000  1.0
  Li  Li3  1  0.38669000  0.31986000  0.39096000  1.0
  Y  Y4  1  0.74820000  0.99880000  0.98656000  1.0
  Y  Y5  1  0.75182000  0.50122000  0.48655000  1.0
  Y  Y6  1  0.25181000  0.00120000  0.01344000  1.0
  Y  Y7  1  0.24819000  0.49879000  0.51345000  1.0
  H  H8  1  0.28775000  0.24382000  0.67644000  1.0
  H  H9  1  0.21229000  0.25616000  0.17644000  1.0
  H  H10  1  0.71226000  0.75615000  0.32354000  1.0
  H  H11  1  0.78772000  0.74385000  0.82355000  1.0
  H  H12  1  0.29975000  0.08232000  0.77880000  1.0
  H  H13  1  0.20029000  0.41768000  0.27880000  1.0
  H  H14  1  0.70028000  0.91768000  0.22118000  1.0
  H  H15  1  0.79970000  0.58233000  0.72120000  1.0
  H  H16  1  0.71502000  0.41120000  0.70564000  1.0
  H  H17  1  0.78500000  0.08884000  0.20561000  1.0
  H  H18  1  0.28497000  0.58884000  0.29438000  1.0
  H  H19  1  0.21502000  0.91116000  0.79438000  1.0
  H  H20  1  0.72726000  0.24854000  0.80663000  1.0
  H  H21  1  0.77276000  0.25150000  0.30658000  1.0
  H  H22  1  0.27275000  0.75150000  0.19340000  1.0
  H  H23  1  0.22723000  0.74850000  0.69340000  1.0
  H  H24  1  0.14921000  0.38770000  0.95786000  1.0
  H  H25  1  0.35081000  0.11231000  0.45787000  1.0
  H  H26  1  0.85083000  0.61228000  0.04218000  1.0
  H  H27  1  0.64917000  0.88770000  0.54217000  1.0
  H  H28  1  0.75893000  0.39741000  0.03764000  1.0
  H  H29  1  0.74107000  0.10257000  0.53762000  1.0
  H  H30  1  0.24111000  0.60257000  0.96243000  1.0
  H  H31  1  0.25888000  0.89743000  0.46245000  1.0
  H  H32  1  0.63074000  0.61452000  0.13242000  1.0
  H  H33  1  0.86925000  0.88544000  0.63244000  1.0
  H  H34  1  0.36925000  0.38546000  0.86755000  1.0
  H  H35  1  0.13076000  0.11456000  0.36757000  1.0
  H  H36  1  0.47973000  0.59837000  0.85152000  1.0
  H  H37  1  0.02024000  0.90165000  0.35152000  1.0
  H  H38  1  0.52026000  0.40162000  0.14845000  1.0
  H  H39  1  0.97973000  0.09836000  0.64847000  1.0
  H  H40  1  0.00727000  0.73236000  0.20873000  1.0
  H  H41  1  0.49273000  0.76766000  0.70873000  1.0
  H  H42  1  0.99273000  0.26767000  0.79127000  1.0
  H  H43  1  0.50726000  0.23232000  0.29125000  1.0
  H  H44  1  0.91115000  0.72454000  0.29296000  1.0
  H  H45  1  0.58885000  0.77546000  0.79296000  1.0
  H  H46  1  0.08885000  0.27546000  0.70705000  1.0
  H  H47  1  0.41114000  0.22455000  0.20704000  1.0
  C  C48  1  0.49960000  0.33756000  0.68747000  1.0
  C  C49  1  0.00041000  0.16246000  0.18746000  1.0
  C  C50  1  0.50039000  0.66244000  0.31252000  1.0
  C  C51  1  0.99959000  0.83755000  0.81253000  1.0
  C  C52  1  0.52269000  0.06765000  0.86580000  1.0
  C  C53  1  0.97735000  0.43235000  0.36578000  1.0
  C  C54  1  0.47733000  0.93236000  0.13421000  1.0
  C  C55  1  0.02267000  0.56765000  0.63420000  1.0
  C  C56  1  0.38292000  0.24361000  0.70562000  1.0
  C  C57  1  0.11710000  0.25638000  0.20561000  1.0
  C  C58  1  0.61707000  0.75637000  0.29437000  1.0
  C  C59  1  0.88290000  0.74362000  0.79438000  1.0
  C  C60  1  0.94740000  0.37807000  0.99697000  1.0
  C  C61  1  0.55260000  0.12192000  0.49697000  1.0
  C  C62  1  0.05262000  0.62190000  0.00306000  1.0
  C  C63  1  0.44737000  0.87809000  0.50307000  1.0
  C  C64  1  0.39025000  0.15397000  0.76166000  1.0
  C  C65  1  0.10978000  0.34603000  0.26164000  1.0
  C  C66  1  0.60976000  0.84603000  0.23834000  1.0
  C  C67  1  0.89022000  0.65397000  0.73835000  1.0
  C  C68  1  0.56285000  0.61966000  0.99093000  1.0
  C  C69  1  0.93714000  0.88032000  0.49094000  1.0
  C  C70  1  0.43715000  0.38029000  0.00904000  1.0
  C  C71  1  0.06285000  0.11969000  0.50905000  1.0
  C  C72  1  0.62453000  0.33930000  0.72213000  1.0
  C  C73  1  0.87547000  0.16074000  0.22210000  1.0
  C  C74  1  0.37546000  0.66072000  0.27788000  1.0
  C  C75  1  0.12451000  0.83926000  0.77788000  1.0
  C  C76  1  0.48860000  0.43627000  0.63266000  1.0
  C  C77  1  0.01142000  0.06373000  0.13265000  1.0
  C  C78  1  0.51141000  0.56372000  0.36733000  1.0
  C  C79  1  0.98860000  0.93628000  0.86734000  1.0
  C  C80  1  0.63197000  0.24884000  0.77736000  1.0
  C  C81  1  0.86805000  0.25120000  0.27732000  1.0
  C  C82  1  0.36803000  0.75117000  0.22266000  1.0
  C  C83  1  0.13194000  0.74880000  0.72266000  1.0
  C  C84  1  0.51458000  0.15730000  0.79851000  1.0
  C  C85  1  0.98544000  0.34272000  0.29849000  1.0
  C  C86  1  0.48542000  0.84271000  0.20149000  1.0
  C  C87  1  0.01455000  0.65728000  0.70149000  1.0
  C  C88  1  0.88928000  0.24836000  0.99394000  1.0
  C  C89  1  0.61070000  0.25165000  0.49394000  1.0
  C  C90  1  0.11070000  0.75164000  0.00606000  1.0
  C  C91  1  0.38926000  0.74836000  0.50608000  1.0
  C  C92  1  0.08333000  0.43676000  0.97585000  1.0
  C  C93  1  0.41666000  0.06324000  0.47586000  1.0
  C  C94  1  0.91669000  0.56324000  0.02420000  1.0
  C  C95  1  0.58330000  0.93677000  0.52418000  1.0
  C  C96  1  0.86454000  0.44283000  0.02137000  1.0
  C  C97  1  0.63546000  0.05718000  0.52136000  1.0
  C  C98  1  0.13550000  0.55717000  0.97868000  1.0
  C  C99  1  0.36450000  0.94283000  0.47869000  1.0
  C  C100  1  0.62939000  0.74747000  0.98279000  1.0
  C  C101  1  0.87062000  0.75253000  0.48280000  1.0
  C  C102  1  0.37064000  0.25250000  0.01719000  1.0
  C  C103  1  0.12939000  0.24748000  0.51720000  1.0
  C  C104  1  0.57403000  0.56378000  0.07446000  1.0
  C  C105  1  0.92598000  0.93622000  0.57447000  1.0
  C  C106  1  0.42598000  0.43621000  0.92551000  1.0
  C  C107  1  0.07402000  0.06380000  0.42552000  1.0
  C  C108  1  0.48817000  0.55514000  0.91650000  1.0
  C  C109  1  0.01183000  0.94488000  0.41650000  1.0
  C  C110  1  0.51185000  0.44486000  0.08347000  1.0
  C  C111  1  0.98817000  0.05514000  0.58349000  1.0
  O  O112  1  0.63516000  0.05132000  0.87351000  1.0
  O  O113  1  0.86487000  0.44869000  0.37351000  1.0
  O  O114  1  0.36485000  0.94870000  0.12650000  1.0
  O  O115  1  0.13515000  0.55132000  0.62650000  1.0
  O  O116  1  0.41801000  0.01455000  0.91270000  1.0
  O  O117  1  0.08201000  0.48543000  0.41269000  1.0
  O  O118  1  0.58199000  0.98545000  0.08729000  1.0
  O  O119  1  0.91801000  0.51456000  0.58729000  1.0
  O  O120  1  0.71897000  0.79986000  0.04322000  1.0
  O  O121  1  0.78103000  0.70014000  0.54323000  1.0
  O  O122  1  0.28103000  0.20012000  0.95678000  1.0
  O  O123  1  0.21896000  0.29986000  0.45677000  1.0
  O  O124  1  0.59727000  0.80516000  0.91855000  1.0
  O  O125  1  0.90276000  0.69485000  0.41856000  1.0
  O  O126  1  0.40282000  0.19485000  0.08143000  1.0
  O  O127  1  0.09725000  0.30516000  0.58144000  1.0
  O  O128  1  0.95513000  0.18849000  0.95520000  1.0
  O  O129  1  0.54482000  0.31148000  0.45518000  1.0
  O  O130  1  0.04479000  0.81149000  0.04479000  1.0
  O  O131  1  0.45514000  0.68851000  0.54480000  1.0
  O  O132  1  0.37331000  0.44478000  0.62102000  1.0
  O  O133  1  0.12671000  0.05522000  0.12102000  1.0
  O  O134  1  0.62670000  0.55522000  0.37896000  1.0
  O  O135  1  0.87332000  0.94479000  0.87898000  1.0
  O  O136  1  0.77409000  0.19737000  0.02886000  1.0
  O  O137  1  0.72589000  0.30265000  0.52888000  1.0
  O  O138  1  0.22591000  0.80264000  0.97113000  1.0
  O  O139  1  0.27408000  0.69736000  0.47115000  1.0
  O  O140  1  0.59726000  0.51110000  0.60125000  1.0
  O  O141  1  0.90275000  0.98890000  0.10125000  1.0
  O  O142  1  0.40275000  0.48890000  0.39875000  1.0
  O  O143  1  0.09727000  0.01111000  0.89873000  1.0
  O  O144  1  0.92524000  0.74708000  0.22630000  1.0
  O  O145  1  0.57474000  0.75291000  0.72629000  1.0
  O  O146  1  0.07473000  0.25291000  0.77371000  1.0
  O  O147  1  0.42524000  0.24708000  0.27370000  1.0
