# generated using pymatgen
data_CdH22(C13O3)2
_symmetry_space_group_name_H-M   'P 1'
_cell_length_a   6.67353000
_cell_length_b   7.40309000
_cell_length_c   23.03880000
_cell_angle_alpha   89.89090000
_cell_angle_beta   98.15570000
_cell_angle_gamma   89.99970000
_symmetry_Int_Tables_number   1
_chemical_formula_structural   CdH22(C13O3)2
_chemical_formula_sum   'Cd2 H44 C52 O12'
_cell_volume   1126.71213631
_cell_formula_units_Z   2
loop_
 _symmetry_equiv_pos_site_id
 _symmetry_equiv_pos_as_xyz
  1  'x, y, z'
loop_
 _atom_site_type_symbol
 _atom_site_label
 _atom_site_symmetry_multiplicity
 _atom_site_fract_x
 _atom_site_fract_y
 _atom_site_fract_z
 _atom_site_occupancy
  Cd  Cd0  1  0.50000000  0.00000000  0.50000000  1.0
  Cd  Cd1  1  0.00000000  0.50000000  0.50000000  1.0
  H  H2  1  0.71816000  0.81681000  0.63229000  1.0
  H  H3  1  0.08557000  0.68450000  0.36752000  1.0
  H  H4  1  0.28185000  0.18319000  0.36771000  1.0
  H  H5  1  0.91444000  0.31551000  0.63248000  1.0
  H  H6  1  0.12534000  0.73862000  0.68092000  1.0
  H  H7  1  0.44431000  0.76026000  0.32009000  1.0
  H  H8  1  0.87467000  0.26137000  0.31907000  1.0
  H  H9  1  0.55570000  0.23972000  0.67991000  1.0
  H  H10  1  0.82179000  0.08069000  0.98886000  1.0
  H  H11  1  0.83308000  0.41806000  0.01139000  1.0
  H  H12  1  0.17821000  0.91930000  0.01114000  1.0
  H  H13  1  0.16693000  0.58195000  0.98861000  1.0
  H  H14  1  0.85046000  0.89949000  0.73414000  1.0
  H  H15  1  0.11607000  0.60249000  0.26544000  1.0
  H  H16  1  0.14954000  0.10052000  0.26586000  1.0
  H  H17  1  0.88394000  0.39753000  0.73456000  1.0
  H  H18  1  0.87711000  0.09766000  0.80503000  1.0
  H  H19  1  0.07199000  0.40324000  0.19500000  1.0
  H  H20  1  0.12288000  0.90233000  0.19497000  1.0
  H  H21  1  0.92801000  0.59676000  0.80501000  1.0
  H  H22  1  0.25341000  0.83224000  0.78272000  1.0
  H  H23  1  0.47068000  0.66761000  0.21803000  1.0
  H  H24  1  0.74658000  0.16776000  0.21728000  1.0
  H  H25  1  0.52934000  0.33237000  0.78197000  1.0
  H  H26  1  0.41537000  0.76842000  0.86650000  1.0
  H  H27  1  0.54905000  0.73179000  0.13396000  1.0
  H  H28  1  0.58460000  0.23159000  0.13349000  1.0
  H  H29  1  0.45095000  0.26821000  0.86605000  1.0
  H  H30  1  0.52930000  0.86945000  0.96739000  1.0
  H  H31  1  0.56228000  0.62969000  0.03305000  1.0
  H  H32  1  0.47069000  0.13055000  0.03261000  1.0
  H  H33  1  0.43772000  0.37030000  0.96696000  1.0
  H  H34  1  0.99488000  0.19327000  0.90647000  1.0
  H  H35  1  0.08849000  0.30649000  0.09354000  1.0
  H  H36  1  0.00511000  0.80673000  0.09352000  1.0
  H  H37  1  0.91152000  0.69352000  0.90646000  1.0
  H  H38  1  0.08679000  0.92699000  0.44756000  1.0
  H  H39  1  0.63968000  0.57204000  0.55255000  1.0
  H  H40  1  0.91320000  0.07300000  0.55244000  1.0
  H  H41  1  0.36032000  0.42796000  0.44745000  1.0
  H  H42  1  0.12627000  0.11118000  0.48266000  1.0
  H  H43  1  0.64340000  0.38841000  0.51706000  1.0
  H  H44  1  0.87372000  0.88882000  0.51735000  1.0
  H  H45  1  0.35659000  0.61159000  0.48294000  1.0
  C  C46  1  0.61742000  0.81593000  0.66563000  1.0
  C  C47  1  0.95163000  0.68482000  0.33438000  1.0
  C  C48  1  0.38259000  0.18407000  0.33437000  1.0
  C  C49  1  0.04837000  0.31519000  0.66563000  1.0
  C  C50  1  0.32923000  0.71487000  0.58928000  1.0
  C  C51  1  0.73941000  0.78474000  0.41112000  1.0
  C  C52  1  0.67078000  0.28512000  0.41072000  1.0
  C  C53  1  0.26059000  0.21527000  0.58888000  1.0
  C  C54  1  0.63642000  0.92597000  0.82762000  1.0
  C  C55  1  0.80889000  0.57472000  0.17259000  1.0
  C  C56  1  0.36357000  0.07403000  0.17238000  1.0
  C  C57  1  0.19112000  0.42529000  0.82742000  1.0
  C  C58  1  0.56241000  0.87003000  0.76669000  1.0
  C  C59  1  0.79564000  0.63080000  0.23354000  1.0
  C  C60  1  0.43759000  0.12996000  0.23331000  1.0
  C  C61  1  0.20437000  0.36921000  0.76647000  1.0
  C  C62  1  0.41287000  0.76938000  0.65022000  1.0
  C  C63  1  0.76244000  0.73049000  0.35014000  1.0
  C  C64  1  0.58713000  0.23062000  0.34978000  1.0
  C  C65  1  0.23756000  0.26952000  0.64986000  1.0
  C  C66  1  0.28384000  0.77465000  0.69325000  1.0
  C  C67  1  0.59039000  0.72491000  0.30741000  1.0
  C  C68  1  0.71615000  0.22534000  0.30675000  1.0
  C  C69  1  0.40961000  0.27508000  0.69258000  1.0
  C  C70  1  0.76974000  0.03833000  0.94391000  1.0
  C  C71  1  0.82600000  0.46107000  0.05633000  1.0
  C  C72  1  0.23025000  0.96166000  0.05609000  1.0
  C  C73  1  0.17400000  0.53892000  0.94367000  1.0
  C  C74  1  0.69073000  0.86438000  0.72311000  1.0
  C  C75  1  0.96745000  0.63688000  0.27680000  1.0
  C  C76  1  0.30926000  0.13562000  0.27688000  1.0
  C  C77  1  0.03256000  0.36313000  0.72321000  1.0
  C  C78  1  0.80140000  0.04494000  0.84047000  1.0
  C  C79  1  0.96102000  0.45565000  0.15963000  1.0
  C  C80  1  0.19859000  0.95505000  0.15952000  1.0
  C  C81  1  0.03899000  0.54435000  0.84037000  1.0
  C  C82  1  0.35727000  0.82494000  0.75032000  1.0
  C  C83  1  0.60684000  0.67518000  0.25024000  1.0
  C  C84  1  0.64274000  0.17505000  0.24968000  1.0
  C  C85  1  0.39317000  0.32482000  0.74976000  1.0
  C  C86  1  0.54052000  0.86388000  0.87458000  1.0
  C  C87  1  0.66611000  0.63632000  0.12576000  1.0
  C  C88  1  0.45947000  0.13612000  0.12541000  1.0
  C  C89  1  0.33388000  0.36368000  0.87424000  1.0
  C  C90  1  0.60607000  0.91985000  0.93188000  1.0
  C  C91  1  0.67441000  0.57972000  0.06847000  1.0
  C  C92  1  0.39392000  0.08015000  0.06812000  1.0
  C  C93  1  0.32560000  0.42027000  0.93153000  1.0
  C  C94  1  0.86744000  0.10041000  0.89787000  1.0
  C  C95  1  0.96968000  0.39949000  0.10223000  1.0
  C  C96  1  0.13255000  0.89959000  0.10212000  1.0
  C  C97  1  0.03032000  0.60051000  0.89778000  1.0
  O  O98  1  0.44647000  0.72299000  0.54874000  1.0
  O  O99  1  0.89656000  0.77641000  0.45155000  1.0
  O  O100  1  0.55353000  0.27701000  0.45126000  1.0
  O  O101  1  0.10343000  0.22361000  0.54845000  1.0
  O  O102  1  0.17849000  0.03341000  0.45297000  1.0
  O  O103  1  0.72540000  0.46529000  0.54691000  1.0
  O  O104  1  0.82150000  0.96659000  0.54703000  1.0
  O  O105  1  0.27459000  0.53472000  0.45309000  1.0
  O  O106  1  0.14761000  0.66210000  0.57952000  1.0
  O  O107  1  0.56750000  0.83785000  0.42093000  1.0
  O  O108  1  0.85238000  0.33791000  0.42048000  1.0
  O  O109  1  0.43250000  0.16215000  0.57907000  1.0
