# generated using pymatgen
data_CuH12C16(NO)4
_symmetry_space_group_name_H-M   'P 1'
_cell_length_a   8.59581000
_cell_length_b   9.75225000
_cell_length_c   9.75223000
_cell_angle_alpha   70.82770000
_cell_angle_beta   86.22910000
_cell_angle_gamma   86.22900000
_symmetry_Int_Tables_number   1
_chemical_formula_structural   CuH12C16(NO)4
_chemical_formula_sum   'Cu2 H24 C32 N8 O8'
_cell_volume   769.65308028
_cell_formula_units_Z   2
loop_
 _symmetry_equiv_pos_site_id
 _symmetry_equiv_pos_as_xyz
  1  'x, y, z'
loop_
 _atom_site_type_symbol
 _atom_site_label
 _atom_site_symmetry_multiplicity
 _atom_site_fract_x
 _atom_site_fract_y
 _atom_site_fract_z
 _atom_site_occupancy
  Cu  Cu0  1  0.25000000  0.33931000  0.66069000  1.0
  Cu  Cu1  1  0.75000000  0.66069000  0.33931000  1.0
  H  H2  1  0.50291000  0.17472000  0.84742000  1.0
  H  H3  1  0.99709000  0.15258000  0.82528000  1.0
  H  H4  1  0.49709000  0.82527000  0.15259000  1.0
  H  H5  1  0.00291000  0.84741000  0.17473000  1.0
  H  H6  1  0.64672000  0.93410000  0.89926000  1.0
  H  H7  1  0.85329000  0.10073000  0.06590000  1.0
  H  H8  1  0.35328000  0.06590000  0.10073000  1.0
  H  H9  1  0.14671000  0.89926000  0.93410000  1.0
  H  H10  1  0.13351000  0.16100000  0.50695000  1.0
  H  H11  1  0.36649000  0.49305000  0.83900000  1.0
  H  H12  1  0.86650000  0.83900000  0.49305000  1.0
  H  H13  1  0.63351000  0.50695000  0.16100000  1.0
  H  H14  1  0.57703000  0.75899000  0.77531000  1.0
  H  H15  1  0.92298000  0.22469000  0.24101000  1.0
  H  H16  1  0.42298000  0.24101000  0.22469000  1.0
  H  H17  1  0.07702000  0.77531000  0.75900000  1.0
  H  H18  1  0.33803000  0.73825000  0.55710000  1.0
  H  H19  1  0.16197000  0.44291000  0.26174000  1.0
  H  H20  1  0.66197000  0.26175000  0.44290000  1.0
  H  H21  1  0.83803000  0.55709000  0.73825000  1.0
  H  H22  1  0.12594000  0.94280000  0.41632000  1.0
  H  H23  1  0.37406000  0.58368000  0.05720000  1.0
  H  H24  1  0.87406000  0.05720000  0.58368000  1.0
  H  H25  1  0.62594000  0.41632000  0.94280000  1.0
  C  C26  1  0.47268000  0.09686000  0.79611000  1.0
  C  C27  1  0.02732000  0.20388000  0.90314000  1.0
  C  C28  1  0.52732000  0.90313000  0.20389000  1.0
  C  C29  1  0.97268000  0.79611000  0.09687000  1.0
  C  C30  1  0.55247000  0.96124000  0.82404000  1.0
  C  C31  1  0.94754000  0.17596000  0.03876000  1.0
  C  C32  1  0.44753000  0.03876000  0.17596000  1.0
  C  C33  1  0.05247000  0.82404000  0.96124000  1.0
  C  C34  1  0.51353000  0.86378000  0.75555000  1.0
  C  C35  1  0.98647000  0.24445000  0.13622000  1.0
  C  C36  1  0.48647000  0.13621000  0.24445000  1.0
  C  C37  1  0.01353000  0.75555000  0.86379000  1.0
  C  C38  1  0.39356000  0.90687000  0.65774000  1.0
  C  C39  1  0.10643000  0.34227000  0.09313000  1.0
  C  C40  1  0.60643000  0.09313000  0.34226000  1.0
  C  C41  1  0.89356000  0.65773000  0.90687000  1.0
  C  C42  1  0.31793000  0.84556000  0.56641000  1.0
  C  C43  1  0.18206000  0.43359000  0.15444000  1.0
  C  C44  1  0.68206000  0.15444000  0.43359000  1.0
  C  C45  1  0.81794000  0.56641000  0.84556000  1.0
  C  C46  1  0.20727000  0.94799000  0.49465000  1.0
  C  C47  1  0.29272000  0.50535000  0.05201000  1.0
  C  C48  1  0.79273000  0.05202000  0.50535000  1.0
  C  C49  1  0.70727000  0.49465000  0.94798000  1.0
  C  C50  1  0.32019000  0.04845000  0.63552000  1.0
  C  C51  1  0.17981000  0.36448000  0.95155000  1.0
  C  C52  1  0.67981000  0.95155000  0.36448000  1.0
  C  C53  1  0.82019000  0.63552000  0.04845000  1.0
  C  C54  1  0.46675000  0.48401000  0.43408000  1.0
  C  C55  1  0.03325000  0.56592000  0.51599000  1.0
  C  C56  1  0.53325000  0.51600000  0.56592000  1.0
  C  C57  1  0.96674000  0.43408000  0.48400000  1.0
  N  N58  1  0.35622000  0.14098000  0.70322000  1.0
  N  N59  1  0.14379000  0.29678000  0.85902000  1.0
  N  N60  1  0.64379000  0.85901000  0.29678000  1.0
  N  N61  1  0.85621000  0.70322000  0.14099000  1.0
  N  N62  1  0.20883000  0.07070000  0.53596000  1.0
  N  N63  1  0.29117000  0.46404000  0.92930000  1.0
  N  N64  1  0.79117000  0.92931000  0.46404000  1.0
  N  N65  1  0.70883000  0.53596000  0.07069000  1.0
  O  O66  1  0.35531000  0.39835000  0.46026000  1.0
  O  O67  1  0.14470000  0.53974000  0.60165000  1.0
  O  O68  1  0.64470000  0.60166000  0.53974000  1.0
  O  O69  1  0.85530000  0.46026000  0.39834000  1.0
  O  O70  1  0.52793000  0.54477000  0.30938000  1.0
  O  O71  1  0.97208000  0.69062000  0.45523000  1.0
  O  O72  1  0.47207000  0.45523000  0.69062000  1.0
  O  O73  1  0.02793000  0.30938000  0.54477000  1.0
