# generated using pymatgen
data_CdH10C16N8O
_symmetry_space_group_name_H-M   'P 1'
_cell_length_a   7.72189000
_cell_length_b   12.85840000
_cell_length_c   18.40500000
_cell_angle_alpha   90.00000000
_cell_angle_beta   90.00010000
_cell_angle_gamma   92.42140000
_symmetry_Int_Tables_number   1
_chemical_formula_structural   CdH10C16N8O
_chemical_formula_sum   'Cd4 H40 C64 N32 O4'
_cell_volume   1825.82192557
_cell_formula_units_Z   4
loop_
 _symmetry_equiv_pos_site_id
 _symmetry_equiv_pos_as_xyz
  1  'x, y, z'
loop_
 _atom_site_type_symbol
 _atom_site_label
 _atom_site_symmetry_multiplicity
 _atom_site_fract_x
 _atom_site_fract_y
 _atom_site_fract_z
 _atom_site_occupancy
  Cd  Cd0  1  0.62691000  0.55606000  0.70973000  1.0
  Cd  Cd1  1  0.37309000  0.94394000  0.20973000  1.0
  Cd  Cd2  1  0.37309000  0.44394000  0.29027000  1.0
  Cd  Cd3  1  0.62691000  0.05606000  0.79027000  1.0
  H  H4  1  0.48726000  0.45279000  0.59761000  1.0
  H  H5  1  0.51274000  0.04721000  0.09761000  1.0
  H  H6  1  0.51273000  0.54722000  0.40239000  1.0
  H  H7  1  0.48726000  0.95278000  0.90239000  1.0
  H  H8  1  0.51555000  0.54921000  0.54714000  1.0
  H  H9  1  0.48445000  0.95079000  0.04714000  1.0
  H  H10  1  0.48444000  0.45080000  0.45287000  1.0
  H  H11  1  0.51556000  0.04920000  0.95287000  1.0
  H  H12  1  0.64061000  0.75378000  0.79730000  1.0
  H  H13  1  0.35938000  0.74623000  0.29730000  1.0
  H  H14  1  0.35938000  0.24623000  0.20270000  1.0
  H  H15  1  0.64063000  0.25377000  0.70270000  1.0
  H  H16  1  0.73734000  0.82907000  0.91623000  1.0
  H  H17  1  0.26265000  0.67093000  0.41623000  1.0
  H  H18  1  0.26266000  0.17093000  0.08377000  1.0
  H  H19  1  0.73735000  0.32907000  0.58377000  1.0
  H  H20  1  0.79996000  0.70997000  0.01840000  1.0
  H  H21  1  0.20003000  0.79003000  0.51840000  1.0
  H  H22  1  0.20003000  0.29003000  0.98160000  1.0
  H  H23  1  0.79998000  0.20997000  0.48160000  1.0
  H  H24  1  0.86176000  0.60358000  0.09595000  1.0
  H  H25  1  0.13824000  0.89642000  0.59595000  1.0
  H  H26  1  0.13823000  0.39642000  0.90406000  1.0
  H  H27  1  0.86177000  0.10358000  0.40405000  1.0
  H  H28  1  0.91833000  0.46264000  0.18472000  1.0
  H  H29  1  0.08167000  0.03736000  0.68473000  1.0
  H  H30  1  0.08166000  0.53736000  0.81528000  1.0
  H  H31  1  0.91834000  0.96264000  0.31528000  1.0
  H  H32  1  0.84253000  0.27914000  0.15263000  1.0
  H  H33  1  0.15747000  0.22086000  0.65263000  1.0
  H  H34  1  0.15747000  0.72086000  0.84738000  1.0
  H  H35  1  0.84253000  0.77914000  0.34737000  1.0
  H  H36  1  0.63516000  0.27147000  0.92140000  1.0
  H  H37  1  0.36484000  0.22854000  0.42140000  1.0
  H  H38  1  0.36485000  0.72854000  0.07860000  1.0
  H  H39  1  0.63514000  0.77146000  0.57860000  1.0
  H  H40  1  0.58358000  0.39847000  0.82374000  1.0
  H  H41  1  0.41643000  0.10153000  0.32375000  1.0
  H  H42  1  0.41643000  0.60153000  0.17626000  1.0
  H  H43  1  0.58357000  0.89847000  0.67626000  1.0
  C  C44  1  0.97045000  0.40045000  0.72412000  1.0
  C  C45  1  0.02956000  0.09956000  0.22412000  1.0
  C  C46  1  0.02956000  0.59956000  0.27588000  1.0
  C  C47  1  0.97046000  0.90044000  0.77588000  1.0
  C  C48  1  0.26629000  0.39693000  0.71726000  1.0
  C  C49  1  0.73371000  0.10307000  0.21727000  1.0
  C  C50  1  0.73370000  0.60308000  0.28273000  1.0
  C  C51  1  0.26630000  0.89692000  0.78273000  1.0
  C  C52  1  0.98795000  0.68056000  0.65523000  1.0
  C  C53  1  0.01205000  0.81945000  0.15523000  1.0
  C  C54  1  0.01204000  0.31945000  0.34477000  1.0
  C  C55  1  0.98796000  0.18056000  0.84477000  1.0
  C  C56  1  0.28488000  0.68326000  0.65919000  1.0
  C  C57  1  0.71512000  0.81674000  0.15920000  1.0
  C  C58  1  0.71512000  0.31674000  0.34081000  1.0
  C  C59  1  0.28489000  0.18326000  0.84080000  1.0
  C  C60  1  0.66455000  0.70320000  0.84346000  1.0
  C  C61  1  0.33544000  0.79680000  0.34346000  1.0
  C  C62  1  0.33545000  0.29680000  0.15654000  1.0
  C  C63  1  0.66456000  0.20320000  0.65654000  1.0
  C  C64  1  0.71944000  0.74508000  0.91027000  1.0
  C  C65  1  0.28055000  0.75492000  0.41027000  1.0
  C  C66  1  0.28056000  0.25491000  0.08973000  1.0
  C  C67  1  0.71945000  0.24508000  0.58973000  1.0
  C  C68  1  0.75316000  0.67813000  0.96682000  1.0
  C  C69  1  0.24683000  0.82187000  0.46682000  1.0
  C  C70  1  0.24684000  0.32187000  0.03318000  1.0
  C  C71  1  0.75317000  0.17813000  0.53318000  1.0
  C  C72  1  0.72718000  0.56980000  0.95730000  1.0
  C  C73  1  0.27282000  0.93020000  0.45731000  1.0
  C  C74  1  0.27282000  0.43020000  0.04270000  1.0
  C  C75  1  0.72718000  0.06980000  0.54269000  1.0
  C  C76  1  0.66666667  0.53342000  0.88823000  1.0
  C  C77  1  0.33333333  0.96658000  0.38823000  1.0
  C  C78  1  0.33333333  0.46658000  0.11177000  1.0
  C  C79  1  0.66666667  0.03342000  0.61177000  1.0
  C  C80  1  0.76071000  0.49486000  0.01373000  1.0
  C  C81  1  0.23929000  0.00514000  0.51373000  1.0
  C  C82  1  0.23930000  0.50514000  0.98627000  1.0
  C  C83  1  0.76070000  0.99486000  0.48627000  1.0
  C  C84  1  0.83025000  0.52249000  0.08228000  1.0
  C  C85  1  0.16975000  0.97751000  0.58229000  1.0
  C  C86  1  0.16975000  0.47751000  0.91772000  1.0
  C  C87  1  0.83025000  0.02248000  0.41771000  1.0
  C  C88  1  0.86071000  0.44484000  0.13197000  1.0
  C  C89  1  0.13929000  0.05516000  0.63197000  1.0
  C  C90  1  0.13929000  0.55516000  0.86803000  1.0
  C  C91  1  0.86071000  0.94484000  0.36803000  1.0
  C  C92  1  0.81945000  0.34058000  0.11337000  1.0
  C  C93  1  0.18055000  0.15941000  0.61338000  1.0
  C  C94  1  0.18055000  0.65941000  0.88663000  1.0
  C  C95  1  0.81944000  0.84059000  0.38663000  1.0
  C  C96  1  0.72612000  0.38676000  0.99974000  1.0
  C  C97  1  0.27388000  0.11324000  0.49974000  1.0
  C  C98  1  0.27389000  0.61324000  0.00026000  1.0
  C  C99  1  0.72611000  0.88676000  0.50026000  1.0
  C  C100  1  0.66009000  0.35445000  0.93036000  1.0
  C  C101  1  0.33990000  0.14555000  0.43036000  1.0
  C  C102  1  0.33991000  0.64555000  0.06964000  1.0
  C  C103  1  0.66008000  0.85445000  0.56964000  1.0
  C  C104  1  0.63260000  0.42465000  0.87643000  1.0
  C  C105  1  0.36740000  0.07535000  0.37643000  1.0
  C  C106  1  0.36740000  0.57535000  0.12357000  1.0
  C  C107  1  0.63260000  0.92465000  0.62357000  1.0
  N  N108  1  0.83077000  0.43124000  0.71504000  1.0
  N  N109  1  0.16924000  0.06876000  0.21504000  1.0
  N  N110  1  0.16924000  0.56876000  0.28496000  1.0
  N  N111  1  0.83077000  0.93124000  0.78496000  1.0
  N  N112  1  0.11695000  0.35886000  0.73728000  1.0
  N  N113  1  0.88305000  0.14114000  0.23728000  1.0
  N  N114  1  0.88305000  0.64114000  0.26272000  1.0
  N  N115  1  0.11695000  0.85886000  0.76272000  1.0
  N  N116  1  0.40945000  0.42332000  0.70080000  1.0
  N  N117  1  0.59056000  0.07669000  0.20081000  1.0
  N  N118  1  0.59056000  0.57669000  0.29919000  1.0
  N  N119  1  0.40945000  0.92331000  0.79919000  1.0
  N  N120  1  0.84409000  0.67241000  0.67649000  1.0
  N  N121  1  0.15591000  0.82759000  0.17649000  1.0
  N  N122  1  0.15590000  0.32759000  0.32351000  1.0
  N  N123  1  0.84409000  0.17241000  0.82351000  1.0
  N  N124  1  0.13949000  0.69336000  0.62588000  1.0
  N  N125  1  0.86050000  0.80664000  0.12589000  1.0
  N  N126  1  0.86050000  0.30664000  0.37412000  1.0
  N  N127  1  0.13950000  0.19336000  0.87411000  1.0
  N  N128  1  0.42565000  0.67748000  0.68359000  1.0
  N  N129  1  0.57433000  0.82252000  0.18359000  1.0
  N  N130  1  0.57434000  0.32252000  0.31641000  1.0
  N  N131  1  0.42566000  0.17748000  0.81640000  1.0
  N  N132  1  0.64053000  0.60109000  0.83236000  1.0
  N  N133  1  0.35946000  0.89892000  0.33236000  1.0
  N  N134  1  0.35947000  0.39892000  0.16764000  1.0
  N  N135  1  0.64054000  0.10108000  0.66764000  1.0
  N  N136  1  0.75395000  0.31101000  0.04962000  1.0
  N  N137  1  0.24605000  0.18899000  0.54962000  1.0
  N  N138  1  0.24606000  0.68899000  0.95038000  1.0
  N  N139  1  0.75393000  0.81101000  0.45038000  1.0
  O  O140  1  0.57779000  0.49732000  0.57426000  1.0
  O  O141  1  0.42222000  0.00268000  0.07426000  1.0
  O  O142  1  0.42220000  0.50268000  0.42573000  1.0
  O  O143  1  0.57779000  0.99732000  0.92573000  1.0
