# generated using pymatgen
data_CuH5C8N3O4
_symmetry_space_group_name_H-M   'P 1'
_cell_length_a   6.20943000
_cell_length_b   7.63010000
_cell_length_c   9.83096000
_cell_angle_alpha   92.21780000
_cell_angle_beta   89.99960000
_cell_angle_gamma   89.99520000
_symmetry_Int_Tables_number   1
_chemical_formula_structural   CuH5C8N3O4
_chemical_formula_sum   'Cu2 H10 C16 N6 O8'
_cell_volume   465.42794926
_cell_formula_units_Z   2
loop_
 _symmetry_equiv_pos_site_id
 _symmetry_equiv_pos_as_xyz
  1  'x, y, z'
loop_
 _atom_site_type_symbol
 _atom_site_label
 _atom_site_symmetry_multiplicity
 _atom_site_fract_x
 _atom_site_fract_y
 _atom_site_fract_z
 _atom_site_occupancy
  Cu  Cu0  1  0.50001000  0.99999000  0.00000000  1.0
  Cu  Cu1  1  0.00000000  0.00000000  0.00000000  1.0
  H  H2  1  0.75002000  0.82175000  0.57234000  1.0
  H  H3  1  0.24997000  0.17823000  0.42768000  1.0
  H  H4  1  0.74999000  0.62421000  0.36836000  1.0
  H  H5  1  0.24999000  0.37581000  0.63164000  1.0
  H  H6  1  0.74997000  0.29835000  0.39248000  1.0
  H  H7  1  0.25001000  0.70167000  0.60750000  1.0
  H  H8  1  0.74999000  0.17753000  0.62257000  1.0
  H  H9  1  0.25000000  0.82247000  0.37741000  1.0
  H  H10  1  0.75012000  0.37704000  0.05116000  1.0
  H  H11  1  0.24996000  0.62293000  0.94884000  1.0
  C  C12  1  0.75002000  0.61302000  0.71422000  1.0
  C  C13  1  0.24998000  0.38698000  0.28577000  1.0
  C  C14  1  0.75001000  0.68044000  0.58404000  1.0
  C  C15  1  0.24998000  0.31958000  0.41596000  1.0
  C  C16  1  0.74999000  0.56849000  0.46861000  1.0
  C  C17  1  0.24999000  0.43154000  0.53140000  1.0
  C  C18  1  0.74999000  0.38743000  0.48159000  1.0
  C  C19  1  0.25000000  0.61259000  0.51841000  1.0
  C  C20  1  0.74999000  0.31881000  0.61050000  1.0
  C  C21  1  0.24999000  0.68119000  0.38949000  1.0
  C  C22  1  0.74999000  0.42952000  0.72817000  1.0
  C  C23  1  0.24999000  0.57048000  0.27181000  1.0
  C  C24  1  0.75000000  0.74782000  0.83014000  1.0
  C  C25  1  0.24998000  0.25217000  0.16988000  1.0
  C  C26  1  0.75003000  0.34253000  0.85969000  1.0
  C  C27  1  0.24998000  0.65746000  0.14030000  1.0
  N  N28  1  0.75001000  0.93034000  0.11424000  1.0
  N  N29  1  0.24999000  0.06965000  0.88578000  1.0
  N  N30  1  0.75002000  0.96086000  0.23662000  1.0
  N  N31  1  0.25000000  0.03913000  0.76338000  1.0
  N  N32  1  0.75002000  0.98358000  0.35380000  1.0
  N  N33  1  0.25001000  0.01643000  0.64622000  1.0
  O  O34  1  0.56545000  0.80265000  0.86891000  1.0
  O  O35  1  0.06546000  0.19737000  0.13108000  1.0
  O  O36  1  0.43452000  0.19734000  0.13111000  1.0
  O  O37  1  0.93455000  0.80264000  0.86891000  1.0
  O  O38  1  0.75000000  0.18067000  0.86736000  1.0
  O  O39  1  0.25000000  0.81930000  0.13263000  1.0
  O  O40  1  0.75004000  0.45028000  0.97091000  1.0
  O  O41  1  0.24999000  0.54969000  0.02908000  1.0
