# generated using pymatgen
data_CdH8C6N2O7
_symmetry_space_group_name_H-M   'P 1'
_cell_length_a   5.39981000
_cell_length_b   10.92810000
_cell_length_c   16.15250000
_cell_angle_alpha   89.99900000
_cell_angle_beta   89.99930000
_cell_angle_gamma   94.98600000
_symmetry_Int_Tables_number   1
_chemical_formula_structural   CdH8C6N2O7
_chemical_formula_sum   'Cd4 H32 C24 N8 O28'
_cell_volume   949.54682504
_cell_formula_units_Z   4
loop_
 _symmetry_equiv_pos_site_id
 _symmetry_equiv_pos_as_xyz
  1  'x, y, z'
loop_
 _atom_site_type_symbol
 _atom_site_label
 _atom_site_symmetry_multiplicity
 _atom_site_fract_x
 _atom_site_fract_y
 _atom_site_fract_z
 _atom_site_occupancy
  Cd  Cd0  1  0.91788000  0.68268000  0.63226000  1.0
  Cd  Cd1  1  0.58213000  0.81732000  0.13226000  1.0
  Cd  Cd2  1  0.08211000  0.31731000  0.36774000  1.0
  Cd  Cd3  1  0.41790000  0.18269000  0.86774000  1.0
  H  H4  1  0.59990000  0.45190000  0.60514000  1.0
  H  H5  1  0.90010000  0.04810000  0.10515000  1.0
  H  H6  1  0.40008000  0.54810000  0.39486000  1.0
  H  H7  1  0.09992000  0.95189000  0.89486000  1.0
  H  H8  1  0.81708000  0.42380000  0.66419000  1.0
  H  H9  1  0.68292000  0.07620000  0.16420000  1.0
  H  H10  1  0.18292000  0.57619000  0.33579000  1.0
  H  H11  1  0.31708000  0.92382000  0.83579000  1.0
  H  H12  1  0.40158000  0.83445000  0.65313000  1.0
  H  H13  1  0.09843000  0.66556000  0.15313000  1.0
  H  H14  1  0.59839000  0.16556000  0.34687000  1.0
  H  H15  1  0.90160000  0.33445000  0.84687000  1.0
  H  H16  1  0.29685000  0.86664000  0.56349000  1.0
  H  H17  1  0.20315000  0.63336000  0.06349000  1.0
  H  H18  1  0.70313000  0.13336000  0.43651000  1.0
  H  H19  1  0.79687000  0.36664000  0.93651000  1.0
  H  H20  1  0.32249000  0.58237000  0.54083000  1.0
  H  H21  1  0.17751000  0.91764000  0.04083000  1.0
  H  H22  1  0.67753000  0.41764000  0.45919000  1.0
  H  H23  1  0.82245000  0.08235000  0.95919000  1.0
  H  H24  1  0.16191000  0.46946000  0.58394000  1.0
  H  H25  1  0.33808000  0.03054000  0.08395000  1.0
  H  H26  1  0.83807000  0.53055000  0.41605000  1.0
  H  H27  1  0.66194000  0.96945000  0.91603000  1.0
  H  H28  1  0.40941000  0.50523000  0.89960000  1.0
  H  H29  1  0.09060000  0.99477000  0.39960000  1.0
  H  H30  1  0.59059000  0.49477000  0.10040000  1.0
  H  H31  1  0.90943000  0.00524000  0.60040000  1.0
  H  H32  1  0.33019000  0.53817000  0.74669000  1.0
  H  H33  1  0.16982000  0.96183000  0.24669000  1.0
  H  H34  1  0.66980000  0.46184000  0.25330000  1.0
  H  H35  1  0.83022000  0.03819000  0.75330000  1.0
  C  C36  1  0.90802000  0.70363000  0.82615000  1.0
  C  C37  1  0.59199000  0.79637000  0.32615000  1.0
  C  C38  1  0.09198000  0.29637000  0.17385000  1.0
  C  C39  1  0.40802000  0.20362000  0.67384000  1.0
  C  C40  1  0.96434000  0.69006000  0.91031000  1.0
  C  C41  1  0.53566000  0.80994000  0.41032000  1.0
  C  C42  1  0.03565000  0.30994000  0.08968000  1.0
  C  C43  1  0.46434000  0.19006000  0.58968000  1.0
  C  C44  1  0.26766000  0.56352000  0.87875000  1.0
  C  C45  1  0.23233000  0.93648000  0.37875000  1.0
  C  C46  1  0.73233000  0.43648000  0.12125000  1.0
  C  C47  1  0.76768000  0.06353000  0.62125000  1.0
  C  C48  1  0.22101000  0.57949000  0.79435000  1.0
  C  C49  1  0.27899000  0.92051000  0.29435000  1.0
  C  C50  1  0.77898000  0.42052000  0.20564000  1.0
  C  C51  1  0.72103000  0.07950000  0.70564000  1.0
  C  C52  1  0.69801000  0.77768000  0.79607000  1.0
  C  C53  1  0.80200000  0.72233000  0.29607000  1.0
  C  C54  1  0.30199000  0.22234000  0.20393000  1.0
  C  C55  1  0.19800000  0.27765000  0.70393000  1.0
  C  C56  1  0.85070000  0.75968000  0.97846000  1.0
  C  C57  1  0.64931000  0.74032000  0.47847000  1.0
  C  C58  1  0.14930000  0.24032000  0.02153000  1.0
  C  C59  1  0.35067000  0.25967000  0.52153000  1.0
  N  N60  1  0.04164000  0.64817000  0.76951000  1.0
  N  N61  1  0.45836000  0.85183000  0.26951000  1.0
  N  N62  1  0.95835000  0.35183000  0.23048000  1.0
  N  N63  1  0.54167000  0.14818000  0.73048000  1.0
  N  N64  1  0.14046000  0.61922000  0.93659000  1.0
  N  N65  1  0.35954000  0.88078000  0.43659000  1.0
  N  N66  1  0.85953000  0.38078000  0.06341000  1.0
  N  N67  1  0.64046000  0.11922000  0.56340000  1.0
  O  O68  1  0.65850000  0.78206000  0.71826000  1.0
  O  O69  1  0.84152000  0.71795000  0.21826000  1.0
  O  O70  1  0.34150000  0.21795000  0.28174000  1.0
  O  O71  1  0.15850000  0.28205000  0.78174000  1.0
  O  O72  1  0.57321000  0.82776000  0.85052000  1.0
  O  O73  1  0.92680000  0.67226000  0.35052000  1.0
  O  O74  1  0.42682000  0.17227000  0.14947000  1.0
  O  O75  1  0.07317000  0.32771000  0.64947000  1.0
  O  O76  1  0.70036000  0.69998000  0.02651000  1.0
  O  O77  1  0.79963000  0.80002000  0.52652000  1.0
  O  O78  1  0.29963000  0.30004000  0.97348000  1.0
  O  O79  1  0.20034000  0.19994000  0.47348000  1.0
  O  O80  1  0.93234000  0.87158000  0.98635000  1.0
  O  O81  1  0.56769000  0.62841000  0.48635000  1.0
  O  O82  1  0.06769000  0.12842000  0.01364000  1.0
  O  O83  1  0.43227000  0.37157000  0.51362000  1.0
  O  O84  1  0.68733000  0.48183000  0.65598000  1.0
  O  O85  1  0.81267000  0.01817000  0.15599000  1.0
  O  O86  1  0.31268000  0.51816000  0.34401000  1.0
  O  O87  1  0.18731000  0.98184000  0.84401000  1.0
  O  O88  1  0.25004000  0.84953000  0.62182000  1.0
  O  O89  1  0.24997000  0.65048000  0.12182000  1.0
  O  O90  1  0.74994000  0.15048000  0.37818000  1.0
  O  O91  1  0.75006000  0.34953000  0.87818000  1.0
  O  O92  1  0.17899000  0.55896000  0.57752000  1.0
  O  O93  1  0.32101000  0.94103000  0.07753000  1.0
  O  O94  1  0.82121000  0.44105000  0.42256000  1.0
  O  O95  1  0.67878000  0.05894000  0.92256000  1.0
