# generated using pymatgen
data_TbH3(C3O2)3
_symmetry_space_group_name_H-M   'P 1'
_cell_length_a   10.37580000
_cell_length_b   10.37580000
_cell_length_c   14.13110000
_cell_angle_alpha   90.00000000
_cell_angle_beta   90.00000000
_cell_angle_gamma   89.99880000
_symmetry_Int_Tables_number   1
_chemical_formula_structural   TbH3(C3O2)3
_chemical_formula_sum   'Tb4 H12 C36 O24'
_cell_volume   1521.31502091
_cell_formula_units_Z   4
loop_
 _symmetry_equiv_pos_site_id
 _symmetry_equiv_pos_as_xyz
  1  'x, y, z'
loop_
 _atom_site_type_symbol
 _atom_site_label
 _atom_site_symmetry_multiplicity
 _atom_site_fract_x
 _atom_site_fract_y
 _atom_site_fract_z
 _atom_site_occupancy
  Tb  Tb0  1  0.12824000  0.87176000  0.37500000  1.0
  Tb  Tb1  1  0.87176000  0.12823000  0.87500000  1.0
  Tb  Tb2  1  0.12823000  0.12823000  0.62500000  1.0
  Tb  Tb3  1  0.87177000  0.87177000  0.12500000  1.0
  H  H4  1  0.53338000  0.92230000  0.35848000  1.0
  H  H5  1  0.46663000  0.07771000  0.85848000  1.0
  H  H6  1  0.07770000  0.53336000  0.60849000  1.0
  H  H7  1  0.92230000  0.46664000  0.10848000  1.0
  H  H8  1  0.53337000  0.07770000  0.64152000  1.0
  H  H9  1  0.46664000  0.92230000  0.14152000  1.0
  H  H10  1  0.07770000  0.46663000  0.39152000  1.0
  H  H11  1  0.92229000  0.53337000  0.89152000  1.0
  H  H12  1  0.89251000  0.00001000  0.50000000  1.0
  H  H13  1  0.10750000  1.00000000  0.00000000  1.0
  H  H14  1  0.00000000  0.89250000  0.75000000  1.0
  H  H15  1  0.00000000  0.10750000  0.25000000  1.0
  C  C16  1  0.58633000  0.95629000  0.42024000  1.0
  C  C17  1  0.72120000  0.95780000  0.41987000  1.0
  C  C18  1  0.79593000  0.91887000  0.33448000  1.0
  C  C19  1  0.41368000  0.04372000  0.92024000  1.0
  C  C20  1  0.27881000  0.04221000  0.91987000  1.0
  C  C21  1  0.20407000  0.08114000  0.83449000  1.0
  C  C22  1  0.04371000  0.58631000  0.67024000  1.0
  C  C23  1  0.04221000  0.72118000  0.66987000  1.0
  C  C24  1  0.08114000  0.79592000  0.58448000  1.0
  C  C25  1  0.95629000  0.41368000  0.17024000  1.0
  C  C26  1  0.95779000  0.27882000  0.16986000  1.0
  C  C27  1  0.91885000  0.20408000  0.08448000  1.0
  C  C28  1  0.58632000  0.04371000  0.57976000  1.0
  C  C29  1  0.72119000  0.04221000  0.58013000  1.0
  C  C30  1  0.79592000  0.08115000  0.66552000  1.0
  C  C31  1  0.41368000  0.95629000  0.07976000  1.0
  C  C32  1  0.27881000  0.95780000  0.08014000  1.0
  C  C33  1  0.20408000  0.91885000  0.16552000  1.0
  C  C34  1  0.04371000  0.41368000  0.32976000  1.0
  C  C35  1  0.04221000  0.27881000  0.33013000  1.0
  C  C36  1  0.08114000  0.20407000  0.41551000  1.0
  C  C37  1  0.95628000  0.58632000  0.82976000  1.0
  C  C38  1  0.95779000  0.72119000  0.83013000  1.0
  C  C39  1  0.91885000  0.79593000  0.91552000  1.0
  C  C40  1  0.51931000  1.00000000  0.50000000  1.0
  C  C41  1  0.78776000  0.00001000  0.50000000  1.0
  C  C42  1  0.37493000  1.00000000  0.50000000  1.0
  C  C43  1  0.48070000  1.00000000  0.00000000  1.0
  C  C44  1  0.21224000  0.00000000  0.00000000  1.0
  C  C45  1  0.62508000  0.00000000  0.00000000  1.0
  C  C46  1  0.00000000  0.51930000  0.75000000  1.0
  C  C47  1  0.00000000  0.78775000  0.75000000  1.0
  C  C48  1  0.00000000  0.37492000  0.75000000  1.0
  C  C49  1  0.00000000  0.48070000  0.25000000  1.0
  C  C50  1  0.00000000  0.21224000  0.25000000  1.0
  C  C51  1  0.00000000  0.62508000  0.25000000  1.0
  O  O52  1  0.31886000  0.91706000  0.44788000  1.0
  O  O53  1  0.91757000  0.90230000  0.34281000  1.0
  O  O54  1  0.09306000  0.73826000  0.50544000  1.0
  O  O55  1  0.68114000  0.08292000  0.94788000  1.0
  O  O56  1  0.08243000  0.09771000  0.84281000  1.0
  O  O57  1  0.90692000  0.26174000  0.00544000  1.0
  O  O58  1  0.08293000  0.31885000  0.69788000  1.0
  O  O59  1  0.09771000  0.91756000  0.59280000  1.0
  O  O60  1  0.26173000  0.09305000  0.75544000  1.0
  O  O61  1  0.91707000  0.68115000  0.19789000  1.0
  O  O62  1  0.90230000  0.08244000  0.09280000  1.0
  O  O63  1  0.73827000  0.90696000  0.25544000  1.0
  O  O64  1  0.31886000  0.08292000  0.55212000  1.0
  O  O65  1  0.91756000  0.09770000  0.65720000  1.0
  O  O66  1  0.09305000  0.26173000  0.49456000  1.0
  O  O67  1  0.68114000  0.91707000  0.05212000  1.0
  O  O68  1  0.08244000  0.90229000  0.15719000  1.0
  O  O69  1  0.90693000  0.73827000  0.99456000  1.0
  O  O70  1  0.08293000  0.68114000  0.30212000  1.0
  O  O71  1  0.09771000  0.08243000  0.40719000  1.0
  O  O72  1  0.26174000  0.90693000  0.24456000  1.0
  O  O73  1  0.91706000  0.31885000  0.80211000  1.0
  O  O74  1  0.90230000  0.91756000  0.90719000  1.0
  O  O75  1  0.73826000  0.09307000  0.74456000  1.0
