# generated using pymatgen
data_NdFeH18C16(N4O3)2
_symmetry_space_group_name_H-M   'P 1'
_cell_length_a   9.42060000
_cell_length_b   9.72863984
_cell_length_c   15.06455613
_cell_angle_alpha   77.89777222
_cell_angle_beta   71.79261513
_cell_angle_gamma   61.05743029
_symmetry_Int_Tables_number   1
_chemical_formula_structural   NdFeH18C16(N4O3)2
_chemical_formula_sum   'Nd2 Fe2 H36 C32 N16 O12'
_cell_volume   1144.88953360
_cell_formula_units_Z   2
loop_
 _symmetry_equiv_pos_site_id
 _symmetry_equiv_pos_as_xyz
  1  'x, y, z'
loop_
 _atom_site_type_symbol
 _atom_site_label
 _atom_site_symmetry_multiplicity
 _atom_site_fract_x
 _atom_site_fract_y
 _atom_site_fract_z
 _atom_site_occupancy
  Nd  Nd0  1  0.38999000  0.24999000  0.75001000  1.0
  Nd  Nd1  1  0.61001000  0.75001000  0.24999000  1.0
  Fe  Fe2  1  0.00000000  0.00000000  0.50000000  1.0
  Fe  Fe3  1  0.50000000  0.50000000  0.00000000  1.0
  H  H4  1  0.59629000  0.06801000  0.97307000  1.0
  H  H5  1  0.63749000  0.43164000  0.52716000  1.0
  H  H6  1  0.40371000  0.93199000  0.02693000  1.0
  H  H7  1  0.36251000  0.56836000  0.47284000  1.0
  H  H8  1  0.87535000  0.93060000  0.01233000  1.0
  H  H9  1  0.81866000  0.56883000  0.48793000  1.0
  H  H10  1  0.12465000  0.06940000  0.98767000  1.0
  H  H11  1  0.18134000  0.43118000  0.51206000  1.0
  H  H12  1  0.11800000  0.72767000  0.90766000  1.0
  H  H13  1  0.75388000  0.77188000  0.59250000  1.0
  H  H14  1  0.88200000  0.27233000  0.09234000  1.0
  H  H15  1  0.24612000  0.22812000  0.40750000  1.0
  H  H16  1  0.07148000  0.67522000  0.76403000  1.0
  H  H17  1  0.51104000  0.82478000  0.73600000  1.0
  H  H18  1  0.92852000  0.32478000  0.23597000  1.0
  H  H19  1  0.48895000  0.17523000  0.26400000  1.0
  H  H20  1  0.78323000  0.82161000  0.73619000  1.0
  H  H21  1  0.34098000  0.67873000  0.76374000  1.0
  H  H22  1  0.21677000  0.17839000  0.26381000  1.0
  H  H23  1  0.65902000  0.32127000  0.23626000  1.0
  H  H24  1  0.00933000  0.41926000  0.76059000  1.0
  H  H25  1  0.18909000  0.08073000  0.73944000  1.0
  H  H26  1  0.99068000  0.58074000  0.23941000  1.0
  H  H27  1  0.81091000  0.91927000  0.26056000  1.0
  H  H28  1  0.08203000  0.50565000  0.66933000  1.0
  H  H29  1  0.25700000  0.99432000  0.83069000  1.0
  H  H30  1  0.91797000  0.49435000  0.33067000  1.0
  H  H31  1  0.74299000  0.00568000  0.16932000  1.0
  H  H32  1  0.05731000  0.41534000  0.90365000  1.0
  H  H33  1  0.37617000  0.08480000  0.59630000  1.0
  H  H34  1  0.94270000  0.58466000  0.09634000  1.0
  H  H35  1  0.62383000  0.91520000  0.40370000  1.0
  H  H36  1  0.20037000  0.40311000  0.94564000  1.0
  H  H37  1  0.54899000  0.09703000  0.55440000  1.0
  H  H38  1  0.79963000  0.59689000  0.05436000  1.0
  H  H39  1  0.45100000  0.90298000  0.44560000  1.0
  C  C40  1  0.81654000  0.09666000  0.60165000  1.0
  C  C41  1  0.51469000  0.40322000  0.89843000  1.0
  C  C42  1  0.18348000  0.90333000  0.39835000  1.0
  C  C43  1  0.48531000  0.59678000  0.10157000  1.0
  C  C44  1  0.85478000  0.98671000  0.44182000  1.0
  C  C45  1  0.28322000  0.51360000  0.05826000  1.0
  C  C46  1  0.14522000  0.01329000  0.55818000  1.0
  C  C47  1  0.71677000  0.48640000  0.94174000  1.0
  C  C48  1  0.96871000  0.20080000  0.43818000  1.0
  C  C49  1  0.60747000  0.29921000  0.06184000  1.0
  C  C50  1  0.03131000  0.79919000  0.56182000  1.0
  C  C51  1  0.39254000  0.70078000  0.93816000  1.0
  C  C52  1  0.70616000  0.97933000  0.93082000  1.0
  C  C53  1  0.61654000  0.52038000  0.56936000  1.0
  C  C54  1  0.29384000  0.02067000  0.06918000  1.0
  C  C55  1  0.38345000  0.47963000  0.43064000  1.0
  C  C56  1  0.86186000  0.90172000  0.95047000  1.0
  C  C57  1  0.71440000  0.59789000  0.54974000  1.0
  C  C58  1  0.13814000  0.09828000  0.04953000  1.0
  C  C59  1  0.28560000  0.40212000  0.45026000  1.0
  C  C60  1  0.99617000  0.78968000  0.89171000  1.0
  C  C61  1  0.67797000  0.70998000  0.60846000  1.0
  C  C62  1  0.00382000  0.21032000  0.10829000  1.0
  C  C63  1  0.32203000  0.29002000  0.39154000  1.0
  C  C64  1  0.97070000  0.76005000  0.81288000  1.0
  C  C65  1  0.54387000  0.73990000  0.68719000  1.0
  C  C66  1  0.02930000  0.23995000  0.18712000  1.0
  C  C67  1  0.45613000  0.26010000  0.31281000  1.0
  C  C68  1  0.81332000  0.83896000  0.79548000  1.0
  C  C69  1  0.44784000  0.66113000  0.70455000  1.0
  C  C70  1  0.18667000  0.16104000  0.20453000  1.0
  C  C71  1  0.55216000  0.33887000  0.29545000  1.0
  N  N72  1  0.69469000  0.15752000  0.66037000  1.0
  N  N73  1  0.51262000  0.34220000  0.83970000  1.0
  N  N74  1  0.30531000  0.84247000  0.33963000  1.0
  N  N75  1  0.48738000  0.65780000  0.16030000  1.0
  N  N76  1  0.76072000  0.97701000  0.41023000  1.0
  N  N77  1  0.14793000  0.52330000  0.08993000  1.0
  N  N78  1  0.23930000  0.02298000  0.58977000  1.0
  N  N79  1  0.85210000  0.47670000  0.91005000  1.0
  N  N80  1  0.95250000  0.32430000  0.40072000  1.0
  N  N81  1  0.67739000  0.17570000  0.09925000  1.0
  N  N82  1  0.04750000  0.67570000  0.59928000  1.0
  N  N83  1  0.32261000  0.82430000  0.90075000  1.0
  N  N84  1  0.68355000  0.94576000  0.85454000  1.0
  N  N85  1  0.48395000  0.55421000  0.64554000  1.0
  N  N86  1  0.31645000  0.05424000  0.14546000  1.0
  N  N87  1  0.51605000  0.44579000  0.35446000  1.0
  O  O88  1  0.53256000  0.01566000  0.83825000  1.0
  O  O89  1  0.38652000  0.48434000  0.66183000  1.0
  O  O90  1  0.46744000  0.98434000  0.16175000  1.0
  O  O91  1  0.61348000  0.51566000  0.33817000  1.0
  O  O92  1  0.10894000  0.40399000  0.70951000  1.0
  O  O93  1  0.22239000  0.09599000  0.79052000  1.0
  O  O94  1  0.89106000  0.59601000  0.29049000  1.0
  O  O95  1  0.77761000  0.90401000  0.20948000  1.0
  O  O96  1  0.18098000  0.37550000  0.89348000  1.0
  O  O97  1  0.44969000  0.12489000  0.60646000  1.0
  O  O98  1  0.81902000  0.62450000  0.10652000  1.0
  O  O99  1  0.55031000  0.87511000  0.39354000  1.0
