# generated using pymatgen
data_HgH11C8SN2ClO3
_symmetry_space_group_name_H-M   'P 1'
_cell_length_a   7.05029000
_cell_length_b   7.34750000
_cell_length_c   23.69870000
_cell_angle_alpha   90.00010000
_cell_angle_beta   90.00030000
_cell_angle_gamma   69.34800000
_symmetry_Int_Tables_number   1
_chemical_formula_structural   HgH11C8SN2ClO3
_chemical_formula_sum   'Hg4 H44 C32 S4 N8 Cl4 O12'
_cell_volume   1148.75182534
_cell_formula_units_Z   4
loop_
 _symmetry_equiv_pos_site_id
 _symmetry_equiv_pos_as_xyz
  1  'x, y, z'
loop_
 _atom_site_type_symbol
 _atom_site_label
 _atom_site_symmetry_multiplicity
 _atom_site_fract_x
 _atom_site_fract_y
 _atom_site_fract_z
 _atom_site_occupancy
  Hg  Hg0  1  0.93660000  0.19771000  0.86346000  1.0
  Hg  Hg1  1  0.56339000  0.30230000  0.36346000  1.0
  Hg  Hg2  1  0.06340000  0.80230000  0.13654000  1.0
  Hg  Hg3  1  0.43661000  0.69770000  0.63654000  1.0
  H  H4  1  0.85359000  0.48228000  0.78284000  1.0
  H  H5  1  0.64640000  0.01773000  0.28285000  1.0
  H  H6  1  0.14641000  0.51773000  0.21715000  1.0
  H  H7  1  0.35360000  0.98227000  0.71715000  1.0
  H  H8  1  0.83060000  0.24911000  0.00568000  1.0
  H  H9  1  0.66939000  0.25090000  0.50568000  1.0
  H  H10  1  0.16939000  0.75088000  0.99432000  1.0
  H  H11  1  0.33060000  0.74911000  0.49432000  1.0
  H  H12  1  0.71708000  0.52309000  0.07568000  1.0
  H  H13  1  0.78292000  0.97692000  0.57568000  1.0
  H  H14  1  0.28292000  0.47690000  0.92432000  1.0
  H  H15  1  0.21708000  0.02308000  0.42432000  1.0
  H  H16  1  0.63283000  0.86235000  0.04103000  1.0
  H  H17  1  0.86717000  0.63766000  0.54103000  1.0
  H  H18  1  0.36718000  0.13765000  0.95897000  1.0
  H  H19  1  0.13283000  0.36234000  0.45897000  1.0
  H  H20  1  0.66000000  0.91914000  0.93615000  1.0
  H  H21  1  0.84000000  0.58087000  0.43615000  1.0
  H  H22  1  0.34001000  0.08086000  0.06386000  1.0
  H  H23  1  0.16000000  0.41913000  0.56385000  1.0
  H  H24  1  0.69563000  0.78096000  0.84094000  1.0
  H  H25  1  0.80437000  0.71904000  0.34094000  1.0
  H  H26  1  0.30437000  0.21904000  0.15906000  1.0
  H  H27  1  0.19563000  0.28096000  0.65906000  1.0
  H  H28  1  0.95423000  0.63304000  0.85023000  1.0
  H  H29  1  0.54577000  0.86696000  0.35023000  1.0
  H  H30  1  0.04577000  0.36696000  0.14977000  1.0
  H  H31  1  0.45423000  0.13304000  0.64977000  1.0
  H  H32  1  0.50878000  0.66206000  0.77983000  1.0
  H  H33  1  0.99120000  0.83794000  0.27983000  1.0
  H  H34  1  0.49121000  0.33794000  0.22017000  1.0
  H  H35  1  0.00879000  0.16206000  0.72017000  1.0
  H  H36  1  0.46689000  0.55597000  0.84304000  1.0
  H  H37  1  0.03311000  0.94403000  0.34304000  1.0
  H  H38  1  0.53311000  0.44404000  0.15696000  1.0
  H  H39  1  0.96689000  0.05597000  0.65697000  1.0
  H  H40  1  0.65717000  0.27798000  0.74601000  1.0
  H  H41  1  0.84282000  0.22202000  0.24601000  1.0
  H  H42  1  0.34282000  0.72202000  0.25399000  1.0
  H  H43  1  0.15718000  0.77798000  0.75399000  1.0
  H  H44  1  0.39735000  0.42260000  0.74055000  1.0
  H  H45  1  0.10265000  0.07739000  0.24055000  1.0
  H  H46  1  0.60265000  0.57740000  0.25946000  1.0
  H  H47  1  0.89736000  0.92260000  0.75946000  1.0
  C  C48  1  0.79081000  0.40010000  0.99236000  1.0
  C  C49  1  0.70919000  0.09991000  0.49236000  1.0
  C  C50  1  0.20919000  0.59990000  0.00763000  1.0
  C  C51  1  0.29081000  0.90009000  0.50764000  1.0
  C  C52  1  0.72708000  0.55191000  0.03097000  1.0
  C  C53  1  0.77292000  0.94810000  0.53097000  1.0
  C  C54  1  0.27292000  0.44808000  0.96903000  1.0
  C  C55  1  0.22708000  0.05191000  0.46903000  1.0
  C  C56  1  0.68009000  0.74180000  0.01124000  1.0
  C  C57  1  0.81992000  0.75821000  0.51124000  1.0
  C  C58  1  0.31992000  0.25820000  0.98877000  1.0
  C  C59  1  0.18009000  0.24180000  0.48877000  1.0
  C  C60  1  0.69576000  0.77396000  0.95378000  1.0
  C  C61  1  0.80424000  0.72605000  0.45378000  1.0
  C  C62  1  0.30425000  0.22604000  0.04622000  1.0
  C  C63  1  0.19576000  0.27396000  0.54623000  1.0
  C  C64  1  0.76174000  0.61386000  0.91754000  1.0
  C  C65  1  0.73826000  0.88615000  0.41755000  1.0
  C  C66  1  0.23827000  0.38615000  0.08245000  1.0
  C  C67  1  0.26173000  0.11385000  0.58245000  1.0
  C  C68  1  0.79746000  0.63778000  0.85558000  1.0
  C  C69  1  0.70253000  0.86223000  0.35558000  1.0
  C  C70  1  0.20254000  0.36222000  0.14442000  1.0
  C  C71  1  0.29746000  0.13778000  0.64442000  1.0
  C  C72  1  0.55786000  0.52573000  0.80426000  1.0
  C  C73  1  0.94213000  0.97427000  0.30426000  1.0
  C  C74  1  0.44213000  0.47427000  0.19574000  1.0
  C  C75  1  0.05787000  0.02573000  0.69574000  1.0
  C  C76  1  0.52312000  0.36355000  0.77050000  1.0
  C  C77  1  0.97688000  0.13645000  0.27050000  1.0
  C  C78  1  0.47688000  0.63645000  0.22951000  1.0
  C  C79  1  0.02312000  0.86355000  0.72951000  1.0
  S  S80  1  0.44640000  0.20079000  0.81439000  1.0
  S  S81  1  0.05360000  0.29921000  0.31439000  1.0
  S  S82  1  0.55360000  0.79921000  0.18561000  1.0
  S  S83  1  0.94640000  0.70079000  0.68561000  1.0
  N  N84  1  0.80835000  0.43212000  0.93714000  1.0
  N  N85  1  0.69165000  0.06789000  0.43714000  1.0
  N  N86  1  0.19165000  0.56788000  0.06286000  1.0
  N  N87  1  0.30835000  0.93211000  0.56286000  1.0
  N  N88  1  0.77315000  0.48277000  0.81961000  1.0
  N  N89  1  0.72685000  0.01724000  0.31961000  1.0
  N  N90  1  0.22685000  0.51724000  0.18039000  1.0
  N  N91  1  0.27315000  0.98277000  0.68039000  1.0
  Cl  Cl92  1  0.15233000  0.87900000  0.88439000  1.0
  Cl  Cl93  1  0.34768000  0.62101000  0.38439000  1.0
  Cl  Cl94  1  0.84768000  0.12100000  0.11561000  1.0
  Cl  Cl95  1  0.65232000  0.37899000  0.61561000  1.0
  O  O96  1  0.58714000  0.14718000  0.86287000  1.0
  O  O97  1  0.91286000  0.35282000  0.36286000  1.0
  O  O98  1  0.41286000  0.85282000  0.13713000  1.0
  O  O99  1  0.08714000  0.64718000  0.63714000  1.0
  O  O100  1  0.46271000  0.03139000  0.77899000  1.0
  O  O101  1  0.03731000  0.46860000  0.27899000  1.0
  O  O102  1  0.53729000  0.96861000  0.22101000  1.0
  O  O103  1  0.96270000  0.53140000  0.72101000  1.0
  O  O104  1  0.23851000  0.31780000  0.83152000  1.0
  O  O105  1  0.26149000  0.18219000  0.33152000  1.0
  O  O106  1  0.76149000  0.68220000  0.16849000  1.0
  O  O107  1  0.73851000  0.81780000  0.66849000  1.0
