# generated using pymatgen
data_AgH2(C2O)2
_symmetry_space_group_name_H-M   'P 1'
_cell_length_a   6.12878000
_cell_length_b   7.49834000
_cell_length_c   8.93805000
_cell_angle_alpha   89.99910000
_cell_angle_beta   89.99930000
_cell_angle_gamma   68.78500000
_symmetry_Int_Tables_number   1
_chemical_formula_structural   AgH2(C2O)2
_chemical_formula_sum   'Ag4 H8 C16 O8'
_cell_volume   382.91695306
_cell_formula_units_Z   4
loop_
 _symmetry_equiv_pos_site_id
 _symmetry_equiv_pos_as_xyz
  1  'x, y, z'
loop_
 _atom_site_type_symbol
 _atom_site_label
 _atom_site_symmetry_multiplicity
 _atom_site_fract_x
 _atom_site_fract_y
 _atom_site_fract_z
 _atom_site_occupancy
  Ag  Ag0  1  0.88983000  0.08623000  0.36834000  1.0
  Ag  Ag1  1  0.61018000  0.91377000  0.86834000  1.0
  Ag  Ag2  1  0.11018000  0.91378000  0.63165000  1.0
  Ag  Ag3  1  0.38983000  0.08623000  0.13166000  1.0
  H  H4  1  0.81975000  0.46269000  0.68227000  1.0
  H  H5  1  0.68025000  0.53733000  0.18229000  1.0
  H  H6  1  0.18025000  0.53731000  0.31772000  1.0
  H  H7  1  0.31973000  0.46269000  0.81771000  1.0
  H  H8  1  0.36725000  0.78047000  0.32944000  1.0
  H  H9  1  0.13273000  0.21953000  0.82945000  1.0
  H  H10  1  0.63276000  0.21952000  0.67056000  1.0
  H  H11  1  0.86727000  0.78048000  0.17055000  1.0
  C  C12  1  0.72551000  0.77984000  0.51261000  1.0
  C  C13  1  0.77448000  0.22016000  0.01262000  1.0
  C  C14  1  0.27448000  0.22015000  0.48739000  1.0
  C  C15  1  0.22552000  0.77985000  0.98738000  1.0
  C  C16  1  0.60435000  0.63868000  0.50872000  1.0
  C  C17  1  0.89564000  0.36133000  0.00872000  1.0
  C  C18  1  0.39565000  0.36131000  0.49128000  1.0
  C  C19  1  0.10435000  0.63869000  0.99128000  1.0
  C  C20  1  0.67947000  0.47852000  0.60283000  1.0
  C  C21  1  0.82053000  0.52148000  0.10283000  1.0
  C  C22  1  0.32053000  0.52147000  0.39717000  1.0
  C  C23  1  0.17948000  0.47852000  0.89717000  1.0
  C  C24  1  0.42293000  0.65960000  0.40609000  1.0
  C  C25  1  0.07706000  0.34039000  0.90610000  1.0
  C  C26  1  0.57707000  0.34038000  0.59391000  1.0
  C  C27  1  0.92294000  0.65961000  0.09391000  1.0
  O  O28  1  0.71172000  0.87998000  0.39574000  1.0
  O  O29  1  0.78828000  0.12002000  0.89575000  1.0
  O  O30  1  0.28829000  0.12001000  0.60426000  1.0
  O  O31  1  0.21173000  0.87998000  0.10425000  1.0
  O  O32  1  0.83979000  0.78464000  0.63196000  1.0
  O  O33  1  0.66021000  0.21537000  0.13198000  1.0
  O  O34  1  0.16022000  0.21536000  0.36804000  1.0
  O  O35  1  0.33979000  0.78464000  0.86803000  1.0
