# generated using pymatgen
data_ZnH2(CN2)5
_symmetry_space_group_name_H-M   'P 1'
_cell_length_a   8.75708000
_cell_length_b   8.75708000
_cell_length_c   16.90170000
_cell_angle_alpha   92.04790000
_cell_angle_beta   92.04780000
_cell_angle_gamma   119.33000000
_symmetry_Int_Tables_number   1
_chemical_formula_structural   ZnH2(CN2)5
_chemical_formula_sum   'Zn4 H8 C20 N40'
_cell_volume   1127.15218323
_cell_formula_units_Z   4
loop_
 _symmetry_equiv_pos_site_id
 _symmetry_equiv_pos_as_xyz
  1  'x, y, z'
loop_
 _atom_site_type_symbol
 _atom_site_label
 _atom_site_symmetry_multiplicity
 _atom_site_fract_x
 _atom_site_fract_y
 _atom_site_fract_z
 _atom_site_occupancy
  Zn  Zn0  1  0.35111000  0.68554000  0.69410000  1.0
  Zn  Zn1  1  0.68554000  0.35111000  0.19410000  1.0
  Zn  Zn2  1  0.09991000  0.92025000  0.62557000  1.0
  Zn  Zn3  1  0.92025000  0.09991000  0.12557000  1.0
  H  H4  1  0.80695000  0.79012000  0.93148000  1.0
  H  H5  1  0.79012000  0.80695000  0.43148000  1.0
  H  H6  1  0.15866000  0.32302000  0.38799000  1.0
  H  H7  1  0.32302000  0.15866000  0.88799000  1.0
  H  H8  1  0.51220000  0.77329000  0.90125000  1.0
  H  H9  1  0.77330000  0.51220000  0.40125000  1.0
  H  H10  1  0.15032000  0.03755000  0.41503000  1.0
  H  H11  1  0.03756000  0.15032000  0.91503000  1.0
  C  C12  1  0.71616000  0.79959000  0.66030000  1.0
  C  C13  1  0.79959000  0.71616000  0.16030000  1.0
  C  C14  1  0.72235000  0.79878000  0.74535000  1.0
  C  C15  1  0.79878000  0.72235000  0.24536000  1.0
  C  C16  1  0.60250000  0.78145000  0.85731000  1.0
  C  C17  1  0.78144000  0.60250000  0.35731000  1.0
  C  C18  1  0.83851000  0.79970000  0.80394000  1.0
  C  C19  1  0.79970000  0.83851000  0.30394000  1.0
  C  C20  1  0.99742000  0.78936000  0.80070000  1.0
  C  C21  1  0.78936000  0.99742000  0.30070000  1.0
  C  C22  1  0.22049000  0.29266000  0.65826000  1.0
  C  C23  1  0.29266000  0.22049000  0.15826000  1.0
  C  C24  1  0.19546000  0.27660000  0.57311000  1.0
  C  C25  1  0.27660000  0.19546000  0.07311000  1.0
  C  C26  1  0.16287000  0.13471000  0.46012000  1.0
  C  C27  1  0.13471000  0.16286000  0.96011000  1.0
  C  C28  1  0.18604000  0.38045000  0.51479000  1.0
  C  C29  1  0.38045000  0.18604000  0.01479000  1.0
  C  C30  1  0.17493000  0.53929000  0.51803000  1.0
  C  C31  1  0.53929000  0.17493000  0.01803000  1.0
  N  N32  1  0.83741000  0.83413000  0.60722000  1.0
  N  N33  1  0.83413000  0.83741000  0.10722000  1.0
  N  N34  1  0.75372000  0.81646000  0.53522000  1.0
  N  N35  1  0.81646000  0.75372000  0.03522000  1.0
  N  N36  1  0.59019000  0.77296000  0.54429000  1.0
  N  N37  1  0.77296000  0.59020000  0.04429000  1.0
  N  N38  1  0.56312000  0.76237000  0.62204000  1.0
  N  N39  1  0.76237000  0.56312000  0.12204000  1.0
  N  N40  1  0.57548000  0.78522000  0.77985000  1.0
  N  N41  1  0.78522000  0.57548000  0.27985000  1.0
  N  N42  1  0.75908000  0.79083000  0.87407000  1.0
  N  N43  1  0.79083000  0.75908000  0.37407000  1.0
  N  N44  1  0.07793000  0.78865000  0.73420000  1.0
  N  N45  1  0.78865000  0.07793000  0.23420000  1.0
  N  N46  1  0.21376000  0.76845000  0.76016000  1.0
  N  N47  1  0.76845000  0.21375000  0.26017000  1.0
  N  N48  1  0.21512000  0.75661000  0.83820000  1.0
  N  N49  1  0.75661000  0.21512000  0.33820000  1.0
  N  N50  1  0.08079000  0.76945000  0.86519000  1.0
  N  N51  1  0.76945000  0.08079000  0.36519000  1.0
  N  N52  1  0.27046000  0.42886000  0.71124000  1.0
  N  N53  1  0.42886000  0.27047000  0.21124000  1.0
  N  N54  1  0.28402000  0.37053000  0.78312000  1.0
  N  N55  1  0.37053000  0.28402000  0.28312000  1.0
  N  N56  1  0.24306000  0.20566000  0.77376000  1.0
  N  N57  1  0.20566000  0.24306000  0.27376000  1.0
  N  N58  1  0.20275000  0.15297000  0.69622000  1.0
  N  N59  1  0.15297000  0.20275000  0.19622000  1.0
  N  N60  1  0.17790000  0.12320000  0.53775000  1.0
  N  N61  1  0.12320000  0.17790000  0.03775000  1.0
  N  N62  1  0.16782000  0.28729000  0.44424000  1.0
  N  N63  1  0.28729000  0.16782000  0.94424000  1.0
  N  N64  1  0.19208000  0.63762000  0.58452000  1.0
  N  N65  1  0.63762000  0.19208000  0.08452000  1.0
  N  N66  1  0.16324000  0.76527000  0.55872000  1.0
  N  N67  1  0.76527000  0.16324000  0.05872000  1.0
  N  N68  1  0.12893000  0.74476000  0.48074000  1.0
  N  N69  1  0.74476000  0.12893000  0.98074000  1.0
  N  N70  1  0.13530000  0.60365000  0.45369000  1.0
  N  N71  1  0.60365000  0.13530000  0.95369000  1.0
