# generated using pymatgen
data_Cu2H27C36N2O11
_symmetry_space_group_name_H-M   'P 1'
_cell_length_a   15.88510000
_cell_length_b   18.11950000
_cell_length_c   19.82010000
_cell_angle_alpha   93.91630000
_cell_angle_beta   113.62000000
_cell_angle_gamma   115.99000000
_symmetry_Int_Tables_number   1
_chemical_formula_structural   Cu2H27C36N2O11
_chemical_formula_sum   'Cu8 H108 C144 N8 O44'
_cell_volume   4487.57379339
_cell_formula_units_Z   4
loop_
 _symmetry_equiv_pos_site_id
 _symmetry_equiv_pos_as_xyz
  1  'x, y, z'
loop_
 _atom_site_type_symbol
 _atom_site_label
 _atom_site_symmetry_multiplicity
 _atom_site_fract_x
 _atom_site_fract_y
 _atom_site_fract_z
 _atom_site_occupancy
  Cu  Cu0  1  0.48698000  0.94885000  0.54115000  1.0
  Cu  Cu1  1  0.49702000  0.55118000  0.95893000  1.0
  Cu  Cu2  1  0.51303000  0.05116000  0.45885000  1.0
  Cu  Cu3  1  0.50298000  0.44882000  0.04107000  1.0
  Cu  Cu4  1  0.93572000  0.42877000  0.44679000  1.0
  Cu  Cu5  1  0.56002000  0.07123000  0.05324000  1.0
  Cu  Cu6  1  0.06429000  0.57123000  0.55322000  1.0
  Cu  Cu7  1  0.43997000  0.92877000  0.94676000  1.0
  H  H8  1  0.62749000  0.83656000  0.24048000  1.0
  H  H9  1  0.05050000  0.66353000  0.25953000  1.0
  H  H10  1  0.37251000  0.16344000  0.75952000  1.0
  H  H11  1  0.94950000  0.33647000  0.74047000  1.0
  H  H12  1  0.93912000  0.74470000  0.36655000  1.0
  H  H13  1  0.32776000  0.75536000  0.13335000  1.0
  H  H14  1  0.06089000  0.25530000  0.63346000  1.0
  H  H15  1  0.67223000  0.24463000  0.86664000  1.0
  H  H16  1  0.57186000  0.92373000  0.29657000  1.0
  H  H17  1  0.85167000  0.57640000  0.20349000  1.0
  H  H18  1  0.42815000  0.07628000  0.70344000  1.0
  H  H19  1  0.14833000  0.42360000  0.79651000  1.0
  H  H20  1  0.00119000  0.93199000  0.24360000  1.0
  H  H21  1  0.32606000  0.56849000  0.25675000  1.0
  H  H22  1  0.99881000  0.06801000  0.75639000  1.0
  H  H23  1  0.67394000  0.43152000  0.74325000  1.0
  H  H24  1  0.80307000  0.03055000  0.21604000  1.0
  H  H25  1  0.05672000  0.46979000  0.28393000  1.0
  H  H26  1  0.19693000  0.96945000  0.78395000  1.0
  H  H27  1  0.94328000  0.53020000  0.71606000  1.0
  H  H28  1  0.19383000  0.97948000  0.31251000  1.0
  H  H29  1  0.40195000  0.52067000  0.18764000  1.0
  H  H30  1  0.80617000  0.02052000  0.68748000  1.0
  H  H31  1  0.59806000  0.47933000  0.81236000  1.0
  H  H32  1  0.88383000  0.69350000  0.49340000  1.0
  H  H33  1  0.19698000  0.80660000  0.00655000  1.0
  H  H34  1  0.11616000  0.30650000  0.50660000  1.0
  H  H35  1  0.80302000  0.19341000  0.99345000  1.0
  H  H36  1  0.78357000  0.76505000  0.43013000  1.0
  H  H37  1  0.08834000  0.73511000  0.06981000  1.0
  H  H38  1  0.21643000  0.23494000  0.56986000  1.0
  H  H39  1  0.91166000  0.26489000  0.93019000  1.0
  H  H40  1  0.57840000  0.77910000  0.05215000  1.0
  H  H41  1  0.24698000  0.72124000  0.44784000  1.0
  H  H42  1  0.42160000  0.22089000  0.94785000  1.0
  H  H43  1  0.75302000  0.27876000  0.55216000  1.0
  H  H44  1  0.52879000  0.76633000  0.44594000  1.0
  H  H45  1  0.81664000  0.73389000  0.05421000  1.0
  H  H46  1  0.47121000  0.23367000  0.55405000  1.0
  H  H47  1  0.18336000  0.26611000  0.94579000  1.0
  H  H48  1  0.68280000  0.72087000  0.13450000  1.0
  H  H49  1  0.32743000  0.77953000  0.36557000  1.0
  H  H50  1  0.31720000  0.27912000  0.86549000  1.0
  H  H51  1  0.67257000  0.22047000  0.63443000  1.0
  H  H52  1  0.61371000  0.56596000  0.21552000  1.0
  H  H53  1  0.33222000  0.93411000  0.28446000  1.0
  H  H54  1  0.38628000  0.43403000  0.78448000  1.0
  H  H55  1  0.66778000  0.06589000  0.71554000  1.0
  H  H56  1  0.90847000  0.97220000  0.29969000  1.0
  H  H57  1  0.13701000  0.52822000  0.20040000  1.0
  H  H58  1  0.09153000  0.02780000  0.70030000  1.0
  H  H59  1  0.86299000  0.47178000  0.79960000  1.0
  H  H60  1  0.71294000  0.49358000  0.28009000  1.0
  H  H61  1  0.43945000  0.00631000  0.21996000  1.0
  H  H62  1  0.28705000  0.50641000  0.71991000  1.0
  H  H63  1  0.56055000  0.99369000  0.78004000  1.0
  H  H64  1  0.66959000  0.82858000  0.74638000  1.0
  H  H65  1  0.59488000  0.67142000  0.75378000  1.0
  H  H66  1  0.33042000  0.17143000  0.25362000  1.0
  H  H67  1  0.40514000  0.32859000  0.24623000  1.0
  H  H68  1  0.13348000  0.79268000  0.43509000  1.0
  H  H69  1  0.40542000  0.70717000  0.06474000  1.0
  H  H70  1  0.86653000  0.20733000  0.56491000  1.0
  H  H71  1  0.59458000  0.29282000  0.93526000  1.0
  H  H72  1  0.58184000  0.67786000  0.38928000  1.0
  H  H73  1  0.01474000  0.82235000  0.11084000  1.0
  H  H74  1  0.41815000  0.32213000  0.61072000  1.0
  H  H75  1  0.98526000  0.17765000  0.88915000  1.0
  H  H76  1  0.64814000  0.90687000  0.64652000  1.0
  H  H77  1  0.59504000  0.59318000  0.85368000  1.0
  H  H78  1  0.35186000  0.09313000  0.35348000  1.0
  H  H79  1  0.40496000  0.40682000  0.14633000  1.0
  H  H80  1  0.32851000  0.80778000  0.57913000  1.0
  H  H81  1  0.44159000  0.69210000  0.92092000  1.0
  H  H82  1  0.67150000  0.19222000  0.42088000  1.0
  H  H83  1  0.55839000  0.30789000  0.07908000  1.0
  H  H84  1  0.90933000  0.25473000  0.45347000  1.0
  H  H85  1  0.70104000  0.24538000  0.04678000  1.0
  H  H86  1  0.09068000  0.74526000  0.54653000  1.0
  H  H87  1  0.29896000  0.75462000  0.95323000  1.0
  H  H88  1  0.33401000  0.72479000  0.67452000  1.0
  H  H89  1  0.43457000  0.77497000  0.82542000  1.0
  H  H90  1  0.66600000  0.27522000  0.32549000  1.0
  H  H91  1  0.56543000  0.22504000  0.17458000  1.0
  H  H92  1  0.87117000  0.12591000  0.45552000  1.0
  H  H93  1  0.78946000  0.37430000  0.04482000  1.0
  H  H94  1  0.12883000  0.87409000  0.54447000  1.0
  H  H95  1  0.21054000  0.62569000  0.95518000  1.0
  H  H96  1  0.73015000  0.05390000  0.40799000  1.0
  H  H97  1  0.76792000  0.44620000  0.09246000  1.0
  H  H98  1  0.26985000  0.94610000  0.59201000  1.0
  H  H99  1  0.23208000  0.55380000  0.90754000  1.0
  H  H100  1  0.80731000  0.04643000  0.36536000  1.0
  H  H101  1  0.89519000  0.45369000  0.13502000  1.0
  H  H102  1  0.19269000  0.95357000  0.63464000  1.0
  H  H103  1  0.10481000  0.54631000  0.86498000  1.0
  H  H104  1  0.69779000  0.16896000  0.25514000  1.0
  H  H105  1  0.77349000  0.33085000  0.24512000  1.0
  H  H106  1  0.30221000  0.83104000  0.74486000  1.0
  H  H107  1  0.22651000  0.66915000  0.75488000  1.0
  H  H108  1  0.70209000  0.07275000  0.24421000  1.0
  H  H109  1  0.88495000  0.42707000  0.25611000  1.0
  H  H110  1  0.29791000  0.92725000  0.75579000  1.0
  H  H111  1  0.11505000  0.57293000  0.74388000  1.0
  H  H112  1  0.61962000  0.08103000  0.28068000  1.0
  H  H113  1  0.75784000  0.41891000  0.21985000  1.0
  H  H114  1  0.38038000  0.91897000  0.71932000  1.0
  H  H115  1  0.24216000  0.58109000  0.78014000  1.0
  C  C116  1  0.29324000  0.92184000  0.42135000  1.0
  C  C117  1  0.45002000  0.57821000  0.07868000  1.0
  C  C118  1  0.70677000  0.07817000  0.57866000  1.0
  C  C119  1  0.54998000  0.42179000  0.92132000  1.0
  C  C120  1  0.52389000  0.90590000  0.41456000  1.0
  C  C121  1  0.70350000  0.59412000  0.08547000  1.0
  C  C122  1  0.47612000  0.09411000  0.58545000  1.0
  C  C123  1  0.29650000  0.40588000  0.91453000  1.0
  C  C124  1  0.54988000  0.85180000  0.37625000  1.0
  C  C125  1  0.82189000  0.64829000  0.12378000  1.0
  C  C126  1  0.45013000  0.14821000  0.62375000  1.0
  C  C127  1  0.17811000  0.35171000  0.87622000  1.0
  C  C128  1  0.87076000  0.55102000  0.42923000  1.0
  C  C129  1  0.39063000  0.94893000  0.07082000  1.0
  C  C130  1  0.12924000  0.44898000  0.57077000  1.0
  C  C131  1  0.60937000  0.05108000  0.92918000  1.0
  C  C132  1  0.60707000  0.82264000  0.28620000  1.0
  C  C133  1  0.99829000  0.67749000  0.21387000  1.0
  C  C134  1  0.39294000  0.17736000  0.71380000  1.0
  C  C135  1  0.00171000  0.32251000  0.78613000  1.0
  C  C136  1  0.99636000  0.79745000  0.35665000  1.0
  C  C137  1  0.34223000  0.70266000  0.14333000  1.0
  C  C138  1  0.00364000  0.20255000  0.64335000  1.0
  C  C139  1  0.65775000  0.29734000  0.85667000  1.0
  C  C140  1  0.68376000  0.90879000  0.12875000  1.0
  C  C141  1  0.14618000  0.59154000  0.37120000  1.0
  C  C142  1  0.31624000  0.09121000  0.87125000  1.0
  C  C143  1  0.85382000  0.40846000  0.62880000  1.0
  C  C144  1  0.57591000  0.87068000  0.31743000  1.0
  C  C145  1  0.88789000  0.62943000  0.18262000  1.0
  C  C146  1  0.42409000  0.12932000  0.68257000  1.0
  C  C147  1  0.11211000  0.37057000  0.81738000  1.0
  C  C148  1  0.50376000  0.77173000  0.71985000  1.0
  C  C149  1  0.51212000  0.72805000  0.78015000  1.0
  C  C150  1  0.49625000  0.22827000  0.28015000  1.0
  C  C151  1  0.48788000  0.27195000  0.21986000  1.0
  C  C152  1  0.61804000  0.94294000  0.08036000  1.0
  C  C153  1  0.09471000  0.55735000  0.41958000  1.0
  C  C154  1  0.38196000  0.05706000  0.91964000  1.0
  C  C155  1  0.90530000  0.44265000  0.58042000  1.0
  C  C156  1  0.03034000  0.90308000  0.28701000  1.0
  C  C157  1  0.34055000  0.59725000  0.21323000  1.0
  C  C158  1  0.96966000  0.09691000  0.71299000  1.0
  C  C159  1  0.65945000  0.40275000  0.78677000  1.0
  C  C160  1  0.77740000  0.96270000  0.19852000  1.0
  C  C161  1  0.11634000  0.53767000  0.30147000  1.0
  C  C162  1  0.22260000  0.03730000  0.80148000  1.0
  C  C163  1  0.88366000  0.46233000  0.69853000  1.0
  C  C164  1  0.13819000  0.92932000  0.32555000  1.0
  C  C165  1  0.38338000  0.57081000  0.17456000  1.0
  C  C166  1  0.86181000  0.07067000  0.67444000  1.0
  C  C167  1  0.61662000  0.42919000  0.82544000  1.0
  C  C168  1  0.82359000  0.66542000  0.43278000  1.0
  C  C169  1  0.22544000  0.83466000  0.06720000  1.0
  C  C170  1  0.17641000  0.33458000  0.56722000  1.0
  C  C171  1  0.77455000  0.16535000  0.93280000  1.0
  C  C172  1  0.69215000  0.66851000  0.31923000  1.0
  C  C173  1  0.20436000  0.83161000  0.18073000  1.0
  C  C174  1  0.30785000  0.33149000  0.68077000  1.0
  C  C175  1  0.79564000  0.16839000  0.81927000  1.0
  C  C176  1  0.61140000  0.75461000  0.31367000  1.0
  C  C177  1  0.04317000  0.74553000  0.18639000  1.0
  C  C178  1  0.38860000  0.24539000  0.68633000  1.0
  C  C179  1  0.95683000  0.25447000  0.81360000  1.0
  C  C180  1  0.80227000  0.84294000  0.22114000  1.0
  C  C181  1  0.23837000  0.65748000  0.27895000  1.0
  C  C182  1  0.19773000  0.15706000  0.77885000  1.0
  C  C183  1  0.76162000  0.34252000  0.72105000  1.0
  C  C184  1  0.76773000  0.70533000  0.39763000  1.0
  C  C185  1  0.16475000  0.79482000  0.10233000  1.0
  C  C186  1  0.23226000  0.29466000  0.60237000  1.0
  C  C187  1  0.83524000  0.20518000  0.89768000  1.0
  C  C188  1  0.65088000  0.82157000  0.10597000  1.0
  C  C189  1  0.22322000  0.67878000  0.39403000  1.0
  C  C190  1  0.34912000  0.17843000  0.89403000  1.0
  C  C191  1  0.77678000  0.32122000  0.60597000  1.0
  C  C192  1  0.80482000  0.58914000  0.39085000  1.0
  C  C193  1  0.32492000  0.91085000  0.10916000  1.0
  C  C194  1  0.19518000  0.41086000  0.60915000  1.0
  C  C195  1  0.67507000  0.08916000  0.89084000  1.0
  C  C196  1  0.55166000  0.78173000  0.40153000  1.0
  C  C197  1  0.86850000  0.71846000  0.09860000  1.0
  C  C198  1  0.44834000  0.21827000  0.59847000  1.0
  C  C199  1  0.13150000  0.28154000  0.90140000  1.0
  C  C200  1  0.70934000  0.78866000  0.15193000  1.0
  C  C201  1  0.26875000  0.71173000  0.34812000  1.0
  C  C202  1  0.29065000  0.21134000  0.84806000  1.0
  C  C203  1  0.73125000  0.28826000  0.65188000  1.0
  C  C204  1  0.17699000  0.89110000  0.37997000  1.0
  C  C205  1  0.40583000  0.60890000  0.12004000  1.0
  C  C206  1  0.82301000  0.10890000  0.62003000  1.0
  C  C207  1  0.59417000  0.39110000  0.87996000  1.0
  C  C208  1  0.67203000  0.59247000  0.27657000  1.0
  C  C209  1  0.30297000  0.90760000  0.22340000  1.0
  C  C210  1  0.32797000  0.40752000  0.72343000  1.0
  C  C211  1  0.69703000  0.09241000  0.77660000  1.0
  C  C212  1  0.83681000  0.93037000  0.24502000  1.0
  C  C213  1  0.16170000  0.57002000  0.25503000  1.0
  C  C214  1  0.16319000  0.06963000  0.75497000  1.0
  C  C215  1  0.83830000  0.42997000  0.74496000  1.0
  C  C216  1  0.95933000  0.83731000  0.30323000  1.0
  C  C217  1  0.31900000  0.66297000  0.19689000  1.0
  C  C218  1  0.04067000  0.16269000  0.69677000  1.0
  C  C219  1  0.68100000  0.33703000  0.80310000  1.0
  C  C220  1  0.72794000  0.55288000  0.31269000  1.0
  C  C221  1  0.36247000  0.94710000  0.18733000  1.0
  C  C222  1  0.27205000  0.44711000  0.68731000  1.0
  C  C223  1  0.63753000  0.05290000  0.81267000  1.0
  C  C224  1  0.59218000  0.82157000  0.70989000  1.0
  C  C225  1  0.56086000  0.67836000  0.79021000  1.0
  C  C226  1  0.40783000  0.17844000  0.29012000  1.0
  C  C227  1  0.43914000  0.32165000  0.20980000  1.0
  C  C228  1  0.10434000  0.82425000  0.39442000  1.0
  C  C229  1  0.38552000  0.67574000  0.10551000  1.0
  C  C230  1  0.89567000  0.17576000  0.60558000  1.0
  C  C231  1  0.61447000  0.32426000  0.89449000  1.0
  C  C232  1  0.58163000  0.73282000  0.37032000  1.0
  C  C233  1  0.97858000  0.76739000  0.12982000  1.0
  C  C234  1  0.41837000  0.26718000  0.62968000  1.0
  C  C235  1  0.02142000  0.23260000  0.87017000  1.0
  C  C236  1  0.58109000  0.86535000  0.65505000  1.0
  C  C237  1  0.56086000  0.63462000  0.84507000  1.0
  C  C238  1  0.41892000  0.13465000  0.34495000  1.0
  C  C239  1  0.43914000  0.36539000  0.15494000  1.0
  C  C240  1  0.40259000  0.81078000  0.61774000  1.0
  C  C241  1  0.47409000  0.68910000  0.88232000  1.0
  C  C242  1  0.59742000  0.18923000  0.38226000  1.0
  C  C243  1  0.52590000  0.31090000  0.11769000  1.0
  C  C244  1  0.84552000  0.23704000  0.39413000  1.0
  C  C245  1  0.71413000  0.26300000  0.10608000  1.0
  C  C246  1  0.15448000  0.76296000  0.60587000  1.0
  C  C247  1  0.28587000  0.73700000  0.89392000  1.0
  C  C248  1  0.40632000  0.76499000  0.67129000  1.0
  C  C249  1  0.47002000  0.73482000  0.82872000  1.0
  C  C250  1  0.59368000  0.23502000  0.32872000  1.0
  C  C251  1  0.52997000  0.26517000  0.17128000  1.0
  C  C252  1  0.79918000  0.09122000  0.39911000  1.0
  C  C253  1  0.80852000  0.40889000  0.10126000  1.0
  C  C254  1  0.20083000  0.90877000  0.60089000  1.0
  C  C255  1  0.19149000  0.59111000  0.89874000  1.0
  C  C256  1  0.69594000  0.11678000  0.28029000  1.0
  C  C257  1  0.79869000  0.38310000  0.22007000  1.0
  C  C258  1  0.30406000  0.88322000  0.71971000  1.0
  C  C259  1  0.20131000  0.61690000  0.77993000  1.0
  N  N260  1  0.48856000  0.86161000  0.61063000  1.0
  N  N261  1  0.51643000  0.63831000  0.88946000  1.0
  N  N262  1  0.51144000  0.13839000  0.38937000  1.0
  N  N263  1  0.48356000  0.36168000  0.11054000  1.0
  N  N264  1  0.78438000  0.15211000  0.35853000  1.0
  N  N265  1  0.77347000  0.34791000  0.14177000  1.0
  N  N266  1  0.21562000  0.84789000  0.64147000  1.0
  N  N267  1  0.22653000  0.65209000  0.85823000  1.0
  O  O268  1  0.32719000  0.89073000  0.47518000  1.0
  O  O269  1  0.46150000  0.60947000  0.02498000  1.0
  O  O270  1  0.67282000  0.10928000  0.52482000  1.0
  O  O271  1  0.53851000  0.39054000  0.97503000  1.0
  O  O272  1  0.35226000  0.97900000  0.40059000  1.0
  O  O273  1  0.47244000  0.52090000  0.09930000  1.0
  O  O274  1  0.64774000  0.02100000  0.59941000  1.0
  O  O275  1  0.52755000  0.47909000  0.90069000  1.0
  O  O276  1  0.50022000  0.88162000  0.46676000  1.0
  O  O277  1  0.65189000  0.61849000  0.03335000  1.0
  O  O278  1  0.49978000  0.11838000  0.53324000  1.0
  O  O279  1  0.34811000  0.38150000  0.96665000  1.0
  O  O280  1  0.52816000  0.97248000  0.39436000  1.0
  O  O281  1  0.66139000  0.52740000  0.10550000  1.0
  O  O282  1  0.47185000  0.02752000  0.60564000  1.0
  O  O283  1  0.33861000  0.47260000  0.89451000  1.0
  O  O284  1  0.84024000  0.47413000  0.39628000  1.0
  O  O285  1  0.46985000  0.02585000  0.10382000  1.0
  O  O286  1  0.15976000  0.52587000  0.60372000  1.0
  O  O287  1  0.53015000  0.97416000  0.89618000  1.0
  O  O288  1  0.64566000  0.02030000  0.10924000  1.0
  O  O289  1  0.01639000  0.47989000  0.39083000  1.0
  O  O290  1  0.35433000  0.97970000  0.89076000  1.0
  O  O291  1  0.98361000  0.52011000  0.60917000  1.0
  O  O292  1  0.53879000  0.89227000  0.01470000  1.0
  O  O293  1  0.13153000  0.60806000  0.48517000  1.0
  O  O294  1  0.46121000  0.10773000  0.98530000  1.0
  O  O295  1  0.86848000  0.39194000  0.51483000  1.0
  O  O296  1  0.63909000  0.70736000  0.27869000  1.0
  O  O297  1  0.15305000  0.79275000  0.22130000  1.0
  O  O298  1  0.36090000  0.29263000  0.72131000  1.0
  O  O299  1  0.84694000  0.20725000  0.77870000  1.0
  O  O300  1  0.95557000  0.60045000  0.49293000  1.0
  O  O301  1  0.36247000  0.89952000  0.00716000  1.0
  O  O302  1  0.04443000  0.39955000  0.50706000  1.0
  O  O303  1  0.63753000  0.10048000  0.99285000  1.0
  O  O304  1  0.85071000  0.80351000  0.26611000  1.0
  O  O305  1  0.28145000  0.69693000  0.23408000  1.0
  O  O306  1  0.14929000  0.19649000  0.73388000  1.0
  O  O307  1  0.71855000  0.30308000  0.76592000  1.0
  O  O308  1  0.83443000  0.29350000  0.36513000  1.0
  O  O309  1  0.67551000  0.20646000  0.13498000  1.0
  O  O310  1  0.16557000  0.70649000  0.63487000  1.0
  O  O311  1  0.32449000  0.79354000  0.86502000  1.0
