# generated using pymatgen
data_CuH14C15SN3O2
_symmetry_space_group_name_H-M   'P 1'
_cell_length_a   5.64482000
_cell_length_b   5.67242000
_cell_length_c   23.50920000
_cell_angle_alpha   89.99980000
_cell_angle_beta   89.99970000
_cell_angle_gamma   80.38850000
_symmetry_Int_Tables_number   1
_chemical_formula_structural   CuH14C15SN3O2
_chemical_formula_sum   'Cu2 H28 C30 S2 N6 O4'
_cell_volume   742.19281392
_cell_formula_units_Z   2
loop_
 _symmetry_equiv_pos_site_id
 _symmetry_equiv_pos_as_xyz
  1  'x, y, z'
loop_
 _atom_site_type_symbol
 _atom_site_label
 _atom_site_symmetry_multiplicity
 _atom_site_fract_x
 _atom_site_fract_y
 _atom_site_fract_z
 _atom_site_occupancy
  Cu  Cu0  1  0.60348000  0.62718000  0.25000000  1.0
  Cu  Cu1  1  0.39654000  0.37281000  0.75000000  1.0
  H  H2  1  0.54581000  0.25148000  0.15930000  1.0
  H  H3  1  0.45419000  0.74851000  0.65930000  1.0
  H  H4  1  0.45419000  0.74851000  0.84070000  1.0
  H  H5  1  0.54580000  0.25149000  0.34070000  1.0
  H  H6  1  0.23116000  0.20936000  0.08586000  1.0
  H  H7  1  0.76884000  0.79063000  0.58586000  1.0
  H  H8  1  0.76885000  0.79064000  0.91414000  1.0
  H  H9  1  0.23115000  0.20937000  0.41414000  1.0
  H  H10  1  0.52124000  0.70777000  0.01664000  1.0
  H  H11  1  0.47876000  0.29224000  0.51664000  1.0
  H  H12  1  0.47876000  0.29225000  0.98336000  1.0
  H  H13  1  0.52123000  0.70777000  0.48335000  1.0
  H  H14  1  0.73908000  0.89969000  0.03146000  1.0
  H  H15  1  0.26093000  0.10031000  0.53146000  1.0
  H  H16  1  0.26092000  0.10032000  0.96854000  1.0
  H  H17  1  0.73907000  0.89969000  0.46853000  1.0
  H  H18  1  0.55886000  0.81633000  0.08682000  1.0
  H  H19  1  0.44116000  0.18367000  0.58681000  1.0
  H  H20  1  0.44115000  0.18368000  0.91319000  1.0
  H  H21  1  0.55885000  0.81633000  0.41318000  1.0
  H  H22  1  0.90144000  0.93329000  0.12547000  1.0
  H  H23  1  0.09856000  0.06669000  0.62547000  1.0
  H  H24  1  0.09857000  0.06670000  0.87453000  1.0
  H  H25  1  0.90143000  0.93330000  0.37452000  1.0
  H  H26  1  0.22427000  0.94646000  0.19591000  1.0
  H  H27  1  0.77572000  0.05354000  0.69591000  1.0
  H  H28  1  0.77572000  0.05353000  0.80409000  1.0
  H  H29  1  0.22429000  0.94647000  0.30409000  1.0
  C  C30  1  0.39909000  0.39742000  0.15017000  1.0
  C  C31  1  0.60091000  0.60258000  0.65017000  1.0
  C  C32  1  0.60091000  0.60258000  0.84983000  1.0
  C  C33  1  0.39909000  0.39743000  0.34983000  1.0
  C  C34  1  0.22492000  0.37443000  0.10988000  1.0
  C  C35  1  0.77507000  0.62553000  0.60988000  1.0
  C  C36  1  0.77508000  0.62554000  0.89012000  1.0
  C  C37  1  0.22493000  0.37446000  0.39012000  1.0
  C  C38  1  0.03686000  0.56547000  0.10045000  1.0
  C  C39  1  0.96313000  0.43451000  0.60045000  1.0
  C  C40  1  0.96314000  0.43452000  0.89955000  1.0
  C  C41  1  0.03686000  0.56548000  0.39955000  1.0
  C  C42  1  0.83865000  0.53642000  0.06012000  1.0
  C  C43  1  0.16135000  0.46357000  0.56012000  1.0
  C  C44  1  0.16135000  0.46359000  0.93988000  1.0
  C  C45  1  0.83864000  0.53643000  0.43988000  1.0
  C  C46  1  0.65301000  0.75221000  0.04730000  1.0
  C  C47  1  0.34699000  0.24779000  0.54730000  1.0
  C  C48  1  0.34699000  0.24780000  0.95270000  1.0
  C  C49  1  0.65300000  0.75222000  0.45270000  1.0
  C  C50  1  0.03900000  0.77630000  0.13128000  1.0
  C  C51  1  0.96099000  0.22368000  0.63128000  1.0
  C  C52  1  0.96100000  0.22369000  0.86872000  1.0
  C  C53  1  0.03900000  0.77631000  0.36872000  1.0
  C  C54  1  0.21965000  0.78506000  0.17093000  1.0
  C  C55  1  0.78035000  0.21492000  0.67093000  1.0
  C  C56  1  0.78036000  0.21492000  0.82906000  1.0
  C  C57  1  0.21964000  0.78507000  0.32906000  1.0
  C  C58  1  0.79483000  0.10595000  0.25000000  1.0
  C  C59  1  0.20515000  0.89403000  0.75000000  1.0
  S  S60  1  0.93700000  0.33396000  0.25000000  1.0
  S  S61  1  0.06301000  0.66604000  0.75000000  1.0
  N  N62  1  0.39625000  0.59825000  0.18131000  1.0
  N  N63  1  0.60375000  0.40173000  0.68131000  1.0
  N  N64  1  0.60375000  0.40173000  0.81869000  1.0
  N  N65  1  0.39626000  0.59826000  0.31869000  1.0
  N  N66  1  0.69654000  0.93697000  0.25000000  1.0
  N  N67  1  0.30347000  0.06305000  0.75000000  1.0
  O  O68  1  0.82981000  0.33782000  0.03933000  1.0
  O  O69  1  0.17020000  0.66217000  0.53933000  1.0
  O  O70  1  0.17019000  0.66219000  0.96067000  1.0
  O  O71  1  0.82981000  0.33784000  0.46067000  1.0
