# generated using pymatgen
data_Zn2H33C47N3(ClO4)2
_symmetry_space_group_name_H-M   'P 1'
_cell_length_a   10.90820000
_cell_length_b   14.62230000
_cell_length_c   15.52580000
_cell_angle_alpha   79.96200000
_cell_angle_beta   88.90520000
_cell_angle_gamma   71.90100000
_symmetry_Int_Tables_number   1
_chemical_formula_structural   Zn2H33C47N3(ClO4)2
_chemical_formula_sum   'Zn2 H33 C47 N3 Cl2 O8'
_cell_volume   2316.22393784
_cell_formula_units_Z   1
loop_
 _symmetry_equiv_pos_site_id
 _symmetry_equiv_pos_as_xyz
  1  'x, y, z'
loop_
 _atom_site_type_symbol
 _atom_site_label
 _atom_site_symmetry_multiplicity
 _atom_site_fract_x
 _atom_site_fract_y
 _atom_site_fract_z
 _atom_site_occupancy
  Zn  Zn0  1  0.46357000  0.59554000  0.51737000  1.0
  Zn  Zn1  1  0.54648000  0.40522000  0.48404000  1.0
  H  H2  1  0.83814000  0.65105000  0.44532000  1.0
  H  H3  1  0.86315000  0.57415000  0.36652000  1.0
  H  H4  1  0.31088000  0.63210000  0.85179000  1.0
  H  H5  1  0.52941000  0.18781000  0.91612000  1.0
  H  H6  1  0.72873000  0.97429000  0.32355000  1.0
  H  H7  1  0.54206000  0.76565000  0.46244000  1.0
  H  H8  1  0.29082000  0.70109000  0.64648000  1.0
  H  H9  1  0.26546000  0.03293000  0.66711000  1.0
  H  H10  1  0.76213000  0.13916000  0.30224000  1.0
  H  H11  1  0.71207000  0.30282000  0.34920000  1.0
  H  H12  1  0.46491000  0.23702000  0.53601000  1.0
  H  H13  1  0.17484000  0.34237000  0.53616000  1.0
  H  H14  1  0.08153000  0.56325000  0.36043000  1.0
  H  H15  1  0.62512000  0.85887000  0.39990000  1.0
  H  H16  1  0.36963000  0.14809000  0.59121000  1.0
  H  H17  1  0.23579000  0.86660000  0.69065000  1.0
  H  H18  1  0.05361000  0.64958000  0.43115000  1.0
  H  H19  1  0.85808000  0.58649000  0.60005000  1.0
  H  H20  1  0.07052000  0.59049000  0.59686000  1.0
  H  H21  1  0.96205000  0.33964000  0.52897000  1.0
  H  H22  1  0.94768000  0.38972000  0.41681000  1.0
  H  H23  1  0.16531000  0.38272000  0.42210000  1.0
  H  H24  1  0.12451000  0.46389000  0.63932000  1.0
  H  H25  1  0.34255000  0.40290000  0.20700000  1.0
  H  H26  1  0.36840000  0.24903000  0.27996000  1.0
  H  H27  1  0.48789000  0.19795000  0.20762000  1.0
  H  H28  1  0.32125000  0.22925000  0.17662000  1.0
  H  H29  1  0.24911000  0.75802000  0.94397000  1.0
  H  H30  1  0.41966000  0.53860000  0.78102000  1.0
  H  H31  1  0.55538000  0.23760000  0.75636000  1.0
  H  H32  1  0.46083000  0.23260000  0.05861000  1.0
  H  H33  1  0.33888000  0.76021000  0.24620000  1.0
  H  H34  1  0.47802000  0.45935000  0.22154000  1.0
  C  C35  1  0.46504000  0.57547000  0.33415000  1.0
  C  C36  1  0.37595000  0.55560000  0.10410000  1.0
  C  C37  1  0.32269000  0.65698000  0.06494000  1.0
  C  C38  1  0.74449000  0.49851000  0.50180000  1.0
  C  C39  1  0.38941000  0.48091000  0.05090000  1.0
  C  C40  1  0.38039000  0.50949000  0.95866000  1.0
  C  C41  1  0.32773000  0.61084000  0.92241000  1.0
  C  C42  1  0.29357000  0.68165000  0.97338000  1.0
  C  C43  1  0.41038000  0.37816000  0.08706000  1.0
  C  C44  1  0.44416000  0.30965000  0.03193000  1.0
  C  C45  1  0.45810000  0.33613000  0.94096000  1.0
  C  C46  1  0.12481000  0.49907000  0.49749000  1.0
  C  C47  1  0.42312000  0.43730000  0.90248000  1.0
  C  C48  1  0.50380000  0.26499000  0.88638000  1.0
  C  C49  1  0.51825000  0.29206000  0.79809000  1.0
  C  C50  1  0.50633000  0.42366000  0.66569000  1.0
  C  C51  1  0.43962000  0.46263000  0.81242000  1.0
  C  C52  1  0.69558000  0.15781000  0.35441000  1.0
  C  C53  1  0.66946000  0.24742000  0.37967000  1.0
  C  C54  1  0.52898000  0.21040000  0.48489000  1.0
  C  C55  1  0.54810000  0.11709000  0.46380000  1.0
  C  C56  1  0.63608000  0.08968000  0.39663000  1.0
  C  C57  1  0.06632000  0.51921000  0.58615000  1.0
  C  C58  1  0.48451000  0.04988000  0.50803000  1.0
  C  C59  1  0.51343000  0.95598000  0.48504000  1.0
  C  C60  1  0.60268000  0.93088000  0.41784000  1.0
  C  C61  1  0.66121000  0.99509000  0.37478000  1.0
  C  C62  1  0.26291000  0.50368000  0.49652000  1.0
  C  C63  1  0.39356000  0.07558000  0.57419000  1.0
  C  C64  1  0.33464000  0.01147000  0.61694000  1.0
  C  C65  1  0.36216000  0.91602000  0.59652000  1.0
  C  C66  1  0.45138000  0.88817000  0.53013000  1.0
  C  C67  1  0.30385000  0.84742000  0.63940000  1.0
  C  C68  1  0.11834000  0.39927000  0.48324000  1.0
  C  C69  1  0.33312000  0.75668000  0.61597000  1.0
  C  C70  1  0.47470000  0.79335000  0.51157000  1.0
  C  C71  1  0.90017000  0.58142000  0.42952000  1.0
  C  C72  1  0.04296000  0.57892000  0.42414000  1.0
  C  C73  1  0.92565000  0.51721000  0.58796000  1.0
  C  C74  1  0.97661000  0.39965000  0.48112000  1.0
  C  C75  1  0.88564000  0.49692000  0.50028000  1.0
  C  C76  1  0.39217000  0.25174000  0.21082000  1.0
  C  C77  1  0.41292000  0.60571000  0.24129000  1.0
  C  C78  1  0.48757000  0.39211000  0.76035000  1.0
  C  C79  1  0.30800000  0.72855000  0.11914000  1.0
  C  C80  1  0.35035000  0.70452000  0.20577000  1.0
  C  C81  1  0.42432000  0.53365000  0.19153000  1.0
  N  N82  1  0.58779000  0.27233000  0.44492000  1.0
  N  N83  1  0.41762000  0.73070000  0.55244000  1.0
  N  N84  1  0.39347000  0.34949000  0.17476000  1.0
  Cl  Cl85  1  0.90424000  0.42808000  0.67923000  1.0
  Cl  Cl86  1  0.23810000  0.85175000  0.07472000  1.0
  O  O87  1  0.43703000  0.64036000  0.38287000  1.0
  O  O88  1  0.53103000  0.48610000  0.35766000  1.0
  O  O89  1  0.65952000  0.57937000  0.50776000  1.0
  O  O90  1  0.72326000  0.41899000  0.49654000  1.0
  O  O91  1  0.49242000  0.51429000  0.64028000  1.0
  O  O92  1  0.53361000  0.35903000  0.61651000  1.0
  O  O93  1  0.28058000  0.57901000  0.51767000  1.0
  O  O94  1  0.35003000  0.43226000  0.47365000  1.0
