# generated using pymatgen
data_AlH7(C2O)5
_symmetry_space_group_name_H-M   'P 1'
_cell_length_a   7.05201000
_cell_length_b   11.18505885
_cell_length_c   11.18533253
_cell_angle_alpha   77.84474803
_cell_angle_beta   71.67097385
_cell_angle_gamma   71.67542084
_symmetry_Int_Tables_number   1
_chemical_formula_structural   AlH7(C2O)5
_chemical_formula_sum   'Al2 H14 C20 O10'
_cell_volume   788.90654236
_cell_formula_units_Z   2
loop_
 _symmetry_equiv_pos_site_id
 _symmetry_equiv_pos_as_xyz
  1  'x, y, z'
loop_
 _atom_site_type_symbol
 _atom_site_label
 _atom_site_symmetry_multiplicity
 _atom_site_fract_x
 _atom_site_fract_y
 _atom_site_fract_z
 _atom_site_occupancy
  Al  Al0  1  0.49976000  0.50004000  0.50049000  1.0
  Al  Al1  1  0.00025000  0.49950000  0.49995000  1.0
  H  H2  1  0.25003000  0.62650000  0.37344000  1.0
  H  H3  1  0.75003000  0.37292000  0.62701000  1.0
  H  H4  1  0.23903000  0.49935000  0.11840000  1.0
  H  H5  1  0.35669000  0.50064000  0.88276000  1.0
  H  H6  1  0.65388000  0.41668000  0.89013000  1.0
  H  H7  1  0.58011000  0.58614000  0.87029000  1.0
  H  H8  1  0.46048000  0.58405000  0.10907000  1.0
  H  H9  1  0.53604000  0.41457000  0.12888000  1.0
  H  H10  1  0.14331000  0.11720000  0.49937000  1.0
  H  H11  1  0.26103000  0.88156000  0.50065000  1.0
  H  H12  1  0.03952000  0.89097000  0.41594000  1.0
  H  H13  1  0.96398000  0.87115000  0.58541000  1.0
  H  H14  1  0.84607000  0.10989000  0.58333000  1.0
  H  H15  1  0.91986000  0.12976000  0.41387000  1.0
  C  C16  1  0.63910000  0.72396000  0.49979000  1.0
  C  C17  1  0.86094000  0.50021000  0.27603000  1.0
  C  C18  1  0.36241000  0.27564000  0.50036000  1.0
  C  C19  1  0.13756000  0.49965000  0.72435000  1.0
  C  C20  1  0.06504000  0.50069000  0.86411000  1.0
  C  C21  1  0.92908000  0.49963000  0.13622000  1.0
  C  C22  1  0.86393000  0.50066000  0.93418000  1.0
  C  C23  1  0.13324000  0.49975000  0.06599000  1.0
  C  C24  1  0.79823000  0.50004000  0.06573000  1.0
  C  C25  1  0.19878000  0.50042000  0.93474000  1.0
  C  C26  1  0.65559000  0.50098000  0.92497000  1.0
  C  C27  1  0.58123000  0.49975000  0.07436000  1.0
  C  C28  1  0.57096000  0.86377000  0.50036000  1.0
  C  C29  1  0.43495000  0.13587000  0.49932000  1.0
  C  C30  1  0.70179000  0.93428000  0.49996000  1.0
  C  C31  1  0.30121000  0.06523000  0.49959000  1.0
  C  C32  1  0.63605000  0.06583000  0.49935000  1.0
  C  C33  1  0.36680000  0.93398000  0.50025000  1.0
  C  C34  1  0.91877000  0.92567000  0.50024000  1.0
  C  C35  1  0.84440000  0.07505000  0.49902000  1.0
  O  O36  1  0.50384000  0.67067000  0.49882000  1.0
  O  O37  1  0.99618000  0.50118000  0.32931000  1.0
  O  O38  1  0.17311000  0.32882000  0.50112000  1.0
  O  O39  1  0.32687000  0.49888000  0.67117000  1.0
  O  O40  1  0.49699000  0.32924000  0.50186000  1.0
  O  O41  1  0.00298000  0.49813000  0.67077000  1.0
  O  O42  1  0.82842000  0.67042000  0.49883000  1.0
  O  O43  1  0.67160000  0.50115000  0.32958000  1.0
  O  O44  1  0.25004000  0.55762000  0.44237000  1.0
  O  O45  1  0.74995000  0.44187000  0.55813000  1.0
