# generated using pymatgen
data_ZnH14C14(NO2)2
_symmetry_space_group_name_H-M   'P 1'
_cell_length_a   7.93813000
_cell_length_b   9.06605000
_cell_length_c   10.65710000
_cell_angle_alpha   109.54800000
_cell_angle_beta   100.17200000
_cell_angle_gamma   100.70400000
_symmetry_Int_Tables_number   1
_chemical_formula_structural   ZnH14C14(NO2)2
_chemical_formula_sum   'Zn2 H28 C28 N4 O8'
_cell_volume   686.16904933
_cell_formula_units_Z   2
loop_
 _symmetry_equiv_pos_site_id
 _symmetry_equiv_pos_as_xyz
  1  'x, y, z'
loop_
 _atom_site_type_symbol
 _atom_site_label
 _atom_site_symmetry_multiplicity
 _atom_site_fract_x
 _atom_site_fract_y
 _atom_site_fract_z
 _atom_site_occupancy
  Zn  Zn0  1  0.16317000  0.98261000  0.65091000  1.0
  Zn  Zn1  1  0.83683000  0.01739000  0.34909000  1.0
  H  H2  1  0.98475000  0.62444000  0.49150000  1.0
  H  H3  1  0.01525000  0.37556000  0.50850000  1.0
  H  H4  1  0.96576000  0.39978000  0.27514000  1.0
  H  H5  1  0.03424000  0.60022000  0.72486000  1.0
  H  H6  1  0.35627000  0.74446000  0.19905000  1.0
  H  H7  1  0.64373000  0.25555000  0.80095000  1.0
  H  H8  1  0.35617000  0.94616000  0.41452000  1.0
  H  H9  1  0.64383000  0.05384000  0.58547000  1.0
  H  H10  1  0.34283000  0.34397000  0.81037000  1.0
  H  H11  1  0.65717000  0.65603000  0.18964000  1.0
  H  H12  1  0.35467000  0.56777000  0.02705000  1.0
  H  H13  1  0.64533000  0.43223000  0.97295000  1.0
  H  H14  1  0.95084000  0.22914000  0.09378000  1.0
  H  H15  1  0.04916000  0.77086000  0.90622000  1.0
  H  H16  1  0.95871000  0.02262000  0.87342000  1.0
  H  H17  1  0.04129000  0.97738000  0.12658000  1.0
  H  H18  1  0.67549000  0.64148000  0.61443000  1.0
  H  H19  1  0.32451000  0.35853000  0.38557000  1.0
  H  H20  1  0.50514000  0.70595000  0.52953000  1.0
  H  H21  1  0.49486000  0.29405000  0.47047000  1.0
  H  H22  1  0.60162000  0.56272000  0.43003000  1.0
  H  H23  1  0.39838000  0.43728000  0.56996000  1.0
  H  H24  1  0.42787000  0.71634000  0.89296000  1.0
  H  H25  1  0.57213000  0.28366000  0.10704000  1.0
  H  H26  1  0.59651000  0.90391000  0.96031000  1.0
  H  H27  1  0.40349000  0.09609000  0.03969000  1.0
  H  H28  1  0.59072000  0.75398000  0.80248000  1.0
  H  H29  1  0.40928000  0.24601000  0.19752000  1.0
  C  C30  1  0.06427000  0.64406000  0.42225000  1.0
  C  C31  1  0.93573000  0.35594000  0.57775000  1.0
  C  C32  1  0.05513000  0.51880000  0.30064000  1.0
  C  C33  1  0.94486000  0.48120000  0.69936000  1.0
  C  C34  1  0.15952000  0.54898000  0.21354000  1.0
  C  C35  1  0.84048000  0.45102000  0.78646000  1.0
  C  C36  1  0.26959000  0.70656000  0.25730000  1.0
  C  C37  1  0.73040000  0.29344000  0.74270000  1.0
  C  C38  1  0.27047000  0.82435000  0.38093000  1.0
  C  C39  1  0.72952000  0.17565000  0.61906000  1.0
  C  C40  1  0.26058000  0.32501000  0.87824000  1.0
  C  C41  1  0.73942000  0.67499000  0.12176000  1.0
  C  C42  1  0.26481000  0.44896000  0.99912000  1.0
  C  C43  1  0.73519000  0.55104000  0.00088000  1.0
  C  C44  1  0.15477000  0.41969000  0.08259000  1.0
  C  C45  1  0.84523000  0.58031000  0.91741000  1.0
  C  C46  1  0.04196000  0.26236000  0.03611000  1.0
  C  C47  1  0.95805000  0.73764000  0.96390000  1.0
  C  C48  1  0.04566000  0.14518000  0.91331000  1.0
  C  C49  1  0.95434000  0.85481000  0.08669000  1.0
  C  C50  1  0.76561000  0.80730000  0.51935000  1.0
  C  C51  1  0.23439000  0.19271000  0.48065000  1.0
  C  C52  1  0.62958000  0.67051000  0.52476000  1.0
  C  C53  1  0.37042000  0.32949000  0.47524000  1.0
  C  C54  1  0.38968000  0.88085000  0.78919000  1.0
  C  C55  1  0.61031000  0.11915000  0.21080000  1.0
  C  C56  1  0.50677000  0.80819000  0.86603000  1.0
  C  C57  1  0.49323000  0.19181000  0.13397000  1.0
  N  N58  1  0.16861000  0.79539000  0.46265000  1.0
  N  N59  1  0.83139000  0.20461000  0.53735000  1.0
  N  N60  1  0.15364000  0.17442000  0.83535000  1.0
  N  N61  1  0.84636000  0.82558000  0.16466000  1.0
  O  O62  1  0.89706000  0.88396000  0.62353000  1.0
  O  O63  1  0.10294000  0.11604000  0.37647000  1.0
  O  O64  1  0.45906000  0.98533000  0.74563000  1.0
  O  O65  1  0.54094000  0.01466000  0.25436000  1.0
  O  O66  1  0.22057000  0.83418000  0.76956000  1.0
  O  O67  1  0.77943000  0.16581000  0.23044000  1.0
  O  O68  1  0.73592000  0.83464000  0.40895000  1.0
  O  O69  1  0.26407000  0.16536000  0.59105000  1.0
