# generated using pymatgen
data_AgH6C8SN5O3
_symmetry_space_group_name_H-M   'P 1'
_cell_length_a   6.14777000
_cell_length_b   7.87393000
_cell_length_c   22.62440000
_cell_angle_alpha   90.00090000
_cell_angle_beta   89.99930000
_cell_angle_gamma   89.99840000
_symmetry_Int_Tables_number   1
_chemical_formula_structural   AgH6C8SN5O3
_chemical_formula_sum   'Ag4 H24 C32 S4 N20 O12'
_cell_volume   1095.18183323
_cell_formula_units_Z   4
loop_
 _symmetry_equiv_pos_site_id
 _symmetry_equiv_pos_as_xyz
  1  'x, y, z'
loop_
 _atom_site_type_symbol
 _atom_site_label
 _atom_site_symmetry_multiplicity
 _atom_site_fract_x
 _atom_site_fract_y
 _atom_site_fract_z
 _atom_site_occupancy
  Ag  Ag0  1  0.39120000  0.27799000  0.42905000  1.0
  Ag  Ag1  1  0.10880000  0.72202000  0.92904000  1.0
  Ag  Ag2  1  0.60880000  0.77799000  0.07096000  1.0
  Ag  Ag3  1  0.89121000  0.22202000  0.57095000  1.0
  H  H4  1  0.42690000  0.39202000  0.29629000  1.0
  H  H5  1  0.07311000  0.60798000  0.79629000  1.0
  H  H6  1  0.57311000  0.89204000  0.20372000  1.0
  H  H7  1  0.92689000  0.10799000  0.70371000  1.0
  H  H8  1  0.18737000  0.50575000  0.21358000  1.0
  H  H9  1  0.31265000  0.49424000  0.71358000  1.0
  H  H10  1  0.81265000  0.00577000  0.28642000  1.0
  H  H11  1  0.68736000  0.99424000  0.78642000  1.0
  H  H12  1  0.77918000  0.51361000  0.23276000  1.0
  H  H13  1  0.72084000  0.48639000  0.73276000  1.0
  H  H14  1  0.22084000  0.01359000  0.26724000  1.0
  H  H15  1  0.27917000  0.98638000  0.76723000  1.0
  H  H16  1  0.96767000  0.75039000  0.35946000  1.0
  H  H17  1  0.53232000  0.24960000  0.85946000  1.0
  H  H18  1  0.03230000  0.25041000  0.14054000  1.0
  H  H19  1  0.46768000  0.74958000  0.64054000  1.0
  H  H20  1  0.94430000  0.62446000  0.46355000  1.0
  H  H21  1  0.55568000  0.37553000  0.96355000  1.0
  H  H22  1  0.05567000  0.12448000  0.03645000  1.0
  H  H23  1  0.44431000  0.87552000  0.53646000  1.0
  H  H24  1  0.90973000  0.82755000  0.54797000  1.0
  H  H25  1  0.59026000  0.17245000  0.04797000  1.0
  H  H26  1  0.09024000  0.32755000  0.95203000  1.0
  H  H27  1  0.40977000  0.67247000  0.45204000  1.0
  C  C28  1  0.25043000  0.40184000  0.30049000  1.0
  C  C29  1  0.24958000  0.59816000  0.80049000  1.0
  C  C30  1  0.74958000  0.90186000  0.19951000  1.0
  C  C31  1  0.75041000  0.09816000  0.69950000  1.0
  C  C32  1  0.11809000  0.46365000  0.25542000  1.0
  C  C33  1  0.38193000  0.53634000  0.75542000  1.0
  C  C34  1  0.88192000  0.96366000  0.24458000  1.0
  C  C35  1  0.61808000  0.03635000  0.74458000  1.0
  C  C36  1  0.89491000  0.46897000  0.26603000  1.0
  C  C37  1  0.60511000  0.53102000  0.76603000  1.0
  C  C38  1  0.10511000  0.96897000  0.23397000  1.0
  C  C39  1  0.39489000  0.03103000  0.73396000  1.0
  C  C40  1  0.94825000  0.36133000  0.35809000  1.0
  C  C41  1  0.55176000  0.63867000  0.85809000  1.0
  C  C42  1  0.05175000  0.86133000  0.14191000  1.0
  C  C43  1  0.44824000  0.13867000  0.64191000  1.0
  C  C44  1  0.89852000  0.09303000  0.43656000  1.0
  C  C45  1  0.60148000  0.90696000  0.93656000  1.0
  C  C46  1  0.10147000  0.59304000  0.06343000  1.0
  C  C47  1  0.39852000  0.40696000  0.56344000  1.0
  C  C48  1  0.94401000  0.82921000  0.39858000  1.0
  C  C49  1  0.55598000  0.17077000  0.89858000  1.0
  C  C50  1  0.05596000  0.32923000  0.10141000  1.0
  C  C51  1  0.44402000  0.67076000  0.60142000  1.0
  C  C52  1  0.93287000  0.76004000  0.45511000  1.0
  C  C53  1  0.56711000  0.23995000  0.95510000  1.0
  C  C54  1  0.06708000  0.26006000  0.04490000  1.0
  C  C55  1  0.43290000  0.73993000  0.54490000  1.0
  C  C56  1  0.91190000  0.87204000  0.50220000  1.0
  C  C57  1  0.58810000  0.12795000  0.00221000  1.0
  C  C58  1  0.08809000  0.37205000  0.99779000  1.0
  C  C59  1  0.41192000  0.62796000  0.49780000  1.0
  S  S60  1  0.83887000  0.31191000  0.42930000  1.0
  S  S61  1  0.66113000  0.68809000  0.92931000  1.0
  S  S62  1  0.16112000  0.81192000  0.07069000  1.0
  S  S63  1  0.33887000  0.18808000  0.57069000  1.0
  N  N64  1  0.16574000  0.35312000  0.35278000  1.0
  N  N65  1  0.33427000  0.64688000  0.85278000  1.0
  N  N66  1  0.83426000  0.85313000  0.14723000  1.0
  N  N67  1  0.66573000  0.14689000  0.64722000  1.0
  N  N68  1  0.80793000  0.41590000  0.31763000  1.0
  N  N69  1  0.69209000  0.58410000  0.81763000  1.0
  N  N70  1  0.19208000  0.91589000  0.18237000  1.0
  N  N71  1  0.30791000  0.08410000  0.68237000  1.0
  N  N72  1  0.89619000  0.04057000  0.49320000  1.0
  N  N73  1  0.60380000  0.95943000  0.99320000  1.0
  N  N74  1  0.10380000  0.54058000  0.00680000  1.0
  N  N75  1  0.39620000  0.45943000  0.50680000  1.0
  N  N76  1  0.92577000  0.99691000  0.38894000  1.0
  N  N77  1  0.57423000  0.00309000  0.88894000  1.0
  N  N78  1  0.07421000  0.49692000  0.11106000  1.0
  N  N79  1  0.42577000  0.50306000  0.61106000  1.0
  N  N80  1  0.43822000  0.93070000  0.37208000  1.0
  N  N81  1  0.06178000  0.06930000  0.87207000  1.0
  N  N82  1  0.56178000  0.43071000  0.12792000  1.0
  N  N83  1  0.93823000  0.56931000  0.62792000  1.0
  O  O84  1  0.41864000  0.97843000  0.42664000  1.0
  O  O85  1  0.08137000  0.02157000  0.92664000  1.0
  O  O86  1  0.58135000  0.47843000  0.07335000  1.0
  O  O87  1  0.91865000  0.52158000  0.57335000  1.0
  O  O88  1  0.46885000  0.04122000  0.33262000  1.0
  O  O89  1  0.03115000  0.95879000  0.83262000  1.0
  O  O90  1  0.53115000  0.54122000  0.16737000  1.0
  O  O91  1  0.96885000  0.45879000  0.66737000  1.0
  O  O92  1  0.42662000  0.77500000  0.36007000  1.0
  O  O93  1  0.07338000  0.22501000  0.86006000  1.0
  O  O94  1  0.57339000  0.27501000  0.13994000  1.0
  O  O95  1  0.92662000  0.72500000  0.63993000  1.0
