# generated using pymatgen
data_CdH18C20(N6O)2
_symmetry_space_group_name_H-M   'P 1'
_cell_length_a   7.39596000
_cell_length_b   11.75340000
_cell_length_c   13.03900000
_cell_angle_alpha   90.00000000
_cell_angle_beta   90.00000000
_cell_angle_gamma   92.95290000
_symmetry_Int_Tables_number   1
_chemical_formula_structural   CdH18C20(N6O)2
_chemical_formula_sum   'Cd2 H36 C40 N24 O4'
_cell_volume   1131.94499872
_cell_formula_units_Z   2
loop_
 _symmetry_equiv_pos_site_id
 _symmetry_equiv_pos_as_xyz
  1  'x, y, z'
loop_
 _atom_site_type_symbol
 _atom_site_label
 _atom_site_symmetry_multiplicity
 _atom_site_fract_x
 _atom_site_fract_y
 _atom_site_fract_z
 _atom_site_occupancy
  Cd  Cd0  1  0.00000000  0.50000000  0.00000000  1.0
  Cd  Cd1  1  0.50000000  0.00000000  0.50000000  1.0
  H  H2  1  0.57803000  0.73760000  0.97643000  1.0
  H  H3  1  0.92198000  0.76240000  0.47643000  1.0
  H  H4  1  0.42199000  0.26241000  0.02357000  1.0
  H  H5  1  0.07801000  0.23759000  0.52357000  1.0
  H  H6  1  0.72615000  0.76252000  0.14686000  1.0
  H  H7  1  0.77385000  0.73748000  0.64686000  1.0
  H  H8  1  0.27386000  0.23749000  0.85314000  1.0
  H  H9  1  0.22614000  0.26252000  0.35314000  1.0
  H  H10  1  0.87488000  0.94707000  0.19669000  1.0
  H  H11  1  0.62511000  0.55293000  0.69669000  1.0
  H  H12  1  0.12512000  0.05294000  0.80331000  1.0
  H  H13  1  0.37488000  0.44707000  0.30332000  1.0
  H  H14  1  0.99874000  0.10983000  0.23283000  1.0
  H  H15  1  0.50126000  0.39017000  0.73283000  1.0
  H  H16  1  0.00127000  0.89017000  0.76717000  1.0
  H  H17  1  0.49873000  0.60983000  0.26717000  1.0
  H  H18  1  0.08102000  0.34116000  0.22066000  1.0
  H  H19  1  0.41898000  0.15885000  0.72066000  1.0
  H  H20  1  0.91898000  0.65885000  0.77934000  1.0
  H  H21  1  0.58102000  0.84115000  0.27934000  1.0
  H  H22  1  0.84697000  0.23401000  0.94099000  1.0
  H  H23  1  0.65301000  0.26599000  0.44098000  1.0
  H  H24  1  0.15303000  0.76600000  0.05902000  1.0
  H  H25  1  0.34698000  0.73400000  0.55902000  1.0
  H  H26  1  0.74402000  0.08168000  0.89845000  1.0
  H  H27  1  0.75599000  0.41831000  0.39846000  1.0
  H  H28  1  0.25599000  0.91832000  0.10154000  1.0
  H  H29  1  0.24400000  0.58169000  0.60154000  1.0
  H  H30  1  0.71128000  0.40899000  0.88265000  1.0
  H  H31  1  0.78872000  0.09101000  0.38265000  1.0
  H  H32  1  0.28872000  0.59101000  0.11735000  1.0
  H  H33  1  0.21129000  0.90899000  0.61735000  1.0
  H  H34  1  0.59680000  0.51293000  0.91707000  1.0
  H  H35  1  0.90320000  0.98707000  0.41707000  1.0
  H  H36  1  0.40319000  0.48708000  0.08292000  1.0
  H  H37  1  0.09680000  0.01292000  0.58293000  1.0
  C  C38  1  0.64543000  0.81880000  0.99755000  1.0
  C  C39  1  0.85457000  0.68119000  0.49755000  1.0
  C  C40  1  0.35458000  0.18120000  0.00246000  1.0
  C  C41  1  0.14542000  0.31880000  0.50245000  1.0
  C  C42  1  0.81508000  0.02901000  0.05250000  1.0
  C  C43  1  0.68492000  0.47099000  0.55250000  1.0
  C  C44  1  0.18493000  0.97099000  0.94750000  1.0
  C  C45  1  0.31507000  0.52901000  0.44750000  1.0
  C  C46  1  0.65587000  0.90881000  0.92677000  1.0
  C  C47  1  0.84414000  0.59119000  0.42677000  1.0
  C  C48  1  0.34415000  0.09119000  0.07323000  1.0
  C  C49  1  0.15585000  0.40881000  0.57323000  1.0
  C  C50  1  0.72583000  0.83384000  0.09352000  1.0
  C  C51  1  0.77417000  0.66616000  0.59352000  1.0
  C  C52  1  0.27418000  0.16617000  0.90648000  1.0
  C  C53  1  0.22581000  0.33384000  0.40648000  1.0
  C  C54  1  0.81059000  0.93810000  0.12182000  1.0
  C  C55  1  0.68941000  0.56190000  0.62182000  1.0
  C  C56  1  0.18942000  0.06190000  0.87818000  1.0
  C  C57  1  0.31059000  0.43810000  0.37818000  1.0
  C  C58  1  0.97557000  0.16965000  0.17192000  1.0
  C  C59  1  0.52443000  0.33035000  0.67192000  1.0
  C  C60  1  0.02443000  0.83036000  0.82808000  1.0
  C  C61  1  0.47557000  0.66965000  0.32808000  1.0
  C  C62  1  0.02035000  0.28373000  0.16408000  1.0
  C  C63  1  0.47965000  0.21626000  0.66408000  1.0
  C  C64  1  0.97965000  0.71628000  0.83592000  1.0
  C  C65  1  0.52035000  0.78373000  0.33592000  1.0
  C  C66  1  0.58145000  0.89709000  0.82314000  1.0
  C  C67  1  0.91856000  0.60291000  0.32314000  1.0
  C  C68  1  0.41856000  0.10291000  0.17686000  1.0
  C  C69  1  0.08144000  0.39709000  0.67686000  1.0
  C  C70  1  0.89649000  0.23204000  0.01909000  1.0
  C  C71  1  0.60350000  0.26796000  0.51908000  1.0
  C  C72  1  0.10351000  0.76796000  0.98091000  1.0
  C  C73  1  0.39650000  0.73204000  0.48092000  1.0
  C  C74  1  0.73973000  0.01356000  0.95496000  1.0
  C  C75  1  0.76029000  0.48644000  0.45495000  1.0
  C  C76  1  0.26029000  0.98644000  0.04504000  1.0
  C  C77  1  0.23971000  0.51356000  0.54504000  1.0
  N  N78  1  0.89622000  0.13716000  0.07934000  1.0
  N  N79  1  0.60378000  0.36284000  0.57933000  1.0
  N  N80  1  0.10378000  0.86284000  0.92067000  1.0
  N  N81  1  0.39622000  0.63716000  0.42067000  1.0
  N  N82  1  0.64436000  0.95971000  0.74226000  1.0
  N  N83  1  0.85565000  0.54028000  0.24226000  1.0
  N  N84  1  0.35565000  0.04028000  0.25774000  1.0
  N  N85  1  0.14434000  0.45972000  0.75774000  1.0
  N  N86  1  0.97113000  0.32132000  0.06815000  1.0
  N  N87  1  0.52886000  0.17868000  0.56815000  1.0
  N  N88  1  0.02886000  0.67869000  0.93185000  1.0
  N  N89  1  0.47114000  0.82131000  0.43185000  1.0
  N  N90  1  0.43696000  0.82803000  0.79720000  1.0
  N  N91  1  0.06305000  0.67197000  0.29720000  1.0
  N  N92  1  0.56305000  0.17197000  0.20280000  1.0
  N  N93  1  0.93694000  0.32803000  0.70280000  1.0
  N  N94  1  0.40701000  0.85019000  0.69856000  1.0
  N  N95  1  0.09300000  0.64981000  0.19856000  1.0
  N  N96  1  0.59300000  0.14981000  0.30144000  1.0
  N  N97  1  0.90700000  0.35019000  0.80144000  1.0
  N  N98  1  0.53292000  0.92817000  0.66606000  1.0
  N  N99  1  0.96708000  0.57183000  0.16606000  1.0
  N  N100  1  0.46708000  0.07183000  0.33394000  1.0
  N  N101  1  0.03291000  0.42817000  0.83394000  1.0
  O  O102  1  0.66947000  0.45226000  0.94280000  1.0
  O  O103  1  0.83053000  0.04774000  0.44280000  1.0
  O  O104  1  0.33052000  0.54774000  0.05719000  1.0
  O  O105  1  0.16948000  0.95225000  0.55720000  1.0
