# generated using pymatgen
data_Zn4H34C51N4O15
_symmetry_space_group_name_H-M   'P 1'
_cell_length_a   15.32170000
_cell_length_b   15.53790000
_cell_length_c   19.45630000
_cell_angle_alpha   81.20880000
_cell_angle_beta   76.63750000
_cell_angle_gamma   72.65260000
_symmetry_Int_Tables_number   1
_chemical_formula_structural   Zn4H34C51N4O15
_chemical_formula_sum   'Zn4 H34 C51 N4 O15'
_cell_volume   4283.92401646
_cell_formula_units_Z   1
loop_
 _symmetry_equiv_pos_site_id
 _symmetry_equiv_pos_as_xyz
  1  'x, y, z'
loop_
 _atom_site_type_symbol
 _atom_site_label
 _atom_site_symmetry_multiplicity
 _atom_site_fract_x
 _atom_site_fract_y
 _atom_site_fract_z
 _atom_site_occupancy
  Zn  Zn0  1  0.40315000  0.58022000  0.45342000  1.0
  Zn  Zn1  1  0.42178000  0.44612000  0.59193000  1.0
  Zn  Zn2  1  0.57179000  0.54054000  0.53618000  1.0
  Zn  Zn3  1  0.57559000  0.39285000  0.44168000  1.0
  H  H4  1  0.39450000  0.63467000  0.23794000  1.0
  H  H5  1  0.62261000  0.50079000  0.74963000  1.0
  H  H6  1  0.40138000  0.61685000  0.00522000  1.0
  H  H7  1  0.64410000  0.41067000  0.09389000  1.0
  H  H8  1  0.62511000  0.51427000  0.87383000  1.0
  H  H9  1  0.62698000  0.39667000  0.22533000  1.0
  H  H10  1  0.59980000  0.48788000  0.98712000  1.0
  H  H11  1  0.40929000  0.64895000  0.10747000  1.0
  H  H12  1  0.32829000  0.63930000  0.90897000  1.0
  H  H13  1  0.48876000  0.17982000  0.68357000  1.0
  H  H14  1  0.50118000  0.86573000  0.69012000  1.0
  H  H15  1  0.50952000  0.13510000  0.46785000  1.0
  H  H16  1  0.45220000  0.81338000  0.36433000  1.0
  H  H17  1  0.46203000  0.07085000  0.41049000  1.0
  H  H18  1  0.44397000  0.97581000  0.32762000  1.0
  H  H19  1  0.13278000  0.53905000  0.66709000  1.0
  H  H20  1  0.96833000  0.53461000  0.70010000  1.0
  H  H21  1  0.14209000  0.49977000  0.45232000  1.0
  H  H22  1  0.86207000  0.37492000  0.34671000  1.0
  H  H23  1  0.09010000  0.45167000  0.38877000  1.0
  H  H24  1  0.02322000  0.39380000  0.30857000  1.0
  H  H25  1  0.75948000  0.46594000  0.58470000  1.0
  H  H26  1  0.51622000  0.72849000  0.65916000  1.0
  H  H27  1  0.65780000  0.63135000  0.60401000  1.0
  H  H28  1  0.67501000  0.73772000  0.61283000  1.0
  H  H29  1  0.66231000  0.71296000  0.52942000  1.0
  H  H30  1  0.74915000  0.51089000  0.68685000  1.0
  H  H31  1  0.72659000  0.63760000  0.73436000  1.0
  H  H32  1  0.82706000  0.65768000  0.67484000  1.0
  H  H33  1  0.83738000  0.59374000  0.75826000  1.0
  H  H34  1  0.25535000  0.67106000  0.81937000  1.0
  H  H35  1  0.23375000  0.73291000  0.71068000  1.0
  H  H36  1  0.28315000  0.62181000  0.68141000  1.0
  H  H37  1  0.35552000  0.69387000  0.67691000  1.0
  C  C38  1  0.50579000  0.26074000  0.55023000  1.0
  C  C39  1  0.48770000  0.71560000  0.47812000  1.0
  C  C40  1  0.24395000  0.52545000  0.54001000  1.0
  C  C41  1  0.74158000  0.41440000  0.46427000  1.0
  C  C42  1  0.48342000  0.53324000  0.68646000  1.0
  C  C43  1  0.49808000  0.50483000  0.31837000  1.0
  C  C44  1  0.50893000  0.51399000  0.23971000  1.0
  C  C45  1  0.44831000  0.58544000  0.20578000  1.0
  C  C46  1  0.45668000  0.59268000  0.13276000  1.0
  C  C47  1  0.52638000  0.52917000  0.09091000  1.0
  C  C48  1  0.58876000  0.45964000  0.12543000  1.0
  C  C49  1  0.57971000  0.45141000  0.19871000  1.0
  C  C50  1  0.55966000  0.53862000  0.85494000  1.0
  C  C51  1  0.55855000  0.53268000  0.78515000  1.0
  C  C52  1  0.39087000  0.60281000  0.80241000  1.0
  C  C53  1  0.39344000  0.60796000  0.87387000  1.0
  C  C54  1  0.47477000  0.57483000  0.90155000  1.0
  C  C55  1  0.53495000  0.53151000  0.01459000  1.0
  C  C56  1  0.46844000  0.57752000  0.97708000  1.0
  C  C57  1  0.47582000  0.56047000  0.75774000  1.0
  C  C58  1  0.48420000  0.04837000  0.66637000  1.0
  C  C59  1  0.49981000  0.16608000  0.57253000  1.0
  C  C60  1  0.46485000  0.85443000  0.39974000  1.0
  C  C61  1  0.45949000  0.94591000  0.37935000  1.0
  C  C62  1  0.47058000  0.99892000  0.42591000  1.0
  C  C63  1  0.48766000  0.96251000  0.49407000  1.0
  C  C64  1  0.49679000  0.86799000  0.51437000  1.0
  C  C65  1  0.49137000  0.02117000  0.54455000  1.0
  C  C66  1  0.48650000  0.98744000  0.61769000  1.0
  C  C67  1  0.49647000  0.89352000  0.63583000  1.0
  C  C68  1  0.50927000  0.83464000  0.58614000  1.0
  C  C69  1  0.50058000  0.10922000  0.52349000  1.0
  C  C70  1  0.49045000  0.13551000  0.64482000  1.0
  C  C71  1  0.48479000  0.81464000  0.46549000  1.0
  C  C72  1  0.00521000  0.52811000  0.64545000  1.0
  C  C73  1  0.14462000  0.52336000  0.55657000  1.0
  C  C74  1  0.89294000  0.39913000  0.38245000  1.0
  C  C75  1  0.98279000  0.41019000  0.36114000  1.0
  C  C76  1  0.02012000  0.44312000  0.40676000  1.0
  C  C77  1  0.97032000  0.46458000  0.47524000  1.0
  C  C78  1  0.87829000  0.45219000  0.49832000  1.0
  C  C79  1  0.01077000  0.49587000  0.52434000  1.0
  C  C80  1  0.95999000  0.51222000  0.59487000  1.0
  C  C81  1  0.86549000  0.50561000  0.61432000  1.0
  C  C82  1  0.82940000  0.47394000  0.56767000  1.0
  C  C83  1  0.10190000  0.50705000  0.50614000  1.0
  C  C84  1  0.09657000  0.53105000  0.62750000  1.0
  C  C85  1  0.83951000  0.42038000  0.44925000  1.0
  C  C86  1  0.63899000  0.70379000  0.58692000  1.0
  C  C87  1  0.80088000  0.60738000  0.71359000  1.0
  C  C88  1  0.29439000  0.67329000  0.70877000  1.0
  N  N89  1  0.47586000  0.02115000  0.74298000  1.0
  N  N90  1  0.53658000  0.74055000  0.60561000  1.0
  N  N91  1  0.81104000  0.52523000  0.68090000  1.0
  N  N92  1  0.30742000  0.64111000  0.78079000  1.0
  O  O93  1  0.49107000  0.48731000  0.50206000  1.0
  O  O94  1  0.54184000  0.27947000  0.48569000  1.0
  O  O95  1  0.41100000  0.69765000  0.47996000  1.0
  O  O96  1  0.28836000  0.49058000  0.59014000  1.0
  O  O97  1  0.68727000  0.44255000  0.52203000  1.0
  O  O98  1  0.42037000  0.50023000  0.67729000  1.0
  O  O99  1  0.54250000  0.42988000  0.34682000  1.0
  O  O100  1  0.55596000  0.53993000  0.63954000  1.0
  O  O101  1  0.44418000  0.57303000  0.35081000  1.0
  O  O102  1  0.27676000  0.56109000  0.47962000  1.0
  O  O103  1  0.71250000  0.38276000  0.41919000  1.0
  O  O104  1  0.47309000  0.31462000  0.59927000  1.0
  O  O105  1  0.56661000  0.65724000  0.47875000  1.0
  O  O106  1  0.43291000  0.96362000  0.76936000  1.0
  O  O107  1  0.51105000  0.05837000  0.77729000  1.0
