# generated using pymatgen
data_Sm2Zn3H36(C2O3)12
_symmetry_space_group_name_H-M   'P 1'
_cell_length_a   14.82490000
_cell_length_b   14.82490000
_cell_length_c   15.86830000
_cell_angle_alpha   90.00010000
_cell_angle_beta   89.99990000
_cell_angle_gamma   60.00000000
_symmetry_Int_Tables_number   1
_chemical_formula_structural   Sm2Zn3H36(C2O3)12
_chemical_formula_sum   'Sm4 Zn6 H72 C48 O72'
_cell_volume   3020.26172709
_cell_formula_units_Z   2
loop_
 _symmetry_equiv_pos_site_id
 _symmetry_equiv_pos_as_xyz
  1  'x, y, z'
loop_
 _atom_site_type_symbol
 _atom_site_label
 _atom_site_symmetry_multiplicity
 _atom_site_fract_x
 _atom_site_fract_y
 _atom_site_fract_z
 _atom_site_occupancy
  Sm  Sm0  1  0.66666667  0.66666667  0.25000000  1.0
  Sm  Sm1  1  0.33333333  0.33333333  0.25000000  1.0
  Sm  Sm2  1  0.33333333  0.33333333  0.75000000  1.0
  Sm  Sm3  1  0.66666667  0.66666667  0.75000000  1.0
  Zn  Zn4  1  0.50000000  0.00000000  0.00000000  1.0
  Zn  Zn5  1  0.50000000  0.50000000  0.00000000  1.0
  Zn  Zn6  1  0.00000000  0.50000000  0.00000000  1.0
  Zn  Zn7  1  0.50000000  0.50000000  0.50000000  1.0
  Zn  Zn8  1  0.50000000  0.00000000  0.50000000  1.0
  Zn  Zn9  1  0.00000000  0.50000000  0.50000000  1.0
  H  H10  1  0.63719000  0.82060000  0.94948000  1.0
  H  H11  1  0.35972000  0.92035000  0.23277000  1.0
  H  H12  1  0.35972000  0.83261000  0.15490000  1.0
  H  H13  1  0.54221000  0.63718000  0.94948000  1.0
  H  H14  1  0.71992000  0.35973000  0.23277000  1.0
  H  H15  1  0.80766000  0.35972000  0.15490000  1.0
  H  H16  1  0.82061000  0.54221000  0.94948000  1.0
  H  H17  1  0.92036000  0.71992000  0.23277000  1.0
  H  H18  1  0.83262000  0.80767000  0.15490000  1.0
  H  H19  1  0.36281000  0.17940000  0.94948000  1.0
  H  H20  1  0.64028000  0.07965000  0.23277000  1.0
  H  H21  1  0.64029000  0.16737000  0.15490000  1.0
  H  H22  1  0.45779000  0.36282000  0.94948000  1.0
  H  H23  1  0.28007000  0.64028000  0.23277000  1.0
  H  H24  1  0.19233000  0.64029000  0.15490000  1.0
  H  H25  1  0.17939000  0.45779000  0.94948000  1.0
  H  H26  1  0.07965000  0.28007000  0.23277000  1.0
  H  H27  1  0.16738000  0.19233000  0.15490000  1.0
  H  H28  1  0.36282000  0.45779000  0.55052000  1.0
  H  H29  1  0.64028000  0.28007000  0.26723000  1.0
  H  H30  1  0.64028000  0.19234000  0.34510000  1.0
  H  H31  1  0.45779000  0.17939000  0.55052000  1.0
  H  H32  1  0.28008000  0.07964000  0.26723000  1.0
  H  H33  1  0.19234000  0.16738000  0.34510000  1.0
  H  H34  1  0.17939000  0.36282000  0.55052000  1.0
  H  H35  1  0.07964000  0.64028000  0.26723000  1.0
  H  H36  1  0.16738000  0.64029000  0.34510000  1.0
  H  H37  1  0.63719000  0.54220000  0.55052000  1.0
  H  H38  1  0.35972000  0.71992000  0.26723000  1.0
  H  H39  1  0.35971000  0.80767000  0.34510000  1.0
  H  H40  1  0.54221000  0.82060000  0.55052000  1.0
  H  H41  1  0.71993000  0.92035000  0.26723000  1.0
  H  H42  1  0.80766000  0.83262000  0.34510000  1.0
  H  H43  1  0.82061000  0.63718000  0.55052000  1.0
  H  H44  1  0.92036000  0.35972000  0.26723000  1.0
  H  H45  1  0.83262000  0.35972000  0.34510000  1.0
  H  H46  1  0.36282000  0.17939000  0.05052000  1.0
  H  H47  1  0.64028000  0.07965000  0.76723000  1.0
  H  H48  1  0.64028000  0.16738000  0.84510000  1.0
  H  H49  1  0.45779000  0.36282000  0.05052000  1.0
  H  H50  1  0.28008000  0.64027000  0.76723000  1.0
  H  H51  1  0.19233000  0.64029000  0.84510000  1.0
  H  H52  1  0.17939000  0.45779000  0.05052000  1.0
  H  H53  1  0.07965000  0.28007000  0.76723000  1.0
  H  H54  1  0.16738000  0.19234000  0.84510000  1.0
  H  H55  1  0.63718000  0.82061000  0.05052000  1.0
  H  H56  1  0.35972000  0.92035000  0.76723000  1.0
  H  H57  1  0.35972000  0.83262000  0.84510000  1.0
  H  H58  1  0.54221000  0.63718000  0.05052000  1.0
  H  H59  1  0.71992000  0.35973000  0.76723000  1.0
  H  H60  1  0.80766000  0.35972000  0.84510000  1.0
  H  H61  1  0.82061000  0.54221000  0.05052000  1.0
  H  H62  1  0.92036000  0.71992000  0.76723000  1.0
  H  H63  1  0.83262000  0.80766000  0.84510000  1.0
  H  H64  1  0.63718000  0.54221000  0.44948000  1.0
  H  H65  1  0.35972000  0.71992000  0.73277000  1.0
  H  H66  1  0.35972000  0.80766000  0.65490000  1.0
  H  H67  1  0.54221000  0.82061000  0.44948000  1.0
  H  H68  1  0.71993000  0.92035000  0.73277000  1.0
  H  H69  1  0.80766000  0.83262000  0.65490000  1.0
  H  H70  1  0.82061000  0.63718000  0.44948000  1.0
  H  H71  1  0.92035000  0.35972000  0.73277000  1.0
  H  H72  1  0.83262000  0.35971000  0.65490000  1.0
  H  H73  1  0.36282000  0.45779000  0.44948000  1.0
  H  H74  1  0.64028000  0.28007000  0.73277000  1.0
  H  H75  1  0.64029000  0.19233000  0.65490000  1.0
  H  H76  1  0.45779000  0.17940000  0.44948000  1.0
  H  H77  1  0.28008000  0.07964000  0.73277000  1.0
  H  H78  1  0.19233000  0.16738000  0.65490000  1.0
  H  H79  1  0.17939000  0.36282000  0.44948000  1.0
  H  H80  1  0.07965000  0.64028000  0.73277000  1.0
  H  H81  1  0.16738000  0.64028000  0.65490000  1.0
  C  C82  1  0.48147000  0.86913000  0.13984000  1.0
  C  C83  1  0.40972000  0.84981000  0.19556000  1.0
  C  C84  1  0.64940000  0.48147000  0.13984000  1.0
  C  C85  1  0.74047000  0.40972000  0.19556000  1.0
  C  C86  1  0.86914000  0.64940000  0.13983000  1.0
  C  C87  1  0.84981000  0.74047000  0.19556000  1.0
  C  C88  1  0.51853000  0.13087000  0.13984000  1.0
  C  C89  1  0.59028000  0.15019000  0.19556000  1.0
  C  C90  1  0.35060000  0.51853000  0.13984000  1.0
  C  C91  1  0.25953000  0.59028000  0.19556000  1.0
  C  C92  1  0.13087000  0.35060000  0.13984000  1.0
  C  C93  1  0.15019000  0.25953000  0.19556000  1.0
  C  C94  1  0.51852000  0.35060000  0.36016000  1.0
  C  C95  1  0.59028000  0.25953000  0.30444000  1.0
  C  C96  1  0.35060000  0.13087000  0.36016000  1.0
  C  C97  1  0.25953000  0.15019000  0.30444000  1.0
  C  C98  1  0.13088000  0.51852000  0.36016000  1.0
  C  C99  1  0.15019000  0.59028000  0.30444000  1.0
  C  C100  1  0.48147000  0.64940000  0.36016000  1.0
  C  C101  1  0.40972000  0.74047000  0.30444000  1.0
  C  C102  1  0.64940000  0.86913000  0.36016000  1.0
  C  C103  1  0.74047000  0.84981000  0.30444000  1.0
  C  C104  1  0.86914000  0.48146000  0.36016000  1.0
  C  C105  1  0.84981000  0.40972000  0.30444000  1.0
  C  C106  1  0.51852000  0.13088000  0.86016000  1.0
  C  C107  1  0.59028000  0.15019000  0.80444000  1.0
  C  C108  1  0.35060000  0.51853000  0.86016000  1.0
  C  C109  1  0.25953000  0.59028000  0.80444000  1.0
  C  C110  1  0.13087000  0.35060000  0.86016000  1.0
  C  C111  1  0.15019000  0.25953000  0.80444000  1.0
  C  C112  1  0.48147000  0.86913000  0.86016000  1.0
  C  C113  1  0.40972000  0.84981000  0.80444000  1.0
  C  C114  1  0.64940000  0.48147000  0.86016000  1.0
  C  C115  1  0.74047000  0.40972000  0.80444000  1.0
  C  C116  1  0.86914000  0.64939000  0.86016000  1.0
  C  C117  1  0.84981000  0.74047000  0.80444000  1.0
  C  C118  1  0.48147000  0.64939000  0.63984000  1.0
  C  C119  1  0.40972000  0.74047000  0.69556000  1.0
  C  C120  1  0.64940000  0.86913000  0.63984000  1.0
  C  C121  1  0.74047000  0.84981000  0.69556000  1.0
  C  C122  1  0.86913000  0.48147000  0.63984000  1.0
  C  C123  1  0.84981000  0.40972000  0.69556000  1.0
  C  C124  1  0.51853000  0.35060000  0.63984000  1.0
  C  C125  1  0.59028000  0.25953000  0.69556000  1.0
  C  C126  1  0.35060000  0.13087000  0.63984000  1.0
  C  C127  1  0.25953000  0.15019000  0.69556000  1.0
  C  C128  1  0.13086000  0.51854000  0.63984000  1.0
  C  C129  1  0.15019000  0.59028000  0.69556000  1.0
  O  O130  1  0.57956000  0.80450000  0.14471000  1.0
  O  O131  1  0.43641000  0.94741000  0.09285000  1.0
  O  O132  1  0.61594000  0.57957000  0.14471000  1.0
  O  O133  1  0.61617000  0.43642000  0.09286000  1.0
  O  O134  1  0.80449000  0.61594000  0.14471000  1.0
  O  O135  1  0.94741000  0.61618000  0.09286000  1.0
  O  O136  1  0.42044000  0.19550000  0.14471000  1.0
  O  O137  1  0.56359000  0.05258000  0.09285000  1.0
  O  O138  1  0.38406000  0.42044000  0.14471000  1.0
  O  O139  1  0.38382000  0.56358000  0.09285000  1.0
  O  O140  1  0.19551000  0.38405000  0.14471000  1.0
  O  O141  1  0.05259000  0.38382000  0.09286000  1.0
  O  O142  1  0.42043000  0.38406000  0.35529000  1.0
  O  O143  1  0.56359000  0.38383000  0.40714000  1.0
  O  O144  1  0.38406000  0.19550000  0.35529000  1.0
  O  O145  1  0.38383000  0.05258000  0.40715000  1.0
  O  O146  1  0.19551000  0.42043000  0.35529000  1.0
  O  O147  1  0.05259000  0.56359000  0.40715000  1.0
  O  O148  1  0.57957000  0.61594000  0.35529000  1.0
  O  O149  1  0.43642000  0.61617000  0.40714000  1.0
  O  O150  1  0.61594000  0.80449000  0.35529000  1.0
  O  O151  1  0.61617000  0.94742000  0.40714000  1.0
  O  O152  1  0.80449000  0.57957000  0.35529000  1.0
  O  O153  1  0.94741000  0.43642000  0.40714000  1.0
  O  O154  1  0.42044000  0.19550000  0.85529000  1.0
  O  O155  1  0.56359000  0.05258000  0.90714000  1.0
  O  O156  1  0.38406000  0.42043000  0.85529000  1.0
  O  O157  1  0.38382000  0.56358000  0.90715000  1.0
  O  O158  1  0.19551000  0.38406000  0.85529000  1.0
  O  O159  1  0.05259000  0.38382000  0.90714000  1.0
  O  O160  1  0.57956000  0.80450000  0.85529000  1.0
  O  O161  1  0.43641000  0.94742000  0.90715000  1.0
  O  O162  1  0.61594000  0.57957000  0.85529000  1.0
  O  O163  1  0.61617000  0.43642000  0.90714000  1.0
  O  O164  1  0.80449000  0.61594000  0.85529000  1.0
  O  O165  1  0.94741000  0.61617000  0.90714000  1.0
  O  O166  1  0.57957000  0.61593000  0.64471000  1.0
  O  O167  1  0.43642000  0.61618000  0.59286000  1.0
  O  O168  1  0.61594000  0.80449000  0.64471000  1.0
  O  O169  1  0.61617000  0.94741000  0.59286000  1.0
  O  O170  1  0.80449000  0.57957000  0.64471000  1.0
  O  O171  1  0.94741000  0.43641000  0.59286000  1.0
  O  O172  1  0.42044000  0.38406000  0.64471000  1.0
  O  O173  1  0.56359000  0.38383000  0.59286000  1.0
  O  O174  1  0.38406000  0.19550000  0.64471000  1.0
  O  O175  1  0.38382000  0.05259000  0.59285000  1.0
  O  O176  1  0.19551000  0.42043000  0.64471000  1.0
  O  O177  1  0.05259000  0.56358000  0.59286000  1.0
  O  O178  1  0.47075000  0.76463000  0.25000000  1.0
  O  O179  1  0.76462000  0.47076000  0.25000000  1.0
  O  O180  1  0.76462000  0.76463000  0.25000000  1.0
  O  O181  1  0.52925000  0.23537000  0.25000000  1.0
  O  O182  1  0.23538000  0.52924000  0.25000000  1.0
  O  O183  1  0.23538000  0.23537000  0.25000000  1.0
  O  O184  1  0.52925000  0.23537000  0.75000000  1.0
  O  O185  1  0.23538000  0.52924000  0.75000000  1.0
  O  O186  1  0.23538000  0.23537000  0.75000000  1.0
  O  O187  1  0.47075000  0.76463000  0.75000000  1.0
  O  O188  1  0.76462000  0.47076000  0.75000000  1.0
  O  O189  1  0.76462000  0.76463000  0.75000000  1.0
  O  O190  1  0.64666000  0.85440000  0.00000000  1.0
  O  O191  1  0.49894000  0.64666000  0.00000000  1.0
  O  O192  1  0.85440000  0.49894000  0.00000000  1.0
  O  O193  1  0.35334000  0.14560000  0.00000000  1.0
  O  O194  1  0.50106000  0.35334000  0.00000000  1.0
  O  O195  1  0.14560000  0.50106000  0.00000000  1.0
  O  O196  1  0.35335000  0.50105000  0.50000000  1.0
  O  O197  1  0.50106000  0.14560000  0.50000000  1.0
  O  O198  1  0.14560000  0.35334000  0.50000000  1.0
  O  O199  1  0.64666000  0.49894000  0.50000000  1.0
  O  O200  1  0.49894000  0.85440000  0.50000000  1.0
  O  O201  1  0.85440000  0.64666000  0.50000000  1.0
