# generated using pymatgen
data_CdH10C17N4O7
_symmetry_space_group_name_H-M   'P 1'
_cell_length_a   4.42476000
_cell_length_b   13.77940000
_cell_length_c   13.82790000
_cell_angle_alpha   104.80200000
_cell_angle_beta   90.87980000
_cell_angle_gamma   93.88190000
_symmetry_Int_Tables_number   1
_chemical_formula_structural   CdH10C17N4O7
_chemical_formula_sum   'Cd2 H20 C34 N8 O14'
_cell_volume   812.77982816
_cell_formula_units_Z   2
loop_
 _symmetry_equiv_pos_site_id
 _symmetry_equiv_pos_as_xyz
  1  'x, y, z'
loop_
 _atom_site_type_symbol
 _atom_site_label
 _atom_site_symmetry_multiplicity
 _atom_site_fract_x
 _atom_site_fract_y
 _atom_site_fract_z
 _atom_site_occupancy
  Cd  Cd0  1  0.66212000  0.87268000  0.55409000  1.0
  Cd  Cd1  1  0.33788000  0.12732000  0.44592000  1.0
  H  H2  1  0.79015000  0.57540000  0.09064000  1.0
  H  H3  1  0.20982000  0.42461000  0.90937000  1.0
  H  H4  1  0.34263000  0.85118000  0.21124000  1.0
  H  H5  1  0.65737000  0.14882000  0.78876000  1.0
  H  H6  1  0.19625000  0.00033000  0.71105000  1.0
  H  H7  1  0.80376000  0.99966000  0.28895000  1.0
  H  H8  1  0.37835000  0.02540000  0.88830000  1.0
  H  H9  1  0.62166000  0.97460000  0.11170000  1.0
  H  H10  1  0.14444000  0.91008000  0.98714000  1.0
  H  H11  1  0.85558000  0.08992000  0.01286000  1.0
  H  H12  1  0.73093000  0.78353000  0.90890000  1.0
  H  H13  1  0.26909000  0.21646000  0.09110000  1.0
  H  H14  1  0.39976000  0.68249000  0.83879000  1.0
  H  H15  1  0.60022000  0.31751000  0.16121000  1.0
  H  H16  1  0.99121000  0.56333000  0.74478000  1.0
  H  H17  1  0.00876000  0.43667000  0.25522000  1.0
  H  H18  1  0.87672000  0.55865000  0.56546000  1.0
  H  H19  1  0.12329000  0.44135000  0.43454000  1.0
  H  H20  1  0.17900000  0.67983000  0.48852000  1.0
  H  H21  1  0.82103000  0.32016000  0.51148000  1.0
  C  C22  1  0.04142000  0.80814000  0.31445000  1.0
  C  C23  1  0.95859000  0.19187000  0.68556000  1.0
  C  C24  1  0.79796000  0.73787000  0.32979000  1.0
  C  C25  1  0.20205000  0.26214000  0.67021000  1.0
  C  C26  1  0.72521000  0.65153000  0.24444000  1.0
  C  C27  1  0.27479000  0.34847000  0.75557000  1.0
  C  C28  1  0.85446000  0.64096000  0.15211000  1.0
  C  C29  1  0.14551000  0.35904000  0.84790000  1.0
  C  C30  1  0.07167000  0.71498000  0.14047000  1.0
  C  C31  1  0.92831000  0.28502000  0.85953000  1.0
  C  C32  1  0.16449000  0.79661000  0.22112000  1.0
  C  C33  1  0.83552000  0.20339000  0.77888000  1.0
  C  C34  1  0.18079000  0.89215000  0.39745000  1.0
  C  C35  1  0.81922000  0.10785000  0.60255000  1.0
  C  C36  1  0.09648000  0.95445000  0.75764000  1.0
  C  C37  1  0.90352000  0.04555000  0.24236000  1.0
  C  C38  1  0.19929000  0.96737000  0.85601000  1.0
  C  C39  1  0.80072000  0.03262000  0.14399000  1.0
  C  C40  1  0.06721000  0.90428000  0.91064000  1.0
  C  C41  1  0.93282000  0.09571000  0.08935000  1.0
  C  C42  1  0.83679000  0.83224000  0.86637000  1.0
  C  C43  1  0.16324000  0.16776000  0.13363000  1.0
  C  C44  1  0.74302000  0.82415000  0.76701000  1.0
  C  C45  1  0.25700000  0.17585000  0.23300000  1.0
  C  C46  1  0.49947000  0.74865000  0.71448000  1.0
  C  C47  1  0.50054000  0.25134000  0.28551000  1.0
  C  C48  1  0.34785000  0.68171000  0.76142000  1.0
  C  C49  1  0.65216000  0.31829000  0.23859000  1.0
  C  C50  1  0.12014000  0.61324000  0.70817000  1.0
  C  C51  1  0.87984000  0.38676000  0.29183000  1.0
  C  C52  1  0.05435000  0.61101000  0.60880000  1.0
  C  C53  1  0.94565000  0.38899000  0.39119000  1.0
  C  C54  1  0.21707000  0.67890000  0.56627000  1.0
  C  C55  1  0.78295000  0.32110000  0.43373000  1.0
  N  N56  1  0.50369000  0.57183000  0.25343000  1.0
  N  N57  1  0.49631000  0.42817000  0.74657000  1.0
  N  N58  1  0.21172000  0.70576000  0.04585000  1.0
  N  N59  1  0.78823000  0.29424000  0.95414000  1.0
  N  N60  1  0.87532000  0.88463000  0.71470000  1.0
  N  N61  1  0.12469000  0.11537000  0.28530000  1.0
  N  N62  1  0.42975000  0.74684000  0.61852000  1.0
  N  N63  1  0.57026000  0.25315000  0.38148000  1.0
  O  O64  1  0.35196000  0.95896000  0.37238000  1.0
  O  O65  1  0.64805000  0.04104000  0.62762000  1.0
  O  O66  1  0.14118000  0.89185000  0.48948000  1.0
  O  O67  1  0.85883000  0.10815000  0.51051000  1.0
  O  O68  1  0.64568000  0.75091000  0.40855000  1.0
  O  O69  1  0.35435000  0.24908000  0.59145000  1.0
  O  O70  1  0.45363000  0.55952000  0.33801000  1.0
  O  O71  1  0.54639000  0.44048000  0.66200000  1.0
  O  O72  1  0.37573000  0.51781000  0.17499000  1.0
  O  O73  1  0.62424000  0.48220000  0.82501000  1.0
  O  O74  1  0.13369000  0.63198000  0.97485000  1.0
  O  O75  1  0.86620000  0.36803000  0.02514000  1.0
  O  O76  1  0.40858000  0.77381000  0.03868000  1.0
  O  O77  1  0.59141000  0.22619000  0.96132000  1.0
