# generated using pymatgen
data_Cd3H32C38S6(N5O7)2
_symmetry_space_group_name_H-M   'P 1'
_cell_length_a   9.10299000
_cell_length_b   11.08260000
_cell_length_c   13.11960000
_cell_angle_alpha   108.13200000
_cell_angle_beta   107.50900000
_cell_angle_gamma   95.21920000
_symmetry_Int_Tables_number   1
_chemical_formula_structural   Cd3H32C38S6(N5O7)2
_chemical_formula_sum   'Cd3 H32 C38 S6 N10 O14'
_cell_volume   1174.42123767
_cell_formula_units_Z   1
loop_
 _symmetry_equiv_pos_site_id
 _symmetry_equiv_pos_as_xyz
  1  'x, y, z'
loop_
 _atom_site_type_symbol
 _atom_site_label
 _atom_site_symmetry_multiplicity
 _atom_site_fract_x
 _atom_site_fract_y
 _atom_site_fract_z
 _atom_site_occupancy
  Cd  Cd0  1  0.00000000  0.50000000  0.50000000  1.0
  Cd  Cd1  1  0.84184000  0.77898000  0.63356000  1.0
  Cd  Cd2  1  0.15815000  0.22102000  0.36644000  1.0
  H  H3  1  0.55620000  0.29273000  0.54618000  1.0
  H  H4  1  0.44380000  0.70726000  0.45382000  1.0
  H  H5  1  0.49841000  0.43045000  0.62878000  1.0
  H  H6  1  0.50159000  0.56955000  0.37121000  1.0
  H  H7  1  0.80490000  0.79870000  0.26342000  1.0
  H  H8  1  0.19510000  0.20129000  0.73658000  1.0
  H  H9  1  0.62563000  0.68795000  0.22345000  1.0
  H  H10  1  0.37437000  0.31206000  0.77655000  1.0
  H  H11  1  0.43466000  0.72469000  0.70861000  1.0
  H  H12  1  0.56533000  0.27531000  0.29139000  1.0
  H  H13  1  0.30525000  0.59329000  0.70893000  1.0
  H  H14  1  0.69475000  0.40671000  0.29107000  1.0
  H  H15  1  0.04275000  0.66777000  0.82675000  1.0
  H  H16  1  0.95725000  0.33223000  0.17325000  1.0
  H  H17  1  0.09480000  0.68899000  0.02957000  1.0
  H  H18  1  0.90520000  0.31101000  0.97043000  1.0
  H  H19  1  0.96614000  0.84651000  0.14401000  1.0
  H  H20  1  0.03386000  0.15348000  0.85599000  1.0
  H  H21  1  0.78446000  0.96116000  0.04719000  1.0
  H  H22  1  0.21553000  0.03884000  0.95282000  1.0
  H  H23  1  0.64266000  0.05020000  0.96198000  1.0
  H  H24  1  0.35734000  0.94980000  0.03802000  1.0
  H  H25  1  0.45830000  0.14958000  0.84870000  1.0
  H  H26  1  0.54170000  0.85042000  0.15130000  1.0
  H  H27  1  0.41884000  0.09255000  0.63898000  1.0
  H  H28  1  0.58116000  0.90745000  0.36102000  1.0
  H  H29  1  0.57734000  0.93961000  0.55677000  1.0
  H  H30  1  0.42266000  0.06039000  0.44323000  1.0
  H  H31  1  0.01415000  0.97940000  0.60189000  1.0
  H  H32  1  0.98585000  0.02060000  0.39810000  1.0
  H  H33  1  0.11189000  0.96015000  0.71680000  1.0
  H  H34  1  0.88811000  0.03985000  0.28320000  1.0
  C  C35  1  0.67012000  0.47551000  0.85071000  1.0
  C  C36  1  0.32987000  0.52449000  0.14929000  1.0
  C  C37  1  0.71928000  0.56858000  0.04048000  1.0
  C  C38  1  0.28071000  0.43142000  0.95952000  1.0
  C  C39  1  0.55269000  0.63827000  0.91544000  1.0
  C  C40  1  0.44731000  0.36173000  0.08456000  1.0
  C  C41  1  0.59779000  0.38810000  0.61495000  1.0
  C  C42  1  0.40221000  0.61190000  0.38504000  1.0
  C  C43  1  0.70606000  0.47579000  0.58609000  1.0
  C  C44  1  0.29395000  0.52421000  0.41391000  1.0
  C  C45  1  0.75419000  0.70447000  0.26240000  1.0
  C  C46  1  0.24580000  0.29553000  0.73760000  1.0
  C  C47  1  0.79486000  0.70423000  0.38351000  1.0
  C  C48  1  0.20514000  0.29577000  0.61649000  1.0
  C  C49  1  0.34707000  0.69859000  0.74445000  1.0
  C  C50  1  0.65293000  0.30141000  0.25555000  1.0
  C  C51  1  0.21343000  0.77076000  0.72162000  1.0
  C  C52  1  0.78657000  0.22925000  0.27838000  1.0
  C  C53  1  0.98825000  0.73264000  0.87862000  1.0
  C  C54  1  0.01175000  0.26736000  0.12138000  1.0
  C  C55  1  0.01717000  0.74530000  0.99229000  1.0
  C  C56  1  0.98283000  0.25469000  0.00771000  1.0
  C  C57  1  0.94450000  0.83055000  0.05396000  1.0
  C  C58  1  0.05550000  0.16945000  0.94604000  1.0
  C  C59  1  0.84288000  0.89612000  0.99946000  1.0
  C  C60  1  0.15712000  0.10388000  0.00054000  1.0
  C  C61  1  0.81782000  0.87678000  0.88417000  1.0
  C  C62  1  0.18218000  0.12322000  0.11583000  1.0
  C  C63  1  0.70730000  0.94056000  0.81975000  1.0
  C  C64  1  0.29270000  0.05944000  0.18025000  1.0
  C  C65  1  0.62578000  0.02681000  0.87191000  1.0
  C  C66  1  0.37422000  0.97319000  0.12810000  1.0
  C  C67  1  0.52175000  0.08242000  0.80796000  1.0
  C  C68  1  0.47826000  0.91758000  0.19204000  1.0
  C  C69  1  0.50037000  0.05159000  0.69222000  1.0
  C  C70  1  0.49964000  0.94841000  0.30779000  1.0
  C  C71  1  0.58628000  0.96612000  0.64619000  1.0
  C  C72  1  0.41373000  0.03388000  0.35382000  1.0
  S  S73  1  0.70766000  0.35848000  0.74245000  1.0
  S  S74  1  0.29234000  0.64152000  0.25755000  1.0
  S  S75  1  0.82332000  0.57503000  0.17777000  1.0
  S  S76  1  0.17667000  0.42497000  0.82223000  1.0
  S  S77  1  0.43464000  0.75033000  0.89864000  1.0
  S  S78  1  0.56536000  0.24967000  0.10136000  1.0
  N  N79  1  0.74707000  0.47766000  0.95636000  1.0
  N  N80  1  0.25293000  0.52234000  0.04364000  1.0
  N  N81  1  0.62271000  0.65123000  0.02566000  1.0
  N  N82  1  0.37729000  0.34878000  0.97435000  1.0
  N  N83  1  0.57107000  0.55309000  0.82452000  1.0
  N  N84  1  0.42893000  0.44692000  0.17548000  1.0
  N  N85  1  0.89326000  0.79762000  0.82665000  1.0
  N  N86  1  0.10674000  0.20239000  0.17335000  1.0
  N  N87  1  0.68607000  0.91183000  0.70773000  1.0
  N  N88  1  0.31393000  0.08817000  0.29227000  1.0
  O  O89  1  0.81411000  0.42554000  0.55661000  1.0
  O  O90  1  0.18589000  0.57446000  0.44339000  1.0
  O  O91  1  0.67977000  0.58820000  0.59558000  1.0
  O  O92  1  0.32023000  0.41180000  0.40442000  1.0
  O  O93  1  0.83056000  0.60375000  0.40180000  1.0
  O  O94  1  0.16943000  0.39625000  0.59820000  1.0
  O  O95  1  0.78435000  0.80641000  0.45841000  1.0
  O  O96  1  0.21565000  0.19359000  0.54160000  1.0
  O  O97  1  0.07905000  0.70455000  0.64734000  1.0
  O  O98  1  0.92095000  0.29546000  0.35266000  1.0
  O  O99  1  0.24005000  0.89043000  0.77757000  1.0
  O  O100  1  0.75995000  0.10957000  0.22243000  1.0
  O  O101  1  0.01738000  0.99311000  0.67959000  1.0
  O  O102  1  0.98262000  0.00689000  0.32040000  1.0
