# generated using pymatgen
data_Co3H12C15N2O11
_symmetry_space_group_name_H-M   'P 1'
_cell_length_a   15.07310000
_cell_length_b   16.57340000
_cell_length_c   23.97690000
_cell_angle_alpha   89.99860000
_cell_angle_beta   89.99950000
_cell_angle_gamma   89.99930000
_symmetry_Int_Tables_number   1
_chemical_formula_structural   Co3H12C15N2O11
_chemical_formula_sum   'Co24 H96 C120 N16 O88'
_cell_volume   5989.72970139
_cell_formula_units_Z   8
loop_
 _symmetry_equiv_pos_site_id
 _symmetry_equiv_pos_as_xyz
  1  'x, y, z'
loop_
 _atom_site_type_symbol
 _atom_site_label
 _atom_site_symmetry_multiplicity
 _atom_site_fract_x
 _atom_site_fract_y
 _atom_site_fract_z
 _atom_site_occupancy
  Co  Co0  1  0.29406000  0.46159000  0.89186000  1.0
  Co  Co1  1  0.20593000  0.53840000  0.39187000  1.0
  Co  Co2  1  0.79407000  0.03841000  0.10814000  1.0
  Co  Co3  1  0.70595000  0.96162000  0.60812000  1.0
  Co  Co4  1  0.16215000  0.67122000  0.30621000  1.0
  Co  Co5  1  0.33784000  0.32877000  0.80619000  1.0
  Co  Co6  1  0.66216000  0.82877000  0.69379000  1.0
  Co  Co7  1  0.83784000  0.17123000  0.19380000  1.0
  Co  Co8  1  0.98628000  0.54308000  0.31897000  1.0
  Co  Co9  1  0.51372000  0.45688000  0.81897000  1.0
  Co  Co10  1  0.48629000  0.95692000  0.68102000  1.0
  Co  Co11  1  0.01374000  0.04311000  0.18102000  1.0
  Co  Co12  1  0.70022000  0.49686000  0.17078000  1.0
  Co  Co13  1  0.79975000  0.50311000  0.67078000  1.0
  Co  Co14  1  0.20021000  0.00312000  0.82922000  1.0
  Co  Co15  1  0.29978000  0.99689000  0.32922000  1.0
  Co  Co16  1  0.90025000  0.51557000  0.18093000  1.0
  Co  Co17  1  0.59974000  0.48441000  0.68096000  1.0
  Co  Co18  1  0.40022000  0.98442000  0.81905000  1.0
  Co  Co19  1  0.09976000  0.01559000  0.31906000  1.0
  Co  Co20  1  0.87565000  0.34864000  0.14571000  1.0
  Co  Co21  1  0.62432000  0.65138000  0.64569000  1.0
  Co  Co22  1  0.37565000  0.15136000  0.85430000  1.0
  Co  Co23  1  0.12435000  0.84866000  0.35429000  1.0
  H  H24  1  0.42889000  0.59600000  0.88662000  1.0
  H  H25  1  0.07110000  0.40401000  0.38662000  1.0
  H  H26  1  0.92891000  0.90399000  0.11339000  1.0
  H  H27  1  0.57111000  0.09600000  0.61336000  1.0
  H  H28  1  0.43235000  0.74500000  0.87102000  1.0
  H  H29  1  0.06764000  0.25501000  0.37101000  1.0
  H  H30  1  0.93236000  0.75500000  0.12898000  1.0
  H  H31  1  0.56766000  0.24500000  0.62898000  1.0
  H  H32  1  0.14685000  0.74231000  0.86857000  1.0
  H  H33  1  0.35314000  0.25769000  0.36858000  1.0
  H  H34  1  0.64685000  0.75769000  0.13142000  1.0
  H  H35  1  0.85315000  0.24230000  0.63143000  1.0
  H  H36  1  0.15442000  0.59224000  0.88436000  1.0
  H  H37  1  0.34557000  0.40776000  0.38437000  1.0
  H  H38  1  0.65444000  0.90776000  0.11563000  1.0
  H  H39  1  0.84558000  0.09223000  0.61563000  1.0
  H  H40  1  0.27313000  0.54511000  0.00292000  1.0
  H  H41  1  0.22688000  0.45488000  0.50293000  1.0
  H  H42  1  0.77312000  0.95489000  0.99708000  1.0
  H  H43  1  0.72687000  0.04512000  0.49708000  1.0
  H  H44  1  0.16364000  0.54665000  0.08246000  1.0
  H  H45  1  0.33637000  0.45331000  0.58245000  1.0
  H  H46  1  0.66364000  0.95334000  0.91755000  1.0
  H  H47  1  0.83636000  0.04666000  0.41754000  1.0
  H  H48  1  0.01394000  0.36577000  0.99423000  1.0
  H  H49  1  0.48608000  0.63420000  0.49423000  1.0
  H  H50  1  0.51393000  0.13423000  0.00578000  1.0
  H  H51  1  0.98606000  0.86578000  0.50576000  1.0
  H  H52  1  0.12470000  0.37728000  0.91578000  1.0
  H  H53  1  0.37530000  0.62272000  0.41579000  1.0
  H  H54  1  0.62469000  0.12272000  0.08422000  1.0
  H  H55  1  0.87530000  0.87728000  0.58422000  1.0
  H  H56  1  0.77785000  0.19835000  0.02977000  1.0
  H  H57  1  0.72216000  0.80165000  0.52979000  1.0
  H  H58  1  0.27784000  0.30164000  0.97020000  1.0
  H  H59  1  0.22215000  0.69835000  0.47023000  1.0
  H  H60  1  0.66906000  0.26753000  0.23389000  1.0
  H  H61  1  0.83090000  0.73250000  0.73390000  1.0
  H  H62  1  0.16910000  0.23247000  0.76611000  1.0
  H  H63  1  0.33093000  0.76754000  0.26612000  1.0
  H  H64  1  0.52918000  0.41333000  0.13377000  1.0
  H  H65  1  0.97082000  0.58665000  0.63377000  1.0
  H  H66  1  0.02918000  0.08666000  0.86622000  1.0
  H  H67  1  0.47083000  0.91334000  0.36623000  1.0
  H  H68  1  0.43534000  0.40568000  0.04692000  1.0
  H  H69  1  0.06467000  0.59431000  0.54693000  1.0
  H  H70  1  0.93533000  0.09431000  0.95307000  1.0
  H  H71  1  0.56467000  0.90570000  0.45308000  1.0
  H  H72  1  0.63399000  0.54706000  0.96302000  1.0
  H  H73  1  0.86603000  0.45291000  0.46303000  1.0
  H  H74  1  0.13397000  0.95292000  0.03697000  1.0
  H  H75  1  0.36602000  0.04708000  0.53698000  1.0
  H  H76  1  0.71511000  0.55699000  0.05456000  1.0
  H  H77  1  0.78491000  0.44299000  0.55457000  1.0
  H  H78  1  0.21510000  0.94301000  0.94543000  1.0
  H  H79  1  0.28489000  0.05699000  0.44544000  1.0
  H  H80  1  0.55991000  0.62806000  0.16393000  1.0
  H  H81  1  0.94008000  0.37193000  0.66395000  1.0
  H  H82  1  0.05991000  0.87194000  0.83605000  1.0
  H  H83  1  0.44008000  0.12806000  0.33607000  1.0
  H  H84  1  0.41131000  0.66150000  0.20691000  1.0
  H  H85  1  0.08869000  0.33850000  0.70691000  1.0
  H  H86  1  0.91131000  0.83852000  0.79308000  1.0
  H  H87  1  0.58868000  0.16149000  0.29310000  1.0
  H  H88  1  0.45346000  0.46538000  0.32134000  1.0
  H  H89  1  0.04654000  0.53461000  0.82135000  1.0
  H  H90  1  0.95347000  0.03463000  0.67865000  1.0
  H  H91  1  0.54654000  0.96539000  0.17867000  1.0
  H  H92  1  0.59671000  0.43676000  0.27161000  1.0
  H  H93  1  0.90328000  0.56321000  0.77163000  1.0
  H  H94  1  0.09673000  0.06324000  0.72838000  1.0
  H  H95  1  0.40328000  0.93677000  0.22839000  1.0
  H  H96  1  0.72172000  0.50221000  0.30631000  1.0
  H  H97  1  0.77826000  0.49777000  0.80630000  1.0
  H  H98  1  0.22171000  0.99778000  0.69370000  1.0
  H  H99  1  0.27828000  0.00221000  0.19370000  1.0
  H  H100  1  0.93963000  0.76933000  0.37272000  1.0
  H  H101  1  0.56037000  0.23065000  0.87271000  1.0
  H  H102  1  0.43963000  0.73066000  0.62729000  1.0
  H  H103  1  0.06036000  0.26935000  0.12727000  1.0
  H  H104  1  0.02506000  0.64160000  0.16496000  1.0
  H  H105  1  0.47495000  0.35838000  0.66499000  1.0
  H  H106  1  0.52507000  0.85840000  0.83502000  1.0
  H  H107  1  0.97494000  0.14160000  0.33503000  1.0
  H  H108  1  0.98729000  0.31310000  0.25784000  1.0
  H  H109  1  0.51268000  0.68687000  0.75786000  1.0
  H  H110  1  0.48733000  0.18690000  0.74214000  1.0
  H  H111  1  0.01272000  0.81310000  0.24215000  1.0
  H  H112  1  0.81492000  0.46676000  0.09152000  1.0
  H  H113  1  0.68504000  0.53323000  0.59153000  1.0
  H  H114  1  0.31494000  0.03326000  0.90847000  1.0
  H  H115  1  0.18507000  0.96676000  0.40848000  1.0
  H  H116  1  0.14387000  0.51868000  0.29372000  1.0
  H  H117  1  0.35616000  0.48134000  0.79372000  1.0
  H  H118  1  0.64388000  0.98134000  0.70627000  1.0
  H  H119  1  0.85614000  0.01868000  0.20628000  1.0
  C  C120  1  0.36781000  0.63046000  0.88317000  1.0
  C  C121  1  0.13219000  0.36956000  0.38318000  1.0
  C  C122  1  0.86782000  0.86955000  0.11683000  1.0
  C  C123  1  0.63219000  0.13044000  0.61682000  1.0
  C  C124  1  0.36943000  0.71318000  0.87417000  1.0
  C  C125  1  0.13056000  0.28683000  0.37417000  1.0
  C  C126  1  0.86943000  0.78681000  0.12583000  1.0
  C  C127  1  0.63058000  0.21317000  0.62583000  1.0
  C  C128  1  0.28970000  0.75522000  0.86823000  1.0
  C  C129  1  0.21029000  0.24478000  0.36824000  1.0
  C  C130  1  0.78971000  0.74477000  0.13176000  1.0
  C  C131  1  0.71030000  0.25521000  0.63176000  1.0
  C  C132  1  0.21041000  0.71159000  0.87255000  1.0
  C  C133  1  0.28958000  0.28840000  0.37256000  1.0
  C  C134  1  0.71042000  0.78841000  0.12744000  1.0
  C  C135  1  0.78959000  0.21158000  0.62745000  1.0
  C  C136  1  0.21427000  0.62883000  0.88138000  1.0
  C  C137  1  0.28572000  0.37117000  0.38140000  1.0
  C  C138  1  0.71429000  0.87117000  0.11861000  1.0
  C  C139  1  0.78573000  0.12882000  0.61861000  1.0
  C  C140  1  0.29116000  0.84441000  0.85672000  1.0
  C  C141  1  0.20880000  0.15559000  0.35672000  1.0
  C  C142  1  0.79120000  0.65558000  0.14328000  1.0
  C  C143  1  0.70882000  0.34440000  0.64327000  1.0
  C  C144  1  0.21375000  0.50753000  0.00240000  1.0
  C  C145  1  0.28626000  0.49246000  0.50240000  1.0
  C  C146  1  0.71375000  0.99247000  0.99761000  1.0
  C  C147  1  0.78625000  0.00754000  0.49760000  1.0
  C  C148  1  0.15373000  0.50759000  0.04643000  1.0
  C  C149  1  0.34629000  0.49239000  0.54643000  1.0
  C  C150  1  0.65372000  0.99240000  0.95357000  1.0
  C  C151  1  0.84627000  0.00761000  0.45357000  1.0
  C  C152  1  0.08070000  0.45564000  0.04409000  1.0
  C  C153  1  0.41933000  0.54433000  0.54409000  1.0
  C  C154  1  0.58068000  0.04435000  0.95592000  1.0
  C  C155  1  0.91930000  0.95565000  0.45591000  1.0
  C  C156  1  0.06990000  0.40717000  0.99675000  1.0
  C  C157  1  0.43012000  0.59281000  0.49676000  1.0
  C  C158  1  0.56988000  0.09282000  0.00326000  1.0
  C  C159  1  0.93011000  0.90718000  0.50325000  1.0
  C  C160  1  0.13115000  0.41268000  0.95383000  1.0
  C  C161  1  0.36886000  0.58732000  0.45384000  1.0
  C  C162  1  0.63114000  0.08732000  0.04617000  1.0
  C  C163  1  0.86885000  0.91269000  0.54617000  1.0
  C  C164  1  0.01446000  0.44934000  0.09051000  1.0
  C  C165  1  0.48557000  0.55063000  0.59052000  1.0
  C  C166  1  0.51444000  0.05065000  0.90949000  1.0
  C  C167  1  0.98553000  0.94935000  0.40949000  1.0
  C  C168  1  0.79571000  0.22090000  0.07186000  1.0
  C  C169  1  0.70428000  0.77912000  0.57186000  1.0
  C  C170  1  0.29572000  0.27911000  0.92812000  1.0
  C  C171  1  0.20428000  0.72089000  0.42815000  1.0
  C  C172  1  0.70768000  0.31401000  0.21131000  1.0
  C  C173  1  0.79230000  0.68601000  0.71131000  1.0
  C  C174  1  0.20770000  0.18600000  0.78869000  1.0
  C  C175  1  0.29232000  0.81402000  0.28869000  1.0
  C  C176  1  0.54912000  0.44334000  0.09526000  1.0
  C  C177  1  0.95089000  0.55664000  0.59526000  1.0
  C  C178  1  0.04912000  0.05666000  0.90474000  1.0
  C  C179  1  0.45089000  0.94335000  0.40475000  1.0
  C  C180  1  0.49791000  0.43858000  0.04711000  1.0
  C  C181  1  0.00210000  0.56140000  0.54712000  1.0
  C  C182  1  0.99790000  0.06141000  0.95288000  1.0
  C  C183  1  0.50210000  0.93859000  0.45289000  1.0
  C  C184  1  0.52788000  0.47635000  0.99840000  1.0
  C  C185  1  0.97214000  0.52363000  0.49841000  1.0
  C  C186  1  0.02786000  0.02363000  0.00159000  1.0
  C  C187  1  0.47213000  0.97637000  0.50160000  1.0
  C  C188  1  0.60860000  0.51797000  0.00050000  1.0
  C  C189  1  0.89142000  0.48201000  0.50051000  1.0
  C  C190  1  0.10858000  0.98202000  0.99949000  1.0
  C  C191  1  0.39140000  0.01798000  0.49950000  1.0
  C  C192  1  0.65415000  0.52201000  0.05073000  1.0
  C  C193  1  0.84587000  0.47797000  0.55073000  1.0
  C  C194  1  0.15414000  0.97798000  0.94927000  1.0
  C  C195  1  0.34586000  0.02202000  0.44927000  1.0
  C  C196  1  0.47554000  0.47419000  0.94504000  1.0
  C  C197  1  0.02446000  0.52581000  0.44504000  1.0
  C  C198  1  0.97553000  0.02581000  0.05495000  1.0
  C  C199  1  0.52446000  0.97421000  0.55496000  1.0
  C  C200  1  0.53302000  0.59343000  0.19869000  1.0
  C  C201  1  0.96698000  0.40656000  0.69871000  1.0
  C  C202  1  0.03302000  0.90658000  0.80130000  1.0
  C  C203  1  0.46697000  0.09343000  0.30131000  1.0
  C  C204  1  0.45154000  0.61200000  0.22285000  1.0
  C  C205  1  0.04847000  0.38799000  0.72285000  1.0
  C  C206  1  0.95153000  0.88802000  0.77715000  1.0
  C  C207  1  0.54846000  0.11199000  0.27716000  1.0
  C  C208  1  0.42083000  0.56538000  0.26754000  1.0
  C  C209  1  0.07918000  0.43462000  0.76754000  1.0
  C  C210  1  0.92082000  0.93464000  0.73245000  1.0
  C  C211  1  0.57917000  0.06537000  0.23247000  1.0
  C  C212  1  0.47492000  0.50251000  0.28642000  1.0
  C  C213  1  0.02509000  0.49747000  0.78643000  1.0
  C  C214  1  0.97493000  0.99750000  0.71357000  1.0
  C  C215  1  0.52508000  0.00251000  0.21359000  1.0
  C  C216  1  0.55468000  0.48721000  0.25959000  1.0
  C  C217  1  0.94532000  0.51277000  0.75960000  1.0
  C  C218  1  0.05469000  0.01279000  0.74041000  1.0
  C  C219  1  0.44531000  0.98721000  0.24042000  1.0
  C  C220  1  0.78926000  0.51108000  0.28895000  1.0
  C  C221  1  0.71071000  0.48891000  0.78896000  1.0
  C  C222  1  0.28926000  0.98894000  0.71105000  1.0
  C  C223  1  0.21074000  0.01109000  0.21105000  1.0
  C  C224  1  0.97819000  0.72021000  0.35303000  1.0
  C  C225  1  0.52180000  0.27976000  0.85302000  1.0
  C  C226  1  0.47820000  0.77978000  0.64698000  1.0
  C  C227  1  0.02182000  0.22022000  0.14697000  1.0
  C  C228  1  0.33215000  0.58001000  0.29470000  1.0
  C  C229  1  0.16786000  0.41998000  0.79470000  1.0
  C  C230  1  0.83215000  0.92001000  0.70529000  1.0
  C  C231  1  0.66784000  0.08002000  0.20532000  1.0
  C  C232  1  0.04066000  0.63100000  0.20929000  1.0
  C  C233  1  0.45929000  0.36897000  0.70930000  1.0
  C  C234  1  0.54069000  0.86900000  0.79070000  1.0
  C  C235  1  0.95932000  0.13102000  0.29071000  1.0
  C  C236  1  0.97890000  0.37937000  0.25572000  1.0
  C  C237  1  0.52109000  0.62059000  0.75572000  1.0
  C  C238  1  0.47893000  0.12064000  0.74427000  1.0
  C  C239  1  0.02110000  0.87938000  0.24427000  1.0
  N  N240  1  0.29158000  0.58811000  0.88612000  1.0
  N  N241  1  0.20842000  0.41189000  0.38613000  1.0
  N  N242  1  0.79160000  0.91189000  0.11388000  1.0
  N  N243  1  0.70843000  0.08810000  0.61387000  1.0
  N  N244  1  0.20288000  0.46122000  0.95661000  1.0
  N  N245  1  0.29713000  0.53878000  0.45661000  1.0
  N  N246  1  0.70288000  0.03878000  0.04340000  1.0
  N  N247  1  0.79712000  0.96122000  0.54339000  1.0
  N  N248  1  0.62574000  0.48530000  0.09774000  1.0
  N  N249  1  0.87427000  0.51469000  0.59774000  1.0
  N  N250  1  0.12574000  0.01470000  0.90226000  1.0
  N  N251  1  0.37427000  0.98531000  0.40226000  1.0
  N  N252  1  0.58388000  0.53132000  0.21602000  1.0
  N  N253  1  0.91612000  0.46866000  0.71604000  1.0
  N  N254  1  0.08388000  0.96868000  0.78397000  1.0
  N  N255  1  0.41611000  0.03132000  0.28398000  1.0
  O  O256  1  0.81079000  0.45437000  0.13109000  1.0
  O  O257  1  0.68918000  0.54564000  0.63110000  1.0
  O  O258  1  0.31078000  0.04564000  0.86890000  1.0
  O  O259  1  0.18922000  0.95438000  0.36891000  1.0
  O  O260  1  0.12299000  0.55419000  0.32330000  1.0
  O  O261  1  0.37699000  0.44578000  0.82328000  1.0
  O  O262  1  0.62301000  0.94581000  0.67670000  1.0
  O  O263  1  0.87701000  0.05420000  0.17671000  1.0
  O  O264  1  0.36789000  0.87620000  0.85405000  1.0
  O  O265  1  0.13208000  0.12382000  0.35405000  1.0
  O  O266  1  0.86792000  0.62381000  0.14597000  1.0
  O  O267  1  0.63210000  0.37619000  0.64595000  1.0
  O  O268  1  0.21711000  0.88030000  0.85109000  1.0
  O  O269  1  0.28285000  0.11969000  0.35108000  1.0
  O  O270  1  0.71715000  0.61968000  0.14892000  1.0
  O  O271  1  0.78288000  0.38029000  0.64892000  1.0
  O  O272  1  0.00450000  0.50931000  0.12271000  1.0
  O  O273  1  0.49556000  0.49069000  0.62272000  1.0
  O  O274  1  0.50445000  0.99070000  0.87729000  1.0
  O  O275  1  0.99551000  0.00931000  0.37729000  1.0
  O  O276  1  0.97312000  0.38220000  0.09251000  1.0
  O  O277  1  0.52685000  0.61781000  0.59251000  1.0
  O  O278  1  0.47313000  0.11782000  0.90749000  1.0
  O  O279  1  0.02686000  0.88220000  0.40748000  1.0
  O  O280  1  0.81693000  0.29393000  0.07613000  1.0
  O  O281  1  0.68303000  0.70609000  0.57614000  1.0
  O  O282  1  0.31696000  0.20607000  0.92386000  1.0
  O  O283  1  0.18306000  0.79392000  0.42387000  1.0
  O  O284  1  0.79148000  0.16866000  0.11124000  1.0
  O  O285  1  0.70851000  0.83138000  0.61124000  1.0
  O  O286  1  0.29151000  0.33135000  0.88874000  1.0
  O  O287  1  0.20851000  0.66863000  0.38877000  1.0
  O  O288  1  0.78679000  0.29276000  0.19796000  1.0
  O  O289  1  0.71320000  0.70727000  0.69794000  1.0
  O  O290  1  0.28681000  0.20728000  0.80206000  1.0
  O  O291  1  0.21320000  0.79278000  0.30204000  1.0
  O  O292  1  0.67098000  0.38035000  0.20087000  1.0
  O  O293  1  0.82898000  0.61968000  0.70089000  1.0
  O  O294  1  0.17104000  0.11967000  0.79914000  1.0
  O  O295  1  0.32901000  0.88036000  0.29913000  1.0
  O  O296  1  0.51641000  0.49537000  0.90126000  1.0
  O  O297  1  0.98358000  0.50462000  0.40126000  1.0
  O  O298  1  0.01641000  0.00463000  0.09874000  1.0
  O  O299  1  0.48359000  0.99541000  0.59875000  1.0
  O  O300  1  0.39416000  0.45371000  0.94913000  1.0
  O  O301  1  0.10583000  0.54631000  0.44912000  1.0
  O  O302  1  0.89415000  0.04630000  0.05088000  1.0
  O  O303  1  0.60584000  0.95373000  0.55087000  1.0
  O  O304  1  0.79318000  0.51907000  0.23574000  1.0
  O  O305  1  0.70681000  0.48086000  0.73576000  1.0
  O  O306  1  0.29317000  0.98091000  0.76425000  1.0
  O  O307  1  0.20683000  0.01909000  0.26426000  1.0
  O  O308  1  0.85244000  0.51277000  0.32262000  1.0
  O  O309  1  0.64754000  0.48725000  0.82264000  1.0
  O  O310  1  0.35244000  0.98729000  0.67738000  1.0
  O  O311  1  0.14757000  0.01280000  0.17737000  1.0
  O  O312  1  0.94171000  0.65286000  0.34703000  1.0
  O  O313  1  0.55828000  0.34712000  0.84704000  1.0
  O  O314  1  0.44174000  0.84714000  0.65296000  1.0
  O  O315  1  0.05833000  0.15289000  0.15295000  1.0
  O  O316  1  0.05753000  0.73883000  0.33838000  1.0
  O  O317  1  0.44247000  0.26115000  0.83838000  1.0
  O  O318  1  0.55752000  0.76115000  0.66162000  1.0
  O  O319  1  0.94249000  0.23883000  0.16162000  1.0
  O  O320  1  0.31570000  0.53791000  0.33774000  1.0
  O  O321  1  0.18432000  0.46210000  0.83774000  1.0
  O  O322  1  0.81569000  0.96212000  0.66225000  1.0
  O  O323  1  0.68429000  0.03791000  0.16227000  1.0
  O  O324  1  0.28153000  0.63228000  0.27230000  1.0
  O  O325  1  0.21849000  0.36771000  0.77231000  1.0
  O  O326  1  0.78153000  0.86773000  0.72768000  1.0
  O  O327  1  0.71846000  0.13229000  0.22771000  1.0
  O  O328  1  0.10350000  0.67050000  0.23030000  1.0
  O  O329  1  0.39645000  0.32946000  0.73029000  1.0
  O  O330  1  0.60353000  0.82949000  0.76970000  1.0
  O  O331  1  0.89649000  0.17055000  0.26971000  1.0
  O  O332  1  0.99134000  0.57825000  0.23393000  1.0
  O  O333  1  0.50861000  0.42172000  0.73396000  1.0
  O  O334  1  0.49136000  0.92175000  0.76605000  1.0
  O  O335  1  0.00864000  0.07828000  0.26606000  1.0
  O  O336  1  0.01187000  0.42207000  0.29345000  1.0
  O  O337  1  0.48812000  0.57787000  0.79343000  1.0
  O  O338  1  0.51191000  0.07791000  0.70655000  1.0
  O  O339  1  0.98815000  0.92207000  0.20653000  1.0
  O  O340  1  0.93472000  0.40544000  0.21355000  1.0
  O  O341  1  0.56531000  0.59456000  0.71356000  1.0
  O  O342  1  0.43471000  0.09458000  0.78643000  1.0
  O  O343  1  0.06528000  0.90546000  0.28644000  1.0
