# generated using pymatgen
data_CdH6C6INO3
_symmetry_space_group_name_H-M   'P 1'
_cell_length_a   7.41654000
_cell_length_b   8.07623000
_cell_length_c   8.91181000
_cell_angle_alpha   104.76900000
_cell_angle_beta   91.70140000
_cell_angle_gamma   114.83800000
_symmetry_Int_Tables_number   1
_chemical_formula_structural   CdH6C6INO3
_chemical_formula_sum   'Cd2 H12 C12 I2 N2 O6'
_cell_volume   462.69092792
_cell_formula_units_Z   2
loop_
 _symmetry_equiv_pos_site_id
 _symmetry_equiv_pos_as_xyz
  1  'x, y, z'
loop_
 _atom_site_type_symbol
 _atom_site_label
 _atom_site_symmetry_multiplicity
 _atom_site_fract_x
 _atom_site_fract_y
 _atom_site_fract_z
 _atom_site_occupancy
  Cd  Cd0  1  0.29183000  0.88508000  0.13329000  1.0
  Cd  Cd1  1  0.70817000  0.11492000  0.86671000  1.0
  H  H2  1  0.87711000  0.82282000  0.11974000  1.0
  H  H3  1  0.12289000  0.17718000  0.88025000  1.0
  H  H4  1  0.85672000  0.61826000  0.02488000  1.0
  H  H5  1  0.14328000  0.38174000  0.97512000  1.0
  H  H6  1  0.20286000  0.57343000  0.55695000  1.0
  H  H7  1  0.79714000  0.42657000  0.44305000  1.0
  H  H8  1  0.17329000  0.29962000  0.65786000  1.0
  H  H9  1  0.82671000  0.70038000  0.34214000  1.0
  H  H10  1  0.23355000  0.03528000  0.48186000  1.0
  H  H11  1  0.76645000  0.96472000  0.51814000  1.0
  H  H12  1  0.34184000  0.29591000  0.12733000  1.0
  H  H13  1  0.65815000  0.70409000  0.87267000  1.0
  C  C14  1  0.28099000  0.60956000  0.26816000  1.0
  C  C15  1  0.71901000  0.39044000  0.73184000  1.0
  C  C16  1  0.27163000  0.45387000  0.33405000  1.0
  C  C17  1  0.72837000  0.54613000  0.66595000  1.0
  C  C18  1  0.22627000  0.45484000  0.48543000  1.0
  C  C19  1  0.77373000  0.54516000  0.51457000  1.0
  C  C20  1  0.21128000  0.30413000  0.54122000  1.0
  C  C21  1  0.78871000  0.69587000  0.45878000  1.0
  C  C22  1  0.24240000  0.15651000  0.44426000  1.0
  C  C23  1  0.75760000  0.84349000  0.55574000  1.0
  C  C24  1  0.30237000  0.30121000  0.24493000  1.0
  C  C25  1  0.69763000  0.69879000  0.75507000  1.0
  I  I26  1  0.74110000  0.07236000  0.17462000  1.0
  I  I27  1  0.25890000  0.92765000  0.82538000  1.0
  N  N28  1  0.28685000  0.15558000  0.29852000  1.0
  N  N29  1  0.71315000  0.84442000  0.70148000  1.0
  O  O30  1  0.27385000  0.58077000  0.11808000  1.0
  O  O31  1  0.72615000  0.41923000  0.88193000  1.0
  O  O32  1  0.29506000  0.76336000  0.35980000  1.0
  O  O33  1  0.70494000  0.23664000  0.64020000  1.0
  O  O34  1  0.93543000  0.73316000  0.11780000  1.0
  O  O35  1  0.06457000  0.26684000  0.88220000  1.0
