# generated using pymatgen
data_AgH6C4S(NO)3
_symmetry_space_group_name_H-M   'P 1'
_cell_length_a   6.83839000
_cell_length_b   7.73143075
_cell_length_c   8.67785000
_cell_angle_alpha   72.37956861
_cell_angle_beta   81.29020000
_cell_angle_gamma   64.39548493
_symmetry_Int_Tables_number   1
_chemical_formula_structural   AgH6C4S(NO)3
_chemical_formula_sum   'Ag2 H12 C8 S2 N6 O6'
_cell_volume   394.22219828
_cell_formula_units_Z   2
loop_
 _symmetry_equiv_pos_site_id
 _symmetry_equiv_pos_as_xyz
  1  'x, y, z'
loop_
 _atom_site_type_symbol
 _atom_site_label
 _atom_site_symmetry_multiplicity
 _atom_site_fract_x
 _atom_site_fract_y
 _atom_site_fract_z
 _atom_site_occupancy
  Ag  Ag0  1  0.99700000  0.47902000  0.81535000  1.0
  Ag  Ag1  1  0.00299000  0.52098000  0.18465000  1.0
  H  H2  1  0.36893000  0.87403000  0.61657000  1.0
  H  H3  1  0.63108000  0.12597000  0.38343000  1.0
  H  H4  1  0.30777000  0.66612000  0.71213000  1.0
  H  H5  1  0.69224000  0.33388000  0.28787000  1.0
  H  H6  1  0.58082000  0.62781000  0.64615000  1.0
  H  H7  1  0.41918000  0.37219000  0.35385000  1.0
  H  H8  1  0.39974000  0.71331000  0.36929000  1.0
  H  H9  1  0.60026000  0.28669000  0.63071000  1.0
  H  H10  1  0.31104000  0.97057000  0.27281000  1.0
  H  H11  1  0.68896000  0.02943000  0.72719000  1.0
  H  H12  1  0.59241000  0.82144000  0.31616000  1.0
  H  H13  1  0.40759000  0.17857000  0.68385000  1.0
  C  C14  1  0.48583000  0.77755000  0.11987000  1.0
  C  C15  1  0.51417000  0.22245000  0.88013000  1.0
  C  C16  1  0.43264000  0.72340000  0.69933000  1.0
  C  C17  1  0.56735000  0.27661000  0.30067000  1.0
  C  C18  1  0.48074000  0.73020000  0.85714000  1.0
  C  C19  1  0.51927000  0.26980000  0.14286000  1.0
  C  C20  1  0.44491000  0.82483000  0.27791000  1.0
  C  C21  1  0.55508000  0.17517000  0.72209000  1.0
  S  S22  1  0.28582000  0.84820000  0.98602000  1.0
  S  S23  1  0.71417000  0.15181000  0.01397000  1.0
  N  N24  1  0.99038000  0.73385000  0.46014000  1.0
  N  N25  1  0.00963000  0.26614000  0.53986000  1.0
  N  N26  1  0.67961000  0.67576000  0.06520000  1.0
  N  N27  1  0.32037000  0.32425000  0.93480000  1.0
  N  N28  1  0.67651000  0.64735000  0.91669000  1.0
  N  N29  1  0.32350000  0.35265000  0.08331000  1.0
  O  O30  1  0.15015000  0.57811000  0.52968000  1.0
  O  O31  1  0.84986000  0.42188000  0.47032000  1.0
  O  O32  1  0.98415000  0.78855000  0.30598000  1.0
  O  O33  1  0.01585000  0.21144000  0.69402000  1.0
  O  O34  1  0.83996000  0.83145000  0.54331000  1.0
  O  O35  1  0.16005000  0.16854000  0.45669000  1.0
