# generated using pymatgen
data_CdH16C19N4O5
_symmetry_space_group_name_H-M   'P 1'
_cell_length_a   8.45373000
_cell_length_b   10.20380000
_cell_length_c   12.54070000
_cell_angle_alpha   109.01100000
_cell_angle_beta   103.73300000
_cell_angle_gamma   98.64730000
_symmetry_Int_Tables_number   1
_chemical_formula_structural   CdH16C19N4O5
_chemical_formula_sum   'Cd2 H32 C38 N8 O10'
_cell_volume   962.50755300
_cell_formula_units_Z   2
loop_
 _symmetry_equiv_pos_site_id
 _symmetry_equiv_pos_as_xyz
  1  'x, y, z'
loop_
 _atom_site_type_symbol
 _atom_site_label
 _atom_site_symmetry_multiplicity
 _atom_site_fract_x
 _atom_site_fract_y
 _atom_site_fract_z
 _atom_site_occupancy
  Cd  Cd0  1  0.84323000  0.88075000  0.29836000  1.0
  Cd  Cd1  1  0.15678000  0.11925000  0.70164000  1.0
  H  H2  1  0.13492000  0.09363000  0.43702000  1.0
  H  H3  1  0.86510000  0.90636000  0.56297000  1.0
  H  H4  1  0.19010000  0.95976000  0.44702000  1.0
  H  H5  1  0.80990000  0.04023000  0.55298000  1.0
  H  H6  1  0.13940000  0.70030000  0.96156000  1.0
  H  H7  1  0.86060000  0.29970000  0.03843000  1.0
  H  H8  1  0.42657000  0.89807000  0.29576000  1.0
  H  H9  1  0.57341000  0.10192000  0.70425000  1.0
  H  H10  1  0.60057000  0.55929000  0.10319000  1.0
  H  H11  1  0.39944000  0.44074000  0.89679000  1.0
  H  H12  1  0.25474000  0.46454000  0.05693000  1.0
  H  H13  1  0.74527000  0.53547000  0.94303000  1.0
  H  H14  1  0.12644000  0.74567000  0.27139000  1.0
  H  H15  1  0.87354000  0.25430000  0.72859000  1.0
  H  H16  1  0.05475000  0.57301000  0.16372000  1.0
  H  H17  1  0.94525000  0.42697000  0.83626000  1.0
  H  H18  1  0.97823000  0.80210000  0.77874000  1.0
  H  H19  1  0.02175000  0.19791000  0.22125000  1.0
  H  H20  1  0.74256000  0.91392000  0.73464000  1.0
  H  H21  1  0.25744000  0.08610000  0.26536000  1.0
  H  H22  1  0.56852000  0.97318000  0.86856000  1.0
  H  H23  1  0.43146000  0.02681000  0.13144000  1.0
  H  H24  1  0.63479000  0.93213000  0.05961000  1.0
  H  H25  1  0.36520000  0.06786000  0.94039000  1.0
  H  H26  1  0.84022000  0.36093000  0.30715000  1.0
  H  H27  1  0.15979000  0.63907000  0.69287000  1.0
  H  H28  1  0.73321000  0.69331000  0.57342000  1.0
  H  H29  1  0.26680000  0.30670000  0.42658000  1.0
  H  H30  1  0.64000000  0.51924000  0.65949000  1.0
  H  H31  1  0.35997000  0.48076000  0.34051000  1.0
  H  H32  1  0.64507000  0.26269000  0.56621000  1.0
  H  H33  1  0.35494000  0.73732000  0.43380000  1.0
  C  C34  1  0.42834000  0.79507000  0.23449000  1.0
  C  C35  1  0.57165000  0.20492000  0.76552000  1.0
  C  C36  1  0.51124000  0.61648000  0.13235000  1.0
  C  C37  1  0.48876000  0.38353000  0.86763000  1.0
  C  C38  1  0.34142000  0.56818000  0.10948000  1.0
  C  C39  1  0.65858000  0.43183000  0.89050000  1.0
  C  C40  1  0.12129000  0.68239000  0.18095000  1.0
  C  C41  1  0.87870000  0.31759000  0.81903000  1.0
  C  C42  1  0.02429000  0.74090000  0.09882000  1.0
  C  C43  1  0.97570000  0.25910000  0.90117000  1.0
  C  C44  1  0.93039000  0.79718000  0.94129000  1.0
  C  C45  1  0.06961000  0.20283000  0.05870000  1.0
  C  C46  1  0.90061000  0.82493000  0.83740000  1.0
  C  C47  1  0.09939000  0.17509000  0.16260000  1.0
  C  C48  1  0.76840000  0.88874000  0.81415000  1.0
  C  C49  1  0.23160000  0.11128000  0.18586000  1.0
  C  C50  1  0.67148000  0.92470000  0.89172000  1.0
  C  C51  1  0.32852000  0.07532000  0.10828000  1.0
  C  C52  1  0.70484000  0.90060000  0.99694000  1.0
  C  C53  1  0.29516000  0.09941000  0.00307000  1.0
  C  C54  1  0.83631000  0.83574000  0.02117000  1.0
  C  C55  1  0.16369000  0.16428000  0.97883000  1.0
  C  C56  1  0.76097000  0.14618000  0.38310000  1.0
  C  C57  1  0.23904000  0.85382000  0.61694000  1.0
  C  C58  1  0.74745000  0.29695000  0.43323000  1.0
  C  C59  1  0.25256000  0.70305000  0.56678000  1.0
  C  C60  1  0.79652000  0.39515000  0.38428000  1.0
  C  C61  1  0.20351000  0.60485000  0.61573000  1.0
  C  C62  1  0.79146000  0.53791000  0.43420000  1.0
  C  C63  1  0.20856000  0.46210000  0.56580000  1.0
  C  C64  1  0.73795000  0.58232000  0.53492000  1.0
  C  C65  1  0.26205000  0.41768000  0.46509000  1.0
  C  C66  1  0.68608000  0.48433000  0.58324000  1.0
  C  C67  1  0.31391000  0.51567000  0.41677000  1.0
  C  C68  1  0.68929000  0.34182000  0.53194000  1.0
  C  C69  1  0.31072000  0.65819000  0.46808000  1.0
  C  C70  1  0.83838000  0.63936000  0.37665000  1.0
  C  C71  1  0.16163000  0.36062000  0.62335000  1.0
  N  N72  1  0.56293000  0.75726000  0.20958000  1.0
  N  N73  1  0.43707000  0.24275000  0.79042000  1.0
  N  N74  1  0.29060000  0.68278000  0.17490000  1.0
  N  N75  1  0.70939000  0.31722000  0.82509000  1.0
  N  N76  1  0.89959000  0.80033000  0.11828000  1.0
  N  N77  1  0.10041000  0.19967000  0.88172000  1.0
  N  N78  1  0.04692000  0.73521000  0.99297000  1.0
  N  N79  1  0.95307000  0.26479000  0.00702000  1.0
  O  O80  1  0.81891000  0.10852000  0.29555000  1.0
  O  O81  1  0.18112000  0.89146000  0.70450000  1.0
  O  O82  1  0.71508000  0.05894000  0.43026000  1.0
  O  O83  1  0.28489000  0.94107000  0.56977000  1.0
  O  O84  1  0.85425000  0.59209000  0.27477000  1.0
  O  O85  1  0.14574000  0.40788000  0.72522000  1.0
  O  O86  1  0.85556000  0.77421000  0.43460000  1.0
  O  O87  1  0.14446000  0.22578000  0.56539000  1.0
  O  O88  1  0.13354000  0.99499000  0.38577000  1.0
  O  O89  1  0.86648000  0.00500000  0.61423000  1.0
