# generated using pymatgen
data_ZnH3C2N4Cl
_symmetry_space_group_name_H-M   'P 1'
_cell_length_a   9.34395000
_cell_length_b   10.06500000
_cell_length_c   11.59620000
_cell_angle_alpha   90.00000000
_cell_angle_beta   90.00010000
_cell_angle_gamma   90.00000000
_symmetry_Int_Tables_number   1
_chemical_formula_structural   ZnH3C2N4Cl
_chemical_formula_sum   'Zn8 H24 C16 N32 Cl8'
_cell_volume   1090.58616024
_cell_formula_units_Z   8
loop_
 _symmetry_equiv_pos_site_id
 _symmetry_equiv_pos_as_xyz
  1  'x, y, z'
loop_
 _atom_site_type_symbol
 _atom_site_label
 _atom_site_symmetry_multiplicity
 _atom_site_fract_x
 _atom_site_fract_y
 _atom_site_fract_z
 _atom_site_occupancy
  Zn  Zn0  1  0.07292000  0.10927000  0.38653000  1.0
  Zn  Zn1  1  0.42708000  0.89073000  0.88653000  1.0
  Zn  Zn2  1  0.92708000  0.60927000  0.11347000  1.0
  Zn  Zn3  1  0.57292000  0.39073000  0.61347000  1.0
  Zn  Zn4  1  0.92708000  0.89073000  0.61347000  1.0
  Zn  Zn5  1  0.57292000  0.10927000  0.11347000  1.0
  Zn  Zn6  1  0.07292000  0.39073000  0.88653000  1.0
  Zn  Zn7  1  0.42708000  0.60927000  0.38653000  1.0
  H  H8  1  0.18207000  0.40043000  0.30651000  1.0
  H  H9  1  0.31793000  0.59957000  0.80651000  1.0
  H  H10  1  0.81793000  0.90043000  0.19349000  1.0
  H  H11  1  0.68207000  0.09957000  0.69349000  1.0
  H  H12  1  0.81793000  0.59957000  0.69349000  1.0
  H  H13  1  0.68207000  0.40043000  0.19349000  1.0
  H  H14  1  0.18207000  0.09957000  0.80651000  1.0
  H  H15  1  0.31793000  0.90043000  0.30651000  1.0
  H  H16  1  0.40714000  0.15111000  0.65801000  1.0
  H  H17  1  0.09286000  0.84889000  0.15801000  1.0
  H  H18  1  0.59286000  0.65111000  0.84199000  1.0
  H  H19  1  0.90714000  0.34889000  0.34199000  1.0
  H  H20  1  0.59286000  0.84889000  0.34199000  1.0
  H  H21  1  0.90714000  0.15111000  0.84198000  1.0
  H  H22  1  0.40714000  0.34889000  0.15801000  1.0
  H  H23  1  0.09286000  0.65111000  0.65801000  1.0
  H  H24  1  0.30225000  0.05163000  0.57486000  1.0
  H  H25  1  0.19775000  0.94837000  0.07486000  1.0
  H  H26  1  0.69775000  0.55163000  0.92514000  1.0
  H  H27  1  0.80225000  0.44837000  0.42514000  1.0
  H  H28  1  0.69775000  0.94837000  0.42514000  1.0
  H  H29  1  0.80225000  0.05163000  0.92514000  1.0
  H  H30  1  0.30225000  0.44837000  0.07487000  1.0
  H  H31  1  0.19775000  0.55163000  0.57486000  1.0
  C  C32  1  0.24080000  0.36501000  0.38115000  1.0
  C  C33  1  0.25920000  0.63499000  0.88114000  1.0
  C  C34  1  0.75920000  0.86501000  0.11885000  1.0
  C  C35  1  0.74080000  0.13499000  0.61885000  1.0
  C  C36  1  0.75920000  0.63499000  0.61885000  1.0
  C  C37  1  0.74080000  0.36501000  0.11885000  1.0
  C  C38  1  0.24080000  0.13499000  0.88115000  1.0
  C  C39  1  0.25920000  0.86501000  0.38115000  1.0
  C  C40  1  0.31471000  0.24472000  0.52188000  1.0
  C  C41  1  0.18529000  0.75528000  0.02188000  1.0
  C  C42  1  0.68529000  0.74472000  0.97812000  1.0
  C  C43  1  0.81471000  0.25528000  0.47812000  1.0
  C  C44  1  0.68529000  0.75528000  0.47812000  1.0
  C  C45  1  0.81471000  0.24472000  0.97812000  1.0
  C  C46  1  0.31471000  0.25528000  0.02188000  1.0
  C  C47  1  0.18529000  0.74472000  0.52188000  1.0
  N  N48  1  0.39453000  0.35572000  0.52198000  1.0
  N  N49  1  0.10547000  0.64428000  0.02198000  1.0
  N  N50  1  0.60547000  0.85572000  0.97802000  1.0
  N  N51  1  0.89453000  0.14428000  0.47802000  1.0
  N  N52  1  0.60547000  0.64428000  0.47802000  1.0
  N  N53  1  0.89453000  0.35572000  0.97802000  1.0
  N  N54  1  0.39453000  0.14428000  0.02198000  1.0
  N  N55  1  0.10547000  0.85572000  0.52198000  1.0
  N  N56  1  0.21690000  0.24780000  0.43460000  1.0
  N  N57  1  0.28310000  0.75220000  0.93460000  1.0
  N  N58  1  0.78310000  0.74780000  0.06540000  1.0
  N  N59  1  0.71690000  0.25220000  0.56540000  1.0
  N  N60  1  0.78310000  0.75220000  0.56540000  1.0
  N  N61  1  0.71690000  0.24780000  0.06540000  1.0
  N  N62  1  0.21690000  0.25220000  0.93460000  1.0
  N  N63  1  0.28310000  0.74780000  0.43460000  1.0
  N  N64  1  0.34538000  0.43290000  0.43112000  1.0
  N  N65  1  0.15462000  0.56710000  0.93112000  1.0
  N  N66  1  0.65462000  0.93290000  0.06888000  1.0
  N  N67  1  0.84538000  0.06710000  0.56888000  1.0
  N  N68  1  0.65462000  0.56710000  0.56888000  1.0
  N  N69  1  0.84538000  0.43290000  0.06888000  1.0
  N  N70  1  0.34538000  0.06710000  0.93112000  1.0
  N  N71  1  0.15462000  0.93290000  0.43112000  1.0
  N  N72  1  0.32584000  0.14560000  0.60023000  1.0
  N  N73  1  0.17416000  0.85440000  0.10023000  1.0
  N  N74  1  0.67416000  0.64560000  0.89977000  1.0
  N  N75  1  0.82585000  0.35440000  0.39977000  1.0
  N  N76  1  0.67416000  0.85440000  0.39977000  1.0
  N  N77  1  0.82585000  0.14560000  0.89977000  1.0
  N  N78  1  0.32584000  0.35440000  0.10023000  1.0
  N  N79  1  0.17416000  0.64560000  0.60023000  1.0
  Cl  Cl80  1  0.02791000  0.13277000  0.19904000  1.0
  Cl  Cl81  1  0.47208000  0.86723000  0.69903000  1.0
  Cl  Cl82  1  0.97209000  0.63277000  0.30096000  1.0
  Cl  Cl83  1  0.52791000  0.36723000  0.80097000  1.0
  Cl  Cl84  1  0.97209000  0.86723000  0.80097000  1.0
  Cl  Cl85  1  0.52791000  0.13277000  0.30096000  1.0
  Cl  Cl86  1  0.02791000  0.36723000  0.69904000  1.0
  Cl  Cl87  1  0.47209000  0.63277000  0.19903000  1.0
