# generated using pymatgen
data_MnH14C8(NO3)2
_symmetry_space_group_name_H-M   'P 1'
_cell_length_a   8.00067000
_cell_length_b   10.14810000
_cell_length_c   14.92220000
_cell_angle_alpha   89.99970000
_cell_angle_beta   90.00010000
_cell_angle_gamma   89.99990000
_symmetry_Int_Tables_number   1
_chemical_formula_structural   MnH14C8(NO3)2
_chemical_formula_sum   'Mn4 H56 C32 N8 O24'
_cell_volume   1211.55728196
_cell_formula_units_Z   4
loop_
 _symmetry_equiv_pos_site_id
 _symmetry_equiv_pos_as_xyz
  1  'x, y, z'
loop_
 _atom_site_type_symbol
 _atom_site_label
 _atom_site_symmetry_multiplicity
 _atom_site_fract_x
 _atom_site_fract_y
 _atom_site_fract_z
 _atom_site_occupancy
  Mn  Mn0  1  0.16146000  0.75000000  0.50000000  1.0
  Mn  Mn1  1  0.33854000  0.25000000  0.00000000  1.0
  Mn  Mn2  1  0.83854000  0.25000000  0.50000000  1.0
  Mn  Mn3  1  0.66146000  0.75000000  0.00000000  1.0
  H  H4  1  0.47428000  0.88031000  0.42467000  1.0
  H  H5  1  0.02572000  0.38032000  0.07533000  1.0
  H  H6  1  0.47428000  0.61969000  0.57533000  1.0
  H  H7  1  0.02572000  0.11968000  0.92467000  1.0
  H  H8  1  0.52572000  0.11969000  0.57533000  1.0
  H  H9  1  0.97428000  0.61968000  0.92467000  1.0
  H  H10  1  0.52572000  0.38031000  0.42467000  1.0
  H  H11  1  0.97428000  0.88032000  0.07533000  1.0
  H  H12  1  0.70116000  0.95232000  0.36286000  1.0
  H  H13  1  0.79884000  0.45232000  0.13714000  1.0
  H  H14  1  0.70116000  0.54768000  0.63713000  1.0
  H  H15  1  0.79884000  0.04768000  0.86286000  1.0
  H  H16  1  0.29884000  0.04769000  0.63714000  1.0
  H  H17  1  0.20116000  0.54768000  0.86286000  1.0
  H  H18  1  0.29884000  0.45232000  0.36286000  1.0
  H  H19  1  0.20116000  0.95232000  0.13714000  1.0
  H  H20  1  0.72978000  0.89489000  0.25045000  1.0
  H  H21  1  0.77023000  0.39489000  0.24955000  1.0
  H  H22  1  0.72979000  0.60511000  0.74955000  1.0
  H  H23  1  0.77023000  0.10511000  0.75045000  1.0
  H  H24  1  0.27022000  0.10511000  0.74955000  1.0
  H  H25  1  0.22977000  0.60511000  0.75045000  1.0
  H  H26  1  0.27022000  0.39489000  0.25045000  1.0
  H  H27  1  0.22978000  0.89489000  0.24955000  1.0
  H  H28  1  0.85223000  0.82612000  0.33968000  1.0
  H  H29  1  0.64777000  0.32613000  0.16033000  1.0
  H  H30  1  0.85223000  0.67388000  0.66032000  1.0
  H  H31  1  0.64777000  0.17387000  0.83967000  1.0
  H  H32  1  0.14777000  0.17388000  0.66032000  1.0
  H  H33  1  0.35223000  0.67387000  0.83967000  1.0
  H  H34  1  0.14777000  0.32612000  0.33968000  1.0
  H  H35  1  0.35223000  0.82613000  0.16033000  1.0
  H  H36  1  0.72848000  0.58706000  0.31515000  1.0
  H  H37  1  0.77152000  0.08706000  0.18485000  1.0
  H  H38  1  0.72848000  0.91294000  0.68485000  1.0
  H  H39  1  0.77152000  0.41294000  0.81515000  1.0
  H  H40  1  0.27152000  0.41294000  0.68485000  1.0
  H  H41  1  0.22847000  0.91294000  0.81515000  1.0
  H  H42  1  0.27152000  0.08706000  0.31515000  1.0
  H  H43  1  0.22847000  0.58706000  0.18485000  1.0
  H  H44  1  0.64718000  0.66362000  0.21557000  1.0
  H  H45  1  0.85282000  0.16362000  0.28443000  1.0
  H  H46  1  0.64718000  0.83638000  0.78443000  1.0
  H  H47  1  0.85283000  0.33638000  0.71557000  1.0
  H  H48  1  0.35282000  0.33638000  0.78443000  1.0
  H  H49  1  0.14717000  0.83638000  0.71557000  1.0
  H  H50  1  0.35282000  0.16362000  0.21557000  1.0
  H  H51  1  0.14717000  0.66362000  0.28443000  1.0
  H  H52  1  0.50837000  0.58413000  0.29229000  1.0
  H  H53  1  0.99163000  0.08414000  0.20771000  1.0
  H  H54  1  0.50837000  0.91586000  0.70771000  1.0
  H  H55  1  0.99163000  0.41586000  0.79229000  1.0
  H  H56  1  0.49163000  0.41587000  0.70771000  1.0
  H  H57  1  0.00837000  0.91586000  0.79229000  1.0
  H  H58  1  0.49163000  0.08413000  0.29229000  1.0
  H  H59  1  0.00837000  0.58414000  0.20771000  1.0
  C  C60  1  0.04751000  0.02005000  0.45640000  1.0
  C  C61  1  0.45250000  0.52004000  0.04360000  1.0
  C  C62  1  0.04751000  0.47995000  0.54360000  1.0
  C  C63  1  0.45250000  0.97996000  0.95640000  1.0
  C  C64  1  0.95249000  0.97995000  0.54360000  1.0
  C  C65  1  0.54751000  0.47995000  0.95640000  1.0
  C  C66  1  0.95249000  0.52004000  0.45640000  1.0
  C  C67  1  0.54751000  0.02005000  0.04360000  1.0
  C  C68  1  0.47571000  0.78313000  0.39161000  1.0
  C  C69  1  0.02429000  0.28313000  0.10839000  1.0
  C  C70  1  0.47572000  0.71687000  0.60839000  1.0
  C  C71  1  0.02429000  0.21687000  0.89161000  1.0
  C  C72  1  0.52429000  0.21687000  0.60839000  1.0
  C  C73  1  0.97571000  0.71687000  0.89161000  1.0
  C  C74  1  0.52429000  0.28313000  0.39161000  1.0
  C  C75  1  0.97571000  0.78313000  0.10839000  1.0
  C  C76  1  0.72905000  0.86576000  0.32140000  1.0
  C  C77  1  0.77095000  0.36576000  0.17860000  1.0
  C  C78  1  0.72905000  0.63424000  0.67860000  1.0
  C  C79  1  0.77095000  0.13424000  0.82140000  1.0
  C  C80  1  0.27095000  0.13424000  0.67860000  1.0
  C  C81  1  0.22905000  0.63424000  0.82140000  1.0
  C  C82  1  0.27095000  0.36576000  0.32140000  1.0
  C  C83  1  0.22905000  0.86576000  0.17860000  1.0
  C  C84  1  0.62306000  0.64205000  0.28636000  1.0
  C  C85  1  0.87694000  0.14205000  0.21364000  1.0
  C  C86  1  0.62306000  0.85795000  0.71364000  1.0
  C  C87  1  0.87694000  0.35795000  0.78636000  1.0
  C  C88  1  0.37694000  0.35795000  0.71364000  1.0
  C  C89  1  0.12306000  0.85795000  0.78636000  1.0
  C  C90  1  0.37694000  0.14205000  0.28636000  1.0
  C  C91  1  0.12306000  0.64205000  0.21364000  1.0
  N  N92  1  0.60213000  0.76506000  0.33521000  1.0
  N  N93  1  0.89787000  0.26506000  0.16479000  1.0
  N  N94  1  0.60213000  0.73494000  0.66478000  1.0
  N  N95  1  0.89787000  0.23494000  0.83521000  1.0
  N  N96  1  0.39787000  0.23495000  0.66478000  1.0
  N  N97  1  0.10213000  0.73494000  0.83521000  1.0
  N  N98  1  0.39786000  0.26506000  0.33521000  1.0
  N  N99  1  0.10213000  0.76506000  0.16479000  1.0
  O  O100  1  0.14552000  0.93511000  0.42286000  1.0
  O  O101  1  0.35448000  0.43511000  0.07714000  1.0
  O  O102  1  0.14552000  0.56489000  0.57715000  1.0
  O  O103  1  0.35448000  0.06489000  0.92286000  1.0
  O  O104  1  0.85448000  0.06489000  0.57715000  1.0
  O  O105  1  0.64552000  0.56489000  0.92285000  1.0
  O  O106  1  0.85448000  0.43511000  0.42286000  1.0
  O  O107  1  0.64552000  0.93511000  0.07715000  1.0
  O  O108  1  0.01928000  0.13422000  0.42552000  1.0
  O  O109  1  0.48074000  0.63421000  0.07448000  1.0
  O  O110  1  0.01928000  0.36578000  0.57448000  1.0
  O  O111  1  0.48073000  0.86578000  0.92552000  1.0
  O  O112  1  0.98072000  0.86577000  0.57448000  1.0
  O  O113  1  0.51927000  0.36578000  0.92551000  1.0
  O  O114  1  0.98073000  0.63422000  0.42552000  1.0
  O  O115  1  0.51928000  0.13423000  0.07448000  1.0
  O  O116  1  0.36401000  0.69829000  0.40744000  1.0
  O  O117  1  0.13598000  0.19830000  0.09256000  1.0
  O  O118  1  0.36401000  0.80171000  0.59256000  1.0
  O  O119  1  0.13598000  0.30170000  0.90744000  1.0
  O  O120  1  0.63599000  0.30170000  0.59256000  1.0
  O  O121  1  0.86401000  0.80170000  0.90744000  1.0
  O  O122  1  0.63598000  0.19830000  0.40744000  1.0
  O  O123  1  0.86401000  0.69830000  0.09256000  1.0
