# generated using pymatgen
data_CuH8C13N3
_symmetry_space_group_name_H-M   'P 1'
_cell_length_a   9.07669000
_cell_length_b   9.07670000
_cell_length_c   11.59900000
_cell_angle_alpha   89.99950000
_cell_angle_beta   90.00010000
_cell_angle_gamma   59.99989067
_symmetry_Int_Tables_number   1
_chemical_formula_structural   CuH8C13N3
_chemical_formula_sum   'Cu3 H24 C39 N9'
_cell_volume   827.57275814
_cell_formula_units_Z   3
loop_
 _symmetry_equiv_pos_site_id
 _symmetry_equiv_pos_as_xyz
  1  'x, y, z'
loop_
 _atom_site_type_symbol
 _atom_site_label
 _atom_site_symmetry_multiplicity
 _atom_site_fract_x
 _atom_site_fract_y
 _atom_site_fract_z
 _atom_site_occupancy
  Cu  Cu0  1  0.80820000  0.19751000  0.99017000  1.0
  Cu  Cu1  1  0.19750000  0.99431000  0.65684000  1.0
  Cu  Cu2  1  0.99429000  0.80821000  0.32351000  1.0
  H  H3  1  0.92889000  0.44906000  0.08969000  1.0
  H  H4  1  0.44907000  0.62205000  0.75636000  1.0
  H  H5  1  0.62205000  0.92888000  0.42303000  1.0
  H  H6  1  0.78584000  0.76573000  0.11615000  1.0
  H  H7  1  0.76573000  0.44843000  0.78282000  1.0
  H  H8  1  0.44843000  0.78584000  0.44949000  1.0
  H  H9  1  0.47124000  0.94147000  0.08099000  1.0
  H  H10  1  0.94148000  0.58728000  0.74766000  1.0
  H  H11  1  0.58728000  0.47124000  0.41433000  1.0
  H  H12  1  0.19332000  0.94881000  0.03064000  1.0
  H  H13  1  0.94882000  0.85786000  0.69730000  1.0
  H  H14  1  0.85787000  0.19332000  0.36396000  1.0
  H  H15  1  0.55739000  0.06556000  0.91091000  1.0
  H  H16  1  0.06556000  0.37705000  0.57757000  1.0
  H  H17  1  0.37705000  0.55739000  0.24424000  1.0
  H  H18  1  0.24042000  0.20319000  0.88594000  1.0
  H  H19  1  0.20318000  0.55640000  0.55260000  1.0
  H  H20  1  0.55639000  0.24043000  0.21926000  1.0
  H  H21  1  0.06048000  0.51718000  0.92008000  1.0
  H  H22  1  0.51718000  0.42234000  0.58675000  1.0
  H  H23  1  0.42235000  0.06048000  0.25341000  1.0
  H  H24  1  0.04710000  0.79793000  0.97098000  1.0
  H  H25  1  0.79794000  0.15496000  0.63764000  1.0
  H  H26  1  0.15497000  0.04709000  0.30431000  1.0
  C  C27  1  0.95901000  0.13407000  0.86777000  1.0
  C  C28  1  0.13407000  0.90692000  0.53444000  1.0
  C  C29  1  0.90692000  0.95901000  0.20111000  1.0
  C  C30  1  0.79288000  0.52971000  0.07348000  1.0
  C  C31  1  0.52972000  0.67740000  0.74015000  1.0
  C  C32  1  0.67740000  0.79289000  0.40682000  1.0
  C  C33  1  0.71211000  0.70693000  0.08864000  1.0
  C  C34  1  0.70693000  0.58095000  0.75530000  1.0
  C  C35  1  0.58096000  0.71211000  0.42197000  1.0
  C  C36  1  0.53831000  0.80373000  0.07011000  1.0
  C  C37  1  0.80373000  0.65795000  0.73677000  1.0
  C  C38  1  0.65796000  0.53831000  0.40344000  1.0
  C  C39  1  0.44637000  0.72323000  0.03605000  1.0
  C  C40  1  0.72324000  0.83039000  0.70271000  1.0
  C  C41  1  0.83039000  0.44637000  0.36938000  1.0
  C  C42  1  0.54053000  0.54425000  0.01945000  1.0
  C  C43  1  0.54425000  0.91522000  0.68611000  1.0
  C  C44  1  0.91522000  0.54053000  0.35278000  1.0
  C  C45  1  0.26650000  0.81161000  0.01744000  1.0
  C  C46  1  0.81162000  0.92188000  0.68410000  1.0
  C  C47  1  0.92189000  0.26650000  0.35077000  1.0
  C  C48  1  0.47463000  0.20130000  0.92683000  1.0
  C  C49  1  0.20130000  0.32407000  0.59350000  1.0
  C  C50  1  0.32407000  0.47464000  0.26017000  1.0
  C  C51  1  0.29746000  0.27884000  0.91262000  1.0
  C  C52  1  0.27884000  0.42370000  0.57929000  1.0
  C  C53  1  0.42370000  0.29746000  0.24596000  1.0
  C  C54  1  0.19821000  0.45250000  0.93073000  1.0
  C  C55  1  0.45250000  0.34929000  0.59740000  1.0
  C  C56  1  0.34930000  0.19821000  0.26407000  1.0
  C  C57  1  0.27584000  0.54739000  0.96428000  1.0
  C  C58  1  0.54739000  0.17677000  0.63094000  1.0
  C  C59  1  0.17677000  0.27584000  0.29762000  1.0
  C  C60  1  0.45509000  0.45634000  0.97995000  1.0
  C  C61  1  0.45634000  0.08857000  0.64662000  1.0
  C  C62  1  0.08858000  0.45509000  0.31329000  1.0
  C  C63  1  0.18445000  0.72709000  0.98360000  1.0
  C  C64  1  0.72709000  0.08845000  0.65026000  1.0
  C  C65  1  0.08845000  0.18446000  0.31693000  1.0
  N  N66  1  0.05337000  0.09025000  0.78881000  1.0
  N  N67  1  0.09026000  0.85638000  0.45548000  1.0
  N  N68  1  0.85638000  0.05337000  0.12214000  1.0
  N  N69  1  0.71086000  0.44959000  0.03923000  1.0
  N  N70  1  0.44960000  0.83954000  0.70589000  1.0
  N  N71  1  0.83954000  0.71087000  0.37256000  1.0
  N  N72  1  0.55224000  0.28645000  0.95946000  1.0
  N  N73  1  0.28646000  0.16131000  0.62613000  1.0
  N  N74  1  0.16131000  0.55223000  0.29280000  1.0
