# generated using pymatgen
data_CuH5C6SO
_symmetry_space_group_name_H-M   'P 1'
_cell_length_a   3.99017000
_cell_length_b   5.32090000
_cell_length_c   27.18270000
_cell_angle_alpha   89.99860000
_cell_angle_beta   90.00060000
_cell_angle_gamma   89.99940000
_symmetry_Int_Tables_number   1
_chemical_formula_structural   CuH5C6SO
_chemical_formula_sum   'Cu4 H20 C24 S4 O4'
_cell_volume   577.12393739
_cell_formula_units_Z   4
loop_
 _symmetry_equiv_pos_site_id
 _symmetry_equiv_pos_as_xyz
  1  'x, y, z'
loop_
 _atom_site_type_symbol
 _atom_site_label
 _atom_site_symmetry_multiplicity
 _atom_site_fract_x
 _atom_site_fract_y
 _atom_site_fract_z
 _atom_site_occupancy
  Cu  Cu0  1  0.49027000  0.24265000  0.01849000  1.0
  Cu  Cu1  1  0.50971000  0.25735000  0.51851000  1.0
  Cu  Cu2  1  0.00966000  0.74265000  0.98149000  1.0
  Cu  Cu3  1  0.99025000  0.75736000  0.48151000  1.0
  H  H4  1  0.21476000  0.35624000  0.14675000  1.0
  H  H5  1  0.78524000  0.14379000  0.64676000  1.0
  H  H6  1  0.28525000  0.85623000  0.85324000  1.0
  H  H7  1  0.71473000  0.64375000  0.35325000  1.0
  H  H8  1  0.29101000  0.60103000  0.06970000  1.0
  H  H9  1  0.70897000  0.89898000  0.56972000  1.0
  H  H10  1  0.20890000  0.10101000  0.93028000  1.0
  H  H11  1  0.79101000  0.39901000  0.43030000  1.0
  H  H12  1  0.63550000  0.17338000  0.12642000  1.0
  H  H13  1  0.36450000  0.32665000  0.62644000  1.0
  H  H14  1  0.86447000  0.67336000  0.87356000  1.0
  H  H15  1  0.13553000  0.82668000  0.37358000  1.0
  H  H16  1  0.57356000  0.93519000  0.20457000  1.0
  H  H17  1  0.42647000  0.56483000  0.70458000  1.0
  H  H18  1  0.92648000  0.43517000  0.79542000  1.0
  H  H19  1  0.07357000  0.06479000  0.29542000  1.0
  H  H20  1  0.64875000  0.52198000  0.24157000  1.0
  H  H21  1  0.35133000  0.97802000  0.74157000  1.0
  H  H22  1  0.85132000  0.02196000  0.75843000  1.0
  H  H23  1  0.14873000  0.47799000  0.25842000  1.0
  C  C24  1  0.88771000  0.62778000  0.17980000  1.0
  C  C25  1  0.11232000  0.87221000  0.67980000  1.0
  C  C26  1  0.61230000  0.12775000  0.82020000  1.0
  C  C27  1  0.38773000  0.37221000  0.32020000  1.0
  C  C28  1  0.09168000  0.53693000  0.14204000  1.0
  C  C29  1  0.90833000  0.96308000  0.64205000  1.0
  C  C30  1  0.40831000  0.03690000  0.85795000  1.0
  C  C31  1  0.59170000  0.46310000  0.35796000  1.0
  C  C32  1  0.12932000  0.67332000  0.09886000  1.0
  C  C33  1  0.87066000  0.82667000  0.59887000  1.0
  C  C34  1  0.37066000  0.17332000  0.90112000  1.0
  C  C35  1  0.62928000  0.32668000  0.40113000  1.0
  C  C36  1  0.96104000  0.90167000  0.09255000  1.0
  C  C37  1  0.03896000  0.59837000  0.59257000  1.0
  C  C38  1  0.53893000  0.40165000  0.90743000  1.0
  C  C39  1  0.46098000  0.09835000  0.40744000  1.0
  C  C40  1  0.76504000  0.99498000  0.13119000  1.0
  C  C41  1  0.23496000  0.50503000  0.63121000  1.0
  C  C42  1  0.73495000  0.49495000  0.86880000  1.0
  C  C43  1  0.26503000  0.00500000  0.36881000  1.0
  C  C44  1  0.73052000  0.86126000  0.17507000  1.0
  C  C45  1  0.26954000  0.63873000  0.67508000  1.0
  C  C46  1  0.76951000  0.36124000  0.82492000  1.0
  C  C47  1  0.23051000  0.13870000  0.32494000  1.0
  S  S48  1  0.98918000  0.07043000  0.03586000  1.0
  S  S49  1  0.01080000  0.42957000  0.53588000  1.0
  S  S50  1  0.51076000  0.57044000  0.96412000  1.0
  S  S51  1  0.48915000  0.92958000  0.46414000  1.0
  O  O52  1  0.84896000  0.47560000  0.22057000  1.0
  O  O53  1  0.15112000  0.02444000  0.72058000  1.0
  O  O54  1  0.65112000  0.97558000  0.77943000  1.0
  O  O55  1  0.34898000  0.52441000  0.27942000  1.0
