# generated using pymatgen
data_AlH21C27(NO)6
_symmetry_space_group_name_H-M   'P 1'
_cell_length_a   3.98473000
_cell_length_b   16.06590000
_cell_length_c   16.07010000
_cell_angle_alpha   119.89200000
_cell_angle_beta   89.95850000
_cell_angle_gamma   89.98130000
_symmetry_Int_Tables_number   1
_chemical_formula_structural   AlH21C27(NO)6
_chemical_formula_sum   'Al1 H21 C27 N6 O6'
_cell_volume   891.91717184
_cell_formula_units_Z   1
loop_
 _symmetry_equiv_pos_site_id
 _symmetry_equiv_pos_as_xyz
  1  'x, y, z'
loop_
 _atom_site_type_symbol
 _atom_site_label
 _atom_site_symmetry_multiplicity
 _atom_site_fract_x
 _atom_site_fract_y
 _atom_site_fract_z
 _atom_site_occupancy
  Al  Al0  1  0.00008000  0.50110000  0.49889000  1.0
  H  H1  1  0.49975000  0.92270000  0.07723000  1.0
  H  H2  1  0.49336000  0.65539000  0.07733000  1.0
  H  H3  1  0.50670000  0.92250000  0.34442000  1.0
  H  H4  1  0.79435000  0.05443000  0.16527000  1.0
  H  H5  1  0.18882000  0.05253000  0.38684000  1.0
  H  H6  1  0.20546000  0.83465000  0.94552000  1.0
  H  H7  1  0.81093000  0.61295000  0.94725000  1.0
  H  H8  1  0.79898000  0.61215000  0.16464000  1.0
  H  H9  1  0.20110000  0.83517000  0.38756000  1.0
  H  H10  1  0.04603000  0.30276000  0.51234000  1.0
  H  H11  1  0.99893000  0.19877000  0.50972000  1.0
  H  H12  1  0.94782000  0.30326000  0.29421000  1.0
  H  H13  1  0.98386000  0.20138000  0.19066000  1.0
  H  H14  1  0.05234000  0.70583000  0.69676000  1.0
  H  H15  1  0.01618000  0.80935000  0.79868000  1.0
  H  H16  1  0.95381000  0.48761000  0.69709000  1.0
  H  H17  1  0.00078000  0.49009000  0.80097000  1.0
  H  H18  1  0.88488000  0.47463000  0.28189000  1.0
  H  H19  1  0.98984000  0.48873000  0.18566000  1.0
  H  H20  1  0.11544000  0.71813000  0.52528000  1.0
  H  H21  1  0.01034000  0.81427000  0.51101000  1.0
  C  C22  1  0.50275000  0.57385000  0.64975000  1.0
  C  C23  1  0.50016000  0.57521000  0.42473000  1.0
  C  C24  1  0.49730000  0.35020000  0.42611000  1.0
  C  C25  1  0.50461000  0.78289000  0.06492000  1.0
  C  C26  1  0.49977000  0.88351000  0.11640000  1.0
  C  C27  1  0.49514000  0.93495000  0.21699000  1.0
  C  C28  1  0.49669000  0.88342000  0.26625000  1.0
  C  C29  1  0.50002000  0.78278000  0.21702000  1.0
  C  C30  1  0.50320000  0.73359000  0.11641000  1.0
  C  C31  1  0.66135000  0.19306000  0.28314000  1.0
  C  C32  1  0.65250000  0.09245000  0.23203000  1.0
  C  C33  1  0.49285000  0.04116000  0.27009000  1.0
  C  C34  1  0.33202000  0.09140000  0.35920000  1.0
  C  C35  1  0.32541000  0.19210000  0.41037000  1.0
  C  C36  1  0.49554000  0.24295000  0.37248000  1.0
  C  C37  1  0.34737000  0.76789000  0.90750000  1.0
  C  C38  1  0.33856000  0.71682000  0.80691000  1.0
  C  C39  1  0.50437000  0.62747000  0.75696000  1.0
  C  C40  1  0.67442000  0.58952000  0.80775000  1.0
  C  C41  1  0.66777000  0.64065000  0.90844000  1.0
  C  C42  1  0.50691000  0.72976000  0.95872000  1.0
  C  C43  1  0.66077000  0.64069000  0.23197000  1.0
  C  C44  1  0.66970000  0.58967000  0.28169000  1.0
  C  C45  1  0.50010000  0.62729000  0.37256000  1.0
  C  C46  1  0.33046000  0.71815000  0.41014000  1.0
  C  C47  1  0.33931000  0.76783000  0.35908000  1.0
  C  C48  1  0.50004000  0.72963000  0.27015000  1.0
  N  N49  1  0.16365000  0.24085000  0.49896000  1.0
  N  N50  1  0.82309000  0.24342000  0.24466000  1.0
  N  N51  1  0.17697000  0.75536000  0.75662000  1.0
  N  N52  1  0.83615000  0.50093000  0.75897000  1.0
  N  N53  1  0.82420000  0.50156000  0.23859000  1.0
  N  N54  1  0.17599000  0.76135000  0.49824000  1.0
  O  O55  1  0.26078000  0.39363000  0.40907000  1.0
  O  O56  1  0.26635000  0.51400000  0.60595000  1.0
  O  O57  1  0.27015000  0.59252000  0.48867000  1.0
  O  O58  1  0.73364000  0.39399000  0.48596000  1.0
  O  O59  1  0.73023000  0.51131000  0.40747000  1.0
  O  O60  1  0.73935000  0.59093000  0.60634000  1.0
