# generated using pymatgen
data_UH12C14(NO4)2
_symmetry_space_group_name_H-M   'P 1'
_cell_length_a   8.83134000
_cell_length_b   11.99400000
_cell_length_c   16.25280000
_cell_angle_alpha   90.00040000
_cell_angle_beta   89.99990000
_cell_angle_gamma   89.99850000
_symmetry_Int_Tables_number   1
_chemical_formula_structural   UH12C14(NO4)2
_chemical_formula_sum   'U4 H48 C56 N8 O32'
_cell_volume   1721.54682837
_cell_formula_units_Z   4
loop_
 _symmetry_equiv_pos_site_id
 _symmetry_equiv_pos_as_xyz
  1  'x, y, z'
loop_
 _atom_site_type_symbol
 _atom_site_label
 _atom_site_symmetry_multiplicity
 _atom_site_fract_x
 _atom_site_fract_y
 _atom_site_fract_z
 _atom_site_occupancy
  U  U0  1  0.65364000  0.24999000  0.75000000  1.0
  U  U1  1  0.84636000  0.75002000  0.25000000  1.0
  U  U2  1  0.34636000  0.75000000  0.25000000  1.0
  U  U3  1  0.15364000  0.24999000  0.75001000  1.0
  H  H4  1  0.19893000  0.06954000  0.06930000  1.0
  H  H5  1  0.19891000  0.43046000  0.43070000  1.0
  H  H6  1  0.30108000  0.56952000  0.93069000  1.0
  H  H7  1  0.30108000  0.93046000  0.56930000  1.0
  H  H8  1  0.80108000  0.93046000  0.93070000  1.0
  H  H9  1  0.80108000  0.56953000  0.56931000  1.0
  H  H10  1  0.69891000  0.43047000  0.06931000  1.0
  H  H11  1  0.69893000  0.06954000  0.43070000  1.0
  H  H12  1  0.29987000  0.17648000  0.92512000  1.0
  H  H13  1  0.29986000  0.32353000  0.57489000  1.0
  H  H14  1  0.20014000  0.67647000  0.07489000  1.0
  H  H15  1  0.20013000  0.82352000  0.42511000  1.0
  H  H16  1  0.70014000  0.82352000  0.07489000  1.0
  H  H17  1  0.70014000  0.67647000  0.42511000  1.0
  H  H18  1  0.79985000  0.32353000  0.92511000  1.0
  H  H19  1  0.79987000  0.17648000  0.57489000  1.0
  H  H20  1  0.32879000  0.04761000  0.18622000  1.0
  H  H21  1  0.32877000  0.45238000  0.31377000  1.0
  H  H22  1  0.17122000  0.54762000  0.81376000  1.0
  H  H23  1  0.17122000  0.95239000  0.68623000  1.0
  H  H24  1  0.67122000  0.95239000  0.81377000  1.0
  H  H25  1  0.67122000  0.54763000  0.68623000  1.0
  H  H26  1  0.82877000  0.45238000  0.18624000  1.0
  H  H27  1  0.82877000  0.04761000  0.31378000  1.0
  H  H28  1  0.57638000  0.05884000  0.25453000  1.0
  H  H29  1  0.57636000  0.44116000  0.24547000  1.0
  H  H30  1  0.92363000  0.55885000  0.74547000  1.0
  H  H31  1  0.92364000  0.94117000  0.75453000  1.0
  H  H32  1  0.42364000  0.94116000  0.74547000  1.0
  H  H33  1  0.42363000  0.55885000  0.75453000  1.0
  H  H34  1  0.07635000  0.44116000  0.25453000  1.0
  H  H35  1  0.07636000  0.05883000  0.24547000  1.0
  H  H36  1  0.80528000  0.12162000  0.17535000  1.0
  H  H37  1  0.80527000  0.37839000  0.32465000  1.0
  H  H38  1  0.69473000  0.62162000  0.82465000  1.0
  H  H39  1  0.69473000  0.87839000  0.67536000  1.0
  H  H40  1  0.19474000  0.87838000  0.82464000  1.0
  H  H41  1  0.19473000  0.62162000  0.67535000  1.0
  H  H42  1  0.30526000  0.37838000  0.17536000  1.0
  H  H43  1  0.30527000  0.12160000  0.32464000  1.0
  H  H44  1  0.77813000  0.16771000  0.02658000  1.0
  H  H45  1  0.77812000  0.33229000  0.47341000  1.0
  H  H46  1  0.72188000  0.66770000  0.97342000  1.0
  H  H47  1  0.72188000  0.83230000  0.52659000  1.0
  H  H48  1  0.22188000  0.83228000  0.97341000  1.0
  H  H49  1  0.22188000  0.66771000  0.52659000  1.0
  H  H50  1  0.27811000  0.33229000  0.02659000  1.0
  H  H51  1  0.27813000  0.16770000  0.47341000  1.0
  C  C52  1  0.53412000  0.17005000  0.93506000  1.0
  C  C53  1  0.53411000  0.32996000  0.56494000  1.0
  C  C54  1  0.96589000  0.67004000  0.06494000  1.0
  C  C55  1  0.96589000  0.82995000  0.43506000  1.0
  C  C56  1  0.46589000  0.82995000  0.06493000  1.0
  C  C57  1  0.46589000  0.67005000  0.43506000  1.0
  C  C58  1  0.03410000  0.32996000  0.93507000  1.0
  C  C59  1  0.03411000  0.17004000  0.56494000  1.0
  C  C60  1  0.53893000  0.13898000  0.02270000  1.0
  C  C61  1  0.53891000  0.36102000  0.47730000  1.0
  C  C62  1  0.96109000  0.63898000  0.97730000  1.0
  C  C63  1  0.96108000  0.86102000  0.52270000  1.0
  C  C64  1  0.46109000  0.86102000  0.97730000  1.0
  C  C65  1  0.46108000  0.63899000  0.52270000  1.0
  C  C66  1  0.03890000  0.36102000  0.02271000  1.0
  C  C67  1  0.03892000  0.13898000  0.47730000  1.0
  C  C68  1  0.41143000  0.10585000  0.06914000  1.0
  C  C69  1  0.41141000  0.39415000  0.43086000  1.0
  C  C70  1  0.08858000  0.60584000  0.93086000  1.0
  C  C71  1  0.08858000  0.89415000  0.56914000  1.0
  C  C72  1  0.58858000  0.89415000  0.93086000  1.0
  C  C73  1  0.58858000  0.60585000  0.56914000  1.0
  C  C74  1  0.91141000  0.39415000  0.06915000  1.0
  C  C75  1  0.91142000  0.10585000  0.43086000  1.0
  C  C76  1  0.42657000  0.07845000  0.15211000  1.0
  C  C77  1  0.42655000  0.42155000  0.34788000  1.0
  C  C78  1  0.07344000  0.57845000  0.84788000  1.0
  C  C79  1  0.07344000  0.92156000  0.65212000  1.0
  C  C80  1  0.57345000  0.92155000  0.84788000  1.0
  C  C81  1  0.57344000  0.57845000  0.65212000  1.0
  C  C82  1  0.92655000  0.42155000  0.15212000  1.0
  C  C83  1  0.92656000  0.07844000  0.34789000  1.0
  C  C84  1  0.56727000  0.08437000  0.19037000  1.0
  C  C85  1  0.56726000  0.41563000  0.30963000  1.0
  C  C86  1  0.93274000  0.58437000  0.80963000  1.0
  C  C87  1  0.93274000  0.91564000  0.69037000  1.0
  C  C88  1  0.43275000  0.91564000  0.80963000  1.0
  C  C89  1  0.43274000  0.58437000  0.69037000  1.0
  C  C90  1  0.06724000  0.41564000  0.19037000  1.0
  C  C91  1  0.06725000  0.08436000  0.30963000  1.0
  C  C92  1  0.69472000  0.11805000  0.14590000  1.0
  C  C93  1  0.69471000  0.38195000  0.35410000  1.0
  C  C94  1  0.80528000  0.61805000  0.85410000  1.0
  C  C95  1  0.80529000  0.88196000  0.64591000  1.0
  C  C96  1  0.30529000  0.88195000  0.85409000  1.0
  C  C97  1  0.30528000  0.61805000  0.64590000  1.0
  C  C98  1  0.19471000  0.38195000  0.14591000  1.0
  C  C99  1  0.19471000  0.11804000  0.35409000  1.0
  C  C100  1  0.67998000  0.14363000  0.06296000  1.0
  C  C101  1  0.67996000  0.35637000  0.43704000  1.0
  C  C102  1  0.82004000  0.64363000  0.93704000  1.0
  C  C103  1  0.82003000  0.85637000  0.56296000  1.0
  C  C104  1  0.32004000  0.85636000  0.93704000  1.0
  C  C105  1  0.32003000  0.64364000  0.56296000  1.0
  C  C106  1  0.17995000  0.35637000  0.06296000  1.0
  C  C107  1  0.17997000  0.14363000  0.43704000  1.0
  N  N108  1  0.40293000  0.18482000  0.89726000  1.0
  N  N109  1  0.40292000  0.31519000  0.60275000  1.0
  N  N110  1  0.09708000  0.68481000  0.10275000  1.0
  N  N111  1  0.09708000  0.81518000  0.39725000  1.0
  N  N112  1  0.59708000  0.81518000  0.10274000  1.0
  N  N113  1  0.59708000  0.68482000  0.39725000  1.0
  N  N114  1  0.90292000  0.31519000  0.89725000  1.0
  N  N115  1  0.90293000  0.18482000  0.60275000  1.0
  O  O116  1  0.40357000  0.22837000  0.82048000  1.0
  O  O117  1  0.40358000  0.27163000  0.67952000  1.0
  O  O118  1  0.09643000  0.72838000  0.17952000  1.0
  O  O119  1  0.09642000  0.77163000  0.32048000  1.0
  O  O120  1  0.59642000  0.77163000  0.17952000  1.0
  O  O121  1  0.59643000  0.72837000  0.32048000  1.0
  O  O122  1  0.90358000  0.27163000  0.82048000  1.0
  O  O123  1  0.90358000  0.22837000  0.67952000  1.0
  O  O124  1  0.65574000  0.18850000  0.89380000  1.0
  O  O125  1  0.65574000  0.31150000  0.60619000  1.0
  O  O126  1  0.84426000  0.68849000  0.10619000  1.0
  O  O127  1  0.84426000  0.81150000  0.39381000  1.0
  O  O128  1  0.34426000  0.81149000  0.10619000  1.0
  O  O129  1  0.34426000  0.68851000  0.39381000  1.0
  O  O130  1  0.15574000  0.31150000  0.89381000  1.0
  O  O131  1  0.15575000  0.18850000  0.60620000  1.0
  O  O132  1  0.27334000  0.09877000  0.03068000  1.0
  O  O133  1  0.27332000  0.40123000  0.46931000  1.0
  O  O134  1  0.22667000  0.59876000  0.96931000  1.0
  O  O135  1  0.22667000  0.90123000  0.53068000  1.0
  O  O136  1  0.72667000  0.90123000  0.96932000  1.0
  O  O137  1  0.72667000  0.59877000  0.53069000  1.0
  O  O138  1  0.77331000  0.40123000  0.03069000  1.0
  O  O139  1  0.77333000  0.09877000  0.46932000  1.0
  O  O140  1  0.64619000  0.10462000  0.71921000  1.0
  O  O141  1  0.64618000  0.39537000  0.78078000  1.0
  O  O142  1  0.85383000  0.60462000  0.28078000  1.0
  O  O143  1  0.85381000  0.89537000  0.21921000  1.0
  O  O144  1  0.35381000  0.89538000  0.28079000  1.0
  O  O145  1  0.35382000  0.60463000  0.21922000  1.0
  O  O146  1  0.14618000  0.39537000  0.71922000  1.0
  O  O147  1  0.14619000  0.10462000  0.78079000  1.0
