# generated using pymatgen
data_Al4H38C59(N2O5)4
_symmetry_space_group_name_H-M   'P 1'
_cell_length_a   6.67898000
_cell_length_b   21.94160000
_cell_length_c   23.78380000
_cell_angle_alpha   68.06230000
_cell_angle_beta   89.92470000
_cell_angle_gamma   89.84760000
_symmetry_Int_Tables_number   1
_chemical_formula_structural   Al4H38C59(N2O5)4
_chemical_formula_sum   'Al4 H38 C59 N8 O20'
_cell_volume   3233.06526725
_cell_formula_units_Z   1
loop_
 _symmetry_equiv_pos_site_id
 _symmetry_equiv_pos_as_xyz
  1  'x, y, z'
loop_
 _atom_site_type_symbol
 _atom_site_label
 _atom_site_symmetry_multiplicity
 _atom_site_fract_x
 _atom_site_fract_y
 _atom_site_fract_z
 _atom_site_occupancy
  Al  Al0  1  0.09151000  0.50085000  0.49811000  1.0
  Al  Al1  1  0.59163000  0.49932000  0.50084000  1.0
  Al  Al2  1  0.67381000  0.99850000  0.00116000  1.0
  Al  Al3  1  0.17378000  0.00079000  0.99812000  1.0
  H  H4  1  0.63749000  0.82065000  0.15189000  1.0
  H  H5  1  0.24351000  0.87495000  0.17206000  1.0
  H  H6  1  0.49176000  0.71937000  0.22858000  1.0
  H  H7  1  0.27246000  0.78084000  0.27108000  1.0
  H  H8  1  0.52080000  0.62498000  0.32754000  1.0
  H  H9  1  0.12635000  0.67930000  0.34806000  1.0
  H  H10  1  0.59968000  0.88343000  0.90477000  1.0
  H  H11  1  0.58409000  0.81921000  0.83679000  1.0
  H  H12  1  0.22310000  0.83573000  0.81367000  1.0
  H  H13  1  0.23783000  0.89877000  0.88277000  1.0
  H  H14  1  0.57768000  0.70692000  0.64876000  1.0
  H  H15  1  0.54914000  0.63873000  0.58509000  1.0
  H  H16  1  0.15124000  0.57024000  0.63398000  1.0
  H  H17  1  0.67058000  0.40158000  0.38884000  1.0
  H  H18  1  0.68604000  0.33612000  0.32186000  1.0
  H  H19  1  0.04458000  0.31866000  0.32935000  1.0
  H  H20  1  0.02997000  0.38543000  0.39526000  1.0
  H  H21  1  0.72123000  0.18117000  0.16958000  1.0
  H  H22  1  0.73399000  0.11465000  0.10341000  1.0
  H  H23  1  0.09361000  0.09803000  0.11122000  1.0
  H  H24  1  0.07990000  0.16355000  0.17813000  1.0
  H  H25  1  0.13947000  0.17981000  0.84812000  1.0
  H  H26  1  0.74511000  0.12450000  0.82752000  1.0
  H  H27  1  0.99318000  0.28145000  0.77118000  1.0
  H  H28  1  0.77449000  0.21909000  0.72882000  1.0
  H  H29  1  0.02177000  0.37543000  0.67204000  1.0
  H  H30  1  0.62848000  0.32053000  0.65209000  1.0
  H  H31  1  0.50797000  0.55967000  0.80160000  1.0
  H  H32  1  0.44731000  0.63385000  0.81125000  1.0
  H  H33  1  0.36730000  0.55716000  0.86593000  1.0
  H  H34  1  0.08076000  0.61461000  0.79846000  1.0
  H  H35  1  0.13889000  0.54085000  0.78853000  1.0
  H  H36  1  0.34260000  0.60243000  0.69679000  1.0
  H  H37  1  0.29177000  0.67686000  0.70689000  1.0
  H  H38  1  0.34285000  0.58559000  0.48354000  1.0
  H  H39  1  0.84590000  0.41356000  0.52977000  1.0
  H  H40  1  0.41921000  0.91326000  0.03049000  1.0
  H  H41  1  0.91847000  0.08632000  0.97161000  1.0
  C  C42  1  0.34235000  0.43533000  0.43633000  1.0
  C  C43  1  0.33959000  0.40827000  0.59644000  1.0
  C  C44  1  0.84415000  0.56433000  0.56358000  1.0
  C  C45  1  0.83692000  0.59146000  0.40295000  1.0
  C  C46  1  0.93819000  0.85250000  0.15625000  1.0
  C  C47  1  0.82602000  0.64745000  0.34336000  1.0
  C  C48  1  0.62907000  0.71117000  0.25525000  1.0
  C  C49  1  0.64495000  0.65884000  0.30959000  1.0
  C  C50  1  0.98769000  0.68905000  0.32191000  1.0
  C  C51  1  0.97364000  0.74435000  0.26698000  1.0
  C  C52  1  0.79053000  0.75575000  0.23283000  1.0
  C  C53  1  0.77639000  0.81099000  0.17792000  1.0
  C  C54  1  0.11935000  0.84111000  0.18996000  1.0
  C  C55  1  0.13513000  0.78891000  0.24442000  1.0
  C  C56  1  0.73502000  0.87220000  0.88487000  1.0
  C  C57  1  0.72630000  0.83671000  0.84731000  1.0
  C  C58  1  0.90263000  0.82390000  0.82121000  1.0
  C  C59  1  0.08787000  0.84593000  0.83436000  1.0
  C  C60  1  0.09580000  0.88100000  0.87239000  1.0
  C  C61  1  0.91947000  0.89480000  0.89755000  1.0
  C  C62  1  0.88296000  0.71939000  0.71229000  1.0
  C  C63  1  0.89234000  0.78922000  0.77908000  1.0
  C  C64  1  0.70142000  0.67584000  0.64586000  1.0
  C  C65  1  0.68588000  0.63841000  0.61015000  1.0
  C  C66  1  0.85069000  0.60123000  0.60510000  1.0
  C  C67  1  0.02544000  0.60013000  0.63805000  1.0
  C  C68  1  0.04297000  0.63590000  0.67564000  1.0
  C  C69  1  0.87809000  0.67574000  0.67802000  1.0
  C  C70  1  0.53475000  0.38321000  0.37540000  1.0
  C  C71  1  0.54348000  0.34695000  0.33847000  1.0
  C  C72  1  0.36616000  0.32342000  0.32194000  1.0
  C  C73  1  0.18041000  0.33732000  0.34251000  1.0
  C  C74  1  0.17258000  0.37410000  0.37903000  1.0
  C  C75  1  0.34951000  0.39702000  0.39600000  1.0
  C  C76  1  0.39101000  0.21562000  0.21580000  1.0
  C  C77  1  0.37511000  0.28450000  0.28335000  1.0
  C  C78  1  0.58505000  0.16252000  0.15662000  1.0
  C  C79  1  0.59182000  0.12584000  0.11999000  1.0
  C  C80  1  0.41445000  0.10290000  0.10329000  1.0
  C  C81  1  0.22979000  0.11648000  0.12439000  1.0
  C  C82  1  0.22208000  0.15274000  0.16131000  1.0
  C  C83  1  0.39977000  0.17641000  0.17747000  1.0
  C  C84  1  0.43995000  0.14742000  0.84348000  1.0
  C  C85  1  0.32782000  0.35281000  0.65639000  1.0
  C  C86  1  0.13069000  0.28944000  0.74457000  1.0
  C  C87  1  0.14645000  0.34161000  0.69007000  1.0
  C  C88  1  0.48960000  0.31113000  0.67811000  1.0
  C  C89  1  0.47551000  0.25586000  0.73303000  1.0
  C  C90  1  0.29231000  0.24467000  0.76715000  1.0
  C  C91  1  0.27832000  0.18933000  0.82204000  1.0
  C  C92  1  0.62110000  0.15864000  0.80971000  1.0
  C  C93  1  0.63704000  0.21106000  0.75545000  1.0
  C  C94  1  0.42840000  0.09115000  0.90286000  1.0
  C  C95  1  0.42026000  0.06491000  0.06265000  1.0
  C  C96  1  0.92615000  0.90830000  0.09661000  1.0
  C  C97  1  0.92575000  0.93366000  0.93742000  1.0
  C  C98  1  0.22964000  0.62842000  0.71320000  1.0
  C  C99  1  0.19723000  0.59013000  0.78144000  1.0
  C  C100  1  0.39046000  0.58485000  0.81726000  1.0
  N  N101  1  0.05811000  0.78807000  0.74668000  1.0
  N  N102  1  0.05314000  0.75282000  0.71241000  1.0
  N  N103  1  0.70821000  0.72990000  0.73643000  1.0
  N  N104  1  0.71286000  0.76556000  0.77024000  1.0
  N  N105  1  0.20081000  0.26145000  0.26993000  1.0
  N  N106  1  0.20886000  0.22647000  0.23557000  1.0
  N  N107  1  0.56514000  0.23901000  0.22890000  1.0
  N  N108  1  0.55709000  0.27402000  0.26325000  1.0
  O  O109  1  0.51233000  0.42916000  0.57508000  1.0
  O  O110  1  0.17067000  0.45196000  0.44932000  1.0
  O  O111  1  0.00890000  0.57246000  0.42616000  1.0
  O  O112  1  0.17266000  0.42966000  0.57068000  1.0
  O  O113  1  0.01287000  0.54917000  0.54736000  1.0
  O  O114  1  0.50962000  0.44774000  0.45527000  1.0
  O  O115  1  0.34195000  0.53906000  0.49131000  1.0
  O  O116  1  0.67287000  0.55179000  0.54680000  1.0
  O  O117  1  0.66991000  0.56749000  0.42673000  1.0
  O  O118  1  0.84233000  0.46071000  0.50835000  1.0
  O  O119  1  0.25168000  0.05036000  0.04609000  1.0
  O  O120  1  0.59525000  0.06686000  0.92684000  1.0
  O  O121  1  0.75794000  0.94569000  0.95665000  1.0
  O  O122  1  0.59155000  0.05078000  0.04707000  1.0
  O  O123  1  0.75322000  0.92922000  0.07534000  1.0
  O  O124  1  0.25608000  0.07212000  0.92570000  1.0
  O  O125  1  0.42312000  0.96030000  0.00842000  1.0
  O  O126  1  0.09250000  0.93030000  0.07081000  1.0
  O  O127  1  0.09686000  0.95133000  0.94943000  1.0
  O  O128  1  0.92242000  0.03892000  0.99093000  1.0
