# generated using pymatgen
data_LiH2C2O3
_symmetry_space_group_name_H-M   'P 1'
_cell_length_a   5.33750000
_cell_length_b   5.33731000
_cell_length_c   11.72610000
_cell_angle_alpha   89.99970000
_cell_angle_beta   89.99940000
_cell_angle_gamma   116.43300000
_symmetry_Int_Tables_number   1
_chemical_formula_structural   LiH2C2O3
_chemical_formula_sum   'Li4 H8 C8 O12'
_cell_volume   299.12859265
_cell_formula_units_Z   4
loop_
 _symmetry_equiv_pos_site_id
 _symmetry_equiv_pos_as_xyz
  1  'x, y, z'
loop_
 _atom_site_type_symbol
 _atom_site_label
 _atom_site_symmetry_multiplicity
 _atom_site_fract_x
 _atom_site_fract_y
 _atom_site_fract_z
 _atom_site_occupancy
  Li  Li0  1  0.19498000  0.62037000  0.93213000  1.0
  Li  Li1  1  0.80499000  0.37961000  0.43214000  1.0
  Li  Li2  1  0.62035000  0.19499000  0.06785000  1.0
  Li  Li3  1  0.37965000  0.80500000  0.56788000  1.0
  H  H4  1  0.57611000  0.70339000  0.14355000  1.0
  H  H5  1  0.42391000  0.29660000  0.64356000  1.0
  H  H6  1  0.70335000  0.57608000  0.85646000  1.0
  H  H7  1  0.29660000  0.42391000  0.35644000  1.0
  H  H8  1  0.02643000  0.84043000  0.15759000  1.0
  H  H9  1  0.97358000  0.15956000  0.65757000  1.0
  H  H10  1  0.84045000  0.02644000  0.84242000  1.0
  H  H11  1  0.15953000  0.97357000  0.34243000  1.0
  C  C12  1  0.14495000  0.27657000  0.12526000  1.0
  C  C13  1  0.85507000  0.72343000  0.62526000  1.0
  C  C14  1  0.27655000  0.14494000  0.87474000  1.0
  C  C15  1  0.72343000  0.85505000  0.37474000  1.0
  C  C16  1  0.95815000  0.99867000  0.18397000  1.0
  C  C17  1  0.04184000  0.00134000  0.68397000  1.0
  C  C18  1  0.99865000  0.95815000  0.81604000  1.0
  C  C19  1  0.00134000  0.04185000  0.31603000  1.0
  O  O20  1  0.02762000  0.40197000  0.07110000  1.0
  O  O21  1  0.97240000  0.59802000  0.57110000  1.0
  O  O22  1  0.40198000  0.02761000  0.92889000  1.0
  O  O23  1  0.59803000  0.97238000  0.42890000  1.0
  O  O24  1  0.40751000  0.36513000  0.13533000  1.0
  O  O25  1  0.59249000  0.63484000  0.63534000  1.0
  O  O26  1  0.36514000  0.40754000  0.86465000  1.0
  O  O27  1  0.63484000  0.59248000  0.36464000  1.0
  O  O28  1  0.67586000  0.91356000  0.15001000  1.0
  O  O29  1  0.32421000  0.08647000  0.65002000  1.0
  O  O30  1  0.91352000  0.67583000  0.84999000  1.0
  O  O31  1  0.08646000  0.32421000  0.34999000  1.0
