# generated using pymatgen
data_K2H3C6(NO3)3
_symmetry_space_group_name_H-M   'P 1'
_cell_length_a   7.08275000
_cell_length_b   9.40153000
_cell_length_c   9.82610000
_cell_angle_alpha   115.87000000
_cell_angle_beta   108.27600000
_cell_angle_gamma   93.80020000
_symmetry_Int_Tables_number   1
_chemical_formula_structural   K2H3C6(NO3)3
_chemical_formula_sum   'K4 H6 C12 N6 O18'
_cell_volume   543.01321743
_cell_formula_units_Z   2
loop_
 _symmetry_equiv_pos_site_id
 _symmetry_equiv_pos_as_xyz
  1  'x, y, z'
loop_
 _atom_site_type_symbol
 _atom_site_label
 _atom_site_symmetry_multiplicity
 _atom_site_fract_x
 _atom_site_fract_y
 _atom_site_fract_z
 _atom_site_occupancy
  K  K0  1  0.06610000  0.28149000  0.42886000  1.0
  K  K1  1  0.93392000  0.71851000  0.57115000  1.0
  K  K2  1  0.46741000  0.09012000  0.21571000  1.0
  K  K3  1  0.53261000  0.90988000  0.78430000  1.0
  H  H4  1  0.40559000  0.74560000  0.19829000  1.0
  H  H5  1  0.59441000  0.25439000  0.80170000  1.0
  H  H6  1  0.81779000  0.06473000  0.52080000  1.0
  H  H7  1  0.18221000  0.93528000  0.47921000  1.0
  H  H8  1  0.81642000  0.91455000  0.36565000  1.0
  H  H9  1  0.18358000  0.08545000  0.63435000  1.0
  C  C10  1  0.22064000  0.36270000  0.13587000  1.0
  C  C11  1  0.77936000  0.63729000  0.86413000  1.0
  C  C12  1  0.14714000  0.28577000  0.95964000  1.0
  C  C13  1  0.85285000  0.71423000  0.04036000  1.0
  C  C14  1  0.16656000  0.36139000  0.86330000  1.0
  C  C15  1  0.83343000  0.63861000  0.13670000  1.0
  C  C16  1  0.25975000  0.53702000  0.95980000  1.0
  C  C17  1  0.74024000  0.46298000  0.04020000  1.0
  C  C18  1  0.33208000  0.61660000  0.13009000  1.0
  C  C19  1  0.66791000  0.38340000  0.86990000  1.0
  C  C20  1  0.30783000  0.53805000  0.21605000  1.0
  C  C21  1  0.69217000  0.46194000  0.78395000  1.0
  N  N22  1  0.05908000  0.11501000  0.87215000  1.0
  N  N23  1  0.94092000  0.88499000  0.12785000  1.0
  N  N24  1  0.28534000  0.63210000  0.88505000  1.0
  N  N25  1  0.71466000  0.36790000  0.11495000  1.0
  N  N26  1  0.37891000  0.63424000  0.38967000  1.0
  N  N27  1  0.62109000  0.36576000  0.61033000  1.0
  O  O28  1  0.21371000  0.28723000  0.21355000  1.0
  O  O29  1  0.78629000  0.71277000  0.78645000  1.0
  O  O30  1  0.14916000  0.02287000  0.91515000  1.0
  O  O31  1  0.85083000  0.97713000  0.08485000  1.0
  O  O32  1  0.89030000  0.06051000  0.75185000  1.0
  O  O33  1  0.10969000  0.93948000  0.24814000  1.0
  O  O34  1  0.12328000  0.27960000  0.71097000  1.0
  O  O35  1  0.87672000  0.72040000  0.28903000  1.0
  O  O36  1  0.19966000  0.57491000  0.73313000  1.0
  O  O37  1  0.80035000  0.42509000  0.26687000  1.0
  O  O38  1  0.39537000  0.77588000  0.97388000  1.0
  O  O39  1  0.60463000  0.22412000  0.02612000  1.0
  O  O40  1  0.51959000  0.76113000  0.45944000  1.0
  O  O41  1  0.48042000  0.23886000  0.54056000  1.0
  O  O42  1  0.29977000  0.59307000  0.46837000  1.0
  O  O43  1  0.70023000  0.40693000  0.53163000  1.0
  O  O44  1  0.78105000  0.02198000  0.40325000  1.0
  O  O45  1  0.21895000  0.97803000  0.59675000  1.0
