# generated using pymatgen
data_NiH22C28(N4O3)2
_symmetry_space_group_name_H-M   'P 1'
_cell_length_a   7.43535000
_cell_length_b   9.32200991
_cell_length_c   10.57150000
_cell_angle_alpha   88.65091582
_cell_angle_beta   72.18360000
_cell_angle_gamma   76.22544055
_symmetry_Int_Tables_number   1
_chemical_formula_structural   NiH22C28(N4O3)2
_chemical_formula_sum   'Ni1 H22 C28 N8 O6'
_cell_volume   676.56866499
_cell_formula_units_Z   1
loop_
 _symmetry_equiv_pos_site_id
 _symmetry_equiv_pos_as_xyz
  1  'x, y, z'
loop_
 _atom_site_type_symbol
 _atom_site_label
 _atom_site_symmetry_multiplicity
 _atom_site_fract_x
 _atom_site_fract_y
 _atom_site_fract_z
 _atom_site_occupancy
  Ni  Ni0  1  0.50000000  0.50000000  0.00000000  1.0
  H  H1  1  0.70592000  0.00732000  0.01245000  1.0
  H  H2  1  0.29408000  0.99267000  0.98755000  1.0
  H  H3  1  0.83664000  0.76536000  0.09299000  1.0
  H  H4  1  0.16336000  0.23464000  0.90702000  1.0
  H  H5  1  0.78359000  0.21689000  0.90392000  1.0
  H  H6  1  0.21642000  0.78310000  0.09608000  1.0
  H  H7  1  0.53877000  0.56716000  0.71382000  1.0
  H  H8  1  0.46123000  0.43284000  0.28618000  1.0
  H  H9  1  0.00986000  0.09071000  0.68653000  1.0
  H  H10  1  0.99015000  0.90930000  0.31347000  1.0
  H  H11  1  0.40482000  0.88244000  0.47673000  1.0
  H  H12  1  0.59518000  0.11756000  0.52327000  1.0
  H  H13  1  0.00235000  0.21726000  0.47536000  1.0
  H  H14  1  0.99765000  0.78276000  0.52464000  1.0
  H  H15  1  0.27342000  0.12596000  0.39460000  1.0
  H  H16  1  0.72657000  0.87404000  0.60539000  1.0
  H  H17  1  0.98613000  0.35626000  0.29319000  1.0
  H  H18  1  0.01386000  0.64374000  0.70681000  1.0
  H  H19  1  0.81481000  0.52050000  0.08938000  1.0
  H  H20  1  0.18517000  0.47951000  0.91062000  1.0
  H  H21  1  0.82074000  0.57229000  0.94274000  1.0
  H  H22  1  0.17925000  0.42772000  0.05727000  1.0
  C  C23  1  0.71051000  0.84320000  0.15844000  1.0
  C  C24  1  0.28949000  0.15679000  0.84156000  1.0
  C  C25  1  0.76521000  0.49088000  0.46321000  1.0
  C  C26  1  0.23478000  0.50913000  0.53680000  1.0
  C  C27  1  0.70147000  0.66399000  0.33691000  1.0
  C  C28  1  0.29853000  0.33600000  0.66309000  1.0
  C  C29  1  0.90816000  0.19669000  0.68802000  1.0
  C  C30  1  0.09184000  0.80331000  0.31198000  1.0
  C  C31  1  0.47553000  0.08054000  0.19710000  1.0
  C  C32  1  0.52448000  0.91945000  0.80290000  1.0
  C  C33  1  0.39730000  0.22774000  0.14805000  1.0
  C  C34  1  0.60270000  0.77226000  0.85195000  1.0
  C  C35  1  0.64616000  0.46255000  0.70432000  1.0
  C  C36  1  0.35384000  0.53745000  0.29568000  1.0
  C  C37  1  0.46696000  0.90964000  0.37432000  1.0
  C  C38  1  0.53304000  0.09036000  0.62568000  1.0
  C  C39  1  0.62456000  0.80652000  0.28937000  1.0
  C  C40  1  0.37545000  0.19347000  0.71063000  1.0
  C  C41  1  0.90420000  0.26739000  0.57130000  1.0
  C  C42  1  0.09581000  0.73261000  0.42870000  1.0
  C  C43  1  0.78270000  0.26455000  0.80914000  1.0
  C  C44  1  0.21730000  0.73545000  0.19086000  1.0
  C  C45  1  0.39261000  0.04459000  0.32784000  1.0
  C  C46  1  0.60740000  0.95541000  0.67216000  1.0
  C  C47  1  0.77283000  0.40469000  0.57888000  1.0
  C  C48  1  0.22716000  0.59532000  0.42112000  1.0
  C  C49  1  0.63766000  0.97926000  0.11356000  1.0
  C  C50  1  0.36234000  0.02074000  0.88643000  1.0
  N  N51  1  0.65633000  0.62881000  0.46712000  1.0
  N  N52  1  0.34367000  0.37119000  0.53288000  1.0
  N  N53  1  0.65203000  0.39484000  0.81676000  1.0
  N  N54  1  0.34796000  0.60516000  0.18324000  1.0
  N  N55  1  0.83070000  0.55417000  0.25358000  1.0
  N  N56  1  0.16929000  0.44583000  0.74642000  1.0
  N  N57  1  0.86960000  0.44546000  0.33498000  1.0
  N  N58  1  0.13040000  0.55454000  0.66503000  1.0
  O  O59  1  0.52803000  0.29092000  0.08027000  1.0
  O  O60  1  0.47196000  0.70908000  0.91972000  1.0
  O  O61  1  0.79564000  0.49299000  0.00493000  1.0
  O  O62  1  0.20435000  0.50702000  0.99506000  1.0
  O  O63  1  0.21440000  0.27900000  0.17593000  1.0
  O  O64  1  0.78559000  0.72100000  0.82408000  1.0
