# generated using pymatgen
data_ZnH18C22(NO)4
_symmetry_space_group_name_H-M   'P 1'
_cell_length_a   8.57903000
_cell_length_b   11.15900000
_cell_length_c   11.15900000
_cell_angle_alpha   107.10300000
_cell_angle_beta   93.57330000
_cell_angle_gamma   93.57370000
_symmetry_Int_Tables_number   1
_chemical_formula_structural   ZnH18C22(NO)4
_chemical_formula_sum   'Zn2 H36 C44 N8 O8'
_cell_volume   1015.41191790
_cell_formula_units_Z   2
loop_
 _symmetry_equiv_pos_site_id
 _symmetry_equiv_pos_as_xyz
  1  'x, y, z'
loop_
 _atom_site_type_symbol
 _atom_site_label
 _atom_site_symmetry_multiplicity
 _atom_site_fract_x
 _atom_site_fract_y
 _atom_site_fract_z
 _atom_site_occupancy
  Zn  Zn0  1  0.59686000  0.91426000  0.30761000  1.0
  Zn  Zn1  1  0.09686000  0.30761000  0.91426000  1.0
  H  H2  1  0.10840000  0.94047000  0.97314000  1.0
  H  H3  1  0.60840000  0.97313000  0.94047000  1.0
  H  H4  1  0.02566000  0.78159000  0.91673000  1.0
  H  H5  1  0.52566000  0.91673000  0.78159000  1.0
  H  H6  1  0.88252000  0.26687000  0.46073000  1.0
  H  H7  1  0.38253000  0.46073000  0.26687000  1.0
  H  H8  1  0.17176000  0.02198000  0.81330000  1.0
  H  H9  1  0.67175000  0.81330000  0.02197000  1.0
  H  H10  1  0.30152000  0.00880000  0.61625000  1.0
  H  H11  1  0.80151000  0.61625000  0.00880000  1.0
  H  H12  1  0.17205000  0.61165000  0.98683000  1.0
  H  H13  1  0.67206000  0.98683000  0.61165000  1.0
  H  H14  1  0.04342000  0.46704000  0.49250000  1.0
  H  H15  1  0.54342000  0.49250000  0.46704000  1.0
  H  H16  1  0.74657000  0.65934000  0.33765000  1.0
  H  H17  1  0.24657000  0.33766000  0.65934000  1.0
  H  H18  1  0.18518000  0.82825000  0.28851000  1.0
  H  H19  1  0.68518000  0.28851000  0.82825000  1.0
  H  H20  1  0.37910000  0.62280000  0.57501000  1.0
  H  H21  1  0.87910000  0.57501000  0.62280000  1.0
  H  H22  1  0.86662000  0.47817000  0.12559000  1.0
  H  H23  1  0.36662000  0.12558000  0.47817000  1.0
  H  H24  1  0.37501000  0.98866000  0.10177000  1.0
  H  H25  1  0.87500000  0.10177000  0.98866000  1.0
  H  H26  1  0.42271000  0.63800000  0.16680000  1.0
  H  H27  1  0.92272000  0.16680000  0.63800000  1.0
  H  H28  1  0.70472000  0.27681000  0.09586000  1.0
  H  H29  1  0.20472000  0.09586000  0.27681000  1.0
  H  H30  1  0.25090000  0.63493000  0.77171000  1.0
  H  H31  1  0.75090000  0.77171000  0.63493000  1.0
  H  H32  1  0.95036000  0.98672000  0.27385000  1.0
  H  H33  1  0.45036000  0.27385000  0.98672000  1.0
  H  H34  1  0.13728000  0.63221000  0.42138000  1.0
  H  H35  1  0.63728000  0.42138000  0.63221000  1.0
  H  H36  1  0.15573000  0.58499000  0.25708000  1.0
  H  H37  1  0.65573000  0.25708000  0.58499000  1.0
  C  C38  1  0.20378000  0.83019000  0.80599000  1.0
  C  C39  1  0.70378000  0.80598000  0.83019000  1.0
  C  C40  1  0.13406000  0.84289000  0.92964000  1.0
  C  C41  1  0.63406000  0.92964000  0.84289000  1.0
  C  C42  1  0.87778000  0.31377000  0.38791000  1.0
  C  C43  1  0.37778000  0.38791000  0.31377000  1.0
  C  C44  1  0.34967000  0.81513000  0.58397000  1.0
  C  C45  1  0.84967000  0.58397000  0.81513000  1.0
  C  C46  1  0.21554000  0.93409000  0.75997000  1.0
  C  C47  1  0.71553000  0.75996000  0.93409000  1.0
  C  C48  1  0.28775000  0.92677000  0.64984000  1.0
  C  C49  1  0.78775000  0.64984000  0.92677000  1.0
  C  C50  1  0.25410000  0.69189000  0.03530000  1.0
  C  C51  1  0.75411000  0.03530000  0.69189000  1.0
  C  C52  1  0.96740000  0.42725000  0.40582000  1.0
  C  C53  1  0.46740000  0.40582000  0.42725000  1.0
  C  C54  1  0.83316000  0.72650000  0.32134000  1.0
  C  C55  1  0.33316000  0.32134000  0.72650000  1.0
  C  C56  1  0.78350000  0.25916000  0.27579000  1.0
  C  C57  1  0.28350000  0.27579000  0.25916000  1.0
  C  C58  1  0.96360000  0.48773000  0.31248000  1.0
  C  C59  1  0.46360000  0.31248000  0.48773000  1.0
  C  C60  1  0.05999000  0.81774000  0.29531000  1.0
  C  C61  1  0.55999000  0.29532000  0.81774000  1.0
  C  C62  1  0.33225000  0.70957000  0.62750000  1.0
  C  C63  1  0.83225000  0.62750000  0.70957000  1.0
  C  C64  1  0.86707000  0.43388000  0.20070000  1.0
  C  C65  1  0.36707000  0.20070000  0.43388000  1.0
  C  C66  1  0.35523000  0.89029000  0.09645000  1.0
  C  C67  1  0.85523000  0.09645000  0.89029000  1.0
  C  C68  1  0.37704000  0.70594000  0.12463000  1.0
  C  C69  1  0.87704000  0.12462000  0.70594000  1.0
  C  C70  1  0.44241000  0.80950000  0.47277000  1.0
  C  C71  1  0.94241000  0.47277000  0.80951000  1.0
  C  C72  1  0.69436000  0.13313000  0.25027000  1.0
  C  C73  1  0.19436000  0.25028000  0.13313000  1.0
  C  C74  1  0.77807000  0.32086000  0.18292000  1.0
  C  C75  1  0.27807000  0.18292000  0.32086000  1.0
  C  C76  1  0.26031000  0.71703000  0.73754000  1.0
  C  C77  1  0.76031000  0.73754000  0.71703000  1.0
  C  C78  1  0.94346000  0.89488000  0.28868000  1.0
  C  C79  1  0.44346000  0.28868000  0.89488000  1.0
  C  C80  1  0.07080000  0.60410000  0.32882000  1.0
  C  C81  1  0.57080000  0.32882000  0.60410000  1.0
  N  N82  1  0.98834000  0.71160000  0.31526000  1.0
  N  N83  1  0.48835000  0.31526000  0.71160000  1.0
  N  N84  1  0.24194000  0.80943000  0.01938000  1.0
  N  N85  1  0.74194000  0.01938000  0.80943000  1.0
  N  N86  1  0.43880000  0.83026000  0.16229000  1.0
  N  N87  1  0.93880000  0.16229000  0.83026000  1.0
  N  N88  1  0.80259000  0.83676000  0.30479000  1.0
  N  N89  1  0.30260000  0.30479000  0.83677000  1.0
  O  O90  1  0.47983000  0.70643000  0.40451000  1.0
  O  O91  1  0.97983000  0.40451000  0.70643000  1.0
  O  O92  1  0.48130000  0.91862000  0.45776000  1.0
  O  O93  1  0.98130000  0.45776000  0.91862000  1.0
  O  O94  1  0.68398000  0.09088000  0.34638000  1.0
  O  O95  1  0.18398000  0.34638000  0.09088000  1.0
  O  O96  1  0.63922000  0.07446000  0.14032000  1.0
  O  O97  1  0.13922000  0.14032000  0.07446000  1.0
