# generated using pymatgen
data_CdH13C12(NO2)3
_symmetry_space_group_name_H-M   'P 1'
_cell_length_a   7.74418000
_cell_length_b   9.16173000
_cell_length_c   10.31710000
_cell_angle_alpha   107.54400000
_cell_angle_beta   90.25990000
_cell_angle_gamma   95.99110000
_symmetry_Int_Tables_number   1
_chemical_formula_structural   CdH13C12(NO2)3
_chemical_formula_sum   'Cd2 H26 C24 N6 O12'
_cell_volume   693.63827375
_cell_formula_units_Z   2
loop_
 _symmetry_equiv_pos_site_id
 _symmetry_equiv_pos_as_xyz
  1  'x, y, z'
loop_
 _atom_site_type_symbol
 _atom_site_label
 _atom_site_symmetry_multiplicity
 _atom_site_fract_x
 _atom_site_fract_y
 _atom_site_fract_z
 _atom_site_occupancy
  Cd  Cd0  1  0.30833000  0.19821000  0.59928000  1.0
  Cd  Cd1  1  0.69166000  0.80178000  0.40072000  1.0
  H  H2  1  0.11671000  0.83694000  0.81318000  1.0
  H  H3  1  0.88330000  0.16306000  0.18682000  1.0
  H  H4  1  0.97101000  0.96519000  0.66536000  1.0
  H  H5  1  0.02899000  0.03482000  0.33465000  1.0
  H  H6  1  0.65832000  0.43696000  0.45080000  1.0
  H  H7  1  0.34169000  0.56304000  0.54919000  1.0
  H  H8  1  0.09657000  0.52366000  0.83624000  1.0
  H  H9  1  0.90343000  0.47634000  0.16376000  1.0
  H  H10  1  0.75405000  0.55792000  0.00336000  1.0
  H  H11  1  0.24596000  0.44206000  0.99663000  1.0
  H  H12  1  0.67508000  0.73963000  0.08390000  1.0
  H  H13  1  0.32493000  0.26036000  0.91610000  1.0
  H  H14  1  0.84303000  0.72745000  0.96614000  1.0
  H  H15  1  0.15697000  0.27255000  0.03385000  1.0
  H  H16  1  0.45772000  0.72962000  0.75425000  1.0
  H  H17  1  0.54227000  0.27038000  0.24575000  1.0
  H  H18  1  0.64643000  0.84629000  0.84149000  1.0
  H  H19  1  0.35356000  0.15370000  0.15851000  1.0
  H  H20  1  0.45577000  0.82860000  0.93430000  1.0
  H  H21  1  0.54423000  0.17140000  0.06571000  1.0
  H  H22  1  0.59013000  0.40229000  0.84482000  1.0
  H  H23  1  0.40988000  0.59771000  0.15518000  1.0
  H  H24  1  0.60752000  0.14537000  0.76717000  1.0
  H  H25  1  0.39247000  0.85463000  0.23283000  1.0
  H  H26  1  0.48185000  0.00092000  0.67394000  1.0
  H  H27  1  0.51815000  0.99909000  0.32607000  1.0
  C  C28  1  0.94272000  0.84431000  0.65753000  1.0
  C  C29  1  0.05727000  0.15569000  0.34247000  1.0
  C  C30  1  0.84012000  0.60189000  0.59615000  1.0
  C  C31  1  0.15989000  0.39811000  0.40384000  1.0
  C  C32  1  0.75165000  0.45659000  0.53510000  1.0
  C  C33  1  0.24835000  0.54341000  0.46491000  1.0
  C  C34  1  0.78803000  0.33552000  0.58337000  1.0
  C  C35  1  0.21197000  0.66448000  0.41663000  1.0
  C  C36  1  0.91027000  0.36037000  0.69312000  1.0
  C  C37  1  0.08973000  0.63962000  0.30688000  1.0
  C  C38  1  0.00092000  0.50539000  0.75358000  1.0
  C  C39  1  0.99908000  0.49462000  0.24641000  1.0
  C  C40  1  0.96382000  0.62461000  0.70397000  1.0
  C  C41  1  0.03619000  0.37540000  0.29602000  1.0
  C  C42  1  0.93819000  0.23597000  0.75672000  1.0
  C  C43  1  0.06181000  0.76403000  0.24328000  1.0
  C  C44  1  0.72332000  0.66646000  0.98950000  1.0
  C  C45  1  0.27669000  0.33353000  0.01050000  1.0
  C  C46  1  0.53368000  0.76701000  0.85041000  1.0
  C  C47  1  0.46631000  0.23299000  0.14959000  1.0
  C  C48  1  0.52917000  0.49001000  0.81268000  1.0
  C  C49  1  0.47084000  0.50998000  0.18732000  1.0
  C  C50  1  0.70229000  0.17699000  0.51038000  1.0
  C  C51  1  0.29772000  0.82301000  0.48962000  1.0
  N  N52  1  0.83164000  0.74162000  0.56996000  1.0
  N  N53  1  0.16836000  0.25837000  0.43004000  1.0
  N  N54  1  0.02477000  0.77950000  0.74025000  1.0
  N  N55  1  0.97524000  0.22049000  0.25976000  1.0
  N  N56  1  0.59351000  0.63429000  0.87940000  1.0
  N  N57  1  0.40650000  0.36570000  0.12059000  1.0
  O  O58  1  0.08662000  0.18488000  0.74634000  1.0
  O  O59  1  0.91338000  0.81513000  0.25366000  1.0
  O  O60  1  0.81686000  0.19599000  0.82505000  1.0
  O  O61  1  0.18314000  0.80402000  0.17496000  1.0
  O  O62  1  0.48250000  0.10734000  0.74025000  1.0
  O  O63  1  0.51749000  0.89266000  0.25975000  1.0
  O  O64  1  0.41069000  0.45417000  0.72116000  1.0
  O  O65  1  0.58931000  0.54584000  0.27884000  1.0
  O  O66  1  0.78105000  0.06306000  0.51283000  1.0
  O  O67  1  0.21894000  0.93695000  0.48718000  1.0
  O  O68  1  0.55669000  0.16692000  0.44629000  1.0
  O  O69  1  0.44331000  0.83309000  0.55372000  1.0
