# generated using pymatgen
data_KAgH24C12(ClO3)2
_symmetry_space_group_name_H-M   'P 1'
_cell_length_a   7.88530000
_cell_length_b   8.67082000
_cell_length_c   13.74460000
_cell_angle_alpha   77.18000000
_cell_angle_beta   89.99990000
_cell_angle_gamma   89.99990000
_symmetry_Int_Tables_number   1
_chemical_formula_structural   KAgH24C12(ClO3)2
_chemical_formula_sum   'K2 Ag2 H48 C24 Cl4 O12'
_cell_volume   916.31999752
_cell_formula_units_Z   2
loop_
 _symmetry_equiv_pos_site_id
 _symmetry_equiv_pos_as_xyz
  1  'x, y, z'
loop_
 _atom_site_type_symbol
 _atom_site_label
 _atom_site_symmetry_multiplicity
 _atom_site_fract_x
 _atom_site_fract_y
 _atom_site_fract_z
 _atom_site_occupancy
  K  K0  1  0.50000000  0.50000000  0.50000000  1.0
  K  K1  1  0.00000000  0.00000000  0.00000000  1.0
  Ag  Ag2  1  0.00000000  0.50000000  0.50000000  1.0
  Ag  Ag3  1  0.50000000  0.00000000  0.00000000  1.0
  H  H4  1  0.30367000  0.54078000  0.24798000  1.0
  H  H5  1  0.80367000  0.95921000  0.25202000  1.0
  H  H6  1  0.69633000  0.45922000  0.75202000  1.0
  H  H7  1  0.19633000  0.04078000  0.74798000  1.0
  H  H8  1  0.45811000  0.60145000  0.15131000  1.0
  H  H9  1  0.95811000  0.89855000  0.34869000  1.0
  H  H10  1  0.54189000  0.39856000  0.84869000  1.0
  H  H11  1  0.04189000  0.10145000  0.65131000  1.0
  H  H12  1  0.58679000  0.33434000  0.20318000  1.0
  H  H13  1  0.08679000  0.16566000  0.29682000  1.0
  H  H14  1  0.41321000  0.66566000  0.79682000  1.0
  H  H15  1  0.91321000  0.83434000  0.70318000  1.0
  H  H16  1  0.42493000  0.28837000  0.29688000  1.0
  H  H17  1  0.92493000  0.21162000  0.20312000  1.0
  H  H18  1  0.57507000  0.71163000  0.70312000  1.0
  H  H19  1  0.07507000  0.78837000  0.79688000  1.0
  H  H20  1  0.69669000  0.12756000  0.33216000  1.0
  H  H21  1  0.19669000  0.37244000  0.16784000  1.0
  H  H22  1  0.30331000  0.87244000  0.66784000  1.0
  H  H23  1  0.80331000  0.62756000  0.83217000  1.0
  H  H24  1  0.80260000  0.30207000  0.34855000  1.0
  H  H25  1  0.30260000  0.19793000  0.15144000  1.0
  H  H26  1  0.19739000  0.69793000  0.65144000  1.0
  H  H27  1  0.69739000  0.80207000  0.84856000  1.0
  H  H28  1  0.84156000  0.16481000  0.52319000  1.0
  H  H29  1  0.34156000  0.33519000  0.97681000  1.0
  H  H30  1  0.15845000  0.83519000  0.47681000  1.0
  H  H31  1  0.65845000  0.66481000  0.02319000  1.0
  H  H32  1  0.72072000  0.99815000  0.50549000  1.0
  H  H33  1  0.22072000  0.50185000  0.99451000  1.0
  H  H34  1  0.27928000  0.00185000  0.49451000  1.0
  H  H35  1  0.77928000  0.49815000  0.00549000  1.0
  H  H36  1  0.49610000  0.06235000  0.62048000  1.0
  H  H37  1  0.99610000  0.43765000  0.87952000  1.0
  H  H38  1  0.50390000  0.93765000  0.37952000  1.0
  H  H39  1  0.00390000  0.56234000  0.12048000  1.0
  H  H40  1  0.69740000  0.01092000  0.67938000  1.0
  H  H41  1  0.19740000  0.48908000  0.82062000  1.0
  H  H42  1  0.30260000  0.98908000  0.32062000  1.0
  H  H43  1  0.80260000  0.51092000  0.17938000  1.0
  H  H44  1  0.35194000  0.83672000  0.19468000  1.0
  H  H45  1  0.85195000  0.66328000  0.30532000  1.0
  H  H46  1  0.64806000  0.16328000  0.80532000  1.0
  H  H47  1  0.14806000  0.33672000  0.69468000  1.0
  H  H48  1  0.56160000  0.80622000  0.24486000  1.0
  H  H49  1  0.06161000  0.69378000  0.25514000  1.0
  H  H50  1  0.43839000  0.19378000  0.75514000  1.0
  H  H51  1  0.93840000  0.30622000  0.74486000  1.0
  C  C52  1  0.43059000  0.59424000  0.23101000  1.0
  C  C53  1  0.93059000  0.90576000  0.26899000  1.0
  C  C54  1  0.56941000  0.40576000  0.76899000  1.0
  C  C55  1  0.06941000  0.09424000  0.73101000  1.0
  C  C56  1  0.55308000  0.33914000  0.28060000  1.0
  C  C57  1  0.05308000  0.16086000  0.21940000  1.0
  C  C58  1  0.44692000  0.66086000  0.71940000  1.0
  C  C59  1  0.94692000  0.83914000  0.78060000  1.0
  C  C60  1  0.67760000  0.24279000  0.35243000  1.0
  C  C61  1  0.17760000  0.25721000  0.14757000  1.0
  C  C62  1  0.32240000  0.75721000  0.64757000  1.0
  C  C63  1  0.82240000  0.74279000  0.85243000  1.0
  C  C64  1  0.71181000  0.11620000  0.52313000  1.0
  C  C65  1  0.21181000  0.38380000  0.97688000  1.0
  C  C66  1  0.28819000  0.88381000  0.47687000  1.0
  C  C67  1  0.78819000  0.61620000  0.02313000  1.0
  C  C68  1  0.62934000  0.10070000  0.62366000  1.0
  C  C69  1  0.12934000  0.39931000  0.87634000  1.0
  C  C70  1  0.37066000  0.89931000  0.37634000  1.0
  C  C71  1  0.87067000  0.60069000  0.12366000  1.0
  C  C72  1  0.43132000  0.75803000  0.25103000  1.0
  C  C73  1  0.93133000  0.74196000  0.24897000  1.0
  C  C74  1  0.56868000  0.24196000  0.74897000  1.0
  C  C75  1  0.06868000  0.25803000  0.75103000  1.0
  Cl  Cl76  1  0.16880000  0.30784000  0.45488000  1.0
  Cl  Cl77  1  0.66880000  0.19217000  0.04512000  1.0
  Cl  Cl78  1  0.83120000  0.69217000  0.54512000  1.0
  Cl  Cl79  1  0.33120000  0.80784000  0.95488000  1.0
  O  O80  1  0.55407000  0.49882000  0.29322000  1.0
  O  O81  1  0.05408000  0.00117000  0.20678000  1.0
  O  O82  1  0.44592000  0.50118000  0.70678000  1.0
  O  O83  1  0.94592000  0.99883000  0.79322000  1.0
  O  O84  1  0.60967000  0.21961000  0.45067000  1.0
  O  O85  1  0.10967000  0.28039000  0.04933000  1.0
  O  O86  1  0.39033000  0.78039000  0.54934000  1.0
  O  O87  1  0.89033000  0.71961000  0.95067000  1.0
  O  O88  1  0.63521000  0.25028000  0.65113000  1.0
  O  O89  1  0.13521000  0.24972000  0.84887000  1.0
  O  O90  1  0.36479000  0.74972000  0.34887000  1.0
  O  O91  1  0.86480000  0.75027000  0.15113000  1.0
