# generated using pymatgen
data_CoH16C24(NO)4
_symmetry_space_group_name_H-M   'P 1'
_cell_length_a   9.42769667
_cell_length_b   10.25570000
_cell_length_c   12.75110000
_cell_angle_alpha   99.60140000
_cell_angle_beta   101.32123719
_cell_angle_gamma   117.03530251
_symmetry_Int_Tables_number   1
_chemical_formula_structural   CoH16C24(NO)4
_chemical_formula_sum   'Co2 H32 C48 N8 O8'
_cell_volume   1029.48315279
_cell_formula_units_Z   2
loop_
 _symmetry_equiv_pos_site_id
 _symmetry_equiv_pos_as_xyz
  1  'x, y, z'
loop_
 _atom_site_type_symbol
 _atom_site_label
 _atom_site_symmetry_multiplicity
 _atom_site_fract_x
 _atom_site_fract_y
 _atom_site_fract_z
 _atom_site_occupancy
  Co  Co0  1  0.75948000  0.65120000  0.73394000  1.0
  Co  Co1  1  0.24204000  0.35340000  0.25882000  1.0
  H  H2  1  0.69748000  0.28089000  0.44542000  1.0
  H  H3  1  0.30942000  0.72265000  0.55311000  1.0
  H  H4  1  0.76666000  0.18691000  0.76151000  1.0
  H  H5  1  0.23979000  0.81238000  0.23500000  1.0
  H  H6  1  0.68046000  0.85741000  0.46443000  1.0
  H  H7  1  0.33535000  0.14857000  0.53089000  1.0
  H  H8  1  0.62326000  0.89475000  0.28951000  1.0
  H  H9  1  0.39442000  0.11569000  0.70601000  1.0
  H  H10  1  0.52620000  0.00705000  0.27637000  1.0
  H  H11  1  0.49274000  0.00451000  0.72025000  1.0
  H  H12  1  0.99633000  0.12270000  0.35859000  1.0
  H  H13  1  0.02515000  0.88876000  0.63767000  1.0
  H  H14  1  0.91339000  0.33499000  0.11650000  1.0
  H  H15  1  0.10498000  0.67704000  0.88063000  1.0
  H  H16  1  0.60935000  0.16004000  0.15685000  1.0
  H  H17  1  0.41053000  0.85348000  0.84240000  1.0
  H  H18  1  0.02069000  0.84420000  0.97235000  1.0
  H  H19  1  0.96836000  0.13216000  0.03068000  1.0
  H  H20  1  0.00388000  0.91816000  0.16323000  1.0
  H  H21  1  0.98780000  0.06767000  0.84157000  1.0
  H  H22  1  0.72167000  0.82023000  0.19211000  1.0
  H  H23  1  0.26945000  0.17021000  0.81039000  1.0
  H  H24  1  0.40023000  0.66034000  0.10456000  1.0
  H  H25  1  0.59556000  0.33594000  0.90231000  1.0
  H  H26  1  0.15763000  0.49511000  0.93594000  1.0
  H  H27  1  0.83414000  0.50322000  0.07235000  1.0
  H  H28  1  0.04250000  0.37421000  0.72484000  1.0
  H  H29  1  0.94289000  0.63147000  0.28836000  1.0
  H  H30  1  0.10344000  0.32431000  0.54394000  1.0
  H  H31  1  0.86476000  0.67575000  0.46274000  1.0
  H  H32  1  0.40040000  0.42932000  0.54551000  1.0
  H  H33  1  0.56558000  0.56691000  0.45228000  1.0
  C  C34  1  0.69037000  0.06538000  0.44116000  1.0
  C  C35  1  0.32415000  0.94086000  0.55566000  1.0
  C  C36  1  0.70991000  0.20631000  0.49385000  1.0
  C  C37  1  0.29900000  0.79704000  0.50379000  1.0
  C  C38  1  0.73910000  0.25085000  0.60938000  1.0
  C  C39  1  0.26603000  0.74966000  0.38790000  1.0
  C  C40  1  0.74773000  0.15338000  0.67194000  1.0
  C  C41  1  0.25936000  0.84738000  0.32455000  1.0
  C  C42  1  0.72488000  0.01112000  0.62012000  1.0
  C  C43  1  0.28431000  0.99087000  0.37554000  1.0
  C  C44  1  0.69987000  0.96933000  0.50479000  1.0
  C  C45  1  0.31337000  0.03537000  0.49114000  1.0
  C  C46  1  0.64371000  0.01126000  0.31558000  1.0
  C  C47  1  0.37464000  0.99918000  0.68116000  1.0
  C  C48  1  0.93267000  0.15623000  0.29778000  1.0
  C  C49  1  0.08696000  0.85440000  0.69897000  1.0
  C  C50  1  0.88341000  0.26245000  0.17070000  1.0
  C  C51  1  0.13510000  0.74962000  0.82642000  1.0
  C  C52  1  0.73392000  0.17773000  0.18962000  1.0
  C  C53  1  0.28563000  0.83498000  0.80894000  1.0
  C  C54  1  0.74847000  0.39591000  0.66564000  1.0
  C  C55  1  0.25064000  0.60201000  0.33029000  1.0
  C  C56  1  0.71096000  0.90049000  0.68738000  1.0
  C  C57  1  0.29714000  0.10204000  0.30831000  1.0
  C  C58  1  0.89929000  0.80411000  0.98636000  1.0
  C  C59  1  0.09052000  0.17734000  0.01772000  1.0
  C  C60  1  0.88870000  0.84561000  0.09390000  1.0
  C  C61  1  0.10347000  0.14081000  0.91036000  1.0
  C  C62  1  0.73278000  0.79327000  0.10896000  1.0
  C  C63  1  0.25895000  0.19614000  0.89380000  1.0
  C  C64  1  0.58684000  0.70059000  0.01634000  1.0
  C  C65  1  0.40407000  0.29018000  0.98673000  1.0
  C  C66  1  0.41963000  0.63742000  0.02336000  1.0
  C  C67  1  0.57325000  0.35763000  0.98262000  1.0
  C  C68  1  0.28446000  0.54540000  0.92984000  1.0
  C  C69  1  0.70667000  0.45116000  0.07721000  1.0
  C  C70  1  0.30492000  0.51027000  0.82220000  1.0
  C  C71  1  0.68299000  0.48720000  0.18374000  1.0
  C  C72  1  0.17054000  0.41978000  0.72237000  1.0
  C  C73  1  0.81210000  0.58105000  0.28575000  1.0
  C  C74  1  0.20417000  0.39160000  0.62278000  1.0
  C  C75  1  0.76930000  0.60699000  0.38196000  1.0
  C  C76  1  0.37144000  0.45257000  0.62269000  1.0
  C  C77  1  0.60029000  0.54421000  0.37773000  1.0
  C  C78  1  0.46872000  0.56955000  0.81353000  1.0
  C  C79  1  0.51692000  0.42443000  0.18751000  1.0
  C  C80  1  0.61032000  0.66498000  0.91107000  1.0
  C  C81  1  0.37912000  0.32411000  0.09122000  1.0
  N  N82  1  0.76392000  0.71574000  0.89703000  1.0
  N  N83  1  0.22534000  0.26818000  0.10812000  1.0
  N  N84  1  0.50092000  0.54016000  0.71559000  1.0
  N  N85  1  0.47573000  0.45504000  0.28204000  1.0
  N  N86  1  0.76756000  0.11207000  0.27007000  1.0
  N  N87  1  0.25229000  0.89996000  0.72782000  1.0
  N  N88  1  0.00577000  0.24751000  0.23815000  1.0
  N  N89  1  0.01257000  0.76285000  0.75763000  1.0
  O  O90  1  0.70709000  0.46774000  0.60376000  1.0
  O  O91  1  0.26879000  0.51602000  0.38877000  1.0
  O  O92  1  0.79309000  0.44419000  0.77167000  1.0
  O  O93  1  0.22382000  0.56472000  0.22531000  1.0
  O  O94  1  0.74012000  0.79393000  0.64725000  1.0
  O  O95  1  0.25968000  0.20306000  0.34651000  1.0
  O  O96  1  0.67315000  0.91898000  0.77558000  1.0
  O  O97  1  0.34335000  0.08795000  0.22324000  1.0
