# generated using pymatgen
data_ZnH15C22N4O5
_symmetry_space_group_name_H-M   'P 1'
_cell_length_a   7.29180000
_cell_length_b   14.28870000
_cell_length_c   21.60810000
_cell_angle_alpha   89.99930000
_cell_angle_beta   89.99990000
_cell_angle_gamma   82.77330000
_symmetry_Int_Tables_number   1
_chemical_formula_structural   ZnH15C22N4O5
_chemical_formula_sum   'Zn4 H60 C88 N16 O20'
_cell_volume   2233.47099934
_cell_formula_units_Z   4
loop_
 _symmetry_equiv_pos_site_id
 _symmetry_equiv_pos_as_xyz
  1  'x, y, z'
loop_
 _atom_site_type_symbol
 _atom_site_label
 _atom_site_symmetry_multiplicity
 _atom_site_fract_x
 _atom_site_fract_y
 _atom_site_fract_z
 _atom_site_occupancy
  Zn  Zn0  1  0.26765000  0.27004000  0.33820000  1.0
  Zn  Zn1  1  0.23234000  0.22996000  0.83819000  1.0
  Zn  Zn2  1  0.73232000  0.72997000  0.66181000  1.0
  Zn  Zn3  1  0.76768000  0.77003000  0.16181000  1.0
  H  H4  1  0.97833000  0.04941000  0.26700000  1.0
  H  H5  1  0.52170000  0.45058000  0.76701000  1.0
  H  H6  1  0.02166000  0.95059000  0.73300000  1.0
  H  H7  1  0.47834000  0.54941000  0.23300000  1.0
  H  H8  1  0.50073000  0.92110000  0.31877000  1.0
  H  H9  1  0.99927000  0.57889000  0.81878000  1.0
  H  H10  1  0.49925000  0.07890000  0.68122000  1.0
  H  H11  1  0.00073000  0.42111000  0.18123000  1.0
  H  H12  1  0.68478000  0.13826000  0.43431000  1.0
  H  H13  1  0.81522000  0.36173000  0.93432000  1.0
  H  H14  1  0.31518000  0.86174000  0.56569000  1.0
  H  H15  1  0.18481000  0.63825000  0.06567000  1.0
  H  H16  1  0.36403000  0.89245000  0.41185000  1.0
  H  H17  1  0.13597000  0.60754000  0.91187000  1.0
  H  H18  1  0.63595000  0.10754000  0.58814000  1.0
  H  H19  1  0.86405000  0.39246000  0.08815000  1.0
  H  H20  1  0.24288000  0.98338000  0.36497000  1.0
  H  H21  1  0.25711000  0.51661000  0.86498000  1.0
  H  H22  1  0.75708000  0.01660000  0.63501000  1.0
  H  H23  1  0.74291000  0.48341000  0.13502000  1.0
  H  H24  1  0.01852000  0.86466000  0.42717000  1.0
  H  H25  1  0.48146000  0.63533000  0.92718000  1.0
  H  H26  1  0.98141000  0.13533000  0.57281000  1.0
  H  H27  1  0.51859000  0.36467000  0.07283000  1.0
  H  H28  1  0.24508000  0.10554000  0.49949000  1.0
  H  H29  1  0.25491000  0.39446000  0.99950000  1.0
  H  H30  1  0.75485000  0.89447000  0.50049000  1.0
  H  H31  1  0.74514000  0.60554000  0.00050000  1.0
  H  H32  1  0.65614000  0.31660000  0.29500000  1.0
  H  H33  1  0.84384000  0.18342000  0.79500000  1.0
  H  H34  1  0.34387000  0.68340000  0.70501000  1.0
  H  H35  1  0.15618000  0.81655000  0.20501000  1.0
  H  H36  1  0.85532000  0.28126000  0.20237000  1.0
  H  H37  1  0.64468000  0.21877000  0.70236000  1.0
  H  H38  1  0.14468000  0.71877000  0.79764000  1.0
  H  H39  1  0.35534000  0.78119000  0.29765000  1.0
  H  H40  1  0.49903000  0.07480000  0.14941000  1.0
  H  H41  1  0.00098000  0.42522000  0.64941000  1.0
  H  H42  1  0.50095000  0.92525000  0.85058000  1.0
  H  H43  1  0.99900000  0.57474000  0.35059000  1.0
  H  H44  1  0.31750000  0.11569000  0.24742000  1.0
  H  H45  1  0.18251000  0.38432000  0.74742000  1.0
  H  H46  1  0.68250000  0.88433000  0.75258000  1.0
  H  H47  1  0.81749000  0.61565000  0.25259000  1.0
  H  H48  1  0.26720000  0.21299000  0.07542000  1.0
  H  H49  1  0.23275000  0.28708000  0.57543000  1.0
  H  H50  1  0.73273000  0.78710000  0.92458000  1.0
  H  H51  1  0.76725000  0.71291000  0.42458000  1.0
  H  H52  1  0.39149000  0.22542000  0.96608000  1.0
  H  H53  1  0.10848000  0.27462000  0.46609000  1.0
  H  H54  1  0.60849000  0.77462000  0.03392000  1.0
  H  H55  1  0.89151000  0.72539000  0.53392000  1.0
  H  H56  1  0.89175000  0.17288000  0.89055000  1.0
  H  H57  1  0.60826000  0.32709000  0.39056000  1.0
  H  H58  1  0.10830000  0.82707000  0.10944000  1.0
  H  H59  1  0.39174000  0.67291000  0.60945000  1.0
  H  H60  1  0.74797000  0.16193000  0.99365000  1.0
  H  H61  1  0.75204000  0.33806000  0.49365000  1.0
  H  H62  1  0.25205000  0.83805000  0.00634000  1.0
  H  H63  1  0.24797000  0.66192000  0.50636000  1.0
  C  C64  1  0.97398000  0.17391000  0.36277000  1.0
  C  C65  1  0.52602000  0.32608000  0.86277000  1.0
  C  C66  1  0.02602000  0.82608000  0.63723000  1.0
  C  C67  1  0.47400000  0.67391000  0.13722000  1.0
  C  C68  1  0.84586000  0.10134000  0.35228000  1.0
  C  C69  1  0.65417000  0.39864000  0.85227000  1.0
  C  C70  1  0.15413000  0.89865000  0.64772000  1.0
  C  C71  1  0.34587000  0.60134000  0.14771000  1.0
  C  C72  1  0.86663000  0.04392000  0.29962000  1.0
  C  C73  1  0.63339000  0.45607000  0.79962000  1.0
  C  C74  1  0.13336000  0.95607000  0.70038000  1.0
  C  C75  1  0.36663000  0.54393000  0.20037000  1.0
  C  C76  1  0.73967000  0.98085000  0.28772000  1.0
  C  C77  1  0.76036000  0.51914000  0.78772000  1.0
  C  C78  1  0.26034000  0.01914000  0.71228000  1.0
  C  C79  1  0.23965000  0.48086000  0.21228000  1.0
  C  C80  1  0.76015000  0.92201000  0.23024000  1.0
  C  C81  1  0.73987000  0.57798000  0.73024000  1.0
  C  C82  1  0.23986000  0.07799000  0.76976000  1.0
  C  C83  1  0.26015000  0.42202000  0.26976000  1.0
  C  C84  1  0.59507000  0.97205000  0.32923000  1.0
  C  C85  1  0.90495000  0.52793000  0.82923000  1.0
  C  C86  1  0.40492000  0.02795000  0.67076000  1.0
  C  C87  1  0.09507000  0.47206000  0.17077000  1.0
  C  C88  1  0.57532000  0.02941000  0.38179000  1.0
  C  C89  1  0.92469000  0.47058000  0.88179000  1.0
  C  C90  1  0.42467000  0.97059000  0.61821000  1.0
  C  C91  1  0.07533000  0.52942000  0.11821000  1.0
  C  C92  1  0.70018000  0.09441000  0.39305000  1.0
  C  C93  1  0.79982000  0.40558000  0.89305000  1.0
  C  C94  1  0.29981000  0.90559000  0.60695000  1.0
  C  C95  1  0.20020000  0.59440000  0.10694000  1.0
  C  C96  1  0.30090000  0.96702000  0.41154000  1.0
  C  C97  1  0.19909000  0.53297000  0.91155000  1.0
  C  C98  1  0.69907000  0.03297000  0.58844000  1.0
  C  C99  1  0.80092000  0.46703000  0.08845000  1.0
  C  C100  1  0.14909000  0.98366000  0.45861000  1.0
  C  C101  1  0.35091000  0.51633000  0.95862000  1.0
  C  C102  1  0.85086000  0.01633000  0.54138000  1.0
  C  C103  1  0.64914000  0.48367000  0.04138000  1.0
  C  C104  1  0.01156000  0.92376000  0.45956000  1.0
  C  C105  1  0.48844000  0.57624000  0.95957000  1.0
  C  C106  1  0.98837000  0.07623000  0.54042000  1.0
  C  C107  1  0.51162000  0.42377000  0.04043000  1.0
  C  C108  1  0.13645000  0.05996000  0.49954000  1.0
  C  C109  1  0.36356000  0.44003000  0.99955000  1.0
  C  C110  1  0.86349000  0.94002000  0.50045000  1.0
  C  C111  1  0.63651000  0.55997000  0.00045000  1.0
  C  C112  1  0.62733000  0.26243000  0.26237000  1.0
  C  C113  1  0.87266000  0.23759000  0.76236000  1.0
  C  C114  1  0.37267000  0.73758000  0.73764000  1.0
  C  C115  1  0.12734000  0.76238000  0.23765000  1.0
  C  C116  1  0.73632000  0.24380000  0.21019000  1.0
  C  C117  1  0.76368000  0.25622000  0.71018000  1.0
  C  C118  1  0.26367000  0.75623000  0.78982000  1.0
  C  C119  1  0.23632000  0.74374000  0.28983000  1.0
  C  C120  1  0.68759000  0.17697000  0.16764000  1.0
  C  C121  1  0.81241000  0.32306000  0.66763000  1.0
  C  C122  1  0.31239000  0.82308000  0.83236000  1.0
  C  C123  1  0.18759000  0.67690000  0.33237000  1.0
  C  C124  1  0.53638000  0.12886000  0.18088000  1.0
  C  C125  1  0.96363000  0.37116000  0.68087000  1.0
  C  C126  1  0.46361000  0.87117000  0.81912000  1.0
  C  C127  1  0.03636000  0.62882000  0.31914000  1.0
  C  C128  1  0.43674000  0.15075000  0.23500000  1.0
  C  C129  1  0.06326000  0.34926000  0.73499000  1.0
  C  C130  1  0.56324000  0.84927000  0.76500000  1.0
  C  C131  1  0.93673000  0.65071000  0.26501000  1.0
  C  C132  1  0.99845000  0.18572000  0.04269000  1.0
  C  C133  1  0.50152000  0.31431000  0.54269000  1.0
  C  C134  1  0.00153000  0.81432000  0.95731000  1.0
  C  C135  1  0.49847000  0.68568000  0.45732000  1.0
  C  C136  1  0.18222000  0.20292000  0.03507000  1.0
  C  C137  1  0.31775000  0.29712000  0.53507000  1.0
  C  C138  1  0.81776000  0.79713000  0.96494000  1.0
  C  C139  1  0.68225000  0.70288000  0.46494000  1.0
  C  C140  1  0.25142000  0.20979000  0.97552000  1.0
  C  C141  1  0.24856000  0.29024000  0.47553000  1.0
  C  C142  1  0.74857000  0.79024000  0.02448000  1.0
  C  C143  1  0.75144000  0.70977000  0.52448000  1.0
  C  C144  1  0.97194000  0.18041000  0.93223000  1.0
  C  C145  1  0.52807000  0.31957000  0.43223000  1.0
  C  C146  1  0.02810000  0.81956000  0.06777000  1.0
  C  C147  1  0.47191000  0.68043000  0.56778000  1.0
  C  C148  1  0.89226000  0.17313000  0.98995000  1.0
  C  C149  1  0.60774000  0.32687000  0.48995000  1.0
  C  C150  1  0.10776000  0.82685000  0.01004000  1.0
  C  C151  1  0.39226000  0.67314000  0.51005000  1.0
  N  N152  1  0.47826000  0.21796000  0.27456000  1.0
  N  N153  1  0.02175000  0.28205000  0.77455000  1.0
  N  N154  1  0.52174000  0.78206000  0.72545000  1.0
  N  N155  1  0.97824000  0.71792000  0.22545000  1.0
  N  N156  1  0.77352000  0.15903000  0.10941000  1.0
  N  N157  1  0.72648000  0.34099000  0.60940000  1.0
  N  N158  1  0.22645000  0.84101000  0.89059000  1.0
  N  N159  1  0.27351000  0.65899000  0.39061000  1.0
  N  N160  1  0.92658000  0.19109000  0.10370000  1.0
  N  N161  1  0.57340000  0.30895000  0.60371000  1.0
  N  N162  1  0.07338000  0.80895000  0.89629000  1.0
  N  N163  1  0.42658000  0.69104000  0.39631000  1.0
  N  N164  1  0.14685000  0.20021000  0.92484000  1.0
  N  N165  1  0.35314000  0.29980000  0.42485000  1.0
  N  N166  1  0.85317000  0.79978000  0.07516000  1.0
  N  N167  1  0.64684000  0.70022000  0.57516000  1.0
  O  O168  1  0.13273000  0.15817000  0.33493000  1.0
  O  O169  1  0.36728000  0.34182000  0.83492000  1.0
  O  O170  1  0.86725000  0.84184000  0.66506000  1.0
  O  O171  1  0.63276000  0.65816000  0.16506000  1.0
  O  O172  1  0.92446000  0.24532000  0.39534000  1.0
  O  O173  1  0.57552000  0.25466000  0.89533000  1.0
  O  O174  1  0.07554000  0.75467000  0.60467000  1.0
  O  O175  1  0.42449000  0.74533000  0.10466000  1.0
  O  O176  1  0.88947000  0.93027000  0.19298000  1.0
  O  O177  1  0.61058000  0.56970000  0.69296000  1.0
  O  O178  1  0.11056000  0.06972000  0.80703000  1.0
  O  O179  1  0.38945000  0.43031000  0.30703000  1.0
  O  O180  1  0.64267000  0.86150000  0.22287000  1.0
  O  O181  1  0.85733000  0.63850000  0.72288000  1.0
  O  O182  1  0.35734000  0.13850000  0.77712000  1.0
  O  O183  1  0.14265000  0.36151000  0.27713000  1.0
  O  O184  1  0.43846000  0.02715000  0.42455000  1.0
  O  O185  1  0.06154000  0.47284000  0.92456000  1.0
  O  O186  1  0.56149000  0.97286000  0.57543000  1.0
  O  O187  1  0.93851000  0.52715000  0.07543000  1.0
