# generated using pymatgen
data_AlH12C27NO18
_symmetry_space_group_name_H-M   'P 1'
_cell_length_a   4.23407000
_cell_length_b   13.64160000
_cell_length_c   13.64350000
_cell_angle_alpha   60.03300000
_cell_angle_beta   89.98800000
_cell_angle_gamma   89.93390000
_symmetry_Int_Tables_number   1
_chemical_formula_structural   AlH12C27NO18
_chemical_formula_sum   'Al1 H12 C27 N1 O18'
_cell_volume   682.69034925
_cell_formula_units_Z   1
loop_
 _symmetry_equiv_pos_site_id
 _symmetry_equiv_pos_as_xyz
  1  'x, y, z'
loop_
 _atom_site_type_symbol
 _atom_site_label
 _atom_site_symmetry_multiplicity
 _atom_site_fract_x
 _atom_site_fract_y
 _atom_site_fract_z
 _atom_site_occupancy
  Al  Al0  1  0.01784000  0.50002000  0.99986000  1.0
  H  H1  1  0.72511000  0.90666000  0.12081000  1.0
  H  H2  1  0.22165000  0.63114000  0.39637000  1.0
  H  H3  1  0.21810000  0.97280000  0.13177000  1.0
  H  H4  1  0.72887000  0.97240000  0.40640000  1.0
  H  H5  1  0.22008000  0.89611000  0.47273000  1.0
  H  H6  1  0.72928000  0.62131000  0.47232000  1.0
  H  H7  1  0.17312000  0.35329000  0.32527000  1.0
  H  H8  1  0.03974000  0.71272000  0.00173000  1.0
  H  H9  1  0.17283000  0.32097000  0.85331000  1.0
  H  H10  1  0.04108000  0.28608000  0.21203000  1.0
  H  H11  1  0.17183000  0.82557000  0.82127000  1.0
  H  H12  1  0.04236000  0.50168000  0.78537000  1.0
  C  C13  1  0.52202000  0.32254000  0.08448000  1.0
  C  C14  1  0.52156000  0.59290000  0.82248000  1.0
  C  C15  1  0.52096000  0.58448000  0.09290000  1.0
  C  C16  1  0.63210000  0.76125000  0.10588000  1.0
  C  C17  1  0.62918000  0.82115000  0.16430000  1.0
  C  C18  1  0.49333000  0.77499000  0.27187000  1.0
  C  C19  1  0.34801000  0.66934000  0.31626000  1.0
  C  C20  1  0.36331000  0.60640000  0.26171000  1.0
  C  C21  1  0.51417000  0.64969000  0.15582000  1.0
  C  C22  1  0.34632000  0.01458000  0.16972000  1.0
  C  C23  1  0.36224000  0.13200000  0.10676000  1.0
  C  C24  1  0.51520000  0.19445000  0.14982000  1.0
  C  C25  1  0.63478000  0.13276000  0.26123000  1.0
  C  C26  1  0.63149000  0.01448000  0.32105000  1.0
  C  C27  1  0.49350000  0.95321000  0.27510000  1.0
  C  C28  1  0.34759000  0.81616000  0.51453000  1.0
  C  C29  1  0.36301000  0.76161000  0.63196000  1.0
  C  C30  1  0.51509000  0.65585000  0.69442000  1.0
  C  C31  1  0.63460000  0.60609000  0.63272000  1.0
  C  C32  1  0.63188000  0.66459000  0.51445000  1.0
  C  C33  1  0.49421000  0.77193000  0.45321000  1.0
  C  C34  1  0.19796000  0.49475000  0.32206000  1.0
  C  C35  1  0.72863000  0.83087000  0.98400000  1.0
  C  C36  1  0.19624000  0.18329000  0.99513000  1.0
  C  C37  1  0.73368000  0.18471000  0.33097000  1.0
  C  C38  1  0.19656000  0.82187000  0.68334000  1.0
  C  C39  1  0.73182000  0.48419000  0.68476000  1.0
  N  N40  1  0.49325000  0.83337000  0.33333333  1.0
  O  O41  1  0.28276000  0.59859000  0.02875000  1.0
  O  O42  1  0.28370000  0.37276000  0.09836000  1.0
  O  O43  1  0.28346000  0.52883000  0.87242000  1.0
  O  O44  1  0.76025000  0.52498000  0.10163000  1.0
  O  O45  1  0.76051000  0.60163000  0.87327000  1.0
  O  O46  1  0.76109000  0.37310000  0.02503000  1.0
  O  O47  1  0.31002000  0.42154000  0.29228000  1.0
  O  O48  1  0.98483000  0.47525000  0.38973000  1.0
  O  O49  1  0.94037000  0.78479000  0.94418000  1.0
  O  O50  1  0.61885000  0.92410000  0.92285000  1.0
  O  O51  1  0.30932000  0.28585000  0.92173000  1.0
  O  O52  1  0.98214000  0.13533000  0.97581000  1.0
  O  O53  1  0.94283000  0.27124000  0.28437000  1.0
  O  O54  1  0.62780000  0.15184000  0.42484000  1.0
  O  O55  1  0.30884000  0.79234000  0.78616000  1.0
  O  O56  1  0.98262000  0.88931000  0.63529000  1.0
  O  O57  1  0.94343000  0.44422000  0.77062000  1.0
  O  O58  1  0.62240000  0.42314000  0.65252000  1.0
