# generated using pymatgen
data_ZnH14C15NO5
_symmetry_space_group_name_H-M   'P 1'
_cell_length_a   8.04399000
_cell_length_b   9.66478160
_cell_length_c   11.01676734
_cell_angle_alpha   67.61928760
_cell_angle_beta   70.50142762
_cell_angle_gamma   66.62332507
_symmetry_Int_Tables_number   1
_chemical_formula_structural   ZnH14C15NO5
_chemical_formula_sum   'Zn2 H28 C30 N2 O10'
_cell_volume   709.91596989
_cell_formula_units_Z   2
loop_
 _symmetry_equiv_pos_site_id
 _symmetry_equiv_pos_as_xyz
  1  'x, y, z'
loop_
 _atom_site_type_symbol
 _atom_site_label
 _atom_site_symmetry_multiplicity
 _atom_site_fract_x
 _atom_site_fract_y
 _atom_site_fract_z
 _atom_site_occupancy
  Zn  Zn0  1  0.19407000  0.56951000  0.08230000  1.0
  Zn  Zn1  1  0.80593000  0.43049000  0.91770000  1.0
  H  H2  1  0.22198000  0.93041000  0.98809000  1.0
  H  H3  1  0.77803000  0.06959000  0.01191000  1.0
  H  H4  1  0.19203000  0.13263000  0.28310000  1.0
  H  H5  1  0.80798000  0.86736000  0.71690000  1.0
  H  H6  1  0.65698000  0.73317000  0.20775000  1.0
  H  H7  1  0.34302000  0.26683000  0.79225000  1.0
  H  H8  1  0.66532000  0.89417000  0.33747000  1.0
  H  H9  1  0.33467000  0.10583000  0.66254000  1.0
  H  H10  1  0.46214000  0.87240000  0.46099000  1.0
  H  H11  1  0.53784000  0.12760000  0.53901000  1.0
  H  H12  1  0.47440000  0.06277000  0.36071000  1.0
  H  H13  1  0.52560000  0.93723000  0.63929000  1.0
  H  H14  1  0.18840000  0.66873000  0.51550000  1.0
  H  H15  1  0.81160000  0.33127000  0.48450000  1.0
  H  H16  1  0.67953000  0.32848000  0.36104000  1.0
  H  H17  1  0.32046000  0.67153000  0.63896000  1.0
  H  H18  1  0.51507000  0.35210000  0.20131000  1.0
  H  H19  1  0.48493000  0.64790000  0.79869000  1.0
  H  H20  1  0.98706000  0.80301000  0.24989000  1.0
  H  H21  1  0.01294000  0.19699000  0.75011000  1.0
  H  H22  1  0.92517000  0.76051000  0.42872000  1.0
  H  H23  1  0.07483000  0.23948000  0.57129000  1.0
  H  H24  1  0.90371000  0.64114000  0.34736000  1.0
  H  H25  1  0.09630000  0.35885000  0.65264000  1.0
  H  H26  1  0.94912000  0.39568000  0.18788000  1.0
  H  H27  1  0.05087000  0.60433000  0.81212000  1.0
  H  H28  1  0.85733000  0.56889000  0.11568000  1.0
  H  H29  1  0.14267000  0.43112000  0.88432000  1.0
  C  C30  1  0.44621000  0.81498000  0.09352000  1.0
  C  C31  1  0.55379000  0.18502000  0.90648000  1.0
  C  C32  1  0.28008000  0.93066000  0.06401000  1.0
  C  C33  1  0.71994000  0.06934000  0.93598000  1.0
  C  C34  1  0.18894000  0.04478000  0.13236000  1.0
  C  C35  1  0.81106000  0.95521000  0.86765000  1.0
  C  C36  1  0.26491000  0.04258000  0.23049000  1.0
  C  C37  1  0.73509000  0.95742000  0.76951000  1.0
  C  C38  1  0.43428000  0.93315000  0.25732000  1.0
  C  C39  1  0.56572000  0.06684000  0.74268000  1.0
  C  C40  1  0.52489000  0.81932000  0.18752000  1.0
  C  C41  1  0.47511000  0.18068000  0.81248000  1.0
  C  C42  1  0.52743000  0.69000000  0.02291000  1.0
  C  C43  1  0.47257000  0.31001000  0.97709000  1.0
  C  C44  1  0.01743000  0.17644000  0.09908000  1.0
  C  C45  1  0.98257000  0.82357000  0.90092000  1.0
  C  C46  1  0.51385000  0.94082000  0.35923000  1.0
  C  C47  1  0.48613000  0.05918000  0.64078000  1.0
  C  C48  1  0.18174000  0.60357000  0.35316000  1.0
  C  C49  1  0.81825000  0.39643000  0.64685000  1.0
  C  C50  1  0.26752000  0.59579000  0.44793000  1.0
  C  C51  1  0.73248000  0.40420000  0.55207000  1.0
  C  C52  1  0.45102000  0.50065000  0.45357000  1.0
  C  C53  1  0.54899000  0.49935000  0.54641000  1.0
  C  C54  1  0.53802000  0.40719000  0.36557000  1.0
  C  C55  1  0.46197000  0.59282000  0.63443000  1.0
  C  C56  1  0.44588000  0.41876000  0.27441000  1.0
  C  C57  1  0.55412000  0.58124000  0.72559000  1.0
  C  C58  1  0.98818000  0.70807000  0.34517000  1.0
  C  C59  1  0.01181000  0.29193000  0.65484000  1.0
  N  N60  1  0.27335000  0.51778000  0.26411000  1.0
  N  N61  1  0.72663000  0.48223000  0.73590000  1.0
  O  O62  1  0.70151000  0.61017000  0.00997000  1.0
  O  O63  1  0.29849000  0.38984000  0.99002000  1.0
  O  O64  1  0.41878000  0.66757000  0.97661000  1.0
  O  O65  1  0.58122000  0.33243000  0.02339000  1.0
  O  O66  1  0.99206000  0.21591000  0.97962000  1.0
  O  O67  1  0.00795000  0.78409000  0.02038000  1.0
  O  O68  1  0.91147000  0.24511000  0.18734000  1.0
  O  O69  1  0.08854000  0.75489000  0.81266000  1.0
  O  O70  1  0.94608000  0.50508000  0.17586000  1.0
  O  O71  1  0.05392000  0.49492000  0.82414000  1.0
