# generated using pymatgen
data_Al3H7(C9O7)2
_symmetry_space_group_name_H-M   'P 1'
_cell_length_a   11.73540699
_cell_length_b   11.75410000
_cell_length_c   19.31880000
_cell_angle_alpha   89.64520000
_cell_angle_beta   89.85423341
_cell_angle_gamma   115.82303780
_symmetry_Int_Tables_number   1
_chemical_formula_structural   Al3H7(C9O7)2
_chemical_formula_sum   'Al6 H14 C36 O28'
_cell_volume   2398.63319107
_cell_formula_units_Z   2
loop_
 _symmetry_equiv_pos_site_id
 _symmetry_equiv_pos_as_xyz
  1  'x, y, z'
loop_
 _atom_site_type_symbol
 _atom_site_label
 _atom_site_symmetry_multiplicity
 _atom_site_fract_x
 _atom_site_fract_y
 _atom_site_fract_z
 _atom_site_occupancy
  Al  Al0  1  0.77736000  0.23948000  0.49712000  1.0
  Al  Al1  1  0.51073000  0.25301000  0.49545000  1.0
  Al  Al2  1  0.74740000  0.49794000  0.49211000  1.0
  Al  Al3  1  0.24265000  0.78439000  0.97513000  1.0
  Al  Al4  1  0.49650000  0.74544000  0.97397000  1.0
  Al  Al5  1  0.24703000  0.51456000  0.97068000  1.0
  H  H6  1  0.36521000  0.31966000  0.67212000  1.0
  H  H7  1  0.29909000  0.38179000  0.78314000  1.0
  H  H8  1  0.08403000  0.73012000  0.77701000  1.0
  H  H9  1  0.63564000  0.91238000  0.78350000  1.0
  H  H10  1  0.95505000  0.66795000  0.66812000  1.0
  H  H11  1  0.69505000  0.03947000  0.67291000  1.0
  H  H12  1  0.58224000  0.56541000  0.79671000  1.0
  H  H13  1  0.00052000  0.44373000  0.79386000  1.0
  H  H14  1  0.45239000  0.03457000  0.80247000  1.0
  H  H15  1  0.57822000  0.59204000  0.67143000  1.0
  H  H16  1  0.00755000  0.43271000  0.67525000  1.0
  H  H17  1  0.42255000  0.01458000  0.68006000  1.0
  H  H18  1  0.89310000  0.13294000  0.45681000  1.0
  H  H19  1  0.19623000  0.95644000  0.95376000  1.0
  C  C20  1  0.89850000  0.46062000  0.39445000  1.0
  C  C21  1  0.47430000  0.91285000  0.88132000  1.0
  C  C22  1  0.44405000  0.54137000  0.87792000  1.0
  C  C23  1  0.11161000  0.57992000  0.87206000  1.0
  C  C24  1  0.90332000  0.46171000  0.59018000  1.0
  C  C25  1  0.55186000  0.10516000  0.59342000  1.0
  C  C26  1  0.54967000  0.46106000  0.58643000  1.0
  C  C27  1  0.46587000  0.50893000  0.13644000  1.0
  C  C28  1  0.04340000  0.53005000  0.13538000  1.0
  C  C29  1  0.49262000  0.94460000  0.14363000  1.0
  C  C30  1  0.49446000  0.47942000  0.26629000  1.0
  C  C31  1  0.56365000  0.10805000  0.39788000  1.0
  C  C32  1  0.97953000  0.50155000  0.26404000  1.0
  C  C33  1  0.52095000  0.01634000  0.27046000  1.0
  C  C34  1  0.47883000  0.49419000  0.19819000  1.0
  C  C35  1  0.01271000  0.51654000  0.19652000  1.0
  C  C36  1  0.50617000  0.97847000  0.20401000  1.0
  C  C37  1  0.51019000  0.46755000  0.32801000  1.0
  C  C38  1  0.95004000  0.48822000  0.32537000  1.0
  C  C39  1  0.53308000  0.05098000  0.33070000  1.0
  C  C40  1  0.51773000  0.49627000  0.65425000  1.0
  C  C41  1  0.97298000  0.49916000  0.65571000  1.0
  C  C42  1  0.54048000  0.44234000  0.39673000  1.0
  C  C43  1  0.51813000  0.03975000  0.66094000  1.0
  C  C44  1  0.48221000  0.51308000  0.80996000  1.0
  C  C45  1  0.04495000  0.54446000  0.80547000  1.0
  C  C46  1  0.50436000  0.97924000  0.81411000  1.0
  C  C47  1  0.39674000  0.43430000  0.76489000  1.0
  C  C48  1  0.04279000  0.63162000  0.76023000  1.0
  C  C49  1  0.58292000  0.96507000  0.76741000  1.0
  C  C50  1  0.42491000  0.41171000  0.69459000  1.0
  C  C51  1  0.98690000  0.60222000  0.69192000  1.0
  C  C52  1  0.60394000  0.01744000  0.69792000  1.0
  C  C53  1  0.45681000  0.89079000  0.07592000  1.0
  C  C54  1  0.44435000  0.54366000  0.06795000  1.0
  C  C55  1  0.09900000  0.55679000  0.06725000  1.0
  O  O56  1  0.67505000  0.13908000  0.41877000  1.0
  O  O57  1  0.87341000  0.54188000  0.55834000  1.0
  O  O58  1  0.87432000  0.34970000  0.57090000  1.0
  O  O59  1  0.46776000  0.13645000  0.56699000  1.0
  O  O60  1  0.65583000  0.53890000  0.55983000  1.0
  O  O61  1  0.67734000  0.33156000  0.49360000  1.0
  O  O62  1  0.11886000  0.66117000  0.03955000  1.0
  O  O63  1  0.54012000  0.87132000  0.04063000  1.0
  O  O64  1  0.34291000  0.47014000  0.03742000  1.0
  O  O65  1  0.34487000  0.86432000  0.05793000  1.0
  O  O66  1  0.52703000  0.65001000  0.04489000  1.0
  O  O67  1  0.46555000  0.33628000  0.42385000  1.0
  O  O68  1  0.12854000  0.47172000  0.04175000  1.0
  O  O69  1  0.15472000  0.69318000  0.89199000  1.0
  O  O70  1  0.54667000  0.86276000  0.90276000  1.0
  O  O71  1  0.33204000  0.47128000  0.90053000  1.0
  O  O72  1  0.37577000  0.90497000  0.91230000  1.0
  O  O73  1  0.52507000  0.63929000  0.90867000  1.0
  O  O74  1  0.12354000  0.48914000  0.90493000  1.0
  O  O75  1  0.86507000  0.54243000  0.42073000  1.0
  O  O76  1  0.33012000  0.68024000  0.97403000  1.0
  O  O77  1  0.88592000  0.35845000  0.42221000  1.0
  O  O78  1  0.47645000  0.12614000  0.42985000  1.0
  O  O79  1  0.64219000  0.52415000  0.42346000  1.0
  O  O80  1  0.65878000  0.13035000  0.56705000  1.0
  O  O81  1  0.47539000  0.35514000  0.56004000  1.0
  O  O82  1  0.86885000  0.15506000  0.50073000  1.0
  O  O83  1  0.15940000  0.87679000  0.97855000  1.0
