# generated using pymatgen
data_UH8(C7O3)2
_symmetry_space_group_name_H-M   'P 1'
_cell_length_a   5.27956000
_cell_length_b   8.52322000
_cell_length_c   8.52318000
_cell_angle_alpha   117.24600000
_cell_angle_beta   97.98760000
_cell_angle_gamma   97.98730000
_symmetry_Int_Tables_number   1
_chemical_formula_structural   UH8(C7O3)2
_chemical_formula_sum   'U1 H8 C14 O6'
_cell_volume   328.61241656
_cell_formula_units_Z   1
loop_
 _symmetry_equiv_pos_site_id
 _symmetry_equiv_pos_as_xyz
  1  'x, y, z'
loop_
 _atom_site_type_symbol
 _atom_site_label
 _atom_site_symmetry_multiplicity
 _atom_site_fract_x
 _atom_site_fract_y
 _atom_site_fract_z
 _atom_site_occupancy
  U  U0  1  0.99999000  0.50003000  0.50003000  1.0
  H  H1  1  0.79247000  0.80356000  0.93484000  1.0
  H  H2  1  0.20754000  0.06516000  0.19644000  1.0
  H  H3  1  0.20754000  0.19644000  0.06516000  1.0
  H  H4  1  0.79248000  0.93484000  0.80356000  1.0
  H  H5  1  0.79316000  0.63796000  0.10546000  1.0
  H  H6  1  0.20684000  0.89454000  0.36204000  1.0
  H  H7  1  0.20684000  0.36204000  0.89454000  1.0
  H  H8  1  0.79316000  0.10546000  0.63796000  1.0
  C  C9  1  0.50000000  0.75474000  0.24526000  1.0
  C  C10  1  0.50000000  0.24526000  0.75473000  1.0
  C  C11  1  0.50001000  0.94920000  0.05081000  1.0
  C  C12  1  0.50000000  0.05081000  0.94919000  1.0
  C  C13  1  0.49999000  0.65343000  0.34656000  1.0
  C  C14  1  0.49999000  0.34656000  0.65343000  1.0
  C  C15  1  0.66347000  0.82652000  0.02837000  1.0
  C  C16  1  0.33654000  0.97164000  0.17349000  1.0
  C  C17  1  0.33654000  0.17348000  0.97163000  1.0
  C  C18  1  0.66347000  0.02836000  0.82651000  1.0
  C  C19  1  0.66507000  0.73192000  0.12433000  1.0
  C  C20  1  0.33493000  0.87567000  0.26808000  1.0
  C  C21  1  0.33493000  0.26807000  0.87567000  1.0
  C  C22  1  0.66507000  0.12433000  0.73192000  1.0
  O  O23  1  0.68034000  0.56714000  0.34545000  1.0
  O  O24  1  0.31964000  0.65454000  0.43285000  1.0
  O  O25  1  0.31965000  0.43286000  0.65454000  1.0
  O  O26  1  0.68034000  0.34545000  0.56714000  1.0
  O  O27  1  0.98928000  0.29452000  0.29453000  1.0
  O  O28  1  0.01070000  0.70547000  0.70547000  1.0
