# generated using pymatgen
data_Fe4H38C45O22
_symmetry_space_group_name_H-M   'P 1'
_cell_length_a   9.80155000
_cell_length_b   13.69910000
_cell_length_c   19.31710000
_cell_angle_alpha   75.17200000
_cell_angle_beta   88.92950000
_cell_angle_gamma   87.89040000
_symmetry_Int_Tables_number   1
_chemical_formula_structural   Fe4H38C45O22
_chemical_formula_sum   'Fe8 H76 C90 O44'
_cell_volume   2505.56302933
_cell_formula_units_Z   2
loop_
 _symmetry_equiv_pos_site_id
 _symmetry_equiv_pos_as_xyz
  1  'x, y, z'
loop_
 _atom_site_type_symbol
 _atom_site_label
 _atom_site_symmetry_multiplicity
 _atom_site_fract_x
 _atom_site_fract_y
 _atom_site_fract_z
 _atom_site_occupancy
  Fe  Fe0  1  0.98067000  0.99791000  0.00171000  1.0
  Fe  Fe1  1  0.47568000  0.00219000  0.49847000  1.0
  Fe  Fe2  1  0.99195000  0.24653000  0.00226000  1.0
  Fe  Fe3  1  0.47459000  0.25160000  0.49988000  1.0
  Fe  Fe4  1  0.99947000  0.49636000  0.00092000  1.0
  Fe  Fe5  1  0.49799000  0.49813000  0.50316000  1.0
  Fe  Fe6  1  0.98484000  0.74979000  0.99972000  1.0
  Fe  Fe7  1  0.49898000  0.74915000  0.50317000  1.0
  H  H8  1  0.67140000  0.18708000  0.70811000  1.0
  H  H9  1  0.76518000  0.11735000  0.83176000  1.0
  H  H10  1  0.28653000  0.11856000  0.52539000  1.0
  H  H11  1  0.20383000  0.17610000  0.20185000  1.0
  H  H12  1  0.29499000  0.10313000  0.32611000  1.0
  H  H13  1  0.68676000  0.06507000  0.28934000  1.0
  H  H14  1  0.78678000  0.14158000  0.16731000  1.0
  H  H15  1  0.17840000  0.06672000  0.78296000  1.0
  H  H16  1  0.27021000  0.14666000  0.65976000  1.0
  H  H17  1  0.80096000  0.12192000  0.97939000  1.0
  H  H18  1  0.33196000  0.32925000  0.28474000  1.0
  H  H19  1  0.24577000  0.40136000  0.15956000  1.0
  H  H20  1  0.67016000  0.34845000  0.53431000  1.0
  H  H21  1  0.82865000  0.32094000  0.78989000  1.0
  H  H22  1  0.73632000  0.39666000  0.66677000  1.0
  H  H23  1  0.27450000  0.43361000  0.71125000  1.0
  H  H24  1  0.18397000  0.35316000  0.83510000  1.0
  H  H25  1  0.79479000  0.42989000  0.21650000  1.0
  H  H26  1  0.69545000  0.35322000  0.33884000  1.0
  H  H27  1  0.61474000  0.66743000  0.72896000  1.0
  H  H28  1  0.71236000  0.59248000  0.85171000  1.0
  H  H29  1  0.31662000  0.63960000  0.47019000  1.0
  H  H30  1  0.15952000  0.68659000  0.20842000  1.0
  H  H31  1  0.25114000  0.61553000  0.33264000  1.0
  H  H32  1  0.72972000  0.55600000  0.30273000  1.0
  H  H33  1  0.81083000  0.63326000  0.17680000  1.0
  H  H34  1  0.20034000  0.56614000  0.78743000  1.0
  H  H35  1  0.28974000  0.64634000  0.66338000  1.0
  H  H36  1  0.79979000  0.61675000  0.02046000  1.0
  H  H37  1  0.30237000  0.80603000  0.29015000  1.0
  H  H38  1  0.20568000  0.87832000  0.16744000  1.0
  H  H39  1  0.67364000  0.87586000  0.52829000  1.0
  H  H40  1  0.75982000  0.81681000  0.80250000  1.0
  H  H41  1  0.66542000  0.88658000  0.67900000  1.0
  H  H42  1  0.28489000  0.93481000  0.71263000  1.0
  H  H43  1  0.19618000  0.85463000  0.83680000  1.0
  H  H44  1  0.81832000  0.92355000  0.22269000  1.0
  H  H45  1  0.73703000  0.84633000  0.34883000  1.0
  H  H46  1  0.18604000  0.35308000  0.02391000  1.0
  H  H47  1  0.16487000  0.87667000  0.02274000  1.0
  H  H48  1  0.06545000  0.84003000  0.45311000  1.0
  H  H49  1  0.04476000  0.71310000  0.44949000  1.0
  H  H50  1  0.16100000  0.74182000  0.51107000  1.0
  H  H51  1  0.88486000  0.62362000  0.63353000  1.0
  H  H52  1  0.05876000  0.61535000  0.60876000  1.0
  H  H53  1  0.93032000  0.58375000  0.55536000  1.0
  H  H54  1  0.84877000  0.76054000  0.51653000  1.0
  H  H55  1  0.87254000  0.79658000  0.63384000  1.0
  H  H56  1  0.05010000  0.79310000  0.62735000  1.0
  H  H57  1  0.12521000  0.31453000  0.54486000  1.0
  H  H58  1  0.02414000  0.26470000  0.38131000  1.0
  H  H59  1  0.14161000  0.27953000  0.44552000  1.0
  H  H60  1  0.02478000  0.38092000  0.40593000  1.0
  H  H61  1  0.82740000  0.27267000  0.46073000  1.0
  H  H62  1  0.88966000  0.93213000  0.45733000  1.0
  H  H63  1  0.88645000  0.11608000  0.41384000  1.0
  H  H64  1  0.00259000  0.14026000  0.62277000  1.0
  H  H65  1  0.01566000  0.95536000  0.66462000  1.0
  H  H66  1  0.54251000  0.82251000  0.93572000  1.0
  H  H67  1  0.56608000  0.69117000  0.94402000  1.0
  H  H68  1  0.67392000  0.75459000  0.99030000  1.0
  H  H69  1  0.44771000  0.59592000  0.13271000  1.0
  H  H70  1  0.61513000  0.60709000  0.09673000  1.0
  H  H71  1  0.48470000  0.56028000  0.05206000  1.0
  H  H72  1  0.36725000  0.72852000  0.02049000  1.0
  H  H73  1  0.40793000  0.77345000  0.13189000  1.0
  H  H74  1  0.58418000  0.77593000  0.11747000  1.0
  H  H75  1  0.64490000  0.28403000  0.04278000  1.0
  H  H76  1  0.51760000  0.23980000  0.87390000  1.0
  H  H77  1  0.64329000  0.26448000  0.93124000  1.0
  H  H78  1  0.51728000  0.35939000  0.89365000  1.0
  H  H79  1  0.33333333  0.25008000  0.95988000  1.0
  H  H80  1  0.37979000  0.91070000  0.95869000  1.0
  H  H81  1  0.36913000  0.09441000  0.91535000  1.0
  H  H82  1  0.54921000  0.12072000  0.11142000  1.0
  H  H83  1  0.56923000  0.93613000  0.15233000  1.0
  C  C84  1  0.66366000  0.04091000  0.68635000  1.0
  C  C85  1  0.69023000  0.10612000  0.72958000  1.0
  C  C86  1  0.74201000  0.06737000  0.79813000  1.0
  C  C87  1  0.60999000  0.08261000  0.61214000  1.0
  C  C88  1  0.19801000  0.03109000  0.17811000  1.0
  C  C89  1  0.22446000  0.09517000  0.22218000  1.0
  C  C90  1  0.27514000  0.05493000  0.29071000  1.0
  C  C91  1  0.13503000  0.07380000  0.10660000  1.0
  C  C92  1  0.68583000  0.20493000  0.32067000  1.0
  C  C93  1  0.71126000  0.14471000  0.27273000  1.0
  C  C94  1  0.76575000  0.18711000  0.20525000  1.0
  C  C95  1  0.62391000  0.16052000  0.39244000  1.0
  C  C96  1  0.17681000  0.20559000  0.81552000  1.0
  C  C97  1  0.20022000  0.14684000  0.76649000  1.0
  C  C98  1  0.25016000  0.19122000  0.69837000  1.0
  C  C99  1  0.12345000  0.15807000  0.88875000  1.0
  C  C100  1  0.29567000  0.46833000  0.31560000  1.0
  C  C101  1  0.29347000  0.40720000  0.26740000  1.0
  C  C102  1  0.24476000  0.44666000  0.19843000  1.0
  C  C103  1  0.35113000  0.42620000  0.38900000  1.0
  C  C104  1  0.77553000  0.45269000  0.82730000  1.0
  C  C105  1  0.78056000  0.39630000  0.77605000  1.0
  C  C106  1  0.72820000  0.43771000  0.70817000  1.0
  C  C107  1  0.83875000  0.41002000  0.89863000  1.0
  C  C108  1  0.27630000  0.29476000  0.67880000  1.0
  C  C109  1  0.25350000  0.35337000  0.72794000  1.0
  C  C110  1  0.20379000  0.30904000  0.79614000  1.0
  C  C111  1  0.32773000  0.34289000  0.60546000  1.0
  C  C112  1  0.79444000  0.29031000  0.18497000  1.0
  C  C113  1  0.77100000  0.35014000  0.23328000  1.0
  C  C114  1  0.71668000  0.30774000  0.30086000  1.0
  C  C115  1  0.84800000  0.33608000  0.11136000  1.0
  C  C116  1  0.66991000  0.53594000  0.69144000  1.0
  C  C117  1  0.66162000  0.59165000  0.74316000  1.0
  C  C118  1  0.71498000  0.55028000  0.81090000  1.0
  C  C119  1  0.62235000  0.58190000  0.61706000  1.0
  C  C120  1  0.19698000  0.54760000  0.17757000  1.0
  C  C121  1  0.19808000  0.60866000  0.22583000  1.0
  C  C122  1  0.24795000  0.56927000  0.29451000  1.0
  C  C123  1  0.14500000  0.59033000  0.10364000  1.0
  C  C124  1  0.72794000  0.69708000  0.33236000  1.0
  C  C125  1  0.75032000  0.63620000  0.28461000  1.0
  C  C126  1  0.79432000  0.67895000  0.21498000  1.0
  C  C127  1  0.66666667  0.65386000  0.40457000  1.0
  C  C128  1  0.19342000  0.70609000  0.81868000  1.0
  C  C129  1  0.22013000  0.64657000  0.77046000  1.0
  C  C130  1  0.26914000  0.69077000  0.70204000  1.0
  C  C131  1  0.13562000  0.66089000  0.89143000  1.0
  C  C132  1  0.30163000  0.95039000  0.31546000  1.0
  C  C133  1  0.27894000  0.88671000  0.27060000  1.0
  C  C134  1  0.22632000  0.92681000  0.20249000  1.0
  C  C135  1  0.35450000  0.90827000  0.38958000  1.0
  C  C136  1  0.76787000  0.96297000  0.82435000  1.0
  C  C137  1  0.73935000  0.89765000  0.78141000  1.0
  C  C138  1  0.68751000  0.93640000  0.71293000  1.0
  C  C139  1  0.83106000  0.92154000  0.89622000  1.0
  C  C140  1  0.29064000  0.79509000  0.68121000  1.0
  C  C141  1  0.26628000  0.85423000  0.72988000  1.0
  C  C142  1  0.21774000  0.81001000  0.79834000  1.0
  C  C143  1  0.33687000  0.84257000  0.60655000  1.0
  C  C144  1  0.81575000  0.78310000  0.19246000  1.0
  C  C145  1  0.79866000  0.84320000  0.24110000  1.0
  C  C146  1  0.75468000  0.80053000  0.31075000  1.0
  C  C147  1  0.85237000  0.83069000  0.11611000  1.0
  C  C148  1  0.06105000  0.76182000  0.48571000  1.0
  C  C149  1  0.95528000  0.63607000  0.58754000  1.0
  C  C150  1  0.94866000  0.74634000  0.54335000  1.0
  C  C151  1  0.95763000  0.81502000  0.59474000  1.0
  C  C152  1  0.03666000  0.29848000  0.42645000  1.0
  C  C153  1  0.92544000  0.31074000  0.54466000  1.0
  C  C154  1  0.92949000  0.25743000  0.48470000  1.0
  C  C155  1  0.91782000  0.97655000  0.49397000  1.0
  C  C156  1  0.91442000  0.08147000  0.46929000  1.0
  C  C157  1  0.94392000  0.14307000  0.51440000  1.0
  C  C158  1  0.98101000  0.09560000  0.58507000  1.0
  C  C159  1  0.98749000  0.99035000  0.60913000  1.0
  C  C160  1  0.95508000  0.92841000  0.56448000  1.0
  C  C161  1  0.56863000  0.74998000  0.97349000  1.0
  C  C162  1  0.50615000  0.61575000  0.08232000  1.0
  C  C163  1  0.47370000  0.72444000  0.03899000  1.0
  C  C164  1  0.48632000  0.79462000  0.08928000  1.0
  C  C165  1  0.53533000  0.27789000  0.91633000  1.0
  C  C166  1  0.44314000  0.29516000  0.03681000  1.0
  C  C167  1  0.43851000  0.23681000  0.97973000  1.0
  C  C168  1  0.41993000  0.95553000  0.99240000  1.0
  C  C169  1  0.41262000  0.06046000  0.96785000  1.0
  C  C170  1  0.45756000  0.12275000  0.00956000  1.0
  C  C171  1  0.51412000  0.07580000  0.07642000  1.0
  C  C172  1  0.52450000  0.97059000  0.10004000  1.0
  C  C173  1  0.47692000  0.90799000  0.05908000  1.0
  O  O174  1  0.56233000  0.17326000  0.59619000  1.0
  O  O175  1  0.62542000  0.52510000  0.57394000  1.0
  O  O176  1  0.09210000  0.16532000  0.09138000  1.0
  O  O177  1  0.14214000  0.53115000  0.06224000  1.0
  O  O178  1  0.57708000  0.07243000  0.40488000  1.0
  O  O179  1  0.62255000  0.21424000  0.43766000  1.0
  O  O180  1  0.07911000  0.06965000  0.90153000  1.0
  O  O181  1  0.12928000  0.21057000  0.93493000  1.0
  O  O182  1  0.38944000  0.33340000  0.40567000  1.0
  O  O183  1  0.34354000  0.96528000  0.43249000  1.0
  O  O184  1  0.88120000  0.31769000  0.91337000  1.0
  O  O185  1  0.83334000  0.98083000  0.93817000  1.0
  O  O186  1  0.37782000  0.42910000  0.59366000  1.0
  O  O187  1  0.31485000  0.29286000  0.55733000  1.0
  O  O188  1  0.89411000  0.42411000  0.09727000  1.0
  O  O189  1  0.84153000  0.28141000  0.06609000  1.0
  O  O190  1  0.58190000  0.36572000  0.50778000  1.0
  O  O191  1  0.88780000  0.11827000  0.00402000  1.0
  O  O192  1  0.37088000  0.12976000  0.49743000  1.0
  O  O193  1  0.58448000  0.67488000  0.60028000  1.0
  O  O194  1  0.10691000  0.68333000  0.08654000  1.0
  O  O195  1  0.62396000  0.56428000  0.41799000  1.0
  O  O196  1  0.65843000  0.71104000  0.44760000  1.0
  O  O197  1  0.09647000  0.57036000  0.90621000  1.0
  O  O198  1  0.12911000  0.71817000  0.93442000  1.0
  O  O199  1  0.40635000  0.81874000  0.40575000  1.0
  O  O200  1  0.35586000  0.48547000  0.43025000  1.0
  O  O201  1  0.87868000  0.83129000  0.91123000  1.0
  O  O202  1  0.84638000  0.46803000  0.94039000  1.0
  O  O203  1  0.36314000  0.93618000  0.58987000  1.0
  O  O204  1  0.34575000  0.78577000  0.56357000  1.0
  O  O205  1  0.88274000  0.92284000  0.09935000  1.0
  O  O206  1  0.84739000  0.77484000  0.07204000  1.0
  O  O207  1  0.58756000  0.87693000  0.50369000  1.0
  O  O208  1  0.89375000  0.62307000  0.00322000  1.0
  O  O209  1  0.39787000  0.62808000  0.49973000  1.0
  O  O210  1  0.61516000  0.02451000  0.56987000  1.0
  O  O211  1  0.12698000  0.01437000  0.06523000  1.0
  O  O212  1  0.09305000  0.36739000  0.00229000  1.0
  O  O213  1  0.07754000  0.87932000  0.99864000  1.0
  O  O214  1  0.04280000  0.33776000  0.56739000  1.0
  O  O215  1  0.81896000  0.32989000  0.57420000  1.0
  O  O216  1  0.56367000  0.31304000  0.06210000  1.0
  O  O217  1  0.34007000  0.32869000  0.06135000  1.0
