# generated using pymatgen
data_ZnH14C18N2O5
_symmetry_space_group_name_H-M   'P 1'
_cell_length_a   9.09497000
_cell_length_b   10.17930000
_cell_length_c   10.48770000
_cell_angle_alpha   103.79900000
_cell_angle_beta   113.48400000
_cell_angle_gamma   100.86800000
_symmetry_Int_Tables_number   1
_chemical_formula_structural   ZnH14C18N2O5
_chemical_formula_sum   'Zn2 H28 C36 N4 O10'
_cell_volume   819.82341072
_cell_formula_units_Z   2
loop_
 _symmetry_equiv_pos_site_id
 _symmetry_equiv_pos_as_xyz
  1  'x, y, z'
loop_
 _atom_site_type_symbol
 _atom_site_label
 _atom_site_symmetry_multiplicity
 _atom_site_fract_x
 _atom_site_fract_y
 _atom_site_fract_z
 _atom_site_occupancy
  Zn  Zn0  1  0.41215000  0.17757000  0.34336000  1.0
  Zn  Zn1  1  0.58785000  0.82243000  0.65664000  1.0
  H  H2  1  0.27028000  0.43559000  0.41791000  1.0
  H  H3  1  0.72972000  0.56441000  0.58209000  1.0
  H  H4  1  0.98832000  0.46787000  0.35366000  1.0
  H  H5  1  0.01168000  0.53213000  0.64634000  1.0
  H  H6  1  0.72633000  0.24818000  0.19744000  1.0
  H  H7  1  0.27367000  0.75182000  0.80256000  1.0
  H  H8  1  0.76346000  0.01422000  0.11018000  1.0
  H  H9  1  0.23654000  0.98579000  0.88982000  1.0
  H  H10  1  0.81064000  0.82924000  0.03338000  1.0
  H  H11  1  0.18936000  0.17076000  0.96662000  1.0
  H  H12  1  0.88807000  0.61092000  0.97087000  1.0
  H  H13  1  0.11193000  0.38908000  0.02913000  1.0
  H  H14  1  0.19738000  0.62978000  0.07381000  1.0
  H  H15  1  0.80262000  0.37022000  0.92619000  1.0
  H  H16  1  0.41319000  0.87097000  0.23905000  1.0
  H  H17  1  0.58681000  0.12903000  0.76095000  1.0
  H  H18  1  0.10561000  0.26183000  0.63689000  1.0
  H  H19  1  0.89439000  0.73817000  0.36311000  1.0
  H  H20  1  0.69109000  0.87640000  0.35609000  1.0
  H  H21  1  0.30891000  0.12360000  0.64391000  1.0
  H  H22  1  0.44774000  0.23968000  0.94766000  1.0
  H  H23  1  0.55226000  0.76032000  0.05234000  1.0
  H  H24  1  0.54004000  0.65522000  0.24100000  1.0
  H  H25  1  0.45996000  0.34478000  0.75900000  1.0
  H  H26  1  0.51275000  0.38585000  0.59647000  1.0
  H  H27  1  0.48725000  0.61414000  0.40353000  1.0
  H  H28  1  0.64949000  0.30529000  0.58499000  1.0
  H  H29  1  0.35051000  0.69471000  0.41501000  1.0
  C  C30  1  0.15483000  0.34508000  0.34885000  1.0
  C  C31  1  0.84517000  0.65492000  0.65115000  1.0
  C  C32  1  0.99600000  0.36163000  0.31337000  1.0
  C  C33  1  0.00400000  0.63837000  0.68663000  1.0
  C  C34  1  0.85313000  0.24122000  0.22623000  1.0
  C  C35  1  0.14687000  0.75878000  0.77377000  1.0
  C  C36  1  0.87366000  0.10930000  0.17766000  1.0
  C  C37  1  0.12634000  0.89070000  0.82234000  1.0
  C  C38  1  0.03694000  0.10085000  0.21722000  1.0
  C  C39  1  0.96306000  0.89915000  0.78278000  1.0
  C  C40  1  0.07103000  0.96509000  0.17184000  1.0
  C  C41  1  0.92897000  0.03491000  0.82816000  1.0
  C  C42  1  0.94302000  0.83508000  0.07946000  1.0
  C  C43  1  0.05698000  0.16492000  0.92054000  1.0
  C  C44  1  0.98688000  0.71269000  0.04339000  1.0
  C  C45  1  0.01312000  0.28731000  0.95661000  1.0
  C  C46  1  0.15694000  0.72230000  0.09949000  1.0
  C  C47  1  0.84306000  0.27769000  0.90051000  1.0
  C  C48  1  0.27797000  0.85522000  0.19016000  1.0
  C  C49  1  0.72203000  0.14478000  0.80984000  1.0
  C  C50  1  0.76281000  0.15792000  0.48673000  1.0
  C  C51  1  0.23719000  0.84208000  0.51327000  1.0
  C  C52  1  0.88613000  0.07690000  0.49430000  1.0
  C  C53  1  0.11387000  0.92310000  0.50570000  1.0
  C  C54  1  0.06055000  0.14721000  0.57736000  1.0
  C  C55  1  0.93945000  0.85279000  0.42264000  1.0
  C  C56  1  0.82702000  0.92938000  0.41768000  1.0
  C  C57  1  0.17298000  0.07062000  0.58232000  1.0
  C  C58  1  0.48131000  0.37764000  0.21905000  1.0
  C  C59  1  0.51869000  0.62236000  0.78095000  1.0
  C  C60  1  0.49302000  0.44073000  0.10643000  1.0
  C  C61  1  0.50698000  0.55927000  0.89357000  1.0
  C  C62  1  0.47047000  0.35376000  0.97004000  1.0
  C  C63  1  0.52953000  0.64624000  0.02997000  1.0
  C  C64  1  0.52305000  0.58766000  0.13539000  1.0
  C  C65  1  0.47695000  0.41234000  0.86461000  1.0
  N  N66  1  0.17459000  0.21825000  0.30165000  1.0
  N  N67  1  0.82542000  0.78175000  0.69835000  1.0
  N  N68  1  0.23568000  0.97303000  0.22492000  1.0
  N  N69  1  0.76432000  0.02697000  0.77508000  1.0
  O  O70  1  0.52735000  0.29008000  0.56584000  1.0
  O  O71  1  0.47265000  0.70992000  0.43416000  1.0
  O  O72  1  0.60913000  0.09080000  0.38721000  1.0
  O  O73  1  0.39087000  0.90920000  0.61279000  1.0
  O  O74  1  0.81594000  0.28422000  0.57784000  1.0
  O  O75  1  0.18406000  0.71578000  0.42216000  1.0
  O  O76  1  0.44479000  0.24100000  0.18179000  1.0
  O  O77  1  0.55521000  0.75900000  0.81821000  1.0
  O  O78  1  0.50470000  0.45685000  0.34258000  1.0
  O  O79  1  0.49530000  0.54315000  0.65743000  1.0
