# generated using pymatgen
data_NaH7C4SN2O5
_symmetry_space_group_name_H-M   'P 1'
_cell_length_a   6.73821000
_cell_length_b   9.37154000
_cell_length_c   13.72890000
_cell_angle_alpha   90.00000000
_cell_angle_beta   89.99950000
_cell_angle_gamma   90.00000000
_symmetry_Int_Tables_number   1
_chemical_formula_structural   NaH7C4SN2O5
_chemical_formula_sum   'Na4 H28 C16 S4 N8 O20'
_cell_volume   866.94440220
_cell_formula_units_Z   4
loop_
 _symmetry_equiv_pos_site_id
 _symmetry_equiv_pos_as_xyz
  1  'x, y, z'
loop_
 _atom_site_type_symbol
 _atom_site_label
 _atom_site_symmetry_multiplicity
 _atom_site_fract_x
 _atom_site_fract_y
 _atom_site_fract_z
 _atom_site_occupancy
  Na  Na0  1  0.50000000  0.25000000  0.57314000  1.0
  Na  Na1  1  0.00000000  0.75000000  0.42686000  1.0
  Na  Na2  1  0.50000000  0.75000000  0.42686000  1.0
  Na  Na3  1  0.00000000  0.25000000  0.57314000  1.0
  H  H4  1  0.25000000  0.13526000  0.72822000  1.0
  H  H5  1  0.75001000  0.36473000  0.72822000  1.0
  H  H6  1  0.25000000  0.63527000  0.27178000  1.0
  H  H7  1  0.74999000  0.86473000  0.27178000  1.0
  H  H8  1  0.25000000  0.30337000  0.74262000  1.0
  H  H9  1  0.75000000  0.19663000  0.74262000  1.0
  H  H10  1  0.25000000  0.80337000  0.25738000  1.0
  H  H11  1  0.75000000  0.69663000  0.25738000  1.0
  H  H12  1  0.24999000  0.27803000  0.28713000  1.0
  H  H13  1  0.74999000  0.22198000  0.28712000  1.0
  H  H14  1  0.25001000  0.77802000  0.71288000  1.0
  H  H15  1  0.75001000  0.72197000  0.71288000  1.0
  H  H16  1  0.25000000  0.29783000  0.08863000  1.0
  H  H17  1  0.74999000  0.20217000  0.08863000  1.0
  H  H18  1  0.25000000  0.79782000  0.91138000  1.0
  H  H19  1  0.75001000  0.70217000  0.91137000  1.0
  H  H20  1  0.11729000  0.03346000  0.89244000  1.0
  H  H21  1  0.88270000  0.46654000  0.89243000  1.0
  H  H22  1  0.38270000  0.53345000  0.10757000  1.0
  H  H23  1  0.61730000  0.96654000  0.10756000  1.0
  H  H24  1  0.88270000  0.96654000  0.10756000  1.0
  H  H25  1  0.11730000  0.53345000  0.10757000  1.0
  H  H26  1  0.61730000  0.46654000  0.89243000  1.0
  H  H27  1  0.38269000  0.03346000  0.89243000  1.0
  H  H28  1  0.24999000  0.19695000  0.89954000  1.0
  H  H29  1  0.75000000  0.30305000  0.89954000  1.0
  H  H30  1  0.25000000  0.69694000  0.10047000  1.0
  H  H31  1  0.75000000  0.80305000  0.10046000  1.0
  C  C32  1  0.25000000  0.10871000  0.19078000  1.0
  C  C33  1  0.75000000  0.39130000  0.19078000  1.0
  C  C34  1  0.25000000  0.60870000  0.80922000  1.0
  C  C35  1  0.75000000  0.89130000  0.80922000  1.0
  C  C36  1  0.24999000  0.18379000  0.10000000  1.0
  C  C37  1  0.75000000  0.31620000  0.10000000  1.0
  C  C38  1  0.25000000  0.68378000  0.90000000  1.0
  C  C39  1  0.75000000  0.81621000  0.90000000  1.0
  C  C40  1  0.25000000  0.08044000  0.03037000  1.0
  C  C41  1  0.75000000  0.41957000  0.03036000  1.0
  C  C42  1  0.25000000  0.58043000  0.96964000  1.0
  C  C43  1  0.75000000  0.91956000  0.96963000  1.0
  C  C44  1  0.25000000  0.08530000  0.92263000  1.0
  C  C45  1  0.75000000  0.41470000  0.92262000  1.0
  C  C46  1  0.25000000  0.58529000  0.07738000  1.0
  C  C47  1  0.75000000  0.91470000  0.07737000  1.0
  S  S48  1  0.25000000  0.07852000  0.38877000  1.0
  S  S49  1  0.75000000  0.42149000  0.38876000  1.0
  S  S50  1  0.24999000  0.57852000  0.61123000  1.0
  S  S51  1  0.75000000  0.92148000  0.61123000  1.0
  N  N52  1  0.25001000  0.96741000  0.17692000  1.0
  N  N53  1  0.75000000  0.53259000  0.17691000  1.0
  N  N54  1  0.25000000  0.46740000  0.82308000  1.0
  N  N55  1  0.75000000  0.03259000  0.82309000  1.0
  N  N56  1  0.25001000  0.17021000  0.28067000  1.0
  N  N57  1  0.75001000  0.32979000  0.28067000  1.0
  N  N58  1  0.25000000  0.67021000  0.71933000  1.0
  N  N59  1  0.75000000  0.82979000  0.71933000  1.0
  O  O60  1  0.25000000  0.94951000  0.07353000  1.0
  O  O61  1  0.75001000  0.55049000  0.07353000  1.0
  O  O62  1  0.25000000  0.44950000  0.92647000  1.0
  O  O63  1  0.75000000  0.05049000  0.92647000  1.0
  O  O64  1  0.25001000  0.19715000  0.45792000  1.0
  O  O65  1  0.75000000  0.30285000  0.45792000  1.0
  O  O66  1  0.24999000  0.69715000  0.54209000  1.0
  O  O67  1  0.74999000  0.80285000  0.54208000  1.0
  O  O68  1  0.06791000  0.99508000  0.38711000  1.0
  O  O69  1  0.93209000  0.50493000  0.38711000  1.0
  O  O70  1  0.43209000  0.49507000  0.61289000  1.0
  O  O71  1  0.56790000  0.00493000  0.61289000  1.0
  O  O72  1  0.93209000  0.00493000  0.61289000  1.0
  O  O73  1  0.06790000  0.49507000  0.61289000  1.0
  O  O74  1  0.56791000  0.50493000  0.38711000  1.0
  O  O75  1  0.43210000  0.99508000  0.38711000  1.0
  O  O76  1  0.25000000  0.22549000  0.69378000  1.0
  O  O77  1  0.75000000  0.27451000  0.69378000  1.0
  O  O78  1  0.25001000  0.72550000  0.30622000  1.0
  O  O79  1  0.75000000  0.77451000  0.30622000  1.0
