# generated using pymatgen
data_AlH9C21(NO2)6
_symmetry_space_group_name_H-M   'P 1'
_cell_length_a   4.02023000
_cell_length_b   27.79630000
_cell_length_c   27.80100139
_cell_angle_alpha   120.00321528
_cell_angle_beta   90.00279957
_cell_angle_gamma   89.99840000
_symmetry_Int_Tables_number   1
_chemical_formula_structural   AlH9C21(NO2)6
_chemical_formula_sum   'Al2 H18 C42 N12 O24'
_cell_volume   2690.38782701
_cell_formula_units_Z   2
loop_
 _symmetry_equiv_pos_site_id
 _symmetry_equiv_pos_as_xyz
  1  'x, y, z'
loop_
 _atom_site_type_symbol
 _atom_site_label
 _atom_site_symmetry_multiplicity
 _atom_site_fract_x
 _atom_site_fract_y
 _atom_site_fract_z
 _atom_site_occupancy
  Al  Al0  1  0.02231000  0.00003000  0.50002000  1.0
  Al  Al1  1  0.02235000  0.33331000  0.16665000  1.0
  H  H2  1  0.44136000  0.48557000  0.30497000  1.0
  H  H3  1  0.40154000  0.58940000  0.35622000  1.0
  H  H4  1  0.50989000  0.58864000  0.20146000  1.0
  H  H5  1  0.50990000  0.74471000  0.46522000  1.0
  H  H6  1  0.40153000  0.74394000  0.31046000  1.0
  H  H7  1  0.44135000  0.84777000  0.36171000  1.0
  H  H8  1  0.44144000  0.19498000  0.18060000  1.0
  H  H9  1  0.40152000  0.14376000  0.23319000  1.0
  H  H10  1  0.50995000  0.29856000  0.38717000  1.0
  H  H11  1  0.50994000  0.03476000  0.27948000  1.0
  H  H12  1  0.40139000  0.18956000  0.43346000  1.0
  H  H13  1  0.44125000  0.13834000  0.48605000  1.0
  H  H14  1  0.44164000  0.31939000  0.01442000  1.0
  H  H15  1  0.40182000  0.26683000  0.91061000  1.0
  H  H16  1  0.50965000  0.11277000  0.91133000  1.0
  H  H17  1  0.50974000  0.22055000  0.75533000  1.0
  H  H18  1  0.40176000  0.06651000  0.75606000  1.0
  H  H19  1  0.44152000  0.01394000  0.65224000  1.0
  C  C20  1  0.52115000  0.05338000  0.58362000  1.0
  C  C21  1  0.52113000  0.91642000  0.46976000  1.0
  C  C22  1  0.52110000  0.03027000  0.44666000  1.0
  C  C23  1  0.52115000  0.41692000  0.19692000  1.0
  C  C24  1  0.52119000  0.30305000  0.22000000  1.0
  C  C25  1  0.52113000  0.27995000  0.08304000  1.0
  C  C26  1  0.50130000  0.47899000  0.22492000  1.0
  C  C27  1  0.45675000  0.50866000  0.28283000  1.0
  C  C28  1  0.43361000  0.56616000  0.31130000  1.0
  C  C29  1  0.45604000  0.59539000  0.28213000  1.0
  C  C30  1  0.49214000  0.56636000  0.22431000  1.0
  C  C31  1  0.51561000  0.50879000  0.19666000  1.0
  C  C32  1  0.49215000  0.76697000  0.44236000  1.0
  C  C33  1  0.45604000  0.73794000  0.38454000  1.0
  C  C34  1  0.43361000  0.76717000  0.35537000  1.0
  C  C35  1  0.45673000  0.82468000  0.38385000  1.0
  C  C36  1  0.50127000  0.85435000  0.44176000  1.0
  C  C37  1  0.51559000  0.82455000  0.47002000  1.0
  C  C38  1  0.50139000  0.27506000  0.25406000  1.0
  C  C39  1  0.45679000  0.21714000  0.22583000  1.0
  C  C40  1  0.43362000  0.18867000  0.25486000  1.0
  C  C41  1  0.45607000  0.21786000  0.31326000  1.0
  C  C42  1  0.49223000  0.27568000  0.34204000  1.0
  C  C43  1  0.51572000  0.30334000  0.31212000  1.0
  C  C44  1  0.49217000  0.05764000  0.32461000  1.0
  C  C45  1  0.45599000  0.11545000  0.35339000  1.0
  C  C46  1  0.43350000  0.14465000  0.41179000  1.0
  C  C47  1  0.45664000  0.11618000  0.44082000  1.0
  C  C48  1  0.50127000  0.05826000  0.41259000  1.0
  C  C49  1  0.51564000  0.02999000  0.35454000  1.0
  C  C50  1  0.50129000  0.24590000  0.02099000  1.0
  C  C51  1  0.45694000  0.27415000  0.99133000  1.0
  C  C52  1  0.43381000  0.24514000  0.93383000  1.0
  C  C53  1  0.45603000  0.18672000  0.90459000  1.0
  C  C54  1  0.49198000  0.15791000  0.93361000  1.0
  C  C55  1  0.51541000  0.18783000  0.99118000  1.0
  C  C56  1  0.49202000  0.17542000  0.73306000  1.0
  C  C57  1  0.45603000  0.14661000  0.76207000  1.0
  C  C58  1  0.43376000  0.08820000  0.73284000  1.0
  C  C59  1  0.45686000  0.05918000  0.67534000  1.0
  C  C60  1  0.50128000  0.08743000  0.64568000  1.0
  C  C61  1  0.51545000  0.14551000  0.67549000  1.0
  N  N62  1  0.45235000  0.65386000  0.30704000  1.0
  N  N63  1  0.45234000  0.67948000  0.35964000  1.0
  N  N64  1  0.45236000  0.19296000  0.34681000  1.0
  N  N65  1  0.45232000  0.14036000  0.31984000  1.0
  N  N66  1  0.45228000  0.15317000  0.84614000  1.0
  N  N67  1  0.45234000  0.18016000  0.82053000  1.0
  N  N68  1  0.57129000  0.47949000  0.13607000  1.0
  N  N69  1  0.57129000  0.85384000  0.53061000  1.0
  N  N70  1  0.57144000  0.36393000  0.34340000  1.0
  N  N71  1  0.57142000  0.96938000  0.32325000  1.0
  N  N72  1  0.57097000  0.15649000  0.02044000  1.0
  N  N73  1  0.57108000  0.17683000  0.64622000  1.0
  O  O74  1  0.28780000  0.99737000  0.44179000  1.0
  O  O75  1  0.28784000  0.05826000  0.55559000  1.0
  O  O76  1  0.28786000  0.94445000  0.50267000  1.0
  O  O77  1  0.76154000  0.04534000  0.48076000  1.0
  O  O78  1  0.76157000  0.93546000  0.45471000  1.0
  O  O79  1  0.76158000  0.01928000  0.56457000  1.0
  O  O80  1  0.28783000  0.27507000  0.11107000  1.0
  O  O81  1  0.28786000  0.38889000  0.16401000  1.0
  O  O82  1  0.28788000  0.33596000  0.22487000  1.0
  O  O83  1  0.76155000  0.31406000  0.10210000  1.0
  O  O84  1  0.76163000  0.28799000  0.18590000  1.0
  O  O85  1  0.76160000  0.39787000  0.21196000  1.0
  O  O86  1  0.71774000  0.43416000  0.11540000  1.0
  O  O87  1  0.47236000  0.50235000  0.11032000  1.0
  O  O88  1  0.71774000  0.89917000  0.55128000  1.0
  O  O89  1  0.47238000  0.83099000  0.55636000  1.0
  O  O90  1  0.71783000  0.38459000  0.31874000  1.0
  O  O91  1  0.47255000  0.38969000  0.39201000  1.0
  O  O92  1  0.71780000  0.94874000  0.34793000  1.0
  O  O93  1  0.47261000  0.94362000  0.27464000  1.0
  O  O94  1  0.71747000  0.18114000  0.06577000  1.0
  O  O95  1  0.47196000  0.10788000  0.99757000  1.0
  O  O96  1  0.71759000  0.15218000  0.60090000  1.0
  O  O97  1  0.47209000  0.22543000  0.66908000  1.0
