# generated using pymatgen
data_Zn2H36C53(NO)8
_symmetry_space_group_name_H-M   'P 1'
_cell_length_a   14.09020000
_cell_length_b   20.48920000
_cell_length_c   21.29431947
_cell_angle_alpha   109.49298820
_cell_angle_beta   109.31363733
_cell_angle_gamma   90.00630000
_symmetry_Int_Tables_number   1
_chemical_formula_structural   Zn2H36C53(NO)8
_chemical_formula_sum   'Zn8 H144 C212 N32 O32'
_cell_volume   5426.76254965
_cell_formula_units_Z   4
loop_
 _symmetry_equiv_pos_site_id
 _symmetry_equiv_pos_as_xyz
  1  'x, y, z'
loop_
 _atom_site_type_symbol
 _atom_site_label
 _atom_site_symmetry_multiplicity
 _atom_site_fract_x
 _atom_site_fract_y
 _atom_site_fract_z
 _atom_site_occupancy
  Zn  Zn0  1  0.37641000  0.38416000  0.82898000  1.0
  Zn  Zn1  1  0.54725000  0.11572000  0.17091000  1.0
  Zn  Zn2  1  0.62358000  0.61584000  0.17101000  1.0
  Zn  Zn3  1  0.45274000  0.88428000  0.82909000  1.0
  Zn  Zn4  1  0.93596000  0.16175000  0.55510000  1.0
  Zn  Zn5  1  0.38093000  0.33815000  0.44497000  1.0
  Zn  Zn6  1  0.06405000  0.83825000  0.44490000  1.0
  Zn  Zn7  1  0.61907000  0.66185000  0.55503000  1.0
  H  H8  1  0.24445000  0.47535000  0.66062000  1.0
  H  H9  1  0.58383000  0.02473000  0.33953000  1.0
  H  H10  1  0.75555000  0.52465000  0.33938000  1.0
  H  H11  1  0.41616000  0.97527000  0.66047000  1.0
  H  H12  1  0.20636000  0.56106000  0.59783000  1.0
  H  H13  1  0.60872000  0.93904000  0.40235000  1.0
  H  H14  1  0.79364000  0.43894000  0.40217000  1.0
  H  H15  1  0.39128000  0.06096000  0.59765000  1.0
  H  H16  1  0.28935000  0.68390000  0.66069000  1.0
  H  H17  1  0.62887000  0.81622000  0.33949000  1.0
  H  H18  1  0.71064000  0.31610000  0.33931000  1.0
  H  H19  1  0.37112000  0.18377000  0.66051000  1.0
  H  H20  1  0.44162000  0.63699000  0.84858000  1.0
  H  H21  1  0.59311000  0.86313000  0.15159000  1.0
  H  H22  1  0.55838000  0.36301000  0.15143000  1.0
  H  H23  1  0.40689000  0.13688000  0.84841000  1.0
  H  H24  1  0.53138000  0.32456000  0.93782000  1.0
  H  H25  1  0.59378000  0.17557000  0.06239000  1.0
  H  H26  1  0.46862000  0.67544000  0.06218000  1.0
  H  H27  1  0.40622000  0.82443000  0.93761000  1.0
  H  H28  1  0.75818000  0.48215000  0.97156000  1.0
  H  H29  1  0.78670000  0.01790000  0.02845000  1.0
  H  H30  1  0.24181000  0.51785000  0.02844000  1.0
  H  H31  1  0.21329000  0.98209000  0.97155000  1.0
  H  H32  1  0.57331000  0.49530000  0.87736000  1.0
  H  H33  1  0.69567000  0.00454000  0.12241000  1.0
  H  H34  1  0.42668000  0.50470000  0.12264000  1.0
  H  H35  1  0.30432000  0.99546000  0.87759000  1.0
  H  H36  1  0.63001000  0.35251000  0.06443000  1.0
  H  H37  1  0.56586000  0.14778000  0.93582000  1.0
  H  H38  1  0.36999000  0.64749000  0.93557000  1.0
  H  H39  1  0.43414000  0.85221000  0.06418000  1.0
  H  H40  1  0.75592000  0.32366000  0.15971000  1.0
  H  H41  1  0.59625000  0.17653000  0.84046000  1.0
  H  H42  1  0.24407000  0.67634000  0.84028000  1.0
  H  H43  1  0.40375000  0.82347000  0.15954000  1.0
  H  H44  1  0.99226000  0.36773000  0.08763000  1.0
  H  H45  1  0.90463000  0.13227000  0.91230000  1.0
  H  H46  1  0.00775000  0.63227000  0.91237000  1.0
  H  H47  1  0.09537000  0.86773000  0.08770000  1.0
  H  H48  1  0.86442000  0.39299000  0.98911000  1.0
  H  H49  1  0.87550000  0.10713000  0.01091000  1.0
  H  H50  1  0.13557000  0.60701000  0.01089000  1.0
  H  H51  1  0.12451000  0.89287000  0.98909000  1.0
  H  H52  1  0.84085000  0.21952000  0.15433000  1.0
  H  H53  1  0.68676000  0.28056000  0.84568000  1.0
  H  H54  1  0.15915000  0.78048000  0.84567000  1.0
  H  H55  1  0.31324000  0.71944000  0.15432000  1.0
  H  H56  1  0.79811000  0.16159000  0.22767000  1.0
  H  H57  1  0.57048000  0.33846000  0.77233000  1.0
  H  H58  1  0.20188000  0.83841000  0.77232000  1.0
  H  H59  1  0.42952000  0.66154000  0.22768000  1.0
  H  H60  1  0.97800000  0.33071000  0.41738000  1.0
  H  H61  1  0.56038000  0.16925000  0.58269000  1.0
  H  H62  1  0.02200000  0.66929000  0.58262000  1.0
  H  H63  1  0.43963000  0.83076000  0.41732000  1.0
  H  H64  1  0.02133000  0.38739000  0.34522000  1.0
  H  H65  1  0.67597000  0.11252000  0.65480000  1.0
  H  H66  1  0.97867000  0.61261000  0.65478000  1.0
  H  H67  1  0.32403000  0.88748000  0.34520000  1.0
  H  H68  1  0.00517000  0.23096000  0.45848000  1.0
  H  H69  1  0.54672000  0.26894000  0.54161000  1.0
  H  H70  1  0.99483000  0.76904000  0.54152000  1.0
  H  H71  1  0.45328000  0.73106000  0.45839000  1.0
  H  H72  1  0.72785000  0.11761000  0.41824000  1.0
  H  H73  1  0.30972000  0.38241000  0.58193000  1.0
  H  H74  1  0.27216000  0.88238000  0.58176000  1.0
  H  H75  1  0.69028000  0.61759000  0.41807000  1.0
  H  H76  1  0.70465000  0.16741000  0.30821000  1.0
  H  H77  1  0.39646000  0.33248000  0.69185000  1.0
  H  H78  1  0.29535000  0.83259000  0.69179000  1.0
  H  H79  1  0.60355000  0.66752000  0.30816000  1.0
  H  H80  1  0.37929000  0.21621000  0.15257000  1.0
  H  H81  1  0.22701000  0.28375000  0.84750000  1.0
  H  H82  1  0.62071000  0.78379000  0.84743000  1.0
  H  H83  1  0.77299000  0.71625000  0.15250000  1.0
  H  H84  1  0.16654000  0.05287000  0.12471000  1.0
  H  H85  1  0.04215000  0.44708000  0.87531000  1.0
  H  H86  1  0.83346000  0.94714000  0.87529000  1.0
  H  H87  1  0.95785000  0.55292000  0.12469000  1.0
  H  H88  1  0.35050000  0.00211000  0.12211000  1.0
  H  H89  1  0.22885000  0.49785000  0.87800000  1.0
  H  H90  1  0.64949000  0.99789000  0.87789000  1.0
  H  H91  1  0.77115000  0.50215000  0.12200000  1.0
  H  H92  1  0.06562000  0.14749000  0.04879000  1.0
  H  H93  1  0.01717000  0.35232000  0.95120000  1.0
  H  H94  1  0.93438000  0.85251000  0.95120000  1.0
  H  H95  1  0.98283000  0.64768000  0.04880000  1.0
  H  H96  1  0.94579000  0.23308000  0.07324000  1.0
  H  H97  1  0.87285000  0.26686000  0.92679000  1.0
  H  H98  1  0.05421000  0.76692000  0.92676000  1.0
  H  H99  1  0.12715000  0.73313000  0.07321000  1.0
  H  H100  1  0.16349000  0.34100000  0.28317000  1.0
  H  H101  1  0.88036000  0.15906000  0.71668000  1.0
  H  H102  1  0.83651000  0.65901000  0.71683000  1.0
  H  H103  1  0.11965000  0.84094000  0.28333000  1.0
  H  H104  1  0.28429000  0.25780000  0.25708000  1.0
  H  H105  1  0.02715000  0.24224000  0.74276000  1.0
  H  H106  1  0.71571000  0.74220000  0.74292000  1.0
  H  H107  1  0.97285000  0.75776000  0.25725000  1.0
  H  H108  1  0.87722000  0.44398000  0.26669000  1.0
  H  H109  1  0.61063000  0.05599000  0.73331000  1.0
  H  H110  1  0.12278000  0.55602000  0.73331000  1.0
  H  H111  1  0.38937000  0.94401000  0.26668000  1.0
  H  H112  1  0.92755000  0.56949000  0.31930000  1.0
  H  H113  1  0.60846000  0.93045000  0.68086000  1.0
  H  H114  1  0.07245000  0.43051000  0.68070000  1.0
  H  H115  1  0.39154000  0.06955000  0.31913000  1.0
  H  H116  1  0.19973000  0.54017000  0.26669000  1.0
  H  H117  1  0.93323000  0.95989000  0.73348000  1.0
  H  H118  1  0.80028000  0.45983000  0.73331000  1.0
  H  H119  1  0.06677000  0.04011000  0.26652000  1.0
  H  H120  1  0.14816000  0.41463000  0.21416000  1.0
  H  H121  1  0.93399000  0.08541000  0.78582000  1.0
  H  H122  1  0.85184000  0.58536000  0.78584000  1.0
  H  H123  1  0.06601000  0.91459000  0.21418000  1.0
  H  H124  1  0.96860000  0.67833000  0.35561000  1.0
  H  H125  1  0.61293000  0.82166000  0.64432000  1.0
  H  H126  1  0.03141000  0.32167000  0.64439000  1.0
  H  H127  1  0.38706000  0.17834000  0.35567000  1.0
  H  H128  1  0.24865000  0.78528000  0.39477000  1.0
  H  H129  1  0.85390000  0.71480000  0.60522000  1.0
  H  H130  1  0.75135000  0.21472000  0.60523000  1.0
  H  H131  1  0.14610000  0.28520000  0.39478000  1.0
  H  H132  1  0.25103000  0.64361000  0.32495000  1.0
  H  H133  1  0.92615000  0.85648000  0.67527000  1.0
  H  H134  1  0.74897000  0.35639000  0.67505000  1.0
  H  H135  1  0.07385000  0.14352000  0.32473000  1.0
  H  H136  1  0.63143000  0.99055000  0.55866000  1.0
  H  H137  1  0.07310000  0.50922000  0.44152000  1.0
  H  H138  1  0.36857000  0.00945000  0.44134000  1.0
  H  H139  1  0.92690000  0.49078000  0.55848000  1.0
  H  H140  1  0.59028000  0.86214000  0.52554000  1.0
  H  H141  1  0.06487000  0.63769000  0.47457000  1.0
  H  H142  1  0.40973000  0.13785000  0.47446000  1.0
  H  H143  1  0.93513000  0.36231000  0.52543000  1.0
  H  H144  1  0.69980000  0.77981000  0.47464000  1.0
  H  H145  1  0.22526000  0.72007000  0.52543000  1.0
  H  H146  1  0.30021000  0.22019000  0.52536000  1.0
  H  H147  1  0.77473000  0.27993000  0.47457000  1.0
  H  H148  1  0.88767000  0.95352000  0.49034000  1.0
  H  H149  1  0.39759000  0.54646000  0.50956000  1.0
  H  H150  1  0.11234000  0.04647000  0.50966000  1.0
  H  H151  1  0.60241000  0.45354000  0.49044000  1.0
  C  C152  1  0.36400000  0.50177000  0.79893000  1.0
  C  C153  1  0.56511000  0.99832000  0.20119000  1.0
  C  C154  1  0.63599000  0.49823000  0.20107000  1.0
  C  C155  1  0.43488000  0.00169000  0.79881000  1.0
  C  C156  1  0.34478000  0.55080000  0.75869000  1.0
  C  C157  1  0.58605000  0.94927000  0.24144000  1.0
  C  C158  1  0.65521000  0.44920000  0.24131000  1.0
  C  C159  1  0.41395000  0.05073000  0.75856000  1.0
  C  C160  1  0.27923000  0.52951000  0.68757000  1.0
  C  C161  1  0.59164000  0.97057000  0.31257000  1.0
  C  C162  1  0.72077000  0.47049000  0.31243000  1.0
  C  C163  1  0.40836000  0.02943000  0.68743000  1.0
  C  C164  1  0.25833000  0.57745000  0.65268000  1.0
  C  C165  1  0.60578000  0.92266000  0.34749000  1.0
  C  C166  1  0.74167000  0.42255000  0.34732000  1.0
  C  C167  1  0.39422000  0.07734000  0.65251000  1.0
  C  C168  1  0.30430000  0.64641000  0.68779000  1.0
  C  C169  1  0.61669000  0.85371000  0.31239000  1.0
  C  C170  1  0.69570000  0.35359000  0.31222000  1.0
  C  C171  1  0.38331000  0.14628000  0.68761000  1.0
  C  C172  1  0.37076000  0.66803000  0.75849000  1.0
  C  C173  1  0.61234000  0.83209000  0.24166000  1.0
  C  C174  1  0.62924000  0.33197000  0.24151000  1.0
  C  C175  1  0.38766000  0.16791000  0.75834000  1.0
  C  C176  1  0.39043000  0.61992000  0.79345000  1.0
  C  C177  1  0.59693000  0.88018000  0.20667000  1.0
  C  C178  1  0.60957000  0.38009000  0.20655000  1.0
  C  C179  1  0.40307000  0.11983000  0.79333000  1.0
  C  C180  1  0.41863000  0.74224000  0.79897000  1.0
  C  C181  1  0.61980000  0.75789000  0.20118000  1.0
  C  C182  1  0.58138000  0.25776000  0.20104000  1.0
  C  C183  1  0.38020000  0.24211000  0.79882000  1.0
  C  C184  1  0.56786000  0.36945000  0.93468000  1.0
  C  C185  1  0.63332000  0.13062000  0.06540000  1.0
  C  C186  1  0.43214000  0.63055000  0.06532000  1.0
  C  C187  1  0.36668000  0.86937000  0.93460000  1.0
  C  C188  1  0.68506000  0.45079000  0.94861000  1.0
  C  C189  1  0.73646000  0.04923000  0.05137000  1.0
  C  C190  1  0.31494000  0.54922000  0.05139000  1.0
  C  C191  1  0.26353000  0.95077000  0.94863000  1.0
  C  C192  1  0.59375000  0.45695000  0.90278000  1.0
  C  C193  1  0.69085000  0.04297000  0.09711000  1.0
  C  C194  1  0.40625000  0.54304000  0.09722000  1.0
  C  C195  1  0.30915000  0.95703000  0.90289000  1.0
  C  C196  1  0.73909000  0.37335000  0.02025000  1.0
  C  C197  1  0.71905000  0.12672000  0.97983000  1.0
  C  C198  1  0.26091000  0.62665000  0.97975000  1.0
  C  C199  1  0.28095000  0.87327000  0.02016000  1.0
  C  C200  1  0.70842000  0.35201000  0.06698000  1.0
  C  C201  1  0.64167000  0.14812000  0.93316000  1.0
  C  C202  1  0.29158000  0.64799000  0.93302000  1.0
  C  C203  1  0.35834000  0.85187000  0.06684000  1.0
  C  C204  1  0.78068000  0.33674000  0.12161000  1.0
  C  C205  1  0.65915000  0.16334000  0.87845000  1.0
  C  C206  1  0.21932000  0.66326000  0.87839000  1.0
  C  C207  1  0.34085000  0.83665000  0.12155000  1.0
  C  C208  1  0.88349000  0.34303000  0.13068000  1.0
  C  C209  1  0.75281000  0.15697000  0.86928000  1.0
  C  C210  1  0.11651000  0.65697000  0.86932000  1.0
  C  C211  1  0.24719000  0.84303000  0.13072000  1.0
  C  C212  1  0.91231000  0.36245000  0.08150000  1.0
  C  C213  1  0.83082000  0.13753000  0.91843000  1.0
  C  C214  1  0.08769000  0.63755000  0.91850000  1.0
  C  C215  1  0.16918000  0.86246000  0.08157000  1.0
  C  C216  1  0.84121000  0.37732000  0.02654000  1.0
  C  C217  1  0.81479000  0.12268000  0.97342000  1.0
  C  C218  1  0.15879000  0.62268000  0.97346000  1.0
  C  C219  1  0.18521000  0.87732000  0.02658000  1.0
  C  C220  1  0.96750000  0.34107000  0.19789000  1.0
  C  C221  1  0.76965000  0.15895000  0.80207000  1.0
  C  C222  1  0.03250000  0.65893000  0.80211000  1.0
  C  C223  1  0.23035000  0.84105000  0.19793000  1.0
  C  C224  1  0.93123000  0.30950000  0.24359000  1.0
  C  C225  1  0.68767000  0.19050000  0.75640000  1.0
  C  C226  1  0.06877000  0.69050000  0.75641000  1.0
  C  C227  1  0.31233000  0.80950000  0.24360000  1.0
  C  C228  1  0.86945000  0.24508000  0.21202000  1.0
  C  C229  1  0.65754000  0.25496000  0.78800000  1.0
  C  C230  1  0.13055000  0.75492000  0.78798000  1.0
  C  C231  1  0.34246000  0.74504000  0.21200000  1.0
  C  C232  1  0.84586000  0.21165000  0.25305000  1.0
  C  C233  1  0.59289000  0.28841000  0.74700000  1.0
  C  C234  1  0.15414000  0.78836000  0.74695000  1.0
  C  C235  1  0.40711000  0.71159000  0.25300000  1.0
  C  C236  1  0.88496000  0.24234000  0.32727000  1.0
  C  C237  1  0.55772000  0.25766000  0.67279000  1.0
  C  C238  1  0.11503000  0.75766000  0.67272000  1.0
  C  C239  1  0.44229000  0.74234000  0.32722000  1.0
  C  C240  1  0.94700000  0.30607000  0.35968000  1.0
  C  C241  1  0.58723000  0.19390000  0.64037000  1.0
  C  C242  1  0.05299000  0.69394000  0.64031000  1.0
  C  C243  1  0.41277000  0.80610000  0.35963000  1.0
  C  C244  1  0.97007000  0.33888000  0.31788000  1.0
  C  C245  1  0.65211000  0.16106000  0.68212000  1.0
  C  C246  1  0.02992000  0.66112000  0.68212000  1.0
  C  C247  1  0.34789000  0.83894000  0.31788000  1.0
  C  C248  1  0.92697000  0.20646000  0.43267000  1.0
  C  C249  1  0.49430000  0.29350000  0.56739000  1.0
  C  C250  1  0.07304000  0.79353000  0.56733000  1.0
  C  C251  1  0.50570000  0.70651000  0.43262000  1.0
  C  C252  1  0.78252000  0.14694000  0.40898000  1.0
  C  C253  1  0.37364000  0.35307000  0.59115000  1.0
  C  C254  1  0.21748000  0.85305000  0.59102000  1.0
  C  C255  1  0.62637000  0.64693000  0.40886000  1.0
  C  C256  1  0.77012000  0.17034000  0.35390000  1.0
  C  C257  1  0.41629000  0.32965000  0.64620000  1.0
  C  C258  1  0.22989000  0.82966000  0.64610000  1.0
  C  C259  1  0.58371000  0.67036000  0.35380000  1.0
  C  C260  1  0.34723000  0.16491000  0.14532000  1.0
  C  C261  1  0.20217000  0.33502000  0.85472000  1.0
  C  C262  1  0.65276000  0.83509000  0.85467000  1.0
  C  C263  1  0.79782000  0.66498000  0.14527000  1.0
  C  C264  1  0.23690000  0.07768000  0.12819000  1.0
  C  C265  1  0.10901000  0.42226000  0.87181000  1.0
  C  C266  1  0.76310000  0.92232000  0.87181000  1.0
  C  C267  1  0.89099000  0.57774000  0.12819000  1.0
  C  C268  1  0.32783000  0.05371000  0.12795000  1.0
  C  C269  1  0.20024000  0.44624000  0.87215000  1.0
  C  C270  1  0.67217000  0.94629000  0.87205000  1.0
  C  C271  1  0.79976000  0.55376000  0.12785000  1.0
  C  C272  1  0.18134000  0.19767000  0.15174000  1.0
  C  C273  1  0.02973000  0.30229000  0.84816000  1.0
  C  C274  1  0.81867000  0.80233000  0.84826000  1.0
  C  C275  1  0.97027000  0.69772000  0.15184000  1.0
  C  C276  1  0.08632000  0.19021000  0.09994000  1.0
  C  C277  1  0.98660000  0.30968000  0.89999000  1.0
  C  C278  1  0.91369000  0.80979000  0.90006000  1.0
  C  C279  1  0.01340000  0.69032000  0.10001000  1.0
  C  C280  1  0.01974000  0.23867000  0.11395000  1.0
  C  C281  1  0.90600000  0.26126000  0.88603000  1.0
  C  C282  1  0.98026000  0.76133000  0.88605000  1.0
  C  C283  1  0.09400000  0.73874000  0.11397000  1.0
  C  C284  1  0.04628000  0.29391000  0.17938000  1.0
  C  C285  1  0.86697000  0.20608000  0.82056000  1.0
  C  C286  1  0.95371000  0.70609000  0.82061000  1.0
  C  C287  1  0.13303000  0.79392000  0.17944000  1.0
  C  C288  1  0.14211000  0.30007000  0.23088000  1.0
  C  C289  1  0.91124000  0.19993000  0.76902000  1.0
  C  C290  1  0.85789000  0.69993000  0.76912000  1.0
  C  C291  1  0.08875000  0.80007000  0.23098000  1.0
  C  C292  1  0.21009000  0.25300000  0.21687000  1.0
  C  C293  1  0.99324000  0.24700000  0.78300000  1.0
  C  C294  1  0.78990000  0.74700000  0.78312000  1.0
  C  C295  1  0.00675000  0.75300000  0.21700000  1.0
  C  C296  1  0.00945000  0.41890000  0.23731000  1.0
  C  C297  1  0.77222000  0.08112000  0.76268000  1.0
  C  C298  1  0.99055000  0.58110000  0.76269000  1.0
  C  C299  1  0.22778000  0.91888000  0.23732000  1.0
  C  C300  1  0.94870000  0.46462000  0.26696000  1.0
  C  C301  1  0.68185000  0.03539000  0.73307000  1.0
  C  C302  1  0.05130000  0.53538000  0.73304000  1.0
  C  C303  1  0.31815000  0.96461000  0.26693000  1.0
  C  C304  1  0.97696000  0.53625000  0.29660000  1.0
  C  C305  1  0.68051000  0.96376000  0.70349000  1.0
  C  C306  1  0.02303000  0.46375000  0.70339000  1.0
  C  C307  1  0.31949000  0.03624000  0.29651000  1.0
  C  C308  1  0.06779000  0.56444000  0.29690000  1.0
  C  C309  1  0.77103000  0.93558000  0.70319000  1.0
  C  C310  1  0.93221000  0.43557000  0.70310000  1.0
  C  C311  1  0.22897000  0.06442000  0.29681000  1.0
  C  C312  1  0.12860000  0.51982000  0.26696000  1.0
  C  C313  1  0.86177000  0.98018000  0.73308000  1.0
  C  C314  1  0.87140000  0.48018000  0.73304000  1.0
  C  C315  1  0.13822000  0.01982000  0.26692000  1.0
  C  C316  1  0.09925000  0.44793000  0.23740000  1.0
  C  C317  1  0.86189000  0.05208000  0.76257000  1.0
  C  C318  1  0.90075000  0.55207000  0.76260000  1.0
  C  C319  1  0.13811000  0.94792000  0.23743000  1.0
  C  C320  1  0.04450000  0.68750000  0.35564000  1.0
  C  C321  1  0.68888000  0.81253000  0.64441000  1.0
  C  C322  1  0.95551000  0.31250000  0.64436000  1.0
  C  C323  1  0.31112000  0.18747000  0.35559000  1.0
  C  C324  1  0.19152000  0.74070000  0.37481000  1.0
  C  C325  1  0.81670000  0.75936000  0.62521000  1.0
  C  C326  1  0.80849000  0.25930000  0.62519000  1.0
  C  C327  1  0.18330000  0.24064000  0.37479000  1.0
  C  C328  1  0.19231000  0.67128000  0.34031000  1.0
  C  C329  1  0.85206000  0.82876000  0.65984000  1.0
  C  C330  1  0.80769000  0.32872000  0.65969000  1.0
  C  C331  1  0.14794000  0.17124000  0.34016000  1.0
  C  C332  1  0.79032000  0.05727000  0.54768000  1.0
  C  C333  1  0.24299000  0.44269000  0.45244000  1.0
  C  C334  1  0.20968000  0.94273000  0.45232000  1.0
  C  C335  1  0.75700000  0.55731000  0.54755000  1.0
  C  C336  1  0.76423000  0.98021000  0.52875000  1.0
  C  C337  1  0.23579000  0.51973000  0.47134000  1.0
  C  C338  1  0.23578000  0.01979000  0.47125000  1.0
  C  C339  1  0.76421000  0.48027000  0.52866000  1.0
  C  C340  1  0.67902000  0.95416000  0.53717000  1.0
  C  C341  1  0.14210000  0.54568000  0.46294000  1.0
  C  C342  1  0.32099000  0.04584000  0.46283000  1.0
  C  C343  1  0.85790000  0.45432000  0.53706000  1.0
  C  C344  1  0.65579000  0.88222000  0.51787000  1.0
  C  C345  1  0.13806000  0.61762000  0.48222000  1.0
  C  C346  1  0.34422000  0.11778000  0.48213000  1.0
  C  C347  1  0.86195000  0.38238000  0.51779000  1.0
  C  C348  1  0.71602000  0.83590000  0.48905000  1.0
  C  C349  1  0.22710000  0.66397000  0.51099000  1.0
  C  C350  1  0.28398000  0.16410000  0.51095000  1.0
  C  C351  1  0.77291000  0.33603000  0.48902000  1.0
  C  C352  1  0.79885000  0.86134000  0.47766000  1.0
  C  C353  1  0.32134000  0.63859000  0.52238000  1.0
  C  C354  1  0.20115000  0.13866000  0.52234000  1.0
  C  C355  1  0.67866000  0.36141000  0.47762000  1.0
  C  C356  1  0.82297000  0.93344000  0.49852000  1.0
  C  C357  1  0.32472000  0.56652000  0.50150000  1.0
  C  C358  1  0.17703000  0.06656000  0.50148000  1.0
  C  C359  1  0.67529000  0.43348000  0.49850000  1.0
  C  C360  1  0.86461000  0.81289000  0.44536000  1.0
  C  C361  1  0.41929000  0.68710000  0.55464000  1.0
  C  C362  1  0.13539000  0.18711000  0.55464000  1.0
  C  C363  1  0.58071000  0.31290000  0.44536000  1.0
  N  N364  1  0.52187000  0.40570000  0.89432000  1.0
  N  N365  1  0.62744000  0.09422000  0.10557000  1.0
  N  N366  1  0.47813000  0.59430000  0.10568000  1.0
  N  N367  1  0.37256000  0.90578000  0.89443000  1.0
  N  N368  1  0.66761000  0.39526000  0.96878000  1.0
  N  N369  1  0.69906000  0.10485000  0.03134000  1.0
  N  N370  1  0.33238000  0.60474000  0.03121000  1.0
  N  N371  1  0.30095000  0.89514000  0.96867000  1.0
  N  N372  1  0.88027000  0.16953000  0.45739000  1.0
  N  N373  1  0.42294000  0.33049000  0.54271000  1.0
  N  N374  1  0.11974000  0.83047000  0.54261000  1.0
  N  N375  1  0.57705000  0.66951000  0.45729000  1.0
  N  N376  1  0.86205000  0.20800000  0.36952000  1.0
  N  N377  1  0.49256000  0.29198000  0.63055000  1.0
  N  N378  1  0.13794000  0.79200000  0.63047000  1.0
  N  N379  1  0.50744000  0.70802000  0.36946000  1.0
  N  N380  1  0.39524000  0.10850000  0.13825000  1.0
  N  N381  1  0.25731000  0.39144000  0.86186000  1.0
  N  N382  1  0.60476000  0.89151000  0.86175000  1.0
  N  N383  1  0.74269000  0.60856000  0.13814000  1.0
  N  N384  1  0.25067000  0.14845000  0.13958000  1.0
  N  N385  1  0.11131000  0.35148000  0.86038000  1.0
  N  N386  1  0.74933000  0.85155000  0.86042000  1.0
  N  N387  1  0.88867000  0.64852000  0.13961000  1.0
  N  N388  1  0.09903000  0.74983000  0.38368000  1.0
  N  N389  1  0.71534000  0.75022000  0.61632000  1.0
  N  N390  1  0.90097000  0.25017000  0.61632000  1.0
  N  N391  1  0.28466000  0.24978000  0.38368000  1.0
  N  N392  1  0.09865000  0.63757000  0.32810000  1.0
  N  N393  1  0.77061000  0.86245000  0.67204000  1.0
  N  N394  1  0.90136000  0.36243000  0.67190000  1.0
  N  N395  1  0.22940000  0.13755000  0.32797000  1.0
  O  O396  1  0.34216000  0.43556000  0.76119000  1.0
  O  O397  1  0.58106000  0.06453000  0.23889000  1.0
  O  O398  1  0.65784000  0.56444000  0.23881000  1.0
  O  O399  1  0.41894000  0.93547000  0.76111000  1.0
  O  O400  1  0.39884000  0.52521000  0.86583000  1.0
  O  O401  1  0.53303000  0.97483000  0.13428000  1.0
  O  O402  1  0.60116000  0.47479000  0.13417000  1.0
  O  O403  1  0.46698000  0.02517000  0.86573000  1.0
  O  O404  1  0.39843000  0.78516000  0.76458000  1.0
  O  O405  1  0.63421000  0.71500000  0.23562000  1.0
  O  O406  1  0.60156000  0.21484000  0.23542000  1.0
  O  O407  1  0.36578000  0.28500000  0.76437000  1.0
  O  O408  1  0.47434000  0.75994000  0.86345000  1.0
  O  O409  1  0.61085000  0.74018000  0.13668000  1.0
  O  O410  1  0.52567000  0.24005000  0.13656000  1.0
  O  O411  1  0.38914000  0.25982000  0.86331000  1.0
  O  O412  1  0.88347000  0.07488000  0.55583000  1.0
  O  O413  1  0.32786000  0.42503000  0.44411000  1.0
  O  O414  1  0.11653000  0.92512000  0.44417000  1.0
  O  O415  1  0.67212000  0.57497000  0.55588000  1.0
  O  O416  1  0.72469000  0.09781000  0.55339000  1.0
  O  O417  1  0.17175000  0.40218000  0.44692000  1.0
  O  O418  1  0.27531000  0.90219000  0.44661000  1.0
  O  O419  1  0.82824000  0.59782000  0.55307000  1.0
  O  O420  1  0.91897000  0.84137000  0.42014000  1.0
  O  O421  1  0.49890000  0.65876000  0.57998000  1.0
  O  O422  1  0.08104000  0.15863000  0.57986000  1.0
  O  O423  1  0.50110000  0.34124000  0.42002000  1.0
  O  O424  1  0.86600000  0.75211000  0.44620000  1.0
  O  O425  1  0.41972000  0.74783000  0.55364000  1.0
  O  O426  1  0.13401000  0.24789000  0.55380000  1.0
  O  O427  1  0.58029000  0.25217000  0.44637000  1.0
