# generated using pymatgen
data_Cd3H76C54(N19O3)2
_symmetry_space_group_name_H-M   'P 1'
_cell_length_a   11.01020000
_cell_length_b   14.56880000
_cell_length_c   22.69370000
_cell_angle_alpha   89.99990000
_cell_angle_beta   89.99990000
_cell_angle_gamma   82.17410000
_symmetry_Int_Tables_number   1
_chemical_formula_structural   Cd3H76C54(N19O3)2
_chemical_formula_sum   'Cd6 H152 C108 N76 O12'
_cell_volume   3606.28873794
_cell_formula_units_Z   2
loop_
 _symmetry_equiv_pos_site_id
 _symmetry_equiv_pos_as_xyz
  1  'x, y, z'
loop_
 _atom_site_type_symbol
 _atom_site_label
 _atom_site_symmetry_multiplicity
 _atom_site_fract_x
 _atom_site_fract_y
 _atom_site_fract_z
 _atom_site_occupancy
  Cd  Cd0  1  0.00000000  0.00000000  0.00000000  1.0
  Cd  Cd1  1  0.00000000  0.50000000  0.50000000  1.0
  Cd  Cd2  1  0.13944000  0.78040000  0.92761000  1.0
  Cd  Cd3  1  0.86056000  0.71960000  0.42760000  1.0
  Cd  Cd4  1  0.86055000  0.21960000  0.07239000  1.0
  Cd  Cd5  1  0.13944000  0.28040000  0.57239000  1.0
  H  H6  1  0.08296000  0.31477000  0.70805000  1.0
  H  H7  1  0.91704000  0.18523000  0.20805000  1.0
  H  H8  1  0.91703000  0.68523000  0.29194000  1.0
  H  H9  1  0.08296000  0.81477000  0.79194000  1.0
  H  H10  1  0.06528000  0.22865000  0.80258000  1.0
  H  H11  1  0.93472000  0.27134000  0.30258000  1.0
  H  H12  1  0.93472000  0.77134000  0.19741000  1.0
  H  H13  1  0.06528000  0.72865000  0.69741000  1.0
  H  H14  1  0.18574000  0.97539000  0.70686000  1.0
  H  H15  1  0.81426000  0.52460000  0.20687000  1.0
  H  H16  1  0.81427000  0.02461000  0.29314000  1.0
  H  H17  1  0.18574000  0.47539000  0.79314000  1.0
  H  H18  1  0.19791000  0.07207000  0.61734000  1.0
  H  H19  1  0.80209000  0.42793000  0.11734000  1.0
  H  H20  1  0.80209000  0.92793000  0.38266000  1.0
  H  H21  1  0.19790000  0.57208000  0.88266000  1.0
  H  H22  1  0.31039000  0.92860000  0.94905000  1.0
  H  H23  1  0.68961000  0.57139000  0.44904000  1.0
  H  H24  1  0.68961000  0.07140000  0.05096000  1.0
  H  H25  1  0.31039000  0.42860000  0.55095000  1.0
  H  H26  1  0.52803000  0.95949000  0.95063000  1.0
  H  H27  1  0.47197000  0.54050000  0.45062000  1.0
  H  H28  1  0.47197000  0.04051000  0.04938000  1.0
  H  H29  1  0.52803000  0.45949000  0.54937000  1.0
  H  H30  1  0.63174000  0.68094000  0.88481000  1.0
  H  H31  1  0.36826000  0.81906000  0.38481000  1.0
  H  H32  1  0.36825000  0.31906000  0.11519000  1.0
  H  H33  1  0.63174000  0.18094000  0.61519000  1.0
  H  H34  1  0.41179000  0.66139000  0.88657000  1.0
  H  H35  1  0.58821000  0.83862000  0.38657000  1.0
  H  H36  1  0.58820000  0.33862000  0.11343000  1.0
  H  H37  1  0.41179000  0.16139000  0.61343000  1.0
  H  H38  1  0.23127000  0.45569000  0.11022000  1.0
  H  H39  1  0.76874000  0.04431000  0.61022000  1.0
  H  H40  1  0.76873000  0.54431000  0.88978000  1.0
  H  H41  1  0.23127000  0.95570000  0.38978000  1.0
  H  H42  1  0.13287000  0.38517000  0.07499000  1.0
  H  H43  1  0.86715000  0.11483000  0.57499000  1.0
  H  H44  1  0.86713000  0.61484000  0.92501000  1.0
  H  H45  1  0.13287000  0.88517000  0.42500000  1.0
  H  H46  1  0.95810000  0.50495000  0.08155000  1.0
  H  H47  1  0.04191000  0.99504000  0.58154000  1.0
  H  H48  1  0.04190000  0.49505000  0.91846000  1.0
  H  H49  1  0.95810000  0.00495000  0.41845000  1.0
  H  H50  1  0.04133000  0.54196000  0.14265000  1.0
  H  H51  1  0.95868000  0.95803000  0.64265000  1.0
  H  H52  1  0.95868000  0.45804000  0.85735000  1.0
  H  H53  1  0.04133000  0.04197000  0.35735000  1.0
  H  H54  1  0.30639000  0.37343000  0.99534000  1.0
  H  H55  1  0.69362000  0.12657000  0.49534000  1.0
  H  H56  1  0.69362000  0.62658000  0.00466000  1.0
  H  H57  1  0.30638000  0.87342000  0.50466000  1.0
  H  H58  1  0.38371000  0.47156000  0.00841000  1.0
  H  H59  1  0.61630000  0.02844000  0.50842000  1.0
  H  H60  1  0.61629000  0.52845000  0.99159000  1.0
  H  H61  1  0.38370000  0.97156000  0.49159000  1.0
  H  H62  1  0.29303000  0.46431000  0.94336000  1.0
  H  H63  1  0.70696000  0.03568000  0.44337000  1.0
  H  H64  1  0.70697000  0.53570000  0.05664000  1.0
  H  H65  1  0.29303000  0.96430000  0.55664000  1.0
  H  H66  1  0.91607000  0.68850000  0.09811000  1.0
  H  H67  1  0.08392000  0.81148000  0.59811000  1.0
  H  H68  1  0.08391000  0.31149000  0.90189000  1.0
  H  H69  1  0.91607000  0.18850000  0.40190000  1.0
  H  H70  1  0.91991000  0.69227000  0.01989000  1.0
  H  H71  1  0.08009000  0.80773000  0.51989000  1.0
  H  H72  1  0.08009000  0.30774000  0.98011000  1.0
  H  H73  1  0.91991000  0.19227000  0.48011000  1.0
  H  H74  1  0.01912000  0.75458000  0.06169000  1.0
  H  H75  1  0.98088000  0.74542000  0.56169000  1.0
  H  H76  1  0.98087000  0.24543000  0.93832000  1.0
  H  H77  1  0.01911000  0.25457000  0.43831000  1.0
  H  H78  1  0.52098000  0.61733000  0.65928000  1.0
  H  H79  1  0.47901000  0.88266000  0.15928000  1.0
  H  H80  1  0.47902000  0.38267000  0.34072000  1.0
  H  H81  1  0.52099000  0.11733000  0.84073000  1.0
  H  H82  1  0.39736000  0.56447000  0.68966000  1.0
  H  H83  1  0.60264000  0.93552000  0.18966000  1.0
  H  H84  1  0.60264000  0.43553000  0.31034000  1.0
  H  H85  1  0.39737000  0.06447000  0.81034000  1.0
  H  H86  1  0.37540000  0.66728000  0.77292000  1.0
  H  H87  1  0.62461000  0.83271000  0.27292000  1.0
  H  H88  1  0.62460000  0.33272000  0.22707000  1.0
  H  H89  1  0.37540000  0.16728000  0.72708000  1.0
  H  H90  1  0.53312000  0.67237000  0.75949000  1.0
  H  H91  1  0.46688000  0.82761000  0.25949000  1.0
  H  H92  1  0.46687000  0.32763000  0.24051000  1.0
  H  H93  1  0.53313000  0.17237000  0.74051000  1.0
  H  H94  1  0.28034000  0.61792000  0.57872000  1.0
  H  H95  1  0.71965000  0.88208000  0.07871000  1.0
  H  H96  1  0.71965000  0.38208000  0.42128000  1.0
  H  H97  1  0.28034000  0.11793000  0.92129000  1.0
  H  H98  1  0.42082000  0.66291000  0.56345000  1.0
  H  H99  1  0.57917000  0.83708000  0.06345000  1.0
  H  H100  1  0.57918000  0.33708000  0.43655000  1.0
  H  H101  1  0.42082000  0.16292000  0.93655000  1.0
  H  H102  1  0.27829000  0.73853000  0.56586000  1.0
  H  H103  1  0.72170000  0.76146000  0.06586000  1.0
  H  H104  1  0.72170000  0.26147000  0.43414000  1.0
  H  H105  1  0.27830000  0.23854000  0.93414000  1.0
  H  H106  1  0.50014000  0.85612000  0.77991000  1.0
  H  H107  1  0.49988000  0.64386000  0.27990000  1.0
  H  H108  1  0.49987000  0.14387000  0.22009000  1.0
  H  H109  1  0.50013000  0.35613000  0.72009000  1.0
  H  H110  1  0.33940000  0.85908000  0.79411000  1.0
  H  H111  1  0.66061000  0.64091000  0.29411000  1.0
  H  H112  1  0.66061000  0.14092000  0.20589000  1.0
  H  H113  1  0.33939000  0.35907000  0.70589000  1.0
  H  H114  1  0.39007000  0.92213000  0.73359000  1.0
  H  H115  1  0.60994000  0.57787000  0.23358000  1.0
  H  H116  1  0.60994000  0.07787000  0.26641000  1.0
  H  H117  1  0.39006000  0.42212000  0.76641000  1.0
  H  H118  1  0.79724000  0.76097000  0.66581000  1.0
  H  H119  1  0.20274000  0.73904000  0.16581000  1.0
  H  H120  1  0.20275000  0.23903000  0.33419000  1.0
  H  H121  1  0.79726000  0.26098000  0.83420000  1.0
  H  H122  1  0.66301000  0.76832000  0.71027000  1.0
  H  H123  1  0.33698000  0.73169000  0.21027000  1.0
  H  H124  1  0.33698000  0.23168000  0.28972000  1.0
  H  H125  1  0.66302000  0.26832000  0.78975000  1.0
  H  H126  1  0.80455000  0.80687000  0.78601000  1.0
  H  H127  1  0.19544000  0.69314000  0.28601000  1.0
  H  H128  1  0.19544000  0.19313000  0.21399000  1.0
  H  H129  1  0.80455000  0.30687000  0.71400000  1.0
  H  H130  1  0.89834000  0.85497000  0.73315000  1.0
  H  H131  1  0.10165000  0.64505000  0.23316000  1.0
  H  H132  1  0.10166000  0.14503000  0.26685000  1.0
  H  H133  1  0.89835000  0.35496000  0.76685000  1.0
  H  H134  1  0.57371000  0.95887000  0.59859000  1.0
  H  H135  1  0.42626000  0.54113000  0.09860000  1.0
  H  H136  1  0.42628000  0.04113000  0.40140000  1.0
  H  H137  1  0.57375000  0.45889000  0.90141000  1.0
  H  H138  1  0.52399000  0.85341000  0.62233000  1.0
  H  H139  1  0.47599000  0.64659000  0.12233000  1.0
  H  H140  1  0.47600000  0.14659000  0.37767000  1.0
  H  H141  1  0.52402000  0.35344000  0.87768000  1.0
  H  H142  1  0.65592000  0.84942000  0.57617000  1.0
  H  H143  1  0.34406000  0.65058000  0.07617000  1.0
  H  H144  1  0.34407000  0.15058000  0.42382000  1.0
  H  H145  1  0.65595000  0.34944000  0.92383000  1.0
  H  H146  1  0.77773000  0.98362000  0.83674000  1.0
  H  H147  1  0.22228000  0.51640000  0.33675000  1.0
  H  H148  1  0.22227000  0.01637000  0.16326000  1.0
  H  H149  1  0.77772000  0.48361000  0.66326000  1.0
  H  H150  1  0.71708000  0.07273000  0.78711000  1.0
  H  H151  1  0.28292000  0.42729000  0.28712000  1.0
  H  H152  1  0.28293000  0.92727000  0.21289000  1.0
  H  H153  1  0.71708000  0.57272000  0.71288000  1.0
  H  H154  1  0.87155000  0.01794000  0.77858000  1.0
  H  H155  1  0.12845000  0.48207000  0.27860000  1.0
  H  H156  1  0.12845000  0.98205000  0.22141000  1.0
  H  H157  1  0.87155000  0.51793000  0.72140000  1.0
  C  C158  1  0.10218000  0.23946000  0.70975000  1.0
  C  C159  1  0.89783000  0.26053000  0.20975000  1.0
  C  C160  1  0.89782000  0.76053000  0.29025000  1.0
  C  C161  1  0.10217000  0.73947000  0.79025000  1.0
  C  C162  1  0.09320000  0.19176000  0.76204000  1.0
  C  C163  1  0.90680000  0.30824000  0.26204000  1.0
  C  C164  1  0.90679000  0.80824000  0.23796000  1.0
  C  C165  1  0.09321000  0.69176000  0.73797000  1.0
  C  C166  1  0.12145000  0.09497000  0.76235000  1.0
  C  C167  1  0.87855000  0.40503000  0.26235000  1.0
  C  C168  1  0.87855000  0.90503000  0.23765000  1.0
  C  C169  1  0.12145000  0.59497000  0.73765000  1.0
  C  C170  1  0.16047000  0.05024000  0.70957000  1.0
  C  C171  1  0.83953000  0.44976000  0.20957000  1.0
  C  C172  1  0.83953000  0.94976000  0.29043000  1.0
  C  C173  1  0.16047000  0.55024000  0.79043000  1.0
  C  C174  1  0.16804000  0.10349000  0.65937000  1.0
  C  C175  1  0.83196000  0.39650000  0.15937000  1.0
  C  C176  1  0.83196000  0.89651000  0.34063000  1.0
  C  C177  1  0.16804000  0.60349000  0.84063000  1.0
  C  C178  1  0.11107000  0.04303000  0.81628000  1.0
  C  C179  1  0.88893000  0.45696000  0.31628000  1.0
  C  C180  1  0.88893000  0.95697000  0.18372000  1.0
  C  C181  1  0.11107000  0.54303000  0.68372000  1.0
  C  C182  1  0.38448000  0.87563000  0.93514000  1.0
  C  C183  1  0.61552000  0.62436000  0.43513000  1.0
  C  C184  1  0.61551000  0.12437000  0.06487000  1.0
  C  C185  1  0.38448000  0.37563000  0.56486000  1.0
  C  C186  1  0.50513000  0.89267000  0.93620000  1.0
  C  C187  1  0.49487000  0.60732000  0.43619000  1.0
  C  C188  1  0.49487000  0.10733000  0.06380000  1.0
  C  C189  1  0.50513000  0.39267000  0.56380000  1.0
  C  C190  1  0.59844000  0.82178000  0.91975000  1.0
  C  C191  1  0.40155000  0.67822000  0.41975000  1.0
  C  C192  1  0.40155000  0.17822000  0.08025000  1.0
  C  C193  1  0.59845000  0.32178000  0.58025000  1.0
  C  C194  1  0.56434000  0.73767000  0.89999000  1.0
  C  C195  1  0.43565000  0.76233000  0.39999000  1.0
  C  C196  1  0.43565000  0.26233000  0.10001000  1.0
  C  C197  1  0.56434000  0.23767000  0.60001000  1.0
  C  C198  1  0.44078000  0.72666000  0.90064000  1.0
  C  C199  1  0.55921000  0.77335000  0.40064000  1.0
  C  C200  1  0.55921000  0.27335000  0.09936000  1.0
  C  C201  1  0.44078000  0.22665000  0.59936000  1.0
  C  C202  1  0.72569000  0.83666000  0.92715000  1.0
  C  C203  1  0.27430000  0.66334000  0.42715000  1.0
  C  C204  1  0.27430000  0.16334000  0.07285000  1.0
  C  C205  1  0.72570000  0.33666000  0.57285000  1.0
  C  C206  1  0.14643000  0.58326000  0.01611000  1.0
  C  C207  1  0.85357000  0.91674000  0.51612000  1.0
  C  C208  1  0.85356000  0.41675000  0.98389000  1.0
  C  C209  1  0.14643000  0.08326000  0.48389000  1.0
  C  C210  1  0.15562000  0.45597000  0.07836000  1.0
  C  C211  1  0.84439000  0.04402000  0.57836000  1.0
  C  C212  1  0.84438000  0.54403000  0.92164000  1.0
  C  C213  1  0.15562000  0.95597000  0.42164000  1.0
  C  C214  1  0.04567000  0.52723000  0.09517000  1.0
  C  C215  1  0.95434000  0.97277000  0.59517000  1.0
  C  C216  1  0.95434000  0.47278000  0.90483000  1.0
  C  C217  1  0.04566000  0.02723000  0.40483000  1.0
  C  C218  1  0.29937000  0.44883000  0.99056000  1.0
  C  C219  1  0.70063000  0.05117000  0.49056000  1.0
  C  C220  1  0.70063000  0.55118000  0.00944000  1.0
  C  C221  1  0.29937000  0.94882000  0.50944000  1.0
  C  C222  1  0.97667000  0.69077000  0.05996000  1.0
  C  C223  1  0.02334000  0.80922000  0.55996000  1.0
  C  C224  1  0.02333000  0.30923000  0.94005000  1.0
  C  C225  1  0.97666000  0.19077000  0.44004000  1.0
  C  C226  1  0.34156000  0.78396000  0.66890000  1.0
  C  C227  1  0.65845000  0.71604000  0.16890000  1.0
  C  C228  1  0.65844000  0.21604000  0.33109000  1.0
  C  C229  1  0.34157000  0.28396000  0.83110000  1.0
  C  C230  1  0.43196000  0.63083000  0.68231000  1.0
  C  C231  1  0.56805000  0.86916000  0.18231000  1.0
  C  C232  1  0.56804000  0.36917000  0.31768000  1.0
  C  C233  1  0.43196000  0.13084000  0.81769000  1.0
  C  C234  1  0.44165000  0.68515000  0.73964000  1.0
  C  C235  1  0.55835000  0.81484000  0.23964000  1.0
  C  C236  1  0.55835000  0.31484000  0.26035000  1.0
  C  C237  1  0.44166000  0.18515000  0.76036000  1.0
  C  C238  1  0.33085000  0.67693000  0.58561000  1.0
  C  C239  1  0.66915000  0.82307000  0.08561000  1.0
  C  C240  1  0.66914000  0.32307000  0.41439000  1.0
  C  C241  1  0.33085000  0.17694000  0.91439000  1.0
  C  C242  1  0.40936000  0.85810000  0.75933000  1.0
  C  C243  1  0.59065000  0.64189000  0.25933000  1.0
  C  C244  1  0.59065000  0.14190000  0.24067000  1.0
  C  C245  1  0.40935000  0.35811000  0.74066000  1.0
  C  C246  1  0.67386000  0.96655000  0.69974000  1.0
  C  C247  1  0.32613000  0.53346000  0.19975000  1.0
  C  C248  1  0.32615000  0.03345000  0.30025000  1.0
  C  C249  1  0.67387000  0.46655000  0.80026000  1.0
  C  C250  1  0.73597000  0.80718000  0.69435000  1.0
  C  C251  1  0.26401000  0.69284000  0.19435000  1.0
  C  C252  1  0.26402000  0.19283000  0.30565000  1.0
  C  C253  1  0.73599000  0.30718000  0.80566000  1.0
  C  C254  1  0.80262000  0.84799000  0.74537000  1.0
  C  C255  1  0.19738000  0.65202000  0.24537000  1.0
  C  C256  1  0.19738000  0.15200000  0.25463000  1.0
  C  C257  1  0.80262000  0.34799000  0.75464000  1.0
  C  C258  1  0.60499000  0.88734000  0.61223000  1.0
  C  C259  1  0.39499000  0.61267000  0.11223000  1.0
  C  C260  1  0.39501000  0.11266000  0.38777000  1.0
  C  C261  1  0.60502000  0.38736000  0.88778000  1.0
  C  C262  1  0.77741000  0.00674000  0.79070000  1.0
  C  C263  1  0.22259000  0.49328000  0.29071000  1.0
  C  C264  1  0.22259000  0.99326000  0.20929000  1.0
  C  C265  1  0.77742000  0.50673000  0.70929000  1.0
  N  N266  1  0.13828000  0.19631000  0.65888000  1.0
  N  N267  1  0.86172000  0.30369000  0.15888000  1.0
  N  N268  1  0.86172000  0.80369000  0.34112000  1.0
  N  N269  1  0.13828000  0.69631000  0.84112000  1.0
  N  N270  1  0.07337000  0.08146000  0.86848000  1.0
  N  N271  1  0.92663000  0.41854000  0.36848000  1.0
  N  N272  1  0.92663000  0.91854000  0.13152000  1.0
  N  N273  1  0.07337000  0.58146000  0.63152000  1.0
  N  N274  1  0.07777000  0.00982000  0.90483000  1.0
  N  N275  1  0.92224000  0.49017000  0.40483000  1.0
  N  N276  1  0.92223000  0.99018000  0.09517000  1.0
  N  N277  1  0.07777000  0.50982000  0.59517000  1.0
  N  N278  1  0.11555000  0.93106000  0.87617000  1.0
  N  N279  1  0.88445000  0.56894000  0.37617000  1.0
  N  N280  1  0.88445000  0.06894000  0.12383000  1.0
  N  N281  1  0.11555000  0.43106000  0.62383000  1.0
  N  N282  1  0.13726000  0.94987000  0.82028000  1.0
  N  N283  1  0.86274000  0.55012000  0.32028000  1.0
  N  N284  1  0.86274000  0.05013000  0.17972000  1.0
  N  N285  1  0.13726000  0.44987000  0.67972000  1.0
  N  N286  1  0.35211000  0.79351000  0.91861000  1.0
  N  N287  1  0.64788000  0.70649000  0.41860000  1.0
  N  N288  1  0.64788000  0.20650000  0.08140000  1.0
  N  N289  1  0.35212000  0.29350000  0.58140000  1.0
  N  N290  1  0.75674000  0.91086000  0.95656000  1.0
  N  N291  1  0.24326000  0.58913000  0.45656000  1.0
  N  N292  1  0.24326000  0.08913000  0.04344000  1.0
  N  N293  1  0.75674000  0.41086000  0.54344000  1.0
  N  N294  1  0.87792000  0.89723000  0.95753000  1.0
  N  N295  1  0.12207000  0.60277000  0.45753000  1.0
  N  N296  1  0.12207000  0.10277000  0.04247000  1.0
  N  N297  1  0.87793000  0.39722000  0.54247000  1.0
  N  N298  1  0.91996000  0.81850000  0.92980000  1.0
  N  N299  1  0.08003000  0.68150000  0.42980000  1.0
  N  N300  1  0.08003000  0.18150000  0.07020000  1.0
  N  N301  1  0.91997000  0.31849000  0.57020000  1.0
  N  N302  1  0.82602000  0.77856000  0.91009000  1.0
  N  N303  1  0.17398000  0.72144000  0.41009000  1.0
  N  N304  1  0.17397000  0.22145000  0.08991000  1.0
  N  N305  1  0.82602000  0.27855000  0.58991000  1.0
  N  N306  1  0.14202000  0.86524000  0.01405000  1.0
  N  N307  1  0.85797000  0.63475000  0.51405000  1.0
  N  N308  1  0.85797000  0.13476000  0.98595000  1.0
  N  N309  1  0.14203000  0.36524000  0.48595000  1.0
  N  N310  1  0.22478000  0.85641000  0.04951000  1.0
  N  N311  1  0.77522000  0.64359000  0.54951000  1.0
  N  N312  1  0.77521000  0.14359000  0.95049000  1.0
  N  N313  1  0.22479000  0.35641000  0.45049000  1.0
  N  N314  1  0.30401000  0.84755000  0.08390000  1.0
  N  N315  1  0.69599000  0.65244000  0.58390000  1.0
  N  N316  1  0.69598000  0.15244000  0.91610000  1.0
  N  N317  1  0.30402000  0.34755000  0.41610000  1.0
  N  N318  1  0.06789000  0.60886000  0.06157000  1.0
  N  N319  1  0.93211000  0.89114000  0.56157000  1.0
  N  N320  1  0.93210000  0.39115000  0.93843000  1.0
  N  N321  1  0.06789000  0.10885000  0.43843000  1.0
  N  N322  1  0.19040000  0.49095000  0.02113000  1.0
  N  N323  1  0.80961000  0.00905000  0.52114000  1.0
  N  N324  1  0.80960000  0.50905000  0.97886000  1.0
  N  N325  1  0.19039000  0.99095000  0.47887000  1.0
  N  N326  1  0.34562000  0.69433000  0.64778000  1.0
  N  N327  1  0.65439000  0.80566000  0.14777000  1.0
  N  N328  1  0.65438000  0.30567000  0.35222000  1.0
  N  N329  1  0.34562000  0.19434000  0.85222000  1.0
  N  N330  1  0.40980000  0.78042000  0.71985000  1.0
  N  N331  1  0.59021000  0.71957000  0.21985000  1.0
  N  N332  1  0.59020000  0.21958000  0.28015000  1.0
  N  N333  1  0.40981000  0.28043000  0.78015000  1.0
  N  N334  1  0.68314000  0.89060000  0.66316000  1.0
  N  N335  1  0.31684000  0.60942000  0.16316000  1.0
  N  N336  1  0.31686000  0.10940000  0.33684000  1.0
  N  N337  1  0.68317000  0.39060000  0.83685000  1.0
  N  N338  1  0.73192000  0.93953000  0.75249000  1.0
  N  N339  1  0.26807000  0.56048000  0.25250000  1.0
  N  N340  1  0.26808000  0.06047000  0.24750000  1.0
  N  N341  1  0.73193000  0.43953000  0.74751000  1.0
  O  O342  1  0.17531000  0.63432000  0.97510000  1.0
  O  O343  1  0.82469000  0.86568000  0.47510000  1.0
  O  O344  1  0.82469000  0.36568000  0.02490000  1.0
  O  O345  1  0.17531000  0.13432000  0.52490000  1.0
  O  O346  1  0.28623000  0.85506000  0.64558000  1.0
  O  O347  1  0.71377000  0.64494000  0.14558000  1.0
  O  O348  1  0.71377000  0.14494000  0.35441000  1.0
  O  O349  1  0.28624000  0.35506000  0.85441000  1.0
  O  O350  1  0.62340000  0.04583000  0.68738000  1.0
  O  O351  1  0.37659000  0.45418000  0.18738000  1.0
  O  O352  1  0.37663000  0.95417000  0.31262000  1.0
  O  O353  1  0.62340000  0.54584000  0.81262000  1.0
