# generated using pymatgen
data_CdH15C8S2N5
_symmetry_space_group_name_H-M   'P 1'
_cell_length_a   7.66222000
_cell_length_b   7.75937000
_cell_length_c   22.24790000
_cell_angle_alpha   90.00000000
_cell_angle_beta   90.00000000
_cell_angle_gamma   105.54900000
_symmetry_Int_Tables_number   1
_chemical_formula_structural   CdH15C8S2N5
_chemical_formula_sum   'Cd4 H60 C32 S8 N20'
_cell_volume   1274.31690894
_cell_formula_units_Z   4
loop_
 _symmetry_equiv_pos_site_id
 _symmetry_equiv_pos_as_xyz
  1  'x, y, z'
loop_
 _atom_site_type_symbol
 _atom_site_label
 _atom_site_symmetry_multiplicity
 _atom_site_fract_x
 _atom_site_fract_y
 _atom_site_fract_z
 _atom_site_occupancy
  Cd  Cd0  1  0.52340000  0.22696000  0.10944000  1.0
  Cd  Cd1  1  0.97660000  0.77304000  0.60944000  1.0
  Cd  Cd2  1  0.47660000  0.77304000  0.89056000  1.0
  Cd  Cd3  1  0.02340000  0.22696000  0.39056000  1.0
  H  H4  1  0.51312000  0.90392000  0.18600000  1.0
  H  H5  1  0.98688000  0.09608000  0.68600000  1.0
  H  H6  1  0.48688000  0.09608000  0.81400000  1.0
  H  H7  1  0.01312000  0.90392000  0.31399000  1.0
  H  H8  1  0.64933000  0.93308000  0.12710000  1.0
  H  H9  1  0.85067000  0.06693000  0.62710000  1.0
  H  H10  1  0.35068000  0.06693000  0.87290000  1.0
  H  H11  1  0.14933000  0.93307000  0.37290000  1.0
  H  H12  1  0.84426000  0.98356000  0.21375000  1.0
  H  H13  1  0.65573000  0.01645000  0.71375000  1.0
  H  H14  1  0.15574000  0.01645000  0.78625000  1.0
  H  H15  1  0.34427000  0.98355000  0.28625000  1.0
  H  H16  1  0.72012000  0.12827000  0.24219000  1.0
  H  H17  1  0.77987000  0.87173000  0.74219000  1.0
  H  H18  1  0.27988000  0.87173000  0.75781000  1.0
  H  H19  1  0.22013000  0.12826000  0.25781000  1.0
  H  H20  1  0.01737000  0.29088000  0.19682000  1.0
  H  H21  1  0.48263000  0.70912000  0.69682000  1.0
  H  H22  1  0.98263000  0.70912000  0.80318000  1.0
  H  H23  1  0.51737000  0.29088000  0.30318000  1.0
  H  H24  1  0.94604000  0.18878000  0.12626000  1.0
  H  H25  1  0.55395000  0.81121000  0.62626000  1.0
  H  H26  1  0.05396000  0.81122000  0.87374000  1.0
  H  H27  1  0.44605000  0.18879000  0.37374000  1.0
  H  H28  1  0.78390000  0.43951000  0.19005000  1.0
  H  H29  1  0.71610000  0.56050000  0.69005000  1.0
  H  H30  1  0.21610000  0.56050000  0.80995000  1.0
  H  H31  1  0.28390000  0.43951000  0.30995000  1.0
  H  H32  1  0.94555000  0.43786000  0.07083000  1.0
  H  H33  1  0.55445000  0.56214000  0.57083000  1.0
  H  H34  1  0.05444000  0.56214000  0.92917000  1.0
  H  H35  1  0.44556000  0.43787000  0.42917000  1.0
  H  H36  1  0.02606000  0.59975000  0.12806000  1.0
  H  H37  1  0.47394000  0.40025000  0.62806000  1.0
  H  H38  1  0.97394000  0.40025000  0.87194000  1.0
  H  H39  1  0.52606000  0.59975000  0.37194000  1.0
  H  H40  1  0.72112000  0.66787000  0.12764000  1.0
  H  H41  1  0.77888000  0.33213000  0.62764000  1.0
  H  H42  1  0.27887000  0.33213000  0.87236000  1.0
  H  H43  1  0.22112000  0.66787000  0.37236000  1.0
  H  H44  1  0.85463000  0.73704000  0.06210000  1.0
  H  H45  1  0.64537000  0.26296000  0.56210000  1.0
  H  H46  1  0.14537000  0.26296000  0.93790000  1.0
  H  H47  1  0.35463000  0.73704000  0.43790000  1.0
  H  H48  1  0.78076000  0.41465000  0.99034000  1.0
  H  H49  1  0.71924000  0.58535000  0.49034000  1.0
  H  H50  1  0.21924000  0.58534000  0.00966000  1.0
  H  H51  1  0.28076000  0.41465000  0.50966000  1.0
  H  H52  1  0.74256000  0.62372000  0.96910000  1.0
  H  H53  1  0.75744000  0.37627000  0.46910000  1.0
  H  H54  1  0.25744000  0.37627000  0.03090000  1.0
  H  H55  1  0.24256000  0.62373000  0.53090000  1.0
  H  H56  1  0.53394000  0.74598000  0.03088000  1.0
  H  H57  1  0.96606000  0.25402000  0.53088000  1.0
  H  H58  1  0.46606000  0.25402000  0.96912000  1.0
  H  H59  1  0.03394000  0.74598000  0.46912000  1.0
  H  H60  1  0.43026000  0.62166000  0.09483000  1.0
  H  H61  1  0.06974000  0.37834000  0.59483000  1.0
  H  H62  1  0.56974000  0.37834000  0.90517000  1.0
  H  H63  1  0.93026000  0.62166000  0.40517000  1.0
  C  C64  1  0.76865000  0.08020000  0.20057000  1.0
  C  C65  1  0.73134000  0.91980000  0.70057000  1.0
  C  C66  1  0.23135000  0.91981000  0.79943000  1.0
  C  C67  1  0.26865000  0.08020000  0.29943000  1.0
  C  C68  1  0.89844000  0.23642000  0.16818000  1.0
  C  C69  1  0.60156000  0.76358000  0.66818000  1.0
  C  C70  1  0.10156000  0.76359000  0.83182000  1.0
  C  C71  1  0.39844000  0.23641000  0.33182000  1.0
  C  C72  1  0.90308000  0.50884000  0.10854000  1.0
  C  C73  1  0.59691000  0.49116000  0.60854000  1.0
  C  C74  1  0.09692000  0.49116000  0.89146000  1.0
  C  C75  1  0.40309000  0.50884000  0.39146000  1.0
  C  C76  1  0.77704000  0.61890000  0.08747000  1.0
  C  C77  1  0.72296000  0.38110000  0.58747000  1.0
  C  C78  1  0.22296000  0.38110000  0.91253000  1.0
  C  C79  1  0.27704000  0.61890000  0.41253000  1.0
  C  C80  1  0.67973000  0.49117000  0.98925000  1.0
  C  C81  1  0.82028000  0.50883000  0.48925000  1.0
  C  C82  1  0.32027000  0.50883000  0.01075000  1.0
  C  C83  1  0.17973000  0.49117000  0.51075000  1.0
  C  C84  1  0.47858000  0.60956000  0.04898000  1.0
  C  C85  1  0.02142000  0.39044000  0.54898000  1.0
  C  C86  1  0.52142000  0.39044000  0.95102000  1.0
  C  C87  1  0.97858000  0.60956000  0.45102000  1.0
  C  C88  1  0.25805000  0.94765000  0.01139000  1.0
  C  C89  1  0.24195000  0.05235000  0.51139000  1.0
  C  C90  1  0.74195000  0.05235000  0.98861000  1.0
  C  C91  1  0.75805000  0.94766000  0.48861000  1.0
  C  C92  1  0.34176000  0.49114000  0.19798000  1.0
  C  C93  1  0.15825000  0.50887000  0.69798000  1.0
  C  C94  1  0.65824000  0.50887000  0.80202000  1.0
  C  C95  1  0.84176000  0.49113000  0.30202000  1.0
  S  S96  1  0.19995000  0.02705000  0.07414000  1.0
  S  S97  1  0.30004000  0.97294000  0.57414000  1.0
  S  S98  1  0.80005000  0.97294000  0.92586000  1.0
  S  S99  1  0.69996000  0.02705000  0.42586000  1.0
  S  S100  1  0.27639000  0.65680000  0.22570000  1.0
  S  S101  1  0.22361000  0.34320000  0.72570000  1.0
  S  S102  1  0.72361000  0.34320000  0.77430000  1.0
  S  S103  1  0.77639000  0.65680000  0.27430000  1.0
  N  N104  1  0.61058000  0.99722000  0.16276000  1.0
  N  N105  1  0.88942000  0.00279000  0.66276000  1.0
  N  N106  1  0.38943000  0.00279000  0.83724000  1.0
  N  N107  1  0.11058000  0.99722000  0.33724000  1.0
  N  N108  1  0.80747000  0.37410000  0.15198000  1.0
  N  N109  1  0.69253000  0.62590000  0.65198000  1.0
  N  N110  1  0.19253000  0.62590000  0.84802000  1.0
  N  N111  1  0.30747000  0.37410000  0.34802000  1.0
  N  N112  1  0.62205000  0.51494000  0.05137000  1.0
  N  N113  1  0.87795000  0.48506000  0.55137000  1.0
  N  N114  1  0.37795000  0.48506000  0.94863000  1.0
  N  N115  1  0.12205000  0.51494000  0.44863000  1.0
  N  N116  1  0.29875000  0.89011000  0.96580000  1.0
  N  N117  1  0.20125000  0.10987000  0.46581000  1.0
  N  N118  1  0.70126000  0.10988000  0.03419000  1.0
  N  N119  1  0.79875000  0.89012000  0.53420000  1.0
  N  N120  1  0.38184000  0.36438000  0.17837000  1.0
  N  N121  1  0.11816000  0.63562000  0.67837000  1.0
  N  N122  1  0.61816000  0.63563000  0.82163000  1.0
  N  N123  1  0.88185000  0.36439000  0.32163000  1.0
