# generated using pymatgen
data_ZnH24C30(NO2)2
_symmetry_space_group_name_H-M   'P 1'
_cell_length_a   7.56695000
_cell_length_b   22.13960000
_cell_length_c   22.13950000
_cell_angle_alpha   120.00044824
_cell_angle_beta   90.00010000
_cell_angle_gamma   89.99990000
_symmetry_Int_Tables_number   1
_chemical_formula_structural   ZnH24C30(NO2)2
_chemical_formula_sum   'Zn3 H72 C90 N6 O12'
_cell_volume   3212.08561915
_cell_formula_units_Z   3
loop_
 _symmetry_equiv_pos_site_id
 _symmetry_equiv_pos_as_xyz
  1  'x, y, z'
loop_
 _atom_site_type_symbol
 _atom_site_label
 _atom_site_symmetry_multiplicity
 _atom_site_fract_x
 _atom_site_fract_y
 _atom_site_fract_z
 _atom_site_occupancy
  Zn  Zn0  1  0.00000000  0.50000000  0.50000000  1.0
  Zn  Zn1  1  0.00001000  0.50000000  1.00000000  1.0
  Zn  Zn2  1  1.00000000  0.00000000  0.50000000  1.0
  H  H3  1  0.53824000  0.38011000  0.34886000  1.0
  H  H4  1  0.67790000  0.30670000  0.32026000  1.0
  H  H5  1  0.65672000  0.34776000  0.26876000  1.0
  H  H6  1  0.90381000  0.40446000  0.27270000  1.0
  H  H7  1  0.06254000  0.41006000  0.20860000  1.0
  H  H8  1  0.27224000  0.42483000  0.13341000  1.0
  H  H9  1  0.60013000  0.55429000  0.31187000  1.0
  H  H10  1  0.38508000  0.53948000  0.38771000  1.0
  H  H11  1  0.39111000  0.47771000  0.08789000  1.0
  H  H12  1  0.61956000  0.47934000  0.00873000  1.0
  H  H13  1  0.02077000  0.51862000  0.14982000  1.0
  H  H14  1  0.81458000  0.51274000  0.23453000  1.0
  H  H15  1  0.53825000  0.65114000  0.03124000  1.0
  H  H16  1  0.67791000  0.67974000  0.98644000  1.0
  H  H17  1  0.65672000  0.73124000  0.07900000  1.0
  H  H18  1  0.90381000  0.72730000  0.13176000  1.0
  H  H19  1  0.06254000  0.79140000  0.20146000  1.0
  H  H20  1  0.27224000  0.86659000  0.29143000  1.0
  H  H21  1  0.60011000  0.68813000  0.24243000  1.0
  H  H22  1  0.38507000  0.61230000  0.15178000  1.0
  H  H23  1  0.39110000  0.91211000  0.38983000  1.0
  H  H24  1  0.61955000  0.99127000  0.47061000  1.0
  H  H25  1  0.02076000  0.85018000  0.36881000  1.0
  H  H26  1  0.81457000  0.76546000  0.27821000  1.0
  H  H27  1  0.53826000  0.96876000  0.61990000  1.0
  H  H28  1  0.67792000  0.01356000  0.69330000  1.0
  H  H29  1  0.65674000  0.92100000  0.65224000  1.0
  H  H30  1  0.90382000  0.86824000  0.59554000  1.0
  H  H31  1  0.06255000  0.79854000  0.58994000  1.0
  H  H32  1  0.27225000  0.70857000  0.57516000  1.0
  H  H33  1  0.60013000  0.75757000  0.44570000  1.0
  H  H34  1  0.38508000  0.84823000  0.46052000  1.0
  H  H35  1  0.39110000  0.61018000  0.52228000  1.0
  H  H36  1  0.61955000  0.52939000  0.52066000  1.0
  H  H37  1  0.02077000  0.63120000  0.48138000  1.0
  H  H38  1  0.81458000  0.72179000  0.48726000  1.0
  H  H39  1  0.46175000  0.61990000  0.65114000  1.0
  H  H40  1  0.32209000  0.69330000  0.67974000  1.0
  H  H41  1  0.34326000  0.65225000  0.73124000  1.0
  H  H42  1  0.09618000  0.59554000  0.72730000  1.0
  H  H43  1  0.93746000  0.58994000  0.79140000  1.0
  H  H44  1  0.72775000  0.57516000  0.86659000  1.0
  H  H45  1  0.39987000  0.44571000  0.68812000  1.0
  H  H46  1  0.61491000  0.46053000  0.61229000  1.0
  H  H47  1  0.60891000  0.52227000  0.91210000  1.0
  H  H48  1  0.38046000  0.52066000  0.99127000  1.0
  H  H49  1  0.97923000  0.48138000  0.85018000  1.0
  H  H50  1  0.18541000  0.48727000  0.76547000  1.0
  H  H51  1  0.46175000  0.34886000  0.96876000  1.0
  H  H52  1  0.32209000  0.32026000  0.01356000  1.0
  H  H53  1  0.34327000  0.26877000  0.92101000  1.0
  H  H54  1  0.09619000  0.27269000  0.86824000  1.0
  H  H55  1  0.93746000  0.20860000  0.79854000  1.0
  H  H56  1  0.72776000  0.13341000  0.70858000  1.0
  H  H57  1  0.39988000  0.31187000  0.75758000  1.0
  H  H58  1  0.61493000  0.38771000  0.84823000  1.0
  H  H59  1  0.60890000  0.08789000  0.61018000  1.0
  H  H60  1  0.38045000  0.00873000  0.52939000  1.0
  H  H61  1  0.97924000  0.14982000  0.63119000  1.0
  H  H62  1  0.18542000  0.23454000  0.72179000  1.0
  H  H63  1  0.46175000  0.03124000  0.38010000  1.0
  H  H64  1  0.32209000  0.98644000  0.30670000  1.0
  H  H65  1  0.34327000  0.07900000  0.34776000  1.0
  H  H66  1  0.09619000  0.13176000  0.40446000  1.0
  H  H67  1  0.93746000  0.20146000  0.41006000  1.0
  H  H68  1  0.72776000  0.29142000  0.42483000  1.0
  H  H69  1  0.39988000  0.24243000  0.55430000  1.0
  H  H70  1  0.61493000  0.15177000  0.53948000  1.0
  H  H71  1  0.60890000  0.38983000  0.47772000  1.0
  H  H72  1  0.38045000  0.47061000  0.47934000  1.0
  H  H73  1  0.97924000  0.36881000  0.51863000  1.0
  H  H74  1  0.18543000  0.27822000  0.51275000  1.0
  C  C75  1  0.66376000  0.35716000  0.32225000  1.0
  C  C76  1  0.81592000  0.40453000  0.36339000  1.0
  C  C77  1  0.93379000  0.42519000  0.32756000  1.0
  C  C78  1  0.08892000  0.46548000  0.35376000  1.0
  C  C79  1  0.20854000  0.47407000  0.30449000  1.0
  C  C80  1  0.17871000  0.44247000  0.23234000  1.0
  C  C81  1  0.29818000  0.45061000  0.18929000  1.0
  C  C82  1  0.45352000  0.49003000  0.21655000  1.0
  C  C83  1  0.48263000  0.52227000  0.28882000  1.0
  C  C84  1  0.36201000  0.51457000  0.33179000  1.0
  C  C85  1  0.58221000  0.49531000  0.16956000  1.0
  C  C86  1  0.52887000  0.48650000  0.10481000  1.0
  C  C87  1  0.65486000  0.48808000  0.06018000  1.0
  C  C88  1  0.87980000  0.50941000  0.13865000  1.0
  C  C89  1  0.76318000  0.50711000  0.18599000  1.0
  C  C90  1  0.66376000  0.67775000  0.03491000  1.0
  C  C91  1  0.81592000  0.63660000  0.04114000  1.0
  C  C92  1  0.93379000  0.67244000  0.09763000  1.0
  C  C93  1  0.08892000  0.64624000  0.11172000  1.0
  C  C94  1  0.20854000  0.69551000  0.16958000  1.0
  C  C95  1  0.17871000  0.76765000  0.21013000  1.0
  C  C96  1  0.29818000  0.81071000  0.26132000  1.0
  C  C97  1  0.45351000  0.78346000  0.27349000  1.0
  C  C98  1  0.48262000  0.71118000  0.23346000  1.0
  C  C99  1  0.36200000  0.66821000  0.18278000  1.0
  C  C100  1  0.58220000  0.83044000  0.32576000  1.0
  C  C101  1  0.52886000  0.89519000  0.38170000  1.0
  C  C102  1  0.65485000  0.93982000  0.42791000  1.0
  C  C103  1  0.87979000  0.86135000  0.37077000  1.0
  C  C104  1  0.76317000  0.81401000  0.32113000  1.0
  C  C105  1  0.66377000  0.96509000  0.64284000  1.0
  C  C106  1  0.81593000  0.95885000  0.59546000  1.0
  C  C107  1  0.93380000  0.90237000  0.57481000  1.0
  C  C108  1  0.08892000  0.88828000  0.53452000  1.0
  C  C109  1  0.20855000  0.83042000  0.52593000  1.0
  C  C110  1  0.17872000  0.78986000  0.55752000  1.0
  C  C111  1  0.29819000  0.73868000  0.54939000  1.0
  C  C112  1  0.45352000  0.72652000  0.50997000  1.0
  C  C113  1  0.48263000  0.76655000  0.47772000  1.0
  C  C114  1  0.36201000  0.81722000  0.48543000  1.0
  C  C115  1  0.58221000  0.67424000  0.50468000  1.0
  C  C116  1  0.52886000  0.61831000  0.51349000  1.0
  C  C117  1  0.65485000  0.57210000  0.51191000  1.0
  C  C118  1  0.87980000  0.62924000  0.49059000  1.0
  C  C119  1  0.76318000  0.67888000  0.49289000  1.0
  C  C120  1  0.33623000  0.64284000  0.67775000  1.0
  C  C121  1  0.18407000  0.59547000  0.63661000  1.0
  C  C122  1  0.06620000  0.57481000  0.67244000  1.0
  C  C123  1  0.91108000  0.53453000  0.64624000  1.0
  C  C124  1  0.79145000  0.52593000  0.69551000  1.0
  C  C125  1  0.82128000  0.55753000  0.76766000  1.0
  C  C126  1  0.70181000  0.54939000  0.81071000  1.0
  C  C127  1  0.54648000  0.50997000  0.78345000  1.0
  C  C128  1  0.51736000  0.47772000  0.71117000  1.0
  C  C129  1  0.63798000  0.48543000  0.66820000  1.0
  C  C130  1  0.41779000  0.50468000  0.83044000  1.0
  C  C131  1  0.47114000  0.51349000  0.89518000  1.0
  C  C132  1  0.34515000  0.51191000  0.93981000  1.0
  C  C133  1  0.12020000  0.49059000  0.86135000  1.0
  C  C134  1  0.23682000  0.49289000  0.81401000  1.0
  C  C135  1  0.33623000  0.32225000  0.96509000  1.0
  C  C136  1  0.18408000  0.36339000  0.95886000  1.0
  C  C137  1  0.06621000  0.32756000  0.90237000  1.0
  C  C138  1  0.91109000  0.35376000  0.88828000  1.0
  C  C139  1  0.79146000  0.30449000  0.83042000  1.0
  C  C140  1  0.82128000  0.23235000  0.78987000  1.0
  C  C141  1  0.70182000  0.18929000  0.73868000  1.0
  C  C142  1  0.54648000  0.21655000  0.72652000  1.0
  C  C143  1  0.51737000  0.28883000  0.76655000  1.0
  C  C144  1  0.63799000  0.33179000  0.81722000  1.0
  C  C145  1  0.41780000  0.16956000  0.67424000  1.0
  C  C146  1  0.47114000  0.10481000  0.61831000  1.0
  C  C147  1  0.34515000  0.06019000  0.57210000  1.0
  C  C148  1  0.12020000  0.13865000  0.62923000  1.0
  C  C149  1  0.23682000  0.18598000  0.67887000  1.0
  C  C150  1  0.33623000  0.03491000  0.35716000  1.0
  C  C151  1  0.18408000  0.04115000  0.40454000  1.0
  C  C152  1  0.06621000  0.09763000  0.42519000  1.0
  C  C153  1  0.91108000  0.11172000  0.46548000  1.0
  C  C154  1  0.79146000  0.16958000  0.47407000  1.0
  C  C155  1  0.82129000  0.21014000  0.44248000  1.0
  C  C156  1  0.70182000  0.26132000  0.45061000  1.0
  C  C157  1  0.54649000  0.27348000  0.49003000  1.0
  C  C158  1  0.51737000  0.23346000  0.52228000  1.0
  C  C159  1  0.63799000  0.18278000  0.51457000  1.0
  C  C160  1  0.41780000  0.32576000  0.49532000  1.0
  C  C161  1  0.47114000  0.38170000  0.48651000  1.0
  C  C162  1  0.34515000  0.42790000  0.48809000  1.0
  C  C163  1  0.12021000  0.37077000  0.50942000  1.0
  C  C164  1  0.23683000  0.32113000  0.50712000  1.0
  N  N165  1  0.82726000  0.49957000  0.07642000  1.0
  N  N166  1  0.82725000  0.92357000  0.42315000  1.0
  N  N167  1  0.82725000  0.57685000  0.50043000  1.0
  N  N168  1  0.17275000  0.50043000  0.92358000  1.0
  N  N169  1  0.17275000  0.07642000  0.57685000  1.0
  N  N170  1  0.17275000  0.42315000  0.49958000  1.0
  O  O171  1  0.14131000  0.49565000  0.41720000  1.0
  O  O172  1  0.82643000  0.42094000  0.42743000  1.0
  O  O173  1  0.14131000  0.58280000  0.07846000  1.0
  O  O174  1  0.82643000  0.57256000  0.99351000  1.0
  O  O175  1  0.14131000  0.92155000  0.50434000  1.0
  O  O176  1  0.82644000  0.00649000  0.57906000  1.0
  O  O177  1  0.85869000  0.50434000  0.58279000  1.0
  O  O178  1  0.17357000  0.57906000  0.57257000  1.0
  O  O179  1  0.85870000  0.41720000  0.92154000  1.0
  O  O180  1  0.17358000  0.42744000  0.00649000  1.0
  O  O181  1  0.85869000  0.07846000  0.49566000  1.0
  O  O182  1  0.17357000  0.99351000  0.42094000  1.0
