# generated using pymatgen
data_AlH9C15NO7
_symmetry_space_group_name_H-M   'P 1'
_cell_length_a   6.76693000
_cell_length_b   17.03480000
_cell_length_c   17.72870000
_cell_angle_alpha   85.80600000
_cell_angle_beta   79.66270000
_cell_angle_gamma   81.71810000
_symmetry_Int_Tables_number   1
_chemical_formula_structural   AlH9C15NO7
_chemical_formula_sum   'Al2 H18 C30 N2 O14'
_cell_volume   1987.15927114
_cell_formula_units_Z   2
loop_
 _symmetry_equiv_pos_site_id
 _symmetry_equiv_pos_as_xyz
  1  'x, y, z'
loop_
 _atom_site_type_symbol
 _atom_site_label
 _atom_site_symmetry_multiplicity
 _atom_site_fract_x
 _atom_site_fract_y
 _atom_site_fract_z
 _atom_site_occupancy
  Al  Al0  1  0.50001000  0.50000000  0.50000000  1.0
  Al  Al1  1  0.00001000  0.50000000  0.50000000  1.0
  H  H2  1  0.77057000  0.55882000  0.41444000  1.0
  H  H3  1  0.22943000  0.44118000  0.58556000  1.0
  H  H4  1  0.15441000  0.25913000  0.49579000  1.0
  H  H5  1  0.21270000  0.11132000  0.49845000  1.0
  H  H6  1  0.57620000  0.10829000  0.49978000  1.0
  H  H7  1  0.42381000  0.89171000  0.50022000  1.0
  H  H8  1  0.78731000  0.88868000  0.50155000  1.0
  H  H9  1  0.84561000  0.74087000  0.50420000  1.0
  H  H10  1  0.68218000  0.49636000  0.27417000  1.0
  H  H11  1  0.76969000  0.49790000  0.13187000  1.0
  H  H12  1  0.05269000  0.49602000  0.26189000  1.0
  H  H13  1  0.94732000  0.50405000  0.73811000  1.0
  H  H14  1  0.31785000  0.50360000  0.72584000  1.0
  H  H15  1  0.23034000  0.50207000  0.86814000  1.0
  H  H16  1  0.48533000  0.31960000  0.49425000  1.0
  H  H17  1  0.51469000  0.68041000  0.50574000  1.0
  H  H18  1  0.16826000  0.49962000  0.05731000  1.0
  H  H19  1  0.83169000  0.50054000  0.94270000  1.0
  C  C20  1  0.31475000  0.49753000  0.36161000  1.0
  C  C21  1  0.19463000  0.64467000  0.50424000  1.0
  C  C22  1  0.68528000  0.50246000  0.63839000  1.0
  C  C23  1  0.80539000  0.35533000  0.49575000  1.0
  C  C24  1  0.83389000  0.26811000  0.49561000  1.0
  C  C25  1  0.02882000  0.22575000  0.49638000  1.0
  C  C26  1  0.06238000  0.14391000  0.49793000  1.0
  C  C27  1  0.89679000  0.10171000  0.49907000  1.0
  C  C28  1  0.70206000  0.14194000  0.49858000  1.0
  C  C29  1  0.66831000  0.22513000  0.49647000  1.0
  C  C30  1  0.29795000  0.85806000  0.50141000  1.0
  C  C31  1  0.10322000  0.89829000  0.50093000  1.0
  C  C32  1  0.93762000  0.85610000  0.50207000  1.0
  C  C33  1  0.97120000  0.77425000  0.50362000  1.0
  C  C34  1  0.16613000  0.73189000  0.50438000  1.0
  C  C35  1  0.33171000  0.77487000  0.50353000  1.0
  C  C36  1  0.36304000  0.49671000  0.27626000  1.0
  C  C37  1  0.56488000  0.49693000  0.23940000  1.0
  C  C38  1  0.61304000  0.49768000  0.16008000  1.0
  C  C39  1  0.45960000  0.49835000  0.11575000  1.0
  C  C40  1  0.25598000  0.49783000  0.15348000  1.0
  C  C41  1  0.20875000  0.49675000  0.23320000  1.0
  C  C42  1  0.49651000  0.49956000  0.03487000  1.0
  C  C43  1  0.50348000  0.50049000  0.96513000  1.0
  C  C44  1  0.54041000  0.50168000  0.88425000  1.0
  C  C45  1  0.74402000  0.50223000  0.84652000  1.0
  C  C46  1  0.79126000  0.50330000  0.76680000  1.0
  C  C47  1  0.63699000  0.50329000  0.72374000  1.0
  C  C48  1  0.43515000  0.50305000  0.76061000  1.0
  C  C49  1  0.38698000  0.50231000  0.83992000  1.0
  N  N50  1  0.91089000  0.01791000  0.50085000  1.0
  N  N51  1  0.08912000  0.98210000  0.49915000  1.0
  O  O52  1  0.46367000  0.50005000  0.39614000  1.0
  O  O53  1  0.04391000  0.60887000  0.50156000  1.0
  O  O54  1  0.86923000  0.50336000  0.60601000  1.0
  O  O55  1  0.62285000  0.39107000  0.49439000  1.0
  O  O56  1  0.53636000  0.49994000  0.60386000  1.0
  O  O57  1  0.95611000  0.39113000  0.49844000  1.0
  O  O58  1  0.13079000  0.49663000  0.39399000  1.0
  O  O59  1  0.37716000  0.60893000  0.50560000  1.0
  O  O60  1  0.75241000  0.53601000  0.46655000  1.0
  O  O61  1  0.24760000  0.46399000  0.53345000  1.0
  O  O62  1  0.47759000  0.26117000  0.49575000  1.0
  O  O63  1  0.52243000  0.73884000  0.50423000  1.0
  O  O64  1  0.10512000  0.49852000  0.11167000  1.0
  O  O65  1  0.89486000  0.50160000  0.88833000  1.0
