# generated using pymatgen
data_Zn4H18C18O13
_symmetry_space_group_name_H-M   'P 1'
_cell_length_a   12.24020000
_cell_length_b   13.71960000
_cell_length_c   15.07840000
_cell_angle_alpha   69.66610000
_cell_angle_beta   70.88420000
_cell_angle_gamma   68.19490000
_symmetry_Int_Tables_number   1
_chemical_formula_structural   Zn4H18C18O13
_chemical_formula_sum   'Zn8 H36 C36 O26'
_cell_volume   2146.44745614
_cell_formula_units_Z   2
loop_
 _symmetry_equiv_pos_site_id
 _symmetry_equiv_pos_as_xyz
  1  'x, y, z'
loop_
 _atom_site_type_symbol
 _atom_site_label
 _atom_site_symmetry_multiplicity
 _atom_site_fract_x
 _atom_site_fract_y
 _atom_site_fract_z
 _atom_site_occupancy
  Zn  Zn0  1  0.93736000  0.07610000  0.92154000  1.0
  Zn  Zn1  1  0.18509000  0.05287000  0.96272000  1.0
  Zn  Zn2  1  0.94497000  0.08879000  0.12955000  1.0
  Zn  Zn3  1  0.98555000  0.28301000  0.93995000  1.0
  Zn  Zn4  1  0.61256000  0.71362000  0.51315000  1.0
  Zn  Zn5  1  0.34875000  0.69041000  0.55494000  1.0
  Zn  Zn6  1  0.58019000  0.47958000  0.55071000  1.0
  Zn  Zn7  1  0.54066000  0.66308000  0.35353000  1.0
  H  H8  1  0.18383000  0.81278000  0.77828000  1.0
  H  H9  1  0.29796000  0.66033000  0.88726000  1.0
  H  H10  1  0.26060000  0.74602000  0.96548000  1.0
  H  H11  1  0.49954000  0.69549000  0.82309000  1.0
  H  H12  1  0.44189000  0.80949000  0.87382000  1.0
  H  H13  1  0.37543000  0.92165000  0.72616000  1.0
  H  H14  1  0.64532000  0.92528000  0.12175000  1.0
  H  H15  1  0.48159000  0.09004000  0.07268000  1.0
  H  H16  1  0.53084000  0.16724000  0.11785000  1.0
  H  H17  1  0.41191000  0.98538000  0.24220000  1.0
  H  H18  1  0.40340000  0.09840000  0.28053000  1.0
  H  H19  1  0.62159000  0.02130000  0.28564000  1.0
  H  H20  1  0.91140000  0.29703000  0.62734000  1.0
  H  H21  1  0.13092000  0.28373000  0.57262000  1.0
  H  H22  1  0.11840000  0.34140000  0.66666667  1.0
  H  H23  1  0.01708000  0.46598000  0.48288000  1.0
  H  H24  1  0.06062000  0.52300000  0.55121000  1.0
  H  H25  1  0.88480000  0.49835000  0.68704000  1.0
  H  H26  1  0.29318000  0.74733000  0.18778000  1.0
  H  H27  1  0.14957000  0.65796000  0.18729000  1.0
  H  H28  1  0.02375000  0.76483000  0.22708000  1.0
  H  H29  1  0.19863000  0.59087000  0.35126000  1.0
  H  H30  1  0.04446000  0.66029000  0.39618000  1.0
  H  H31  1  0.09638000  0.83146000  0.35458000  1.0
  H  H32  1  0.42341000  0.26553000  0.79493000  1.0
  H  H33  1  0.49561000  0.25498000  0.93259000  1.0
  H  H34  1  0.34442000  0.29718000  0.00031000  1.0
  H  H35  1  0.48199000  0.44473000  0.83453000  1.0
  H  H36  1  0.34877000  0.48806000  0.92283000  1.0
  H  H37  1  0.22130000  0.46930000  0.83529000  1.0
  H  H38  1  0.76787000  0.47405000  0.15995000  1.0
  H  H39  1  0.91887000  0.49986000  0.21508000  1.0
  H  H40  1  0.02640000  0.38900000  0.16840000  1.0
  H  H41  1  0.91134000  0.36790000  0.38026000  1.0
  H  H42  1  0.96693000  0.25671000  0.32592000  1.0
  H  H43  1  0.75845000  0.28005000  0.32964000  1.0
  C  C44  1  0.16255000  0.93065000  0.85070000  1.0
  C  C45  1  0.23716000  0.83367000  0.81088000  1.0
  C  C46  1  0.29815000  0.73888000  0.89046000  1.0
  C  C47  1  0.42029000  0.76392000  0.83813000  1.0
  C  C48  1  0.36491000  0.83961000  0.74978000  1.0
  C  C49  1  0.41008000  0.79598000  0.66118000  1.0
  C  C50  1  0.75510000  0.02523000  0.10040000  1.0
  C  C51  1  0.63916000  0.99454000  0.14567000  1.0
  C  C52  1  0.52041000  0.08718000  0.12977000  1.0
  C  C53  1  0.46074000  0.04086000  0.23660000  1.0
  C  C54  1  0.58949000  0.97662000  0.25663000  1.0
  C  C55  1  0.60395000  0.86209000  0.31961000  1.0
  C  C56  1  0.92116000  0.28291000  0.77068000  1.0
  C  C57  1  0.94084000  0.33657000  0.66346000  1.0
  C  C58  1  0.07289000  0.34378000  0.61380000  1.0
  C  C59  1  0.02043000  0.46154000  0.55613000  1.0
  C  C60  1  0.89658000  0.46165000  0.62897000  1.0
  C  C61  1  0.78448000  0.51320000  0.58927000  1.0
  C  C62  1  0.15979000  0.90106000  0.15612000  1.0
  C  C63  1  0.19821000  0.78646000  0.21703000  1.0
  C  C64  1  0.11607000  0.71472000  0.23310000  1.0
  C  C65  1  0.12668000  0.66813000  0.34019000  1.0
  C  C66  1  0.17126000  0.76589000  0.32851000  1.0
  C  C67  1  0.27479000  0.73693000  0.37486000  1.0
  C  C68  1  0.25222000  0.25251000  0.88740000  1.0
  C  C69  1  0.35221000  0.30553000  0.84850000  1.0
  C  C70  1  0.40490000  0.30992000  0.92787000  1.0
  C  C71  1  0.39466000  0.43115000  0.87687000  1.0
  C  C72  1  0.31801000  0.43066000  0.81161000  1.0
  C  C73  1  0.36150000  0.48090000  0.70544000  1.0
  C  C74  1  0.87289000  0.31765000  0.13592000  1.0
  C  C75  1  0.82832000  0.39928000  0.19535000  1.0
  C  C76  1  0.93750000  0.41499000  0.21590000  1.0
  C  C77  1  0.91070000  0.34125000  0.31977000  1.0
  C  C78  1  0.78372000  0.35541000  0.30602000  1.0
  C  C79  1  0.68684000  0.43735000  0.35738000  1.0
  O  O80  1  0.01091000  0.12644000  0.98984000  1.0
  O  O81  1  0.21832000  0.99236000  0.85239000  1.0
  O  O82  1  0.04944000  0.94224000  0.88411000  1.0
  O  O83  1  0.33244000  0.79948000  0.61971000  1.0
  O  O84  1  0.52466000  0.76004000  0.63363000  1.0
  O  O85  1  0.80814000  0.03195000  0.15721000  1.0
  O  O86  1  0.78838000  0.04443000  0.00799000  1.0
  O  O87  1  0.59563000  0.79354000  0.28423000  1.0
  O  O88  1  0.61971000  0.84328000  0.40432000  1.0
  O  O89  1  0.91520000  0.33812000  0.82619000  1.0
  O  O90  1  0.91766000  0.18498000  0.79722000  1.0
  O  O91  1  0.71544000  0.45468000  0.60838000  1.0
  O  O92  1  0.76853000  0.61197000  0.53891000  1.0
  O  O93  1  0.06493000  0.96657000  0.19422000  1.0
  O  O94  1  0.22322000  0.92246000  0.06951000  1.0
  O  O95  1  0.38114000  0.70334000  0.32502000  1.0
  O  O96  1  0.24620000  0.74441000  0.46224000  1.0
  O  O97  1  0.14480000  0.31279000  0.88421000  1.0
  O  O98  1  0.28497000  0.14966000  0.92364000  1.0
  O  O99  1  0.45946000  0.42501000  0.66010000  1.0
  O  O100  1  0.30048000  0.57745000  0.67071000  1.0
  O  O101  1  0.88781000  0.21735000  0.18094000  1.0
  O  O102  1  0.89658000  0.35697000  0.04393000  1.0
  O  O103  1  0.65336000  0.53559000  0.30770000  1.0
  O  O104  1  0.64944000  0.40103000  0.44856000  1.0
  O  O105  1  0.51955000  0.63531000  0.49326000  1.0
