# generated using pymatgen
data_Cu2H18C24I2N4O3
_symmetry_space_group_name_H-M   'P 1'
_cell_length_a   4.13499000
_cell_length_b   8.77971000
_cell_length_c   15.69429851
_cell_angle_alpha   99.52802896
_cell_angle_beta   97.55588790
_cell_angle_gamma   90.02390000
_symmetry_Int_Tables_number   1
_chemical_formula_structural   Cu2H18C24I2N4O3
_chemical_formula_sum   'Cu2 H18 C24 I2 N4 O3'
_cell_volume   556.88354547
_cell_formula_units_Z   1
loop_
 _symmetry_equiv_pos_site_id
 _symmetry_equiv_pos_as_xyz
  1  'x, y, z'
loop_
 _atom_site_type_symbol
 _atom_site_label
 _atom_site_symmetry_multiplicity
 _atom_site_fract_x
 _atom_site_fract_y
 _atom_site_fract_z
 _atom_site_occupancy
  Cu  Cu0  1  0.49979000  0.89213000  0.50716000  1.0
  Cu  Cu1  1  0.99238000  0.10817000  0.49298000  1.0
  H  H2  1  0.01498000  0.31717000  0.73220000  1.0
  H  H3  1  0.28413000  0.68266000  0.26781000  1.0
  H  H4  1  0.46279000  0.90835000  0.69650000  1.0
  H  H5  1  0.76539000  0.09212000  0.30386000  1.0
  H  H6  1  0.72664000  0.77771000  0.81684000  1.0
  H  H7  1  0.90958000  0.22230000  0.18336000  1.0
  H  H8  1  0.10799000  0.44744000  0.62136000  1.0
  H  H9  1  0.48782000  0.55262000  0.37855000  1.0
  H  H10  1  0.84895000  0.59625000  0.51004000  1.0
  H  H11  1  0.33988000  0.40402000  0.49005000  1.0
  H  H12  1  0.63868000  0.46612000  0.91794000  1.0
  H  H13  1  0.72154000  0.53379000  0.08189000  1.0
  H  H14  1  0.93127000  0.29252000  0.01180000  1.0
  H  H15  1  0.91958000  0.70746000  0.98791000  1.0
  H  H16  1  0.30380000  0.91117000  0.88022000  1.0
  H  H17  1  0.42425000  0.08864000  0.11972000  1.0
  H  H18  1  0.02320000  0.08217000  0.78237000  1.0
  H  H19  1  0.24250000  0.91758000  0.21776000  1.0
  C  C20  1  0.60754000  0.80569000  0.68255000  1.0
  C  C21  1  0.92466000  0.19464000  0.31770000  1.0
  C  C22  1  0.75297000  0.73280000  0.74927000  1.0
  C  C23  1  0.00375000  0.26730000  0.25091000  1.0
  C  C24  1  0.93550000  0.60064000  0.72896000  1.0
  C  C25  1  0.20709000  0.39934000  0.27110000  1.0
  C  C26  1  0.96268000  0.54763000  0.64114000  1.0
  C  C27  1  0.32249000  0.45244000  0.35886000  1.0
  C  C28  1  0.81706000  0.62993000  0.57845000  1.0
  C  C29  1  0.23939000  0.37034000  0.42164000  1.0
  C  C30  1  0.11602000  0.53262000  0.80230000  1.0
  C  C31  1  0.31409000  0.46721000  0.19767000  1.0
  C  C32  1  0.31753000  0.28445000  0.84313000  1.0
  C  C33  1  0.47531000  0.71531000  0.15677000  1.0
  C  C34  1  0.56901000  0.34472000  0.90882000  1.0
  C  C35  1  0.66085000  0.65511000  0.09101000  1.0
  C  C36  1  0.72782000  0.24864000  0.96227000  1.0
  C  C37  1  0.76570000  0.75123000  0.03749000  1.0
  C  C38  1  0.63291000  0.09365000  0.95136000  1.0
  C  C39  1  0.68158000  0.90619000  0.04840000  1.0
  C  C40  1  0.37977000  0.03207000  0.88669000  1.0
  C  C41  1  0.49363000  0.96776000  0.11319000  1.0
  C  C42  1  0.22486000  0.12772000  0.83228000  1.0
  C  C43  1  0.39372000  0.87207000  0.16769000  1.0
  I  I44  1  0.56209000  0.17143000  0.60085000  1.0
  I  I45  1  0.96163000  0.82876000  0.39931000  1.0
  N  N46  1  0.64301000  0.75796000  0.59780000  1.0
  N  N47  1  0.04526000  0.24242000  0.40241000  1.0
  N  N48  1  0.15255000  0.37643000  0.78638000  1.0
  N  N49  1  0.36726000  0.62336000  0.21359000  1.0
  O  O50  1  0.22554000  0.61898000  0.87092000  1.0
  O  O51  1  0.35429000  0.38083000  0.12898000  1.0
  O  O52  1  0.82230000  0.99992000  0.99983000  1.0
