# generated using pymatgen
data_Zn2H27C41N11
_symmetry_space_group_name_H-M   'P 1'
_cell_length_a   18.65460000
_cell_length_b   19.21350000
_cell_length_c   20.11445427
_cell_angle_alpha   102.70177393
_cell_angle_beta   106.82092705
_cell_angle_gamma   110.93900000
_symmetry_Int_Tables_number   1
_chemical_formula_structural   Zn2H27C41N11
_chemical_formula_sum   'Zn4 H54 C82 N22'
_cell_volume   6009.04085012
_cell_formula_units_Z   2
loop_
 _symmetry_equiv_pos_site_id
 _symmetry_equiv_pos_as_xyz
  1  'x, y, z'
loop_
 _atom_site_type_symbol
 _atom_site_label
 _atom_site_symmetry_multiplicity
 _atom_site_fract_x
 _atom_site_fract_y
 _atom_site_fract_z
 _atom_site_occupancy
  Zn  Zn0  1  0.39397000  0.39982000  0.50776000  1.0
  Zn  Zn1  1  0.61087000  0.59359000  0.53432000  1.0
  Zn  Zn2  1  0.39992000  0.50939000  0.40148000  1.0
  Zn  Zn3  1  0.59770000  0.48017000  0.61468000  1.0
  H  H4  1  0.32066000  0.22795000  0.38335000  1.0
  H  H5  1  0.62773000  0.89338000  0.64327000  1.0
  H  H6  1  0.69484000  0.03967000  0.70924000  1.0
  H  H7  1  0.64965000  0.50733000  0.39411000  1.0
  H  H8  1  0.68642000  0.16748000  0.72864000  1.0
  H  H9  1  0.33758000  0.11229000  0.56329000  1.0
  H  H10  1  0.26520000  0.96456000  0.52184000  1.0
  H  H11  1  0.27367000  0.83679000  0.50267000  1.0
  H  H12  1  0.04310000  0.41410000  0.29674000  1.0
  H  H13  1  0.07125000  0.32357000  0.47592000  1.0
  H  H14  1  0.95489000  0.27154000  0.51370000  1.0
  H  H15  1  0.64083000  0.78041000  0.58463000  1.0
  H  H16  1  0.82191000  0.26823000  0.51635000  1.0
  H  H17  1  0.71835000  0.31965000  0.48663000  1.0
  H  H18  1  0.36385000  0.57221000  0.24701000  1.0
  H  H19  1  0.68767000  0.41480000  0.31067000  1.0
  H  H20  1  0.77674000  0.41626000  0.23756000  1.0
  H  H21  1  0.90783000  0.41702000  0.23333000  1.0
  H  H22  1  0.38106000  0.61925000  0.15091000  1.0
  H  H23  1  0.40119000  0.66327000  0.04750000  1.0
  H  H24  1  0.36631000  0.66432000  0.84782000  1.0
  H  H25  1  0.36671000  0.62390000  0.72139000  1.0
  H  H26  1  0.20091000  0.48249000  0.34880000  1.0
  H  H27  1  0.64294000  0.67481000  0.24533000  1.0
  H  H28  1  0.62832000  0.72673000  0.94778000  1.0
  H  H29  1  0.60300000  0.35671000  0.69477000  1.0
  H  H30  1  0.63016000  0.68686000  0.82321000  1.0
  H  H31  1  0.82199000  0.69439000  0.89322000  1.0
  H  H32  1  0.06358000  0.02849000  0.17454000  1.0
  H  H33  1  0.18660000  0.13709000  0.28503000  1.0
  H  H34  1  0.85976000  0.86093000  0.77861000  1.0
  H  H35  1  0.12919000  0.15876000  0.03567000  1.0
  H  H36  1  0.94168000  0.97288000  0.90109000  1.0
  H  H37  1  0.75854000  0.58817000  0.78025000  1.0
  H  H38  1  0.25476000  0.26712000  0.14557000  1.0
  H  H39  1  0.62301000  0.61339000  0.32425000  1.0
  H  H40  1  0.34455000  0.22820000  0.53513000  1.0
  H  H41  1  0.61191000  0.33591000  0.50507000  1.0
  H  H42  1  0.34143000  0.38198000  0.25442000  1.0
  H  H43  1  0.36156000  0.51545000  0.61833000  1.0
  H  H44  1  0.60516000  0.24044000  0.69344000  1.0
  H  H45  1  0.67707000  0.73710000  0.09333000  1.0
  H  H46  1  0.80305000  0.74822000  0.17224000  1.0
  H  H47  1  0.73684000  0.66042000  0.18163000  1.0
  H  H48  1  0.77605000  0.75764000  0.66780000  1.0
  H  H49  1  0.77152000  0.75707000  0.24750000  1.0
  H  H50  1  0.86884000  0.73864000  0.01513000  1.0
  H  H51  1  0.89429000  0.89091000  0.10280000  1.0
  H  H52  1  0.99112000  0.88609000  0.13035000  1.0
  H  H53  1  0.90154000  0.81144000  0.13227000  1.0
  H  H54  1  0.19346000  0.33298000  0.48168000  1.0
  H  H55  1  0.63048000  0.65768000  0.70615000  1.0
  H  H56  1  0.36987000  0.64673000  0.48454000  1.0
  H  H57  1  0.36078000  0.76489000  0.51066000  1.0
  C  C58  1  0.33490000  0.27637000  0.36219000  1.0
  C  C59  1  0.20916000  0.37377000  0.45261000  1.0
  C  C60  1  0.56510000  0.61464000  0.67441000  1.0
  C  C61  1  0.63632000  0.47220000  0.42836000  1.0
  C  C62  1  0.43736000  0.66841000  0.50446000  1.0
  C  C63  1  0.49599000  0.60813000  0.69117000  1.0
  C  C64  1  0.50254000  0.74622000  0.54755000  1.0
  C  C65  1  0.15720000  0.39604000  0.40517000  1.0
  C  C66  1  0.79086000  0.70221000  0.75579000  1.0
  C  C67  1  0.41711000  0.82055000  0.54711000  1.0
  C  C68  1  0.49537000  0.81998000  0.57296000  1.0
  C  C69  1  0.64699000  0.40382000  0.43155000  1.0
  C  C70  1  0.56654000  0.89248000  0.62064000  1.0
  C  C71  1  0.56196000  0.96510000  0.63863000  1.0
  C  C72  1  0.48279000  0.96549000  0.60838000  1.0
  C  C73  1  0.42572000  0.57689000  0.27440000  1.0
  C  C74  1  0.40921000  0.89153000  0.56385000  1.0
  C  C75  1  0.63477000  0.04014000  0.68420000  1.0
  C  C76  1  0.63011000  0.11085000  0.69501000  1.0
  C  C77  1  0.55216000  0.11296000  0.66118000  1.0
  C  C78  1  0.47788000  0.03892000  0.61952000  1.0
  C  C79  1  0.39935000  0.03947000  0.58607000  1.0
  C  C80  1  0.49852000  0.60886000  0.26093000  1.0
  C  C81  1  0.32557000  0.96419000  0.54557000  1.0
  C  C82  1  0.33026000  0.89346000  0.53495000  1.0
  C  C83  1  0.54723000  0.18455000  0.66416000  1.0
  C  C84  1  0.47130000  0.18544000  0.62705000  1.0
  C  C85  1  0.54015000  0.33641000  0.65379000  1.0
  C  C86  1  0.39761000  0.11277000  0.59081000  1.0
  C  C87  1  0.01820000  0.38929000  0.33368000  1.0
  C  C88  1  0.06857000  0.37310000  0.38895000  1.0
  C  C89  1  0.03350000  0.33737000  0.43316000  1.0
  C  C90  1  0.95289000  0.32357000  0.42778000  1.0
  C  C91  1  0.47170000  0.26003000  0.62068000  1.0
  C  C92  1  0.90493000  0.34701000  0.37612000  1.0
  C  C93  1  0.93710000  0.37730000  0.32663000  1.0
  C  C94  1  0.91912000  0.29189000  0.47621000  1.0
  C  C95  1  0.84585000  0.29010000  0.47768000  1.0
  C  C96  1  0.80067000  0.32059000  0.43135000  1.0
  C  C97  1  0.55793000  0.59808000  0.31477000  1.0
  C  C98  1  0.82910000  0.34581000  0.37807000  1.0
  C  C99  1  0.78443000  0.37592000  0.33137000  1.0
  C  C100  1  0.81323000  0.39775000  0.27657000  1.0
  C  C101  1  0.88599000  0.39825000  0.27423000  1.0
  C  C102  1  0.42777000  0.54279000  0.62910000  1.0
  C  C103  1  0.73505000  0.33368000  0.44186000  1.0
  C  C104  1  0.69707000  0.37200000  0.40240000  1.0
  C  C105  1  0.71897000  0.38832000  0.34431000  1.0
  C  C106  1  0.49740000  0.64860000  0.76258000  1.0
  C  C107  1  0.57189000  0.68231000  0.82786000  1.0
  C  C108  1  0.57147000  0.70479000  0.89797000  1.0
  C  C109  1  0.40862000  0.27127000  0.57258000  1.0
  C  C110  1  0.49584000  0.69434000  0.90562000  1.0
  C  C111  1  0.42369000  0.66932000  0.84109000  1.0
  C  C112  1  0.42437000  0.64639000  0.77077000  1.0
  C  C113  1  0.57536000  0.73655000  0.55547000  1.0
  C  C114  1  0.45371000  0.66685000  0.09216000  1.0
  C  C115  1  0.44289000  0.64200000  0.14940000  1.0
  C  C116  1  0.53229000  0.69372000  0.08711000  1.0
  C  C117  1  0.51077000  0.64220000  0.20471000  1.0
  C  C118  1  0.59016000  0.67299000  0.20249000  1.0
  C  C119  1  0.60289000  0.69977000  0.14547000  1.0
  C  C120  1  0.23148000  0.20955000  0.22357000  1.0
  C  C121  1  0.61730000  0.38500000  0.48526000  1.0
  C  C122  1  0.21315000  0.21516000  0.15250000  1.0
  C  C123  1  0.14326000  0.15513000  0.09097000  1.0
  C  C124  1  0.21296000  0.44955000  0.38465000  1.0
  C  C125  1  0.08969000  0.08621000  0.09760000  1.0
  C  C126  1  0.10618000  0.08070000  0.16875000  1.0
  C  C127  1  0.17559000  0.14135000  0.23009000  1.0
  C  C128  1  0.89250000  0.81851000  0.96447000  1.0
  C  C129  1  0.84869000  0.75552000  0.89415000  1.0
  C  C130  1  0.92992000  0.89841000  0.96605000  1.0
  C  C131  1  0.83782000  0.76873000  0.82737000  1.0
  C  C132  1  0.86958000  0.84872000  0.83006000  1.0
  C  C133  1  0.34613000  0.35450000  0.29624000  1.0
  C  C134  1  0.91428000  0.91107000  0.89771000  1.0
  C  C135  1  0.75480000  0.61963000  0.74163000  1.0
  C  C136  1  0.30190000  0.27467000  0.28914000  1.0
  C  C137  1  0.75055000  0.72307000  0.18801000  1.0
  C  C138  1  0.92279000  0.84969000  0.10172000  1.0
  C  C139  1  0.76347000  0.70575000  0.68412000  1.0
  N  N140  1  0.39216000  0.35152000  0.40867000  1.0
  N  N141  1  0.54598000  0.70576000  0.02584000  1.0
  N  N142  1  0.02605000  0.02687000  0.03039000  1.0
  N  N143  1  0.60543000  0.49309000  0.47813000  1.0
  N  N144  1  0.98655000  0.95936000  0.03464000  1.0
  N  N145  1  0.44242000  0.55008000  0.33086000  1.0
  N  N146  1  0.51965000  0.38834000  0.62713000  1.0
  N  N147  1  0.52472000  0.56334000  0.35641000  1.0
  N  N148  1  0.43760000  0.34763000  0.57618000  1.0
  N  N149  1  0.59368000  0.43916000  0.51317000  1.0
  N  N150  1  0.39851000  0.40005000  0.36789000  1.0
  N  N151  1  0.55431000  0.65958000  0.51894000  1.0
  N  N152  1  0.45533000  0.51242000  0.58088000  1.0
  N  N153  1  0.67980000  0.73013000  0.14256000  1.0
  N  N154  1  0.89752000  0.79811000  0.02618000  1.0
  N  N155  1  0.29146000  0.45837000  0.41762000  1.0
  N  N156  1  0.70872000  0.57809000  0.66814000  1.0
  N  N157  1  0.71385000  0.63187000  0.63217000  1.0
  N  N158  1  0.28847000  0.41085000  0.45967000  1.0
  N  N159  1  0.54069000  0.55611000  0.60838000  1.0
  N  N160  1  0.46888000  0.61729000  0.48793000  1.0
  N  N161  1  0.48357000  0.69866000  0.97179000  1.0
