# generated using pymatgen
data_AgH5C4(NO)4
_symmetry_space_group_name_H-M   'P 1'
_cell_length_a   8.93352000
_cell_length_b   11.91980000
_cell_length_c   14.19710000
_cell_angle_alpha   90.00000000
_cell_angle_beta   90.00000000
_cell_angle_gamma   90.00000000
_symmetry_Int_Tables_number   1
_chemical_formula_structural   AgH5C4(NO)4
_chemical_formula_sum   'Ag8 H40 C32 N32 O32'
_cell_volume   1511.78914935
_cell_formula_units_Z   8
loop_
 _symmetry_equiv_pos_site_id
 _symmetry_equiv_pos_as_xyz
  1  'x, y, z'
loop_
 _atom_site_type_symbol
 _atom_site_label
 _atom_site_symmetry_multiplicity
 _atom_site_fract_x
 _atom_site_fract_y
 _atom_site_fract_z
 _atom_site_occupancy
  Ag  Ag0  1  0.82132000  0.82184000  0.48440000  1.0
  Ag  Ag1  1  0.17868000  0.67816000  0.98440000  1.0
  Ag  Ag2  1  0.32132000  0.17816000  0.01560000  1.0
  Ag  Ag3  1  0.67868000  0.32183000  0.51560000  1.0
  Ag  Ag4  1  0.17868000  0.17816000  0.51560000  1.0
  Ag  Ag5  1  0.82132000  0.32183000  0.01560000  1.0
  Ag  Ag6  1  0.67868000  0.82184000  0.98440000  1.0
  Ag  Ag7  1  0.32132000  0.67816000  0.48440000  1.0
  H  H8  1  0.08408000  0.48696000  0.31231000  1.0
  H  H9  1  0.91592000  0.01304000  0.81231000  1.0
  H  H10  1  0.58407000  0.51304000  0.18769000  1.0
  H  H11  1  0.41592000  0.98696000  0.68769000  1.0
  H  H12  1  0.91592000  0.51304000  0.68769000  1.0
  H  H13  1  0.08408000  0.98696000  0.18769000  1.0
  H  H14  1  0.41592000  0.48696000  0.81231000  1.0
  H  H15  1  0.58407000  0.01304000  0.31231000  1.0
  H  H16  1  0.92004000  0.28626000  0.39029000  1.0
  H  H17  1  0.07996000  0.21374000  0.89029000  1.0
  H  H18  1  0.42004000  0.71374000  0.10971000  1.0
  H  H19  1  0.57996000  0.78626000  0.60971000  1.0
  H  H20  1  0.07996000  0.71374000  0.60971000  1.0
  H  H21  1  0.92004000  0.78626000  0.10971000  1.0
  H  H22  1  0.57996000  0.28626000  0.89029000  1.0
  H  H23  1  0.42004000  0.21374000  0.39029000  1.0
  H  H24  1  0.74689000  0.57404000  0.47167000  1.0
  H  H25  1  0.25311000  0.92596000  0.97167000  1.0
  H  H26  1  0.24689000  0.42596000  0.02833000  1.0
  H  H27  1  0.75311000  0.07404000  0.52833000  1.0
  H  H28  1  0.25311000  0.42596000  0.52833000  1.0
  H  H29  1  0.74689000  0.07404000  0.02833000  1.0
  H  H30  1  0.75311000  0.57404000  0.97167000  1.0
  H  H31  1  0.24689000  0.92596000  0.47167000  1.0
  H  H32  1  0.07955000  0.84053000  0.32781000  1.0
  H  H33  1  0.92045000  0.65947000  0.82781000  1.0
  H  H34  1  0.57955000  0.15948000  0.17219000  1.0
  H  H35  1  0.42045000  0.34053000  0.67219000  1.0
  H  H36  1  0.92045000  0.15947000  0.67219000  1.0
  H  H37  1  0.07955000  0.34052000  0.17219000  1.0
  H  H38  1  0.42045000  0.84053000  0.82781000  1.0
  H  H39  1  0.57955000  0.65947000  0.32781000  1.0
  H  H40  1  0.22366000  0.65649000  0.24846000  1.0
  H  H41  1  0.77634000  0.84351000  0.74846000  1.0
  H  H42  1  0.72366000  0.34351000  0.25154000  1.0
  H  H43  1  0.27634000  0.15649000  0.75154000  1.0
  H  H44  1  0.77634000  0.34351000  0.75154000  1.0
  H  H45  1  0.22366000  0.15649000  0.25154000  1.0
  H  H46  1  0.27634000  0.65649000  0.74846000  1.0
  H  H47  1  0.72366000  0.84351000  0.24846000  1.0
  C  C48  1  0.05546000  0.75202000  0.33524000  1.0
  C  C49  1  0.94454000  0.74798000  0.83524000  1.0
  C  C50  1  0.55546000  0.24798000  0.16476000  1.0
  C  C51  1  0.44454000  0.25202000  0.66476000  1.0
  C  C52  1  0.94454000  0.24798000  0.66476000  1.0
  C  C53  1  0.05546000  0.25202000  0.16476000  1.0
  C  C54  1  0.44454000  0.75202000  0.83524000  1.0
  C  C55  1  0.55546000  0.74798000  0.33524000  1.0
  C  C56  1  0.12739000  0.66126000  0.29451000  1.0
  C  C57  1  0.87261000  0.83874000  0.79451000  1.0
  C  C58  1  0.62739000  0.33874000  0.20549000  1.0
  C  C59  1  0.37261000  0.16126000  0.70549000  1.0
  C  C60  1  0.87261000  0.33874000  0.70549000  1.0
  C  C61  1  0.12739000  0.16126000  0.20549000  1.0
  C  C62  1  0.37261000  0.66126000  0.79451000  1.0
  C  C63  1  0.62739000  0.83874000  0.29451000  1.0
  C  C64  1  0.94029000  0.60070000  0.38408000  1.0
  C  C65  1  0.05970000  0.89930000  0.88409000  1.0
  C  C66  1  0.44029000  0.39930000  0.11592000  1.0
  C  C67  1  0.55970000  0.10070000  0.61592000  1.0
  C  C68  1  0.05971000  0.39930000  0.61592000  1.0
  C  C69  1  0.94029000  0.10070000  0.11591000  1.0
  C  C70  1  0.55971000  0.60070000  0.88409000  1.0
  C  C71  1  0.44029000  0.89930000  0.38408000  1.0
  C  C72  1  0.83322000  0.53113000  0.43112000  1.0
  C  C73  1  0.16678000  0.96887000  0.93112000  1.0
  C  C74  1  0.33322000  0.46887000  0.06889000  1.0
  C  C75  1  0.66678000  0.03113000  0.56889000  1.0
  C  C76  1  0.16678000  0.46887000  0.56889000  1.0
  C  C77  1  0.83322000  0.03113000  0.06888000  1.0
  C  C78  1  0.66678000  0.53113000  0.93112000  1.0
  C  C79  1  0.33322000  0.96887000  0.43111000  1.0
  N  N80  1  0.94098000  0.71401000  0.39074000  1.0
  N  N81  1  0.05901000  0.78599000  0.89074000  1.0
  N  N82  1  0.44098000  0.28599000  0.10926000  1.0
  N  N83  1  0.55901000  0.21401000  0.60926000  1.0
  N  N84  1  0.05901000  0.28599000  0.60926000  1.0
  N  N85  1  0.94098000  0.21401000  0.10926000  1.0
  N  N86  1  0.55902000  0.71401000  0.89074000  1.0
  N  N87  1  0.44098000  0.78599000  0.39074000  1.0
  N  N88  1  0.05388000  0.56819000  0.32568000  1.0
  N  N89  1  0.94612000  0.93181000  0.82568000  1.0
  N  N90  1  0.55388000  0.43181000  0.17432000  1.0
  N  N91  1  0.44612000  0.06819000  0.67432000  1.0
  N  N92  1  0.94612000  0.43181000  0.67432000  1.0
  N  N93  1  0.05388000  0.06819000  0.17432000  1.0
  N  N94  1  0.44612000  0.56819000  0.82568000  1.0
  N  N95  1  0.55388000  0.93181000  0.32568000  1.0
  N  N96  1  0.82568000  0.42215000  0.43123000  1.0
  N  N97  1  0.17432000  0.07785000  0.93123000  1.0
  N  N98  1  0.32568000  0.57785000  0.06877000  1.0
  N  N99  1  0.67432000  0.92215000  0.56877000  1.0
  N  N100  1  0.17432000  0.57785000  0.56877000  1.0
  N  N101  1  0.82568000  0.92215000  0.06877000  1.0
  N  N102  1  0.67432000  0.42215000  0.93123000  1.0
  N  N103  1  0.32568000  0.07785000  0.43123000  1.0
  N  N104  1  0.13673000  0.90901000  0.63637000  1.0
  N  N105  1  0.86327000  0.59099000  0.13637000  1.0
  N  N106  1  0.63673000  0.09099000  0.86363000  1.0
  N  N107  1  0.36327000  0.40901000  0.36363000  1.0
  N  N108  1  0.86327000  0.09098000  0.36363000  1.0
  N  N109  1  0.13673000  0.40901000  0.86363000  1.0
  N  N110  1  0.36327000  0.90901000  0.13637000  1.0
  N  N111  1  0.63673000  0.59099000  0.63637000  1.0
  O  O112  1  0.93305000  0.37019000  0.37682000  1.0
  O  O113  1  0.06695000  0.12981000  0.87682000  1.0
  O  O114  1  0.43306000  0.62981000  0.12318000  1.0
  O  O115  1  0.56695000  0.87019000  0.62318000  1.0
  O  O116  1  0.06694000  0.62981000  0.62318000  1.0
  O  O117  1  0.93305000  0.87019000  0.12318000  1.0
  O  O118  1  0.56695000  0.37019000  0.87682000  1.0
  O  O119  1  0.43306000  0.12981000  0.37682000  1.0
  O  O120  1  0.23498000  0.87718000  0.69399000  1.0
  O  O121  1  0.76502000  0.62282000  0.19399000  1.0
  O  O122  1  0.73498000  0.12282000  0.80601000  1.0
  O  O123  1  0.26502000  0.37718000  0.30601000  1.0
  O  O124  1  0.76502000  0.12282000  0.30601000  1.0
  O  O125  1  0.23498000  0.37718000  0.80601000  1.0
  O  O126  1  0.26502000  0.87718000  0.19399000  1.0
  O  O127  1  0.73498000  0.62282000  0.69399000  1.0
  O  O128  1  0.08931000  0.00783000  0.63386000  1.0
  O  O129  1  0.91069000  0.49217000  0.13386000  1.0
  O  O130  1  0.58931000  0.99216000  0.86614000  1.0
  O  O131  1  0.41069000  0.50784000  0.36614000  1.0
  O  O132  1  0.91069000  0.99216000  0.36614000  1.0
  O  O133  1  0.08931000  0.50784000  0.86614000  1.0
  O  O134  1  0.41069000  0.00783000  0.13386000  1.0
  O  O135  1  0.58931000  0.49217000  0.63386000  1.0
  O  O136  1  0.08413000  0.83699000  0.57585000  1.0
  O  O137  1  0.91587000  0.66301000  0.07585000  1.0
  O  O138  1  0.58412000  0.16301000  0.92415000  1.0
  O  O139  1  0.41587000  0.33699000  0.42415000  1.0
  O  O140  1  0.91588000  0.16301000  0.42415000  1.0
  O  O141  1  0.08412000  0.33699000  0.92415000  1.0
  O  O142  1  0.41587000  0.83699000  0.07585000  1.0
  O  O143  1  0.58413000  0.66301000  0.57585000  1.0
