# generated using pymatgen
data_NiH19C26S2(NO)4
_symmetry_space_group_name_H-M   'P 1'
_cell_length_a   8.98113000
_cell_length_b   10.95400000
_cell_length_c   12.73710000
_cell_angle_alpha   93.81130000
_cell_angle_beta   94.21660000
_cell_angle_gamma   100.66600000
_symmetry_Int_Tables_number   1
_chemical_formula_structural   NiH19C26S2(NO)4
_chemical_formula_sum   'Ni2 H38 C52 S4 N8 O8'
_cell_volume   1223.97791782
_cell_formula_units_Z   2
loop_
 _symmetry_equiv_pos_site_id
 _symmetry_equiv_pos_as_xyz
  1  'x, y, z'
loop_
 _atom_site_type_symbol
 _atom_site_label
 _atom_site_symmetry_multiplicity
 _atom_site_fract_x
 _atom_site_fract_y
 _atom_site_fract_z
 _atom_site_occupancy
  Ni  Ni0  1  0.00000000  0.50000000  0.00000000  1.0
  Ni  Ni1  1  0.00000000  0.00000000  0.00000000  1.0
  H  H2  1  0.96201000  0.36878000  0.55063000  1.0
  H  H3  1  0.03799000  0.63122000  0.44937000  1.0
  H  H4  1  0.93181000  0.70563000  0.58364000  1.0
  H  H5  1  0.06819000  0.29438000  0.41636000  1.0
  H  H6  1  0.95811000  0.46590000  0.76517000  1.0
  H  H7  1  0.04189000  0.53410000  0.23483000  1.0
  H  H8  1  0.74322000  0.42785000  0.62429000  1.0
  H  H9  1  0.25678000  0.57215000  0.37571000  1.0
  H  H10  1  0.46153000  0.54490000  0.85823000  1.0
  H  H11  1  0.53847000  0.45510000  0.14177000  1.0
  H  H12  1  0.68668000  0.57512000  0.98865000  1.0
  H  H13  1  0.31332000  0.42488000  0.01135000  1.0
  H  H14  1  0.48063000  0.40921000  0.57145000  1.0
  H  H15  1  0.51937000  0.59079000  0.42856000  1.0
  H  H16  1  0.27012000  0.47179000  0.74026000  1.0
  H  H17  1  0.72988000  0.52821000  0.25974000  1.0
  H  H18  1  0.93845000  0.85665000  0.78441000  1.0
  H  H19  1  0.06155000  0.14336000  0.21559000  1.0
  H  H20  1  0.71706000  0.77082000  0.65450000  1.0
  H  H21  1  0.28294000  0.22918000  0.34550000  1.0
  H  H22  1  0.42756000  0.88568000  0.88342000  1.0
  H  H23  1  0.57244000  0.11432000  0.11659000  1.0
  H  H24  1  0.66079000  0.96496000  0.00376000  1.0
  H  H25  1  0.33922000  0.03504000  0.99624000  1.0
  H  H26  1  0.44621000  0.72336000  0.60818000  1.0
  H  H27  1  0.55379000  0.27664000  0.39182000  1.0
  H  H28  1  0.24800000  0.84316000  0.75727000  1.0
  H  H29  1  0.75200000  0.15684000  0.24273000  1.0
  H  H30  1  0.86098000  0.13268000  0.70775000  1.0
  H  H31  1  0.13902000  0.86732000  0.29224000  1.0
  H  H32  1  0.68309000  0.21125000  0.82320000  1.0
  H  H33  1  0.31691000  0.78875000  0.17680000  1.0
  H  H34  1  0.40651000  0.17911000  0.76507000  1.0
  H  H35  1  0.59350000  0.82089000  0.23493000  1.0
  H  H36  1  0.19107000  0.09770000  0.63014000  1.0
  H  H37  1  0.80893000  0.90230000  0.36985000  1.0
  H  H38  1  0.90629000  0.01825000  0.54277000  1.0
  H  H39  1  0.09371000  0.98175000  0.45723000  1.0
  C  C40  1  0.07868000  0.26062000  0.88733000  1.0
  C  C41  1  0.92132000  0.73938000  0.11266000  1.0
  C  C42  1  0.14739000  0.77280000  0.93626000  1.0
  C  C43  1  0.85261000  0.22720000  0.06374000  1.0
  C  C44  1  0.84637000  0.48220000  0.78230000  1.0
  C  C45  1  0.15363000  0.51780000  0.21770000  1.0
  C  C46  1  0.72611000  0.46120000  0.70410000  1.0
  C  C47  1  0.27389000  0.53879000  0.29590000  1.0
  C  C48  1  0.58154000  0.47799000  0.72942000  1.0
  C  C49  1  0.41846000  0.52200000  0.27058000  1.0
  C  C50  1  0.56831000  0.52375000  0.83362000  1.0
  C  C51  1  0.43169000  0.47624000  0.16638000  1.0
  C  C52  1  0.69375000  0.54173000  0.90700000  1.0
  C  C53  1  0.30625000  0.45826000  0.09300000  1.0
  C  C54  1  0.45375000  0.44234000  0.64940000  1.0
  C  C55  1  0.54625000  0.55766000  0.35060000  1.0
  C  C56  1  0.30668000  0.44138000  0.66475000  1.0
  C  C57  1  0.69331000  0.55862000  0.33525000  1.0
  C  C58  1  0.18463000  0.39597000  0.58083000  1.0
  C  C59  1  0.81537000  0.60402000  0.41917000  1.0
  C  C60  1  0.82355000  0.86161000  0.80332000  1.0
  C  C61  1  0.17645000  0.13839000  0.19668000  1.0
  C  C62  1  0.69951000  0.81378000  0.73107000  1.0
  C  C63  1  0.30050000  0.18622000  0.26893000  1.0
  C  C64  1  0.55232000  0.82295000  0.75633000  1.0
  C  C65  1  0.44768000  0.17705000  0.24367000  1.0
  C  C66  1  0.53833000  0.87787000  0.85727000  1.0
  C  C67  1  0.46167000  0.12213000  0.14273000  1.0
  C  C68  1  0.66764000  0.92221000  0.92508000  1.0
  C  C69  1  0.33236000  0.07779000  0.07492000  1.0
  C  C70  1  0.42328000  0.77530000  0.67950000  1.0
  C  C71  1  0.57672000  0.22471000  0.32050000  1.0
  C  C72  1  0.27915000  0.78973000  0.68999000  1.0
  C  C73  1  0.72085000  0.21027000  0.31001000  1.0
  C  C74  1  0.15405000  0.73294000  0.61179000  1.0
  C  C75  1  0.84595000  0.26706000  0.38821000  1.0
  C  C76  1  0.68693000  0.05388000  0.58287000  1.0
  C  C77  1  0.31307000  0.94612000  0.41713000  1.0
  C  C78  1  0.74023000  0.11905000  0.68136000  1.0
  C  C79  1  0.25978000  0.88095000  0.31864000  1.0
  C  C80  1  0.63979000  0.16277000  0.74632000  1.0
  C  C81  1  0.36021000  0.83723000  0.25368000  1.0
  C  C82  1  0.48489000  0.14520000  0.71382000  1.0
  C  C83  1  0.51511000  0.85480000  0.28617000  1.0
  C  C84  1  0.42670000  0.08189000  0.61538000  1.0
  C  C85  1  0.57330000  0.91812000  0.38462000  1.0
  C  C86  1  0.52838000  0.03414000  0.54926000  1.0
  C  C87  1  0.47162000  0.96586000  0.45074000  1.0
  C  C88  1  0.26816000  0.06106000  0.57932000  1.0
  C  C89  1  0.73184000  0.93894000  0.42068000  1.0
  C  C90  1  0.78578000  0.00388000  0.51548000  1.0
  C  C91  1  0.21422000  0.99612000  0.48452000  1.0
  S  S92  1  0.10857000  0.12176000  0.85370000  1.0
  S  S93  1  0.89143000  0.87824000  0.14630000  1.0
  S  S94  1  0.19642000  0.63818000  0.91598000  1.0
  S  S95  1  0.80358000  0.36182000  0.08402000  1.0
  N  N96  1  0.05704000  0.36151000  0.91208000  1.0
  N  N97  1  0.94296000  0.63849000  0.08791000  1.0
  N  N98  1  0.11233000  0.87131000  0.94928000  1.0
  N  N99  1  0.88767000  0.12869000  0.05072000  1.0
  N  N100  1  0.83008000  0.51795000  0.88306000  1.0
  N  N101  1  0.16992000  0.48205000  0.11694000  1.0
  N  N102  1  0.80892000  0.91617000  0.89873000  1.0
  N  N103  1  0.19108000  0.08383000  0.10127000  1.0
  O  O104  1  0.20738000  0.35702000  0.48981000  1.0
  O  O105  1  0.79262000  0.64298000  0.51019000  1.0
  O  O106  1  0.04781000  0.39861000  0.61169000  1.0
  O  O107  1  0.95219000  0.60139000  0.38832000  1.0
  O  O108  1  0.01960000  0.75223000  0.63750000  1.0
  O  O109  1  0.98040000  0.24777000  0.36250000  1.0
  O  O110  1  0.17209000  0.67030000  0.52927000  1.0
  O  O111  1  0.82791000  0.32970000  0.47073000  1.0
