# generated using pymatgen
data_GdCdH12C22N5O8
_symmetry_space_group_name_H-M   'P 1'
_cell_length_a   11.05900000
_cell_length_b   13.62120000
_cell_length_c   17.89200000
_cell_angle_alpha   90.00000000
_cell_angle_beta   90.50130000
_cell_angle_gamma   90.00000000
_symmetry_Int_Tables_number   1
_chemical_formula_structural   GdCdH12C22N5O8
_chemical_formula_sum   'Gd4 Cd4 H48 C88 N20 O32'
_cell_volume   2695.09137543
_cell_formula_units_Z   4
loop_
 _symmetry_equiv_pos_site_id
 _symmetry_equiv_pos_as_xyz
  1  'x, y, z'
loop_
 _atom_site_type_symbol
 _atom_site_label
 _atom_site_symmetry_multiplicity
 _atom_site_fract_x
 _atom_site_fract_y
 _atom_site_fract_z
 _atom_site_occupancy
  Gd  Gd0  1  0.56428000  0.13593000  0.00401000  1.0
  Gd  Gd1  1  0.93572000  0.63593000  0.49599000  1.0
  Gd  Gd2  1  0.43572000  0.86407000  0.99599000  1.0
  Gd  Gd3  1  0.06428000  0.36407000  0.50401000  1.0
  Cd  Cd4  1  0.75872000  0.14371000  0.76693000  1.0
  Cd  Cd5  1  0.74128000  0.64371000  0.73307000  1.0
  Cd  Cd6  1  0.24128000  0.85629000  0.23307000  1.0
  Cd  Cd7  1  0.25872000  0.35629000  0.26693000  1.0
  H  H8  1  0.08364000  0.96260000  0.94456000  1.0
  H  H9  1  0.41636000  0.46260000  0.55544000  1.0
  H  H10  1  0.91636000  0.03740000  0.05544000  1.0
  H  H11  1  0.58364000  0.53740000  0.44456000  1.0
  H  H12  1  0.77985000  0.77205000  0.61027000  1.0
  H  H13  1  0.72015000  0.27204000  0.88973000  1.0
  H  H14  1  0.22015000  0.22795000  0.38973000  1.0
  H  H15  1  0.27985000  0.72796000  0.11027000  1.0
  H  H16  1  0.97119000  0.01850000  0.70614000  1.0
  H  H17  1  0.52882000  0.51850000  0.79386000  1.0
  H  H18  1  0.02882000  0.98150000  0.29386000  1.0
  H  H19  1  0.47118000  0.48150000  0.20614000  1.0
  H  H20  1  0.12865000  0.99353000  0.60896000  1.0
  H  H21  1  0.37135000  0.49353000  0.89104000  1.0
  H  H22  1  0.87135000  0.00647000  0.39104000  1.0
  H  H23  1  0.62865000  0.50647000  0.10896000  1.0
  H  H24  1  0.11024000  0.84790000  0.52205000  1.0
  H  H25  1  0.38976000  0.34790000  0.97795000  1.0
  H  H26  1  0.88975000  0.15210000  0.47795000  1.0
  H  H27  1  0.61024000  0.65210000  0.02205000  1.0
  H  H28  1  0.21104000  0.24264000  0.86757000  1.0
  H  H29  1  0.28896000  0.74264000  0.63243000  1.0
  H  H30  1  0.78896000  0.75736000  0.13243000  1.0
  H  H31  1  0.71104000  0.25736000  0.36757000  1.0
  H  H32  1  0.88159000  0.00165000  0.88554000  1.0
  H  H33  1  0.61841000  0.50165000  0.61446000  1.0
  H  H34  1  0.11841000  0.99835000  0.11446000  1.0
  H  H35  1  0.38160000  0.49835000  0.38554000  1.0
  H  H36  1  0.00627000  0.26870000  0.80700000  1.0
  H  H37  1  0.49373000  0.76870000  0.69300000  1.0
  H  H38  1  0.99373000  0.73130000  0.19300000  1.0
  H  H39  1  0.50627000  0.23130000  0.30700000  1.0
  H  H40  1  0.96472000  0.32504000  0.29870000  1.0
  H  H41  1  0.53528000  0.82504000  0.20130000  1.0
  H  H42  1  0.03528000  0.67496000  0.70130000  1.0
  H  H43  1  0.46472000  0.17496000  0.79870000  1.0
  H  H44  1  0.78187000  0.25518000  0.23213000  1.0
  H  H45  1  0.71813000  0.75518000  0.26787000  1.0
  H  H46  1  0.21813000  0.74482000  0.76787000  1.0
  H  H47  1  0.28187000  0.24482000  0.73213000  1.0
  H  H48  1  0.98404000  0.26290000  0.02796000  1.0
  H  H49  1  0.51596000  0.76290000  0.47204000  1.0
  H  H50  1  0.01596000  0.73710000  0.97204000  1.0
  H  H51  1  0.48404000  0.23710000  0.52796000  1.0
  H  H52  1  0.16103000  0.32975000  0.10246000  1.0
  H  H53  1  0.33897000  0.82975000  0.39754000  1.0
  H  H54  1  0.83897000  0.67025000  0.89754000  1.0
  H  H55  1  0.66103000  0.17025000  0.60246000  1.0
  C  C56  1  0.86345000  0.89475000  0.66802000  1.0
  C  C57  1  0.63655000  0.39475000  0.83198000  1.0
  C  C58  1  0.13655000  0.10525000  0.33198000  1.0
  C  C59  1  0.36345000  0.60525000  0.16802000  1.0
  C  C60  1  0.60839000  0.00773000  0.87447000  1.0
  C  C61  1  0.89161000  0.50773000  0.62553000  1.0
  C  C62  1  0.39161000  0.99227000  0.12553000  1.0
  C  C63  1  0.10839000  0.49227000  0.37447000  1.0
  C  C64  1  0.66124000  0.93896000  0.82110000  1.0
  C  C65  1  0.83876000  0.43896000  0.67890000  1.0
  C  C66  1  0.33876000  0.06104000  0.17890000  1.0
  C  C67  1  0.16124000  0.56104000  0.32110000  1.0
  C  C68  1  0.77248000  0.89615000  0.72689000  1.0
  C  C69  1  0.72752000  0.39615000  0.77311000  1.0
  C  C70  1  0.22752000  0.10385000  0.27311000  1.0
  C  C71  1  0.27248000  0.60385000  0.22689000  1.0
  C  C72  1  0.65446000  0.83610000  0.81301000  1.0
  C  C73  1  0.84554000  0.33610000  0.68699000  1.0
  C  C74  1  0.34554000  0.16390000  0.18699000  1.0
  C  C75  1  0.15446000  0.66390000  0.31301000  1.0
  C  C76  1  0.60842000  0.75447000  0.86110000  1.0
  C  C77  1  0.89158000  0.25447000  0.63890000  1.0
  C  C78  1  0.39158000  0.24552000  0.13890000  1.0
  C  C79  1  0.10842000  0.74552000  0.36110000  1.0
  C  C80  1  0.28460000  0.07503000  0.94349000  1.0
  C  C81  1  0.21540000  0.57503000  0.55651000  1.0
  C  C82  1  0.71540000  0.92497000  0.05651000  1.0
  C  C83  1  0.78460000  0.42497000  0.44349000  1.0
  C  C84  1  0.16228000  0.09961000  0.90971000  1.0
  C  C85  1  0.33772000  0.59961000  0.59029000  1.0
  C  C86  1  0.83773000  0.90039000  0.09029000  1.0
  C  C87  1  0.66227000  0.40039000  0.40971000  1.0
  C  C88  1  0.06823000  0.03142000  0.91507000  1.0
  C  C89  1  0.43177000  0.53142000  0.58493000  1.0
  C  C90  1  0.93177000  0.96858000  0.08493000  1.0
  C  C91  1  0.56823000  0.46858000  0.41507000  1.0
  C  C92  1  0.85829000  0.82016000  0.61412000  1.0
  C  C93  1  0.64171000  0.32016000  0.88588000  1.0
  C  C94  1  0.14171000  0.17984000  0.38588000  1.0
  C  C95  1  0.35829000  0.67985000  0.11412000  1.0
  C  C96  1  0.96277000  0.95874000  0.66612000  1.0
  C  C97  1  0.53723000  0.45874000  0.83389000  1.0
  C  C98  1  0.03723000  0.04126000  0.33389000  1.0
  C  C99  1  0.46277000  0.54126000  0.16611000  1.0
  C  C100  1  0.05134000  0.94413000  0.61232000  1.0
  C  C101  1  0.44866000  0.44413000  0.88768000  1.0
  C  C102  1  0.94866000  0.05587000  0.38768000  1.0
  C  C103  1  0.55134000  0.55587000  0.11232000  1.0
  C  C104  1  0.04166000  0.86452000  0.56366000  1.0
  C  C105  1  0.45834000  0.36452000  0.93634000  1.0
  C  C106  1  0.95834000  0.13548000  0.43634000  1.0
  C  C107  1  0.54166000  0.63548000  0.06366000  1.0
  C  C108  1  0.13990000  0.18759000  0.87179000  1.0
  C  C109  1  0.36010000  0.68759000  0.62821000  1.0
  C  C110  1  0.86010000  0.81241000  0.12821000  1.0
  C  C111  1  0.63990000  0.31241000  0.37179000  1.0
  C  C112  1  0.95718000  0.05276000  0.88208000  1.0
  C  C113  1  0.54282000  0.55276000  0.61792000  1.0
  C  C114  1  0.04282000  0.94724000  0.11792000  1.0
  C  C115  1  0.45718000  0.44724000  0.38208000  1.0
  C  C116  1  0.02664000  0.20237000  0.83893000  1.0
  C  C117  1  0.47336000  0.70237000  0.66107000  1.0
  C  C118  1  0.97336000  0.79763000  0.16107000  1.0
  C  C119  1  0.52664000  0.29763000  0.33893000  1.0
  C  C120  1  0.96564000  0.31006000  0.23876000  1.0
  C  C121  1  0.53436000  0.81006000  0.26124000  1.0
  C  C122  1  0.03436000  0.68994000  0.76124000  1.0
  C  C123  1  0.46564000  0.18994000  0.73876000  1.0
  C  C124  1  0.86464000  0.27167000  0.20209000  1.0
  C  C125  1  0.63536000  0.77168000  0.29791000  1.0
  C  C126  1  0.13536000  0.72833000  0.79791000  1.0
  C  C127  1  0.36464000  0.22833000  0.70209000  1.0
  C  C128  1  0.97760000  0.27583000  0.08789000  1.0
  C  C129  1  0.52239000  0.77583000  0.41211000  1.0
  C  C130  1  0.02239000  0.72417000  0.91211000  1.0
  C  C131  1  0.47761000  0.22417000  0.58789000  1.0
  C  C132  1  0.07478000  0.31303000  0.12882000  1.0
  C  C133  1  0.42522000  0.81303000  0.37118000  1.0
  C  C134  1  0.92522000  0.68697000  0.87118000  1.0
  C  C135  1  0.57478000  0.18697000  0.62882000  1.0
  C  C136  1  0.76263000  0.21361000  0.08351000  1.0
  C  C137  1  0.73737000  0.71362000  0.41649000  1.0
  C  C138  1  0.23737000  0.78639000  0.91649000  1.0
  C  C139  1  0.26263000  0.28638000  0.58351000  1.0
  C  C140  1  0.87019000  0.25428000  0.12521000  1.0
  C  C141  1  0.62981000  0.75428000  0.37479000  1.0
  C  C142  1  0.12981000  0.74572000  0.87479000  1.0
  C  C143  1  0.37019000  0.24572000  0.62521000  1.0
  N  N144  1  0.94605000  0.80321000  0.56465000  1.0
  N  N145  1  0.55395000  0.30321000  0.93535000  1.0
  N  N146  1  0.05395000  0.19679000  0.43535000  1.0
  N  N147  1  0.44605000  0.69679000  0.06465000  1.0
  N  N148  1  0.72283000  0.81173000  0.75253000  1.0
  N  N149  1  0.77717000  0.31173000  0.74747000  1.0
  N  N150  1  0.27717000  0.18827000  0.24747000  1.0
  N  N151  1  0.22283000  0.68827000  0.25253000  1.0
  N  N152  1  0.06922000  0.33010000  0.20286000  1.0
  N  N153  1  0.43078000  0.83010000  0.29714000  1.0
  N  N154  1  0.93077000  0.66990000  0.79714000  1.0
  N  N155  1  0.56922000  0.16990000  0.70286000  1.0
  N  N156  1  0.93681000  0.13604000  0.84358000  1.0
  N  N157  1  0.56319000  0.63604000  0.65642000  1.0
  N  N158  1  0.06319000  0.86396000  0.15642000  1.0
  N  N159  1  0.43681000  0.36396000  0.34358000  1.0
  N  N160  1  0.73683000  0.97483000  0.76676000  1.0
  N  N161  1  0.76317000  0.47483000  0.73324000  1.0
  N  N162  1  0.26317000  0.02517000  0.23324000  1.0
  N  N163  1  0.23683000  0.52517000  0.26676000  1.0
  O  O164  1  0.64306000  0.09807000  0.87442000  1.0
  O  O165  1  0.85694000  0.59807000  0.62558000  1.0
  O  O166  1  0.35694000  0.90193000  0.12558000  1.0
  O  O167  1  0.14306000  0.40193000  0.37442000  1.0
  O  O168  1  0.53052000  0.98101000  0.92228000  1.0
  O  O169  1  0.96948000  0.48101000  0.57772000  1.0
  O  O170  1  0.46948000  0.01899000  0.07772000  1.0
  O  O171  1  0.03052000  0.51899000  0.42228000  1.0
  O  O172  1  0.36801000  0.13866000  0.93844000  1.0
  O  O173  1  0.13199000  0.63866000  0.56156000  1.0
  O  O174  1  0.63199000  0.86134000  0.06156000  1.0
  O  O175  1  0.86801000  0.36135000  0.43844000  1.0
  O  O176  1  0.56250000  0.77382000  0.92395000  1.0
  O  O177  1  0.93751000  0.27382000  0.57605000  1.0
  O  O178  1  0.43751000  0.22618000  0.07605000  1.0
  O  O179  1  0.06249000  0.72618000  0.42395000  1.0
  O  O180  1  0.67464000  0.17937000  0.12056000  1.0
  O  O181  1  0.82536000  0.67937000  0.37944000  1.0
  O  O182  1  0.32536000  0.82063000  0.87944000  1.0
  O  O183  1  0.17464000  0.32063000  0.62056000  1.0
  O  O184  1  0.76397000  0.21509000  0.01214000  1.0
  O  O185  1  0.73603000  0.71509000  0.48786000  1.0
  O  O186  1  0.23603000  0.78491000  0.98786000  1.0
  O  O187  1  0.26397000  0.28491000  0.51214000  1.0
  O  O188  1  0.29116000  0.99115000  0.97403000  1.0
  O  O189  1  0.20884000  0.49115000  0.52597000  1.0
  O  O190  1  0.70884000  0.00885000  0.02597000  1.0
  O  O191  1  0.79116000  0.50885000  0.47403000  1.0
  O  O192  1  0.62492000  0.66689000  0.83851000  1.0
  O  O193  1  0.87508000  0.16689000  0.66149000  1.0
  O  O194  1  0.37508000  0.33311000  0.16149000  1.0
  O  O195  1  0.12492000  0.83311000  0.33851000  1.0
