# generated using pymatgen
data_TlH9C9O4
_symmetry_space_group_name_H-M   'P 1'
_cell_length_a   9.67770000
_cell_length_b   10.75550000
_cell_length_c   10.90190678
_cell_angle_alpha   109.26077664
_cell_angle_beta   116.32362796
_cell_angle_gamma   90.00910000
_symmetry_Int_Tables_number   1
_chemical_formula_structural   TlH9C9O4
_chemical_formula_sum   'Tl4 H36 C36 O16'
_cell_volume   945.67424866
_cell_formula_units_Z   4
loop_
 _symmetry_equiv_pos_site_id
 _symmetry_equiv_pos_as_xyz
  1  'x, y, z'
loop_
 _atom_site_type_symbol
 _atom_site_label
 _atom_site_symmetry_multiplicity
 _atom_site_fract_x
 _atom_site_fract_y
 _atom_site_fract_z
 _atom_site_occupancy
  Tl  Tl0  1  0.72626000  0.96026000  0.00799000  1.0
  Tl  Tl1  1  0.28174000  0.46034000  0.00809000  1.0
  Tl  Tl2  1  0.27374000  0.03974000  0.99201000  1.0
  Tl  Tl3  1  0.71826000  0.53966000  0.99191000  1.0
  H  H4  1  0.38402000  0.46160000  0.64927000  1.0
  H  H5  1  0.26514000  0.96166000  0.64919000  1.0
  H  H6  1  0.61598000  0.53840000  0.35073000  1.0
  H  H7  1  0.73486000  0.03834000  0.35081000  1.0
  H  H8  1  0.91685000  0.34729000  0.57650000  1.0
  H  H9  1  0.65948000  0.84722000  0.57634000  1.0
  H  H10  1  0.08314000  0.65271000  0.42350000  1.0
  H  H11  1  0.34052000  0.15278000  0.42366000  1.0
  H  H12  1  0.16420000  0.75275000  0.84271000  1.0
  H  H13  1  0.67835000  0.25274000  0.84247000  1.0
  H  H14  1  0.83581000  0.24725000  0.15729000  1.0
  H  H15  1  0.32165000  0.74726000  0.15753000  1.0
  H  H16  1  0.02078000  0.14630000  0.55877000  1.0
  H  H17  1  0.53771000  0.64625000  0.55874000  1.0
  H  H18  1  0.97922000  0.85370000  0.44123000  1.0
  H  H19  1  0.46229000  0.35374000  0.44126000  1.0
  H  H20  1  0.06448000  0.06823000  0.41002000  1.0
  H  H21  1  0.34532000  0.56822000  0.41005000  1.0
  H  H22  1  0.93552000  0.93177000  0.58998000  1.0
  H  H23  1  0.65468000  0.43178000  0.58995000  1.0
  H  H24  1  0.92326000  0.17903000  0.39093000  1.0
  H  H25  1  0.46751000  0.67890000  0.39084000  1.0
  H  H26  1  0.07674000  0.82097000  0.60907000  1.0
  H  H27  1  0.53249000  0.32110000  0.60916000  1.0
  H  H28  1  0.97571000  0.76124000  0.90480000  1.0
  H  H29  1  0.92894000  0.26103000  0.90470000  1.0
  H  H30  1  0.02429000  0.23876000  0.09520000  1.0
  H  H31  1  0.07106000  0.73897000  0.09530000  1.0
  H  H32  1  0.76855000  0.71166000  0.78592000  1.0
  H  H33  1  0.01728000  0.21151000  0.78580000  1.0
  H  H34  1  0.23145000  0.28834000  0.21408000  1.0
  H  H35  1  0.98272000  0.78849000  0.21420000  1.0
  H  H36  1  0.89207000  0.76949000  0.72489000  1.0
  H  H37  1  0.83289000  0.26949000  0.72488000  1.0
  H  H38  1  0.10793000  0.23051000  0.27511000  1.0
  H  H39  1  0.16711000  0.73051000  0.27512000  1.0
  C  C40  1  0.28716000  0.61712000  0.75167000  1.0
  C  C41  1  0.46435000  0.11714000  0.75151000  1.0
  C  C42  1  0.71284000  0.38288000  0.24833000  1.0
  C  C43  1  0.53565000  0.88286000  0.24849000  1.0
  C  C44  1  0.28387000  0.48738000  0.66650000  1.0
  C  C45  1  0.38251000  0.98740000  0.66641000  1.0
  C  C46  1  0.71613000  0.51262000  0.33350000  1.0
  C  C47  1  0.61749000  0.01260000  0.33359000  1.0
  C  C48  1  0.15199000  0.38891000  0.60473000  1.0
  C  C49  1  0.45261000  0.88891000  0.60465000  1.0
  C  C50  1  0.84800000  0.61109000  0.39527000  1.0
  C  C51  1  0.54739000  0.11109000  0.39535000  1.0
  C  C52  1  0.02269000  0.42040000  0.62688000  1.0
  C  C53  1  0.60403000  0.92036000  0.62674000  1.0
  C  C54  1  0.97732000  0.57960000  0.37313000  1.0
  C  C55  1  0.39597000  0.07964000  0.37326000  1.0
  C  C56  1  0.02681000  0.55265000  0.71156000  1.0
  C  C57  1  0.68457000  0.05261000  0.71136000  1.0
  C  C58  1  0.97319000  0.44735000  0.28844000  1.0
  C  C59  1  0.31543000  0.94739000  0.28864000  1.0
  C  C60  1  0.15798000  0.65089000  0.77478000  1.0
  C  C61  1  0.61662000  0.15089000  0.77457000  1.0
  C  C62  1  0.84203000  0.34911000  0.22522000  1.0
  C  C63  1  0.38338000  0.84911000  0.22543000  1.0
  C  C64  1  0.43163000  0.72094000  0.82283000  1.0
  C  C65  1  0.39103000  0.22098000  0.82269000  1.0
  C  C66  1  0.56837000  0.27906000  0.17717000  1.0
  C  C67  1  0.60897000  0.77902000  0.17731000  1.0
  C  C68  1  0.03316000  0.15855000  0.46775000  1.0
  C  C69  1  0.43440000  0.65851000  0.46772000  1.0
  C  C70  1  0.96684000  0.84145000  0.53225000  1.0
  C  C71  1  0.56560000  0.34149000  0.53228000  1.0
  C  C72  1  0.88363000  0.71335000  0.78984000  1.0
  C  C73  1  0.90612000  0.21323000  0.78972000  1.0
  C  C74  1  0.11637000  0.28665000  0.21016000  1.0
  C  C75  1  0.09388000  0.78676000  0.21028000  1.0
  O  O76  1  0.42578000  0.84196000  0.88835000  1.0
  O  O77  1  0.46237000  0.34200000  0.88815000  1.0
  O  O78  1  0.57422000  0.15804000  0.11165000  1.0
  O  O79  1  0.53762000  0.65800000  0.11184000  1.0
  O  O80  1  0.55400000  0.68366000  0.81574000  1.0
  O  O81  1  0.26160000  0.18370000  0.81566000  1.0
  O  O82  1  0.44601000  0.31634000  0.18426000  1.0
  O  O83  1  0.73840000  0.81630000  0.18434000  1.0
  O  O84  1  0.16038000  0.26423000  0.52362000  1.0
  O  O85  1  0.36310000  0.76425000  0.52360000  1.0
  O  O86  1  0.83962000  0.73577000  0.47638000  1.0
  O  O87  1  0.63690000  0.23575000  0.47640000  1.0
  O  O88  1  0.89547000  0.57629000  0.72816000  1.0
  O  O89  1  0.83248000  0.07620000  0.72789000  1.0
  O  O90  1  0.10453000  0.42371000  0.27184000  1.0
  O  O91  1  0.16752000  0.92380000  0.27211000  1.0
