# generated using pymatgen
data_Zn2H19C46N2(ClO2)5
_symmetry_space_group_name_H-M   'P 1'
_cell_length_a   16.62580000
_cell_length_b   17.84630000
_cell_length_c   33.10620000
_cell_angle_alpha   90.23470000
_cell_angle_beta   89.89660000
_cell_angle_gamma   89.95650000
_symmetry_Int_Tables_number   1
_chemical_formula_structural   Zn2H19C46N2(ClO2)5
_chemical_formula_sum   'Zn4 H38 C92 N4 Cl10 O20'
_cell_volume   9822.80668307
_cell_formula_units_Z   2
loop_
 _symmetry_equiv_pos_site_id
 _symmetry_equiv_pos_as_xyz
  1  'x, y, z'
loop_
 _atom_site_type_symbol
 _atom_site_label
 _atom_site_symmetry_multiplicity
 _atom_site_fract_x
 _atom_site_fract_y
 _atom_site_fract_z
 _atom_site_occupancy
  Zn  Zn0  1  0.58178000  0.50571000  0.50172000  1.0
  Zn  Zn1  1  0.41221000  0.48859000  0.50036000  1.0
  Zn  Zn2  1  0.41843000  0.50864000  0.96052000  1.0
  Zn  Zn3  1  0.58806000  0.49146000  0.96187000  1.0
  H  H4  1  0.28965000  0.57485000  0.53707000  1.0
  H  H5  1  0.13957000  0.58775000  0.54131000  1.0
  H  H6  1  0.12302000  0.39518000  0.46158000  1.0
  H  H7  1  0.86952000  0.59585000  0.54598000  1.0
  H  H8  1  0.70642000  0.42141000  0.46509000  1.0
  H  H9  1  0.85674000  0.41041000  0.46127000  1.0
  H  H10  1  0.60099000  0.72444000  0.49701000  1.0
  H  H11  1  0.61665000  0.86322000  0.49434000  1.0
  H  H12  1  0.35801000  0.88483000  0.49755000  1.0
  H  H13  1  0.64119000  0.11402000  0.50259000  1.0
  H  H14  1  0.39196000  0.26545000  0.49601000  1.0
  H  H15  1  0.38255000  0.12612000  0.49288000  1.0
  H  H16  1  0.36456000  0.50076000  0.63078000  1.0
  H  H17  1  0.29365000  0.50044000  0.69678000  1.0
  H  H18  1  0.62076000  0.49024000  0.62561000  1.0
  H  H19  1  0.63536000  0.50125000  0.83150000  1.0
  H  H20  1  0.70627000  0.50041000  0.76554000  1.0
  H  H21  1  0.37917000  0.49066000  0.83667000  1.0
  H  H22  1  0.37222000  0.48600000  0.08914000  1.0
  H  H23  1  0.37043000  0.48274000  0.16456000  1.0
  H  H24  1  0.62303000  0.53862000  0.16477000  1.0
  H  H25  1  0.37614000  0.53637000  0.29785000  1.0
  H  H26  1  0.62736000  0.48320000  0.37284000  1.0
  H  H27  1  0.62906000  0.48151000  0.29739000  1.0
  H  H28  1  0.71063000  0.57679000  0.92504000  1.0
  H  H29  1  0.86069000  0.58927000  0.92068000  1.0
  H  H30  1  0.87730000  0.39791000  0.00043000  1.0
  H  H31  1  0.13040000  0.59727000  0.91581000  1.0
  H  H32  1  0.29417000  0.42499000  0.99709000  1.0
  H  H33  1  0.14393000  0.41333000  0.00064000  1.0
  H  H34  1  0.39933000  0.72737000  0.96457000  1.0
  H  H35  1  0.38342000  0.86621000  0.96677000  1.0
  H  H36  1  0.64198000  0.88780000  0.96269000  1.0
  H  H37  1  0.35866000  0.11740000  0.95875000  1.0
  H  H38  1  0.60826000  0.26800000  0.96577000  1.0
  H  H39  1  0.61734000  0.12863000  0.96821000  1.0
  H  H40  1  0.31709000  0.57579000  0.81304000  1.0
  H  H41  1  0.68279000  0.57538000  0.64956000  1.0
  C  C42  1  0.47315000  0.64132000  0.50022000  1.0
  C  C43  1  0.49187000  0.49659000  0.57920000  1.0
  C  C44  1  0.51600000  0.35319000  0.50079000  1.0
  C  C45  1  0.50588000  0.50260000  0.42310000  1.0
  C  C46  1  0.52723000  0.64417000  0.96149000  1.0
  C  C47  1  0.50817000  0.49772000  0.88305000  1.0
  C  C48  1  0.48434000  0.35612000  0.96151000  1.0
  C  C49  1  0.49388000  0.50652000  0.03912000  1.0
  C  C50  1  0.24973000  0.53629000  0.52127000  1.0
  C  C51  1  0.16690000  0.54332000  0.52334000  1.0
  C  C52  1  0.11886000  0.49207000  0.50164000  1.0
  C  C53  1  0.15741000  0.43598000  0.47885000  1.0
  C  C54  1  0.24121000  0.43359000  0.47863000  1.0
  C  C55  1  0.03395000  0.49638000  0.50240000  1.0
  C  C56  1  0.96071000  0.49932000  0.50272000  1.0
  C  C57  1  0.87573000  0.50295000  0.50326000  1.0
  C  C58  1  0.83609000  0.55657000  0.52727000  1.0
  C  C59  1  0.75230000  0.55835000  0.52689000  1.0
  C  C60  1  0.74565000  0.45929000  0.48179000  1.0
  C  C61  1  0.82861000  0.45319000  0.48007000  1.0
  C  C62  1  0.47268000  0.72556000  0.49836000  1.0
  C  C63  1  0.54841000  0.76081000  0.49685000  1.0
  C  C64  1  0.55713000  0.83781000  0.49547000  1.0
  C  C65  1  0.48832000  0.88416000  0.49587000  1.0
  C  C66  1  0.41193000  0.85016000  0.49713000  1.0
  C  C67  1  0.40426000  0.77227000  0.49827000  1.0
  C  C68  1  0.49641000  0.96307000  0.49569000  1.0
  C  C69  1  0.50575000  0.03092000  0.49631000  1.0
  C  C70  1  0.51133000  0.11001000  0.49727000  1.0
  C  C71  1  0.58600000  0.14669000  0.50060000  1.0
  C  C72  1  0.59023000  0.22482000  0.50172000  1.0
  C  C73  1  0.52000000  0.26897000  0.49985000  1.0
  C  C74  1  0.44601000  0.23105000  0.49688000  1.0
  C  C75  1  0.44073000  0.15378000  0.49532000  1.0
  C  C76  1  0.42184000  0.50011000  0.64674000  1.0
  C  C77  1  0.42369000  0.50046000  0.68912000  1.0
  C  C78  1  0.35137000  0.50073000  0.71240000  1.0
  C  C79  1  0.56741000  0.49657000  0.64448000  1.0
  C  C80  1  0.57271000  0.50096000  0.68677000  1.0
  C  C81  1  0.64819000  0.50232000  0.70850000  1.0
  C  C82  1  0.57809000  0.50042000  0.81553000  1.0
  C  C83  1  0.57622000  0.50056000  0.77317000  1.0
  C  C84  1  0.64857000  0.50069000  0.74991000  1.0
  C  C85  1  0.43252000  0.49684000  0.81782000  1.0
  C  C86  1  0.42721000  0.50110000  0.77555000  1.0
  C  C87  1  0.35176000  0.50250000  0.75382000  1.0
  C  C88  1  0.49318000  0.49772000  0.62461000  1.0
  C  C89  1  0.49931000  0.50149000  0.70968000  1.0
  C  C90  1  0.50677000  0.49818000  0.83766000  1.0
  C  C91  1  0.50060000  0.50155000  0.75263000  1.0
  C  C92  1  0.49762000  0.51089000  0.08436000  1.0
  C  C93  1  0.42693000  0.49651000  0.10633000  1.0
  C  C94  1  0.42578000  0.49499000  0.14821000  1.0
  C  C95  1  0.49710000  0.50923000  0.16998000  1.0
  C  C96  1  0.56796000  0.52577000  0.14843000  1.0
  C  C97  1  0.56822000  0.52656000  0.10635000  1.0
  C  C98  1  0.49841000  0.50787000  0.21272000  1.0
  C  C99  1  0.50086000  0.50738000  0.24957000  1.0
  C  C100  1  0.50221000  0.50762000  0.29232000  1.0
  C  C101  1  0.43130000  0.52343000  0.31406000  1.0
  C  C102  1  0.43110000  0.52338000  0.35614000  1.0
  C  C103  1  0.50185000  0.50755000  0.37792000  1.0
  C  C104  1  0.57257000  0.49383000  0.35577000  1.0
  C  C105  1  0.57366000  0.49318000  0.31389000  1.0
  C  C106  1  0.75055000  0.53836000  0.94081000  1.0
  C  C107  1  0.83339000  0.54516000  0.93867000  1.0
  C  C108  1  0.88147000  0.49413000  0.96033000  1.0
  C  C109  1  0.84291000  0.43849000  0.98316000  1.0
  C  C110  1  0.75911000  0.43628000  0.98341000  1.0
  C  C111  1  0.96639000  0.49828000  0.95949000  1.0
  C  C112  1  0.03963000  0.50115000  0.95906000  1.0
  C  C113  1  0.12458000  0.50504000  0.95854000  1.0
  C  C114  1  0.16401000  0.55844000  0.93457000  1.0
  C  C115  1  0.24779000  0.56063000  0.93509000  1.0
  C  C116  1  0.25481000  0.46242000  0.98028000  1.0
  C  C117  1  0.17189000  0.45590000  0.98185000  1.0
  C  C118  1  0.52761000  0.72849000  0.96288000  1.0
  C  C119  1  0.45183000  0.76377000  0.96446000  1.0
  C  C120  1  0.44297000  0.84080000  0.96557000  1.0
  C  C121  1  0.51171000  0.88711000  0.96485000  1.0
  C  C122  1  0.58815000  0.85312000  0.96340000  1.0
  C  C123  1  0.59594000  0.77521000  0.96252000  1.0
  C  C124  1  0.50349000  0.96601000  0.96507000  1.0
  C  C125  1  0.49403000  0.03387000  0.96469000  1.0
  C  C126  1  0.48851000  0.11296000  0.96400000  1.0
  C  C127  1  0.41393000  0.14987000  0.96087000  1.0
  C  C128  1  0.40991000  0.22802000  0.96005000  1.0
  C  C129  1  0.48021000  0.27196000  0.96212000  1.0
  C  C130  1  0.55412000  0.23380000  0.96484000  1.0
  C  C131  1  0.55922000  0.15651000  0.96601000  1.0
  C  C132  1  0.27070000  0.50793000  0.77372000  1.0
  C  C133  1  0.72923000  0.50757000  0.68862000  1.0
  N  N134  1  0.28684000  0.48228000  0.49933000  1.0
  N  N135  1  0.70746000  0.51124000  0.50472000  1.0
  N  N136  1  0.71345000  0.48477000  0.96276000  1.0
  N  N137  1  0.29278000  0.51412000  0.95738000  1.0
  Cl  Cl138  1  0.28861000  0.36585000  0.45048000  1.0
  Cl  Cl139  1  0.70386000  0.62423000  0.55598000  1.0
  Cl  Cl140  1  0.30671000  0.73811000  0.50069000  1.0
  Cl  Cl141  1  0.68565000  0.26285000  0.50707000  1.0
  Cl  Cl142  1  0.65781000  0.55151000  0.08323000  1.0
  Cl  Cl143  1  0.34136000  0.54747000  0.37952000  1.0
  Cl  Cl144  1  0.71172000  0.36904000  0.01157000  1.0
  Cl  Cl145  1  0.29602000  0.62628000  0.90611000  1.0
  Cl  Cl146  1  0.69351000  0.74097000  0.95991000  1.0
  Cl  Cl147  1  0.31456000  0.26632000  0.95473000  1.0
  O  O148  1  0.54095000  0.61250000  0.50930000  1.0
  O  O149  1  0.40935000  0.60489000  0.49269000  1.0
  O  O150  1  0.42436000  0.50715000  0.56201000  1.0
  O  O151  1  0.55915000  0.48577000  0.56171000  1.0
  O  O152  1  0.44789000  0.38049000  0.51074000  1.0
  O  O153  1  0.57801000  0.39084000  0.49122000  1.0
  O  O154  1  0.57214000  0.52096000  0.43971000  1.0
  O  O155  1  0.44357000  0.47843000  0.44107000  1.0
  O  O156  1  0.45939000  0.61509000  0.95269000  1.0
  O  O157  1  0.59111000  0.60795000  0.96912000  1.0
  O  O158  1  0.57568000  0.50860000  0.90020000  1.0
  O  O159  1  0.44094000  0.48717000  0.90058000  1.0
  O  O160  1  0.55249000  0.38321000  0.95169000  1.0
  O  O161  1  0.42234000  0.39395000  0.97117000  1.0
  O  O162  1  0.42770000  0.52496000  0.02251000  1.0
  O  O163  1  0.55637000  0.48254000  0.02111000  1.0
  O  O164  1  0.26458000  0.55386000  0.80686000  1.0
  O  O165  1  0.21088000  0.47677000  0.76092000  1.0
  O  O166  1  0.73532000  0.55342000  0.65565000  1.0
  O  O167  1  0.78904000  0.47632000  0.70127000  1.0
