# generated using pymatgen
data_Zn4H39C44N17O2
_symmetry_space_group_name_H-M   'P 1'
_cell_length_a   14.43970000
_cell_length_b   15.01730000
_cell_length_c   15.34500000
_cell_angle_alpha   102.60100000
_cell_angle_beta   109.48300000
_cell_angle_gamma   114.43000000
_symmetry_Int_Tables_number   1
_chemical_formula_structural   Zn4H39C44N17O2
_chemical_formula_sum   'Zn4 H39 C44 N17 O2'
_cell_volume   2598.70464260
_cell_formula_units_Z   1
loop_
 _symmetry_equiv_pos_site_id
 _symmetry_equiv_pos_as_xyz
  1  'x, y, z'
loop_
 _atom_site_type_symbol
 _atom_site_label
 _atom_site_symmetry_multiplicity
 _atom_site_fract_x
 _atom_site_fract_y
 _atom_site_fract_z
 _atom_site_occupancy
  Zn  Zn0  1  0.12824000  0.64557000  0.07854000  1.0
  Zn  Zn1  1  0.84255000  0.37274000  0.98943000  1.0
  Zn  Zn2  1  0.85048000  0.50405000  0.84183000  1.0
  Zn  Zn3  1  0.12104000  0.49789000  0.17653000  1.0
  H  H4  1  0.15319000  0.87683000  0.14293000  1.0
  H  H5  1  0.77390000  0.48868000  0.12786000  1.0
  H  H6  1  0.59241000  0.47205000  0.77084000  1.0
  H  H7  1  0.37613000  0.66760000  0.40861000  1.0
  H  H8  1  0.56845000  0.28279000  0.94755000  1.0
  H  H9  1  0.37777000  0.86741000  0.24354000  1.0
  H  H10  1  0.14564000  0.70241000  0.31161000  1.0
  H  H11  1  0.78854000  0.66753000  0.92430000  1.0
  H  H12  1  0.15212000  0.54006000  0.87388000  1.0
  H  H13  1  0.80287000  0.15814000  0.84815000  1.0
  H  H14  1  0.75435000  0.50491000  0.60163000  1.0
  H  H15  1  0.10090000  0.32193000  0.26823000  1.0
  H  H16  1  0.75973000  0.14419000  0.00704000  1.0
  H  H17  1  0.12554000  0.72929000  0.75662000  1.0
  H  H18  1  0.16437000  0.33494000  0.03249000  1.0
  H  H19  1  0.80615000  0.33018000  0.65561000  1.0
  H  H20  1  0.49543000  0.83627000  0.56171000  1.0
  H  H21  1  0.42559000  0.90806000  0.54062000  1.0
  H  H22  1  0.58283000  0.04923000  0.69382000  1.0
  H  H23  1  0.66439000  0.98767000  0.69747000  1.0
  H  H24  1  0.64675000  0.86222000  0.50258000  1.0
  H  H25  1  0.80361000  0.03286000  0.62612000  1.0
  H  H26  1  0.54438000  0.01417000  0.37949000  1.0
  H  H27  1  0.43460000  0.99369000  0.41421000  1.0
  H  H28  1  0.56495000  0.14104000  0.57104000  1.0
  H  H29  1  0.66300000  0.17531000  0.52214000  1.0
  H  H30  1  0.65058000  0.91669000  0.41221000  1.0
  H  H31  1  0.78671000  0.09177000  0.53887000  1.0
  H  H32  1  0.10163000  0.76042000  0.60636000  1.0
  H  H33  1  0.84699000  0.57537000  0.47682000  1.0
  H  H34  1  0.11260000  0.74336000  0.45394000  1.0
  H  H35  1  0.84727000  0.59677000  0.33228000  1.0
  H  H36  1  0.37037000  0.24407000  0.89422000  1.0
  H  H37  1  0.40963000  0.42239000  0.81752000  1.0
  H  H38  1  0.23454000  0.26822000  0.93153000  1.0
  H  H39  1  0.25961000  0.42769000  0.83163000  1.0
  H  H40  1  0.75485000  0.97593000  0.01949000  1.0
  H  H41  1  0.99741000  0.10673000  0.20596000  1.0
  H  H42  1  0.77217000  0.81997000  0.02366000  1.0
  C  C43  1  0.06737000  0.81192000  0.08342000  1.0
  C  C44  1  0.86737000  0.53484000  0.15891000  1.0
  C  C45  1  0.60464000  0.42831000  0.81706000  1.0
  C  C46  1  0.36156000  0.70230000  0.35410000  1.0
  C  C47  1  0.59151000  0.33051000  0.90582000  1.0
  C  C48  1  0.36247000  0.80390000  0.26994000  1.0
  C  C49  1  0.05670000  0.64399000  0.25329000  1.0
  C  C50  1  0.88043000  0.70435000  0.97345000  1.0
  C  C51  1  0.96353000  0.81068000  0.04740000  1.0
  C  C52  1  0.95350000  0.61392000  0.25828000  1.0
  C  C53  1  0.53006000  0.36950000  0.85059000  1.0
  C  C54  1  0.42276000  0.80889000  0.36565000  1.0
  C  C55  1  0.15068000  0.49782000  0.92306000  1.0
  C  C56  1  0.81261000  0.21557000  0.81420000  1.0
  C  C57  1  0.84652000  0.55774000  0.65424000  1.0
  C  C58  1  0.01949000  0.29456000  0.20343000  1.0
  C  C59  1  0.84595000  0.20342000  0.06985000  1.0
  C  C60  1  0.03589000  0.67290000  0.73447000  1.0
  C  C61  1  0.15542000  0.39230000  0.00342000  1.0
  C  C62  1  0.81432000  0.30278000  0.71611000  1.0
  C  C63  1  0.17610000  0.41693000  0.92549000  1.0
  C  C64  1  0.77463000  0.19830000  0.71179000  1.0
  C  C65  1  0.93616000  0.62514000  0.63867000  1.0
  C  C66  1  0.92287000  0.18949000  0.14257000  1.0
  C  C67  1  0.50617000  0.91009000  0.55279000  1.0
  C  C68  1  0.61140000  0.01042000  0.64842000  1.0
  C  C69  1  0.64176000  0.92634000  0.48163000  1.0
  C  C70  1  0.52223000  0.00764000  0.44080000  1.0
  C  C71  1  0.52137000  0.90985000  0.45796000  1.0
  C  C72  1  0.68840000  0.09267000  0.61935000  1.0
  C  C73  1  0.73968000  0.03937000  0.56864000  1.0
  C  C74  1  0.60947000  0.11140000  0.53871000  1.0
  C  C75  1  0.01990000  0.70288000  0.53659000  1.0
  C  C76  1  0.92954000  0.63407000  0.54572000  1.0
  C  C77  1  0.02464000  0.69873000  0.44349000  1.0
  C  C78  1  0.93677000  0.63935000  0.34631000  1.0
  C  C79  1  0.35369000  0.30258000  0.87197000  1.0
  C  C80  1  0.42509000  0.36438000  0.84197000  1.0
  C  C81  1  0.26687000  0.31418000  0.89094000  1.0
  C  C82  1  0.23260000  0.38377000  0.87551000  1.0
  C  C83  1  0.83707000  0.99126000  0.07483000  1.0
  C  C84  1  0.91983000  0.09306000  0.14538000  1.0
  C  C85  1  0.85042000  0.89981000  0.05903000  1.0
  C  C86  1  0.94879000  0.90050000  0.07413000  1.0
  N  N87  1  0.04647000  0.71444000  0.03389000  1.0
  N  N88  1  0.91580000  0.51691000  0.10147000  1.0
  N  N89  1  0.70134000  0.42466000  0.84965000  1.0
  N  N90  1  0.27164000  0.63953000  0.25872000  1.0
  N  N91  1  0.69312000  0.36397000  0.90507000  1.0
  N  N92  1  0.27279000  0.70333000  0.20690000  1.0
  N  N93  1  0.03351000  0.58349000  0.15925000  1.0
  N  N94  1  0.93121000  0.64781000  0.96639000  1.0
  N  N95  1  0.12013000  0.52015000  0.99506000  1.0
  N  N96  1  0.86740000  0.32150000  0.87393000  1.0
  N  N97  1  0.89139000  0.56711000  0.75069000  1.0
  N  N98  1  0.00208000  0.36438000  0.16873000  1.0
  N  N99  1  0.89354000  0.30711000  0.08527000  1.0
  N  N100  1  0.00943000  0.63790000  0.80066000  1.0
  N  N101  1  0.12337000  0.45499000  0.04451000  1.0
  N  N102  1  0.86829000  0.37547000  0.81305000  1.0
  N  N103  1  0.05975000  0.00487000  0.11644000  1.0
  O  O104  1  0.13241000  0.03741000  0.20580000  1.0
  O  O105  1  0.07401000  0.04962000  0.05939000  1.0
