# generated using pymatgen
data_CoH18C27(N2O3)2
_symmetry_space_group_name_H-M   'P 1'
_cell_length_a   7.87334000
_cell_length_b   15.47450000
_cell_length_c   21.93640000
_cell_angle_alpha   89.27960000
_cell_angle_beta   80.79800000
_cell_angle_gamma   89.80840000
_symmetry_Int_Tables_number   1
_chemical_formula_structural   CoH18C27(N2O3)2
_chemical_formula_sum   'Co4 H72 C108 N16 O24'
_cell_volume   2638.03719161
_cell_formula_units_Z   4
loop_
 _symmetry_equiv_pos_site_id
 _symmetry_equiv_pos_as_xyz
  1  'x, y, z'
loop_
 _atom_site_type_symbol
 _atom_site_label
 _atom_site_symmetry_multiplicity
 _atom_site_fract_x
 _atom_site_fract_y
 _atom_site_fract_z
 _atom_site_occupancy
  Co  Co0  1  0.92043000  0.82401000  0.80336000  1.0
  Co  Co1  1  0.08390000  0.32863000  0.69789000  1.0
  Co  Co2  1  0.08737000  0.17150000  0.20093000  1.0
  Co  Co3  1  0.90239000  0.66767000  0.30743000  1.0
  H  H4  1  0.56100000  0.02737000  0.53983000  1.0
  H  H5  1  0.44538000  0.52455000  0.95795000  1.0
  H  H6  1  0.44900000  0.97698000  0.45964000  1.0
  H  H7  1  0.56259000  0.47704000  0.03831000  1.0
  H  H8  1  0.28340000  0.15698000  0.84674000  1.0
  H  H9  1  0.72553000  0.65845000  0.65240000  1.0
  H  H10  1  0.72282000  0.84144000  0.15326000  1.0
  H  H11  1  0.28926000  0.34535000  0.34774000  1.0
  H  H12  1  0.50327000  0.06240000  0.88555000  1.0
  H  H13  1  0.50627000  0.56627000  0.61336000  1.0
  H  H14  1  0.50005000  0.93645000  0.11646000  1.0
  H  H15  1  0.50325000  0.44861000  0.37975000  1.0
  H  H16  1  0.61754000  0.18493000  0.67332000  1.0
  H  H17  1  0.38675000  0.68519000  0.82441000  1.0
  H  H18  1  0.39527000  0.80805000  0.32773000  1.0
  H  H19  1  0.61930000  0.31120000  0.17428000  1.0
  H  H20  1  0.04934000  0.08564000  0.75973000  1.0
  H  H21  1  0.95750000  0.58559000  0.73798000  1.0
  H  H22  1  0.96315000  0.90906000  0.24208000  1.0
  H  H23  1  0.04504000  0.41261000  0.25693000  1.0
  H  H24  1  0.30450000  0.05373000  0.68200000  1.0
  H  H25  1  0.70263000  0.55286000  0.81620000  1.0
  H  H26  1  0.70765000  0.94633000  0.31801000  1.0
  H  H27  1  0.30322000  0.44497000  0.17960000  1.0
  H  H28  1  0.97991000  0.03136000  0.54209000  1.0
  H  H29  1  0.02617000  0.53387000  0.95694000  1.0
  H  H30  1  0.02851000  0.96993000  0.45905000  1.0
  H  H31  1  0.98396000  0.46700000  0.03761000  1.0
  H  H32  1  0.72635000  0.06540000  0.61942000  1.0
  H  H33  1  0.27976000  0.56788000  0.87911000  1.0
  H  H34  1  0.28222000  0.92999000  0.38346000  1.0
  H  H35  1  0.72769000  0.43244000  0.11461000  1.0
  H  H36  1  0.17614000  0.77072000  0.68252000  1.0
  H  H37  1  0.82642000  0.27346000  0.81643000  1.0
  H  H38  1  0.82814000  0.22418000  0.31796000  1.0
  H  H39  1  0.13958000  0.72317000  0.19403000  1.0
  H  H40  1  0.54341000  0.94391000  0.73570000  1.0
  H  H41  1  0.46000000  0.44821000  0.76093000  1.0
  H  H42  1  0.46189000  0.05265000  0.26243000  1.0
  H  H43  1  0.51768000  0.54947000  0.24183000  1.0
  H  H44  1  0.24982000  0.94209000  0.82369000  1.0
  H  H45  1  0.75806000  0.45027000  0.67483000  1.0
  H  H46  1  0.76307000  0.05011000  0.17757000  1.0
  H  H47  1  0.22797000  0.54483000  0.33233000  1.0
  H  H48  1  0.73503000  0.88132000  0.67020000  1.0
  H  H49  1  0.26750000  0.38486000  0.82735000  1.0
  H  H50  1  0.26896000  0.11362000  0.32866000  1.0
  H  H51  1  0.70449000  0.61216000  0.17825000  1.0
  H  H52  1  0.93477000  0.84538000  0.57610000  1.0
  H  H53  1  0.06881000  0.34505000  0.92171000  1.0
  H  H54  1  0.06850000  0.15388000  0.42183000  1.0
  H  H55  1  0.90238000  0.65062000  0.08455000  1.0
  H  H56  1  0.51443000  0.73976000  0.49648000  1.0
  H  H57  1  0.49176000  0.23583000  0.00029000  1.0
  H  H58  1  0.48865000  0.26351000  0.49941000  1.0
  H  H59  1  0.48460000  0.76573000  0.00634000  1.0
  H  H60  1  0.31165000  0.78455000  0.58766000  1.0
  H  H61  1  0.69320000  0.28489000  0.90924000  1.0
  H  H62  1  0.69172000  0.21423000  0.40973000  1.0
  H  H63  1  0.28146000  0.71975000  0.09804000  1.0
  H  H64  1  0.68809000  0.77343000  0.40716000  1.0
  H  H65  1  0.32022000  0.26197000  0.08926000  1.0
  H  H66  1  0.31729000  0.23928000  0.58824000  1.0
  H  H67  1  0.66547000  0.73845000  0.91446000  1.0
  H  H68  1  0.08805000  0.73429000  0.51345000  1.0
  H  H69  1  0.91748000  0.23276000  0.98336000  1.0
  H  H70  1  0.91294000  0.26347000  0.48198000  1.0
  H  H71  1  0.05772000  0.76106000  0.02569000  1.0
  H  H72  1  0.20423000  0.69192000  0.39146000  1.0
  H  H73  1  0.80390000  0.18299000  0.10515000  1.0
  H  H74  1  0.79878000  0.31506000  0.60253000  1.0
  H  H75  1  0.18474000  0.80967000  0.90473000  1.0
  C  C76  1  0.31655000  0.23388000  0.73060000  1.0
  C  C77  1  0.68911000  0.73308000  0.76841000  1.0
  C  C78  1  0.70505000  0.76379000  0.26379000  1.0
  C  C79  1  0.31744000  0.26616000  0.23311000  1.0
  C  C80  1  0.43846000  0.17633000  0.75724000  1.0
  C  C81  1  0.56816000  0.67698000  0.74132000  1.0
  C  C82  1  0.57163000  0.81953000  0.24272000  1.0
  C  C83  1  0.44048000  0.32392000  0.25802000  1.0
  C  C84  1  0.40482000  0.14200000  0.81737000  1.0
  C  C85  1  0.60338000  0.64362000  0.68152000  1.0
  C  C86  1  0.60178000  0.85570000  0.18302000  1.0
  C  C87  1  0.40833000  0.36076000  0.31684000  1.0
  C  C88  1  0.52731000  0.08927000  0.83875000  1.0
  C  C89  1  0.48108000  0.59219000  0.65996000  1.0
  C  C90  1  0.47799000  0.90844000  0.16294000  1.0
  C  C91  1  0.52769000  0.41780000  0.33472000  1.0
  C  C92  1  0.68027000  0.06675000  0.80017000  1.0
  C  C93  1  0.32692000  0.56974000  0.69819000  1.0
  C  C94  1  0.32656000  0.92954000  0.20281000  1.0
  C  C95  1  0.67669000  0.44124000  0.29379000  1.0
  C  C96  1  0.71429000  0.10044000  0.73919000  1.0
  C  C97  1  0.29184000  0.60218000  0.75889000  1.0
  C  C98  1  0.29549000  0.89402000  0.26329000  1.0
  C  C99  1  0.71295000  0.40144000  0.23548000  1.0
  C  C100  1  0.59337000  0.15609000  0.71942000  1.0
  C  C101  1  0.41221000  0.65693000  0.77865000  1.0
  C  C102  1  0.41795000  0.83784000  0.28188000  1.0
  C  C103  1  0.59451000  0.34282000  0.21894000  1.0
  C  C104  1  0.86953000  0.07796000  0.69498000  1.0
  C  C105  1  0.13669000  0.57927000  0.80316000  1.0
  C  C106  1  0.14081000  0.91727000  0.30745000  1.0
  C  C107  1  0.86904000  0.42114000  0.19085000  1.0
  C  C108  1  0.03366000  0.07306000  0.71223000  1.0
  C  C109  1  0.97306000  0.57342000  0.78574000  1.0
  C  C110  1  0.97778000  0.92336000  0.28940000  1.0
  C  C111  1  0.03193000  0.42512000  0.20895000  1.0
  C  C112  1  0.17732000  0.05542000  0.66863000  1.0
  C  C113  1  0.82969000  0.55542000  0.82954000  1.0
  C  C114  1  0.83404000  0.94398000  0.33201000  1.0
  C  C115  1  0.17664000  0.44290000  0.16581000  1.0
  C  C116  1  0.15966000  0.03998000  0.60703000  1.0
  C  C117  1  0.84758000  0.54079000  0.89143000  1.0
  C  C118  1  0.85090000  0.96148000  0.39339000  1.0
  C  C119  1  0.15997000  0.45887000  0.10393000  1.0
  C  C120  1  0.31047000  0.02210000  0.55990000  1.0
  C  C121  1  0.69701000  0.52220000  0.93852000  1.0
  C  C122  1  0.69987000  0.98176000  0.43978000  1.0
  C  C123  1  0.31105000  0.47864000  0.05734000  1.0
  C  C124  1  0.99578000  0.04319000  0.58964000  1.0
  C  C125  1  0.01076000  0.54503000  0.90908000  1.0
  C  C126  1  0.01364000  0.95685000  0.41158000  1.0
  C  C127  1  0.99768000  0.45504000  0.08553000  1.0
  C  C128  1  0.85331000  0.06288000  0.63306000  1.0
  C  C129  1  0.15305000  0.56480000  0.86539000  1.0
  C  C130  1  0.15614000  0.93381000  0.36916000  1.0
  C  C131  1  0.85409000  0.43512000  0.12860000  1.0
  C  C132  1  0.79509000  0.99830000  0.82187000  1.0
  C  C133  1  0.21260000  0.50215000  0.67671000  1.0
  C  C134  1  0.21246000  0.99949000  0.18285000  1.0
  C  C135  1  0.77912000  0.51767000  0.30854000  1.0
  C  C136  1  0.23327000  0.81916000  0.70813000  1.0
  C  C137  1  0.77020000  0.32303000  0.79061000  1.0
  C  C138  1  0.77204000  0.17553000  0.29227000  1.0
  C  C139  1  0.20187000  0.67460000  0.21869000  1.0
  C  C140  1  0.42340000  0.90958000  0.73704000  1.0
  C  C141  1  0.58056000  0.41426000  0.76036000  1.0
  C  C142  1  0.58303000  0.08563000  0.26211000  1.0
  C  C143  1  0.39678000  0.58361000  0.24535000  1.0
  C  C144  1  0.27917000  0.90649000  0.78106000  1.0
  C  C145  1  0.72687000  0.41299000  0.71727000  1.0
  C  C146  1  0.73054000  0.08689000  0.21955000  1.0
  C  C147  1  0.25407000  0.58306000  0.29021000  1.0
  C  C148  1  0.50894000  0.83548000  0.63561000  1.0
  C  C149  1  0.49382000  0.33700000  0.86173000  1.0
  C  C150  1  0.49398000  0.16215000  0.36250000  1.0
  C  C151  1  0.47773000  0.66283000  0.14488000  1.0
  C  C152  1  0.68485000  0.85235000  0.63179000  1.0
  C  C153  1  0.31799000  0.35404000  0.86560000  1.0
  C  C154  1  0.31842000  0.14490000  0.36638000  1.0
  C  C155  1  0.65319000  0.64368000  0.14035000  1.0
  C  C156  1  0.79870000  0.83013000  0.57902000  1.0
  C  C157  1  0.20501000  0.32951000  0.91837000  1.0
  C  C158  1  0.20444000  0.16960000  0.41846000  1.0
  C  C159  1  0.76692000  0.66753000  0.08761000  1.0
  C  C160  1  0.73901000  0.78902000  0.53015000  1.0
  C  C161  1  0.26640000  0.28602000  0.96664000  1.0
  C  C162  1  0.26435000  0.21330000  0.46613000  1.0
  C  C163  1  0.70810000  0.71227000  0.03927000  1.0
  C  C164  1  0.56254000  0.77286000  0.53380000  1.0
  C  C165  1  0.44289000  0.27025000  0.96309000  1.0
  C  C166  1  0.44067000  0.22918000  0.46264000  1.0
  C  C167  1  0.53219000  0.73031000  0.04340000  1.0
  C  C168  1  0.44828000  0.79726000  0.58574000  1.0
  C  C169  1  0.55619000  0.29705000  0.91134000  1.0
  C  C170  1  0.55487000  0.20233000  0.41158000  1.0
  C  C171  1  0.41757000  0.70476000  0.09552000  1.0
  C  C172  1  0.81216000  0.75674000  0.41912000  1.0
  C  C173  1  0.19617000  0.24664000  0.07694000  1.0
  C  C174  1  0.19297000  0.25377000  0.57547000  1.0
  C  C175  1  0.78842000  0.75199000  0.92834000  1.0
  C  C176  1  0.02517000  0.73824000  0.47309000  1.0
  C  C177  1  0.98139000  0.23291000  0.02351000  1.0
  C  C178  1  0.97751000  0.26515000  0.52192000  1.0
  C  C179  1  0.99760000  0.76219000  0.98465000  1.0
  C  C180  1  0.07982000  0.71605000  0.41280000  1.0
  C  C181  1  0.92830000  0.20731000  0.08356000  1.0
  C  C182  1  0.92388000  0.29138000  0.58137000  1.0
  C  C183  1  0.05761000  0.78713000  0.92492000  1.0
  N  N184  1  0.16195000  0.84964000  0.76272000  1.0
  N  N185  1  0.84359000  0.35565000  0.73656000  1.0
  N  N186  1  0.84682000  0.14348000  0.23880000  1.0
  N  N187  1  0.13366000  0.64026000  0.27324000  1.0
  N  N188  1  0.39314000  0.85447000  0.69040000  1.0
  N  N189  1  0.60948000  0.35755000  0.80719000  1.0
  N  N190  1  0.61083000  0.14152000  0.30859000  1.0
  N  N191  1  0.36289000  0.64131000  0.19988000  1.0
  N  N192  1  0.85442000  0.76370000  0.47682000  1.0
  N  N193  1  0.15239000  0.25753000  0.01977000  1.0
  N  N194  1  0.14932000  0.24170000  0.51860000  1.0
  N  N195  1  0.82571000  0.74010000  0.98647000  1.0
  N  N196  1  0.94531000  0.72705000  0.37947000  1.0
  N  N197  1  0.06372000  0.21591000  0.11635000  1.0
  N  N198  1  0.05982000  0.28422000  0.61421000  1.0
  N  N199  1  0.92602000  0.78071000  0.89020000  1.0
  O  O200  1  0.86880000  0.00888000  0.86726000  1.0
  O  O201  1  0.13885000  0.51388000  0.63126000  1.0
  O  O202  1  0.13595000  0.99135000  0.13794000  1.0
  O  O203  1  0.81706000  0.52974000  0.36115000  1.0
  O  O204  1  0.79934000  0.92965000  0.78814000  1.0
  O  O205  1  0.20867000  0.43262000  0.71083000  1.0
  O  O206  1  0.21288000  0.06772000  0.21695000  1.0
  O  O207  1  0.81594000  0.57345000  0.26342000  1.0
  O  O208  1  0.16385000  0.24779000  0.76095000  1.0
  O  O209  1  0.84298000  0.74673000  0.73892000  1.0
  O  O210  1  0.85467000  0.75888000  0.23236000  1.0
  O  O211  1  0.16467000  0.25319000  0.26363000  1.0
  O  O212  1  0.36238000  0.26833000  0.67801000  1.0
  O  O213  1  0.64136000  0.76618000  0.82074000  1.0
  O  O214  1  0.66980000  0.72021000  0.31516000  1.0
  O  O215  1  0.36310000  0.23136000  0.18122000  1.0
  O  O216  1  0.29480000  0.99250000  0.50810000  1.0
  O  O217  1  0.71388000  0.49290000  0.99090000  1.0
  O  O218  1  0.71513000  0.01410000  0.49078000  1.0
  O  O219  1  0.29452000  0.50856000  0.00515000  1.0
  O  O220  1  0.46123000  0.04032000  0.57588000  1.0
  O  O221  1  0.54643000  0.53902000  0.92193000  1.0
  O  O222  1  0.54923000  0.96234000  0.42408000  1.0
  O  O223  1  0.46148000  0.46206000  0.07417000  1.0
