# generated using pymatgen
data_ZnH20C24S(N2O3)2
_symmetry_space_group_name_H-M   'P 1'
_cell_length_a   10.21250000
_cell_length_b   13.44180000
_cell_length_c   22.24620000
_cell_angle_alpha   89.99930000
_cell_angle_beta   90.00020000
_cell_angle_gamma   89.99970000
_symmetry_Int_Tables_number   1
_chemical_formula_structural   ZnH20C24S(N2O3)2
_chemical_formula_sum   'Zn4 H80 C96 S4 N16 O24'
_cell_volume   3053.83336768
_cell_formula_units_Z   4
loop_
 _symmetry_equiv_pos_site_id
 _symmetry_equiv_pos_as_xyz
  1  'x, y, z'
loop_
 _atom_site_type_symbol
 _atom_site_label
 _atom_site_symmetry_multiplicity
 _atom_site_fract_x
 _atom_site_fract_y
 _atom_site_fract_z
 _atom_site_occupancy
  Zn  Zn0  1  0.49804000  0.75000000  0.47261000  1.0
  Zn  Zn1  1  0.50196000  0.24999000  0.52739000  1.0
  Zn  Zn2  1  0.49804000  0.25000000  0.02739000  1.0
  Zn  Zn3  1  0.50196000  0.75000000  0.97260000  1.0
  H  H4  1  0.53601000  0.75000000  0.22167000  1.0
  H  H5  1  0.46400000  0.25001000  0.77833000  1.0
  H  H6  1  0.53601000  0.25001000  0.27833000  1.0
  H  H7  1  0.46398000  0.74998000  0.72167000  1.0
  H  H8  1  0.82346000  0.74999000  0.08002000  1.0
  H  H9  1  0.17654000  0.25001000  0.91998000  1.0
  H  H10  1  0.82347000  0.25001000  0.41998000  1.0
  H  H11  1  0.17652000  0.74999000  0.58001000  1.0
  H  H12  1  0.90311000  0.75000000  0.36026000  1.0
  H  H13  1  0.09690000  0.25001000  0.63974000  1.0
  H  H14  1  0.90310000  0.25000000  0.13974000  1.0
  H  H15  1  0.09689000  0.74998000  0.86025000  1.0
  H  H16  1  0.70857000  0.75001000  0.29869000  1.0
  H  H17  1  0.29143000  0.25001000  0.70131000  1.0
  H  H18  1  0.70858000  0.25001000  0.20131000  1.0
  H  H19  1  0.29140000  0.74999000  0.79869000  1.0
  H  H20  1  0.69506000  0.86814000  0.55791000  1.0
  H  H21  1  0.30494000  0.36815000  0.44208000  1.0
  H  H22  1  0.69506000  0.13186000  0.94209000  1.0
  H  H23  1  0.30495000  0.63186000  0.05791000  1.0
  H  H24  1  0.30494000  0.13184000  0.44209000  1.0
  H  H25  1  0.69504000  0.63185000  0.55791000  1.0
  H  H26  1  0.30494000  0.86815000  0.05791000  1.0
  H  H27  1  0.69506000  0.36815000  0.94209000  1.0
  H  H28  1  0.12269000  0.75000000  0.40935000  1.0
  H  H29  1  0.87730000  0.25000000  0.59065000  1.0
  H  H30  1  0.12269000  0.25000000  0.09066000  1.0
  H  H31  1  0.87730000  0.75000000  0.90934000  1.0
  H  H32  1  0.84025000  0.00917000  0.57864000  1.0
  H  H33  1  0.15974000  0.50919000  0.42135000  1.0
  H  H34  1  0.84026000  0.99083000  0.92136000  1.0
  H  H35  1  0.15975000  0.49083000  0.07865000  1.0
  H  H36  1  0.15974000  0.99082000  0.42136000  1.0
  H  H37  1  0.84027000  0.49082000  0.57865000  1.0
  H  H38  1  0.15975000  0.00917000  0.07864000  1.0
  H  H39  1  0.84027000  0.50918000  0.92136000  1.0
  H  H40  1  0.79424000  0.12162000  0.54213000  1.0
  H  H41  1  0.20576000  0.62163000  0.45787000  1.0
  H  H42  1  0.79425000  0.87839000  0.95787000  1.0
  H  H43  1  0.20576000  0.37838000  0.04213000  1.0
  H  H44  1  0.20575000  0.87837000  0.45787000  1.0
  H  H45  1  0.79426000  0.37838000  0.54213000  1.0
  H  H46  1  0.20576000  0.12163000  0.04214000  1.0
  H  H47  1  0.79425000  0.62163000  0.95787000  1.0
  H  H48  1  0.31538000  0.74999000  0.23733000  1.0
  H  H49  1  0.68462000  0.25000000  0.76267000  1.0
  H  H50  1  0.31538000  0.25000000  0.26267000  1.0
  H  H51  1  0.68460000  0.74999000  0.73732000  1.0
  H  H52  1  0.96507000  0.09276000  0.46284000  1.0
  H  H53  1  0.03493000  0.59277000  0.53716000  1.0
  H  H54  1  0.96508000  0.90724000  0.03717000  1.0
  H  H55  1  0.03492000  0.40724000  0.96285000  1.0
  H  H56  1  0.03492000  0.90723000  0.53716000  1.0
  H  H57  1  0.96508000  0.40724000  0.46284000  1.0
  H  H58  1  0.03493000  0.09277000  0.96284000  1.0
  H  H59  1  0.96507000  0.59277000  0.03716000  1.0
  H  H60  1  0.03366000  0.09494000  0.53554000  1.0
  H  H61  1  0.96634000  0.59495000  0.46446000  1.0
  H  H62  1  0.03367000  0.90506000  0.96447000  1.0
  H  H63  1  0.96634000  0.40506000  0.03555000  1.0
  H  H64  1  0.96634000  0.90505000  0.46447000  1.0
  H  H65  1  0.03367000  0.40506000  0.53553000  1.0
  H  H66  1  0.96635000  0.09495000  0.03554000  1.0
  H  H67  1  0.03366000  0.59495000  0.96447000  1.0
  H  H68  1  0.56446000  0.92983000  0.38152000  1.0
  H  H69  1  0.43553000  0.42981000  0.61847000  1.0
  H  H70  1  0.56445000  0.07018000  0.11847000  1.0
  H  H71  1  0.43554000  0.57018000  0.88153000  1.0
  H  H72  1  0.43554000  0.07017000  0.61848000  1.0
  H  H73  1  0.56448000  0.57018000  0.38153000  1.0
  H  H74  1  0.43554000  0.92983000  0.88153000  1.0
  H  H75  1  0.56446000  0.42982000  0.11847000  1.0
  H  H76  1  0.73320000  0.08132000  0.41843000  1.0
  H  H77  1  0.26680000  0.58131000  0.58156000  1.0
  H  H78  1  0.73320000  0.91869000  0.08157000  1.0
  H  H79  1  0.26681000  0.41868000  0.91844000  1.0
  H  H80  1  0.26680000  0.91867000  0.58157000  1.0
  H  H81  1  0.73323000  0.41869000  0.41844000  1.0
  H  H82  1  0.26681000  0.08133000  0.91843000  1.0
  H  H83  1  0.73321000  0.58131000  0.08157000  1.0
  C  C84  1  0.86747000  0.75000000  0.23325000  1.0
  C  C85  1  0.13253000  0.25000000  0.76675000  1.0
  C  C86  1  0.86748000  0.25001000  0.26674000  1.0
  C  C87  1  0.13251000  0.74999000  0.73325000  1.0
  C  C88  1  0.63813000  0.75000000  0.20771000  1.0
  C  C89  1  0.36187000  0.25000000  0.79229000  1.0
  C  C90  1  0.63814000  0.25000000  0.29229000  1.0
  C  C91  1  0.36185000  0.74999000  0.70771000  1.0
  C  C92  1  0.56323000  0.74999000  0.09887000  1.0
  C  C93  1  0.43676000  0.25001000  0.90113000  1.0
  C  C94  1  0.56324000  0.25000000  0.40113000  1.0
  C  C95  1  0.43676000  0.74999000  0.59887000  1.0
  C  C96  1  0.89647000  0.74999000  0.17156000  1.0
  C  C97  1  0.10353000  0.25001000  0.82843000  1.0
  C  C98  1  0.89647000  0.25001000  0.32843000  1.0
  C  C99  1  0.10352000  0.74998000  0.67156000  1.0
  C  C100  1  0.23143000  0.75000000  0.32704000  1.0
  C  C101  1  0.76857000  0.25000000  0.67296000  1.0
  C  C102  1  0.23143000  0.25000000  0.17296000  1.0
  C  C103  1  0.76855000  0.74999000  0.82704000  1.0
  C  C104  1  0.80052000  0.75000000  0.12787000  1.0
  C  C105  1  0.19947000  0.25000000  0.87213000  1.0
  C  C106  1  0.80053000  0.25000000  0.37213000  1.0
  C  C107  1  0.19946000  0.74999000  0.62787000  1.0
  C  C108  1  0.99235000  0.75000000  0.33329000  1.0
  C  C109  1  0.00765000  0.25000000  0.66666667  1.0
  C  C110  1  0.99235000  0.25000000  0.16671000  1.0
  C  C111  1  0.00764000  0.74999000  0.83329000  1.0
  C  C112  1  0.98557000  0.75000000  0.27065000  1.0
  C  C113  1  0.01443000  0.25000000  0.72935000  1.0
  C  C114  1  0.98557000  0.25001000  0.22935000  1.0
  C  C115  1  0.01441000  0.74999000  0.77064000  1.0
  C  C116  1  0.73632000  0.75000000  0.25136000  1.0
  C  C117  1  0.26367000  0.25000000  0.74863000  1.0
  C  C118  1  0.73633000  0.25000000  0.24863000  1.0
  C  C119  1  0.26366000  0.74999000  0.75137000  1.0
  C  C120  1  0.68203000  0.90469000  0.51472000  1.0
  C  C121  1  0.31799000  0.40469000  0.48527000  1.0
  C  C122  1  0.68202000  0.09531000  0.98528000  1.0
  C  C123  1  0.31798000  0.59531000  0.01473000  1.0
  C  C124  1  0.31798000  0.09530000  0.48528000  1.0
  C  C125  1  0.68201000  0.59531000  0.51473000  1.0
  C  C126  1  0.31798000  0.90470000  0.01472000  1.0
  C  C127  1  0.68202000  0.40470000  0.98527000  1.0
  C  C128  1  0.11487000  0.75000000  0.36061000  1.0
  C  C129  1  0.88513000  0.25000000  0.63938000  1.0
  C  C130  1  0.11487000  0.25000000  0.13939000  1.0
  C  C131  1  0.88512000  0.74999000  0.86061000  1.0
  C  C132  1  0.83476000  0.04682000  0.53491000  1.0
  C  C133  1  0.16524000  0.54683000  0.46509000  1.0
  C  C134  1  0.83477000  0.95318000  0.96509000  1.0
  C  C135  1  0.16524000  0.45318000  0.03491000  1.0
  C  C136  1  0.16523000  0.95316000  0.46509000  1.0
  C  C137  1  0.83477000  0.45318000  0.53491000  1.0
  C  C138  1  0.16524000  0.04683000  0.03491000  1.0
  C  C139  1  0.83477000  0.54683000  0.96509000  1.0
  C  C140  1  0.22575000  0.74999000  0.26398000  1.0
  C  C141  1  0.77425000  0.25000000  0.73601000  1.0
  C  C142  1  0.22575000  0.25000000  0.23601000  1.0
  C  C143  1  0.77424000  0.74999000  0.76398000  1.0
  C  C144  1  0.96995000  0.05133000  0.50550000  1.0
  C  C145  1  0.03006000  0.55134000  0.49450000  1.0
  C  C146  1  0.96995000  0.94868000  0.99451000  1.0
  C  C147  1  0.03005000  0.44867000  0.00550000  1.0
  C  C148  1  0.03005000  0.94866000  0.49451000  1.0
  C  C149  1  0.96996000  0.44867000  0.50550000  1.0
  C  C150  1  0.03006000  0.05134000  0.00550000  1.0
  C  C151  1  0.96995000  0.55134000  0.99451000  1.0
  C  C152  1  0.36130000  0.75001000  0.35932000  1.0
  C  C153  1  0.63870000  0.25000000  0.64068000  1.0
  C  C154  1  0.36130000  0.24999000  0.14068000  1.0
  C  C155  1  0.63869000  0.75000000  0.85932000  1.0
  C  C156  1  0.66875000  0.75000000  0.14631000  1.0
  C  C157  1  0.33125000  0.25001000  0.85369000  1.0
  C  C158  1  0.66875000  0.25001000  0.35369000  1.0
  C  C159  1  0.33125000  0.74998000  0.64631000  1.0
  C  C160  1  0.10300000  0.75000000  0.23743000  1.0
  C  C161  1  0.89700000  0.25000000  0.76257000  1.0
  C  C162  1  0.10300000  0.25000000  0.26256000  1.0
  C  C163  1  0.89699000  0.74999000  0.73743000  1.0
  C  C164  1  0.61695000  0.94006000  0.42343000  1.0
  C  C165  1  0.38306000  0.44005000  0.57657000  1.0
  C  C166  1  0.61693000  0.05994000  0.07657000  1.0
  C  C167  1  0.38306000  0.55995000  0.92343000  1.0
  C  C168  1  0.38306000  0.05993000  0.57658000  1.0
  C  C169  1  0.61695000  0.55994000  0.42343000  1.0
  C  C170  1  0.38307000  0.94007000  0.92343000  1.0
  C  C171  1  0.61694000  0.44005000  0.07657000  1.0
  C  C172  1  0.70090000  0.01431000  0.44087000  1.0
  C  C173  1  0.29910000  0.51431000  0.55913000  1.0
  C  C174  1  0.70089000  0.98569000  0.05914000  1.0
  C  C175  1  0.29911000  0.48569000  0.94087000  1.0
  C  C176  1  0.29910000  0.98568000  0.55914000  1.0
  C  C177  1  0.70091000  0.48569000  0.44087000  1.0
  C  C178  1  0.29910000  0.01432000  0.94086000  1.0
  C  C179  1  0.70090000  0.51431000  0.05914000  1.0
  S  S180  1  0.06848000  0.75000000  0.15881000  1.0
  S  S181  1  0.93153000  0.25000000  0.84119000  1.0
  S  S182  1  0.06848000  0.25000000  0.34119000  1.0
  S  S183  1  0.93151000  0.74999000  0.65880000  1.0
  N  N184  1  0.60604000  0.87241000  0.46991000  1.0
  N  N185  1  0.39396000  0.37240000  0.53008000  1.0
  N  N186  1  0.60603000  0.12759000  0.03009000  1.0
  N  N187  1  0.39397000  0.62759000  0.96991000  1.0
  N  N188  1  0.39396000  0.12758000  0.53009000  1.0
  N  N189  1  0.60603000  0.62759000  0.46992000  1.0
  N  N190  1  0.39397000  0.87242000  0.96991000  1.0
  N  N191  1  0.60603000  0.37241000  0.03008000  1.0
  N  N192  1  0.74088000  0.99076000  0.49851000  1.0
  N  N193  1  0.25912000  0.49076000  0.50148000  1.0
  N  N194  1  0.74089000  0.00924000  0.00149000  1.0
  N  N195  1  0.25912000  0.50924000  0.99852000  1.0
  N  N196  1  0.25911000  0.00923000  0.50149000  1.0
  N  N197  1  0.74089000  0.50924000  0.49852000  1.0
  N  N198  1  0.25912000  0.99077000  0.99851000  1.0
  N  N199  1  0.74089000  0.49076000  0.00149000  1.0
  O  O200  1  0.44491000  0.74998000  0.11282000  1.0
  O  O201  1  0.55509000  0.25001000  0.88719000  1.0
  O  O202  1  0.44491000  0.25001000  0.38718000  1.0
  O  O203  1  0.55509000  0.74998000  0.61282000  1.0
  O  O204  1  0.10910000  0.84257000  0.13055000  1.0
  O  O205  1  0.89090000  0.34258000  0.86945000  1.0
  O  O206  1  0.10910000  0.15742000  0.36945000  1.0
  O  O207  1  0.89089000  0.65742000  0.63054000  1.0
  O  O208  1  0.89090000  0.15742000  0.86945000  1.0
  O  O209  1  0.10910000  0.65742000  0.13055000  1.0
  O  O210  1  0.89090000  0.84258000  0.63055000  1.0
  O  O211  1  0.10910000  0.34258000  0.36945000  1.0
  O  O212  1  0.34920000  0.74999000  0.41754000  1.0
  O  O213  1  0.65081000  0.24999000  0.58246000  1.0
  O  O214  1  0.34918000  0.24999000  0.08245000  1.0
  O  O215  1  0.65082000  0.75000000  0.91754000  1.0
  O  O216  1  0.61121000  0.75000000  0.04484000  1.0
  O  O217  1  0.38877000  0.25001000  0.95516000  1.0
  O  O218  1  0.61123000  0.24999000  0.45516000  1.0
  O  O219  1  0.38877000  0.75001000  0.54484000  1.0
  O  O220  1  0.46661000  0.75002000  0.33102000  1.0
  O  O221  1  0.53338000  0.25001000  0.66898000  1.0
  O  O222  1  0.46661000  0.24998000  0.16898000  1.0
  O  O223  1  0.53337000  0.75000000  0.83102000  1.0
