# generated using pymatgen
data_CdH2C2N4O3
_symmetry_space_group_name_H-M   'P 1'
_cell_length_a   8.86222000
_cell_length_b   8.86430000
_cell_length_c   10.20190000
_cell_angle_alpha   103.24100000
_cell_angle_beta   103.23600000
_cell_angle_gamma   118.21100000
_symmetry_Int_Tables_number   1
_chemical_formula_structural   CdH2C2N4O3
_chemical_formula_sum   'Cd4 H8 C8 N16 O12'
_cell_volume   632.10133526
_cell_formula_units_Z   4
loop_
 _symmetry_equiv_pos_site_id
 _symmetry_equiv_pos_as_xyz
  1  'x, y, z'
loop_
 _atom_site_type_symbol
 _atom_site_label
 _atom_site_symmetry_multiplicity
 _atom_site_fract_x
 _atom_site_fract_y
 _atom_site_fract_z
 _atom_site_occupancy
  Cd  Cd0  1  0.96306000  0.46309000  0.92606000  1.0
  Cd  Cd1  1  0.71296000  0.71300000  0.42605000  1.0
  Cd  Cd2  1  0.23714000  0.23712000  0.47428000  1.0
  Cd  Cd3  1  0.48716000  0.98715000  0.97425000  1.0
  H  H4  1  0.33949000  0.61164000  0.61087000  1.0
  H  H5  1  0.27150000  0.99927000  0.61085000  1.0
  H  H6  1  0.86154000  0.08933000  0.11091000  1.0
  H  H7  1  0.24935000  0.02148000  0.11097000  1.0
  H  H8  1  0.18792000  0.46573000  0.65690000  1.0
  H  H9  1  0.46911000  0.19124000  0.65693000  1.0
  H  H10  1  0.71559000  0.93777000  0.15694000  1.0
  H  H11  1  0.44130000  0.21907000  0.15698000  1.0
  C  C12  1  0.80501000  0.06336000  0.69176000  1.0
  C  C13  1  0.88668000  0.62831000  0.69165000  1.0
  C  C14  1  0.31327000  0.55494000  0.19176000  1.0
  C  C15  1  0.87847000  0.63690000  0.19182000  1.0
  C  C16  1  0.97292000  0.17780000  0.66473000  1.0
  C  C17  1  0.69181000  0.48684000  0.66467000  1.0
  C  C18  1  0.42788000  0.72285000  0.16484000  1.0
  C  C19  1  0.73695000  0.44205000  0.16488000  1.0
  N  N20  1  0.76234000  0.13195000  0.79771000  1.0
  N  N21  1  0.03532000  0.66572000  0.79762000  1.0
  N  N22  1  0.38177000  0.51225000  0.29773000  1.0
  N  N23  1  0.91591000  0.78554000  0.29777000  1.0
  N  N24  1  0.60009000  0.98922000  0.78270000  1.0
  N  N25  1  0.18255000  0.79349000  0.78263000  1.0
  N  N26  1  0.23903000  0.34998000  0.28264000  1.0
  N  N27  1  0.04359000  0.93271000  0.28267000  1.0
  N  N28  1  0.54623000  0.83818000  0.67192000  1.0
  N  N29  1  0.12560000  0.83372000  0.67182000  1.0
  N  N30  1  0.08799000  0.29612000  0.17182000  1.0
  N  N31  1  0.08382000  0.87573000  0.17186000  1.0
  N  N32  1  0.67298000  0.88214000  0.61300000  1.0
  N  N33  1  0.93994000  0.73077000  0.61287000  1.0
  N  N34  1  0.13200000  0.42291000  0.11296000  1.0
  N  N35  1  0.98094000  0.69011000  0.11301000  1.0
  O  O36  1  0.07957000  0.34859000  0.75142000  1.0
  O  O37  1  0.67192000  0.40287000  0.75145000  1.0
  O  O38  1  0.59866000  0.82948000  0.25154000  1.0
  O  O39  1  0.65287000  0.42213000  0.25158000  1.0
  O  O40  1  0.99156000  0.09518000  0.55672000  1.0
  O  O41  1  0.56515000  0.46140000  0.55663000  1.0
  O  O42  1  0.34532000  0.74131000  0.05665000  1.0
  O  O43  1  0.71144000  0.31541000  0.05675000  1.0
  O  O44  1  0.22195000  0.48617000  0.57299000  1.0
  O  O45  1  0.35119000  0.08689000  0.57300000  1.0
  O  O46  1  0.73602000  0.97184000  0.07303000  1.0
  O  O47  1  0.33700000  0.10110000  0.07309000  1.0
