# generated using pymatgen
data_Cu2H14C15N4
_symmetry_space_group_name_H-M   'P 1'
_cell_length_a   7.22227000
_cell_length_b   14.06120000
_cell_length_c   16.17100000
_cell_angle_alpha   68.65220000
_cell_angle_beta   80.65670000
_cell_angle_gamma   81.62540000
_symmetry_Int_Tables_number   1
_chemical_formula_structural   Cu2H14C15N4
_chemical_formula_sum   'Cu8 H56 C60 N16'
_cell_volume   1502.55064261
_cell_formula_units_Z   4
loop_
 _symmetry_equiv_pos_site_id
 _symmetry_equiv_pos_as_xyz
  1  'x, y, z'
loop_
 _atom_site_type_symbol
 _atom_site_label
 _atom_site_symmetry_multiplicity
 _atom_site_fract_x
 _atom_site_fract_y
 _atom_site_fract_z
 _atom_site_occupancy
  Cu  Cu0  1  0.66873000  0.06082000  0.16122000  1.0
  Cu  Cu1  1  0.33128000  0.93917000  0.83878000  1.0
  Cu  Cu2  1  0.76202000  0.39774000  0.93667000  1.0
  Cu  Cu3  1  0.23797000  0.60226000  0.06333000  1.0
  Cu  Cu4  1  0.04304000  0.57525000  0.63387000  1.0
  Cu  Cu5  1  0.95695000  0.42475000  0.36613000  1.0
  Cu  Cu6  1  0.19661000  0.89659000  0.40182000  1.0
  Cu  Cu7  1  0.80340000  0.10341000  0.59818000  1.0
  H  H8  1  0.34165000  0.96546000  0.03878000  1.0
  H  H9  1  0.65836000  0.03453000  0.96123000  1.0
  H  H10  1  0.04137000  0.07522000  0.04638000  1.0
  H  H11  1  0.95864000  0.92478000  0.95363000  1.0
  H  H12  1  0.83044000  0.86226000  0.28337000  1.0
  H  H13  1  0.16955000  0.13774000  0.71663000  1.0
  H  H14  1  0.12312000  0.74277000  0.28706000  1.0
  H  H15  1  0.87687000  0.25723000  0.71293000  1.0
  H  H16  1  0.39910000  0.70604000  0.14899000  1.0
  H  H17  1  0.60090000  0.29395000  0.85101000  1.0
  H  H18  1  0.47477000  0.74034000  0.23199000  1.0
  H  H19  1  0.52524000  0.25965000  0.76801000  1.0
  H  H20  1  0.56604000  0.84840000  0.02915000  1.0
  H  H21  1  0.43395000  0.15160000  0.97085000  1.0
  H  H22  1  0.63797000  0.88451000  0.11272000  1.0
  H  H23  1  0.36202000  0.11549000  0.88728000  1.0
  H  H24  1  0.90391000  0.78305000  0.06787000  1.0
  H  H25  1  0.09608000  0.21695000  0.93212000  1.0
  H  H26  1  0.80713000  0.70284000  0.17267000  1.0
  H  H27  1  0.19288000  0.29716000  0.82733000  1.0
  H  H28  1  0.84571000  0.75935000  0.92556000  1.0
  H  H29  1  0.15430000  0.24065000  0.07444000  1.0
  H  H30  1  0.82581000  0.62270000  0.86316000  1.0
  H  H31  1  0.17420000  0.37730000  0.13684000  1.0
  H  H32  1  0.65548000  0.41852000  0.11329000  1.0
  H  H33  1  0.34452000  0.58148000  0.88671000  1.0
  H  H34  1  0.67476000  0.54415000  0.18683000  1.0
  H  H35  1  0.32526000  0.45585000  0.81317000  1.0
  H  H36  1  0.36849000  0.49769000  0.35660000  1.0
  H  H37  1  0.63151000  0.50232000  0.64340000  1.0
  H  H38  1  0.22805000  0.60714000  0.44655000  1.0
  H  H39  1  0.77196000  0.39286000  0.55345000  1.0
  H  H40  1  0.19617000  0.35642000  0.68126000  1.0
  H  H41  1  0.80381000  0.64358000  0.31874000  1.0
  H  H42  1  0.35004000  0.23665000  0.60203000  1.0
  H  H43  1  0.64995000  0.76335000  0.39797000  1.0
  H  H44  1  0.54955000  0.22912000  0.45861000  1.0
  H  H45  1  0.45045000  0.77089000  0.54139000  1.0
  H  H46  1  0.31752000  0.23488000  0.43455000  1.0
  H  H47  1  0.68248000  0.76513000  0.56544000  1.0
  H  H48  1  0.62703000  0.36577000  0.31188000  1.0
  H  H49  1  0.37297000  0.63423000  0.68812000  1.0
  H  H50  1  0.38792000  0.38493000  0.29060000  1.0
  H  H51  1  0.61208000  0.61507000  0.70940000  1.0
  H  H52  1  0.40306000  0.20507000  0.29483000  1.0
  H  H53  1  0.59694000  0.79493000  0.70517000  1.0
  H  H54  1  0.55859000  0.27963000  0.20729000  1.0
  H  H55  1  0.44142000  0.72037000  0.79271000  1.0
  H  H56  1  0.90804000  0.25217000  0.21625000  1.0
  H  H57  1  0.09197000  0.74782000  0.78376000  1.0
  H  H58  1  0.17000000  0.11715000  0.27305000  1.0
  H  H59  1  0.83000000  0.88284000  0.72696000  1.0
  H  H60  1  0.80544000  0.93602000  0.47325000  1.0
  H  H61  1  0.19455000  0.06398000  0.52675000  1.0
  H  H62  1  0.52627000  0.05881000  0.42042000  1.0
  H  H63  1  0.47373000  0.94119000  0.57958000  1.0
  C  C64  1  0.49456000  0.99126000  0.25042000  1.0
  C  C65  1  0.50543000  0.00874000  0.74959000  1.0
  C  C66  1  0.72147000  0.26934000  0.01711000  1.0
  C  C67  1  0.27852000  0.73065000  0.98290000  1.0
  C  C68  1  0.92821000  0.50571000  0.74518000  1.0
  C  C69  1  0.07177000  0.49429000  0.25482000  1.0
  C  C70  1  0.11846000  0.78205000  0.49285000  1.0
  C  C71  1  0.88154000  0.21796000  0.50714000  1.0
  C  C72  1  0.23344000  0.93868000  0.09491000  1.0
  C  C73  1  0.76657000  0.06131000  0.90509000  1.0
  C  C74  1  0.06592000  0.00063000  0.09836000  1.0
  C  C75  1  0.93408000  0.99936000  0.90164000  1.0
  C  C76  1  0.94809000  0.88167000  0.23049000  1.0
  C  C77  1  0.05190000  0.11832000  0.76951000  1.0
  C  C78  1  0.11126000  0.81577000  0.23188000  1.0
  C  C79  1  0.88874000  0.18423000  0.76813000  1.0
  C  C80  1  0.25969000  0.84329000  0.16261000  1.0
  C  C81  1  0.74031000  0.15670000  0.83739000  1.0
  C  C82  1  0.43588000  0.77177000  0.16322000  1.0
  C  C83  1  0.56412000  0.22822000  0.83678000  1.0
  C  C84  1  0.60347000  0.81891000  0.09798000  1.0
  C  C85  1  0.39653000  0.18109000  0.90202000  1.0
  C  C86  1  0.77955000  0.74197000  0.10277000  1.0
  C  C87  1  0.22046000  0.25804000  0.89723000  1.0
  C  C88  1  0.76341000  0.66322000  0.06234000  1.0
  C  C89  1  0.23660000  0.33679000  0.93766000  1.0
  C  C90  1  0.80336000  0.68447000  0.96994000  1.0
  C  C91  1  0.19665000  0.31554000  0.03006000  1.0
  C  C92  1  0.79180000  0.60930000  0.93459000  1.0
  C  C93  1  0.20820000  0.39070000  0.06541000  1.0
  C  C94  1  0.69722000  0.49512000  0.07417000  1.0
  C  C95  1  0.30279000  0.50488000  0.92584000  1.0
  C  C96  1  0.70648000  0.56601000  0.11447000  1.0
  C  C97  1  0.29354000  0.43399000  0.88553000  1.0
  C  C98  1  0.33443000  0.46235000  0.42861000  1.0
  C  C99  1  0.66557000  0.53765000  0.57139000  1.0
  C  C100  1  0.25491000  0.52415000  0.47822000  1.0
  C  C101  1  0.74508000  0.47586000  0.52178000  1.0
  C  C102  1  0.23919000  0.38444000  0.60923000  1.0
  C  C103  1  0.76080000  0.61556000  0.39077000  1.0
  C  C104  1  0.32150000  0.31830000  0.56487000  1.0
  C  C105  1  0.67849000  0.68170000  0.43513000  1.0
  C  C106  1  0.36637000  0.35622000  0.47157000  1.0
  C  C107  1  0.63362000  0.64378000  0.52844000  1.0
  C  C108  1  0.43535000  0.28183000  0.42381000  1.0
  C  C109  1  0.56465000  0.71817000  0.57619000  1.0
  C  C110  1  0.49758000  0.32716000  0.32378000  1.0
  C  C111  1  0.50242000  0.67284000  0.67623000  1.0
  C  C112  1  0.53194000  0.24429000  0.28037000  1.0
  C  C113  1  0.46807000  0.75571000  0.71963000  1.0
  C  C114  1  0.69363000  0.16681000  0.31361000  1.0
  C  C115  1  0.30637000  0.83320000  0.68639000  1.0
  C  C116  1  0.87880000  0.18291000  0.27344000  1.0
  C  C117  1  0.12120000  0.81709000  0.72656000  1.0
  C  C118  1  0.02513000  0.10892000  0.30517000  1.0
  C  C119  1  0.97487000  0.89108000  0.69483000  1.0
  C  C120  1  0.82111000  0.00735000  0.41640000  1.0
  C  C121  1  0.17888000  0.99265000  0.58360000  1.0
  C  C122  1  0.66731000  0.07664000  0.38736000  1.0
  C  C123  1  0.33269000  0.92337000  0.61264000  1.0
  N  N124  1  0.06946000  0.70784000  0.55134000  1.0
  N  N125  1  0.93054000  0.29216000  0.44865000  1.0
  N  N126  1  0.84980000  0.46005000  0.81547000  1.0
  N  N127  1  0.15019000  0.53995000  0.18452000  1.0
  N  N128  1  0.70007000  0.18669000  0.06995000  1.0
  N  N129  1  0.29993000  0.81331000  0.93004000  1.0
  N  N130  1  0.39461000  0.94534000  0.31316000  1.0
  N  N131  1  0.60539000  0.05467000  0.68683000  1.0
  N  N132  1  0.92352000  0.97325000  0.16454000  1.0
  N  N133  1  0.07648000  0.02675000  0.83546000  1.0
  N  N134  1  0.74166000  0.51497000  0.98562000  1.0
  N  N135  1  0.25835000  0.48503000  0.01438000  1.0
  N  N136  1  0.20356000  0.48640000  0.56699000  1.0
  N  N137  1  0.79644000  0.51360000  0.43301000  1.0
  N  N138  1  0.99798000  0.02160000  0.37521000  1.0
  N  N139  1  0.00201000  0.97840000  0.62479000  1.0
