# generated using pymatgen
data_ZnH6C10N3O2
_symmetry_space_group_name_H-M   'P 1'
_cell_length_a   9.23213000
_cell_length_b   9.83726000
_cell_length_c   10.74300000
_cell_angle_alpha   90.00000000
_cell_angle_beta   95.89920000
_cell_angle_gamma   90.00000000
_symmetry_Int_Tables_number   1
_chemical_formula_structural   ZnH6C10N3O2
_chemical_formula_sum   'Zn4 H24 C40 N12 O8'
_cell_volume   970.50016042
_cell_formula_units_Z   4
loop_
 _symmetry_equiv_pos_site_id
 _symmetry_equiv_pos_as_xyz
  1  'x, y, z'
loop_
 _atom_site_type_symbol
 _atom_site_label
 _atom_site_symmetry_multiplicity
 _atom_site_fract_x
 _atom_site_fract_y
 _atom_site_fract_z
 _atom_site_occupancy
  Zn  Zn0  1  0.77902000  0.27232000  0.13974000  1.0
  Zn  Zn1  1  0.72098000  0.77232000  0.86026000  1.0
  Zn  Zn2  1  0.22098000  0.72768000  0.86026000  1.0
  Zn  Zn3  1  0.27902000  0.22768000  0.13974000  1.0
  H  H4  1  0.96033000  0.93238000  0.67774000  1.0
  H  H5  1  0.53967000  0.43238000  0.32226000  1.0
  H  H6  1  0.03967000  0.06762000  0.32226000  1.0
  H  H7  1  0.46033000  0.56762000  0.67774000  1.0
  H  H8  1  0.09967000  0.13281000  0.61311000  1.0
  H  H9  1  0.40033000  0.63281000  0.38689000  1.0
  H  H10  1  0.90033000  0.86719000  0.38689000  1.0
  H  H11  1  0.59967000  0.36719000  0.61311000  1.0
  H  H12  1  0.10782000  0.34670000  0.73108000  1.0
  H  H13  1  0.39218000  0.84670000  0.26892000  1.0
  H  H14  1  0.89218000  0.65331000  0.26892000  1.0
  H  H15  1  0.60782000  0.15331000  0.73108000  1.0
  H  H16  1  0.97408000  0.37356000  0.92083000  1.0
  H  H17  1  0.52592000  0.87356000  0.07917000  1.0
  H  H18  1  0.02591000  0.62644000  0.07917000  1.0
  H  H19  1  0.47409000  0.12644000  0.92083000  1.0
  H  H20  1  0.75953000  0.02162000  0.46198000  1.0
  H  H21  1  0.74047000  0.52162000  0.53802000  1.0
  H  H22  1  0.24048000  0.97838000  0.53803000  1.0
  H  H23  1  0.25952000  0.47838000  0.46197000  1.0
  H  H24  1  0.30910000  0.11855000  0.36133000  1.0
  H  H25  1  0.19090000  0.61855000  0.63867000  1.0
  H  H26  1  0.69090000  0.88145000  0.63867000  1.0
  H  H27  1  0.80909000  0.38145000  0.36133000  1.0
  C  C28  1  0.88779000  0.04200000  0.83703000  1.0
  C  C29  1  0.61221000  0.54200000  0.16297000  1.0
  C  C30  1  0.11221000  0.95800000  0.16297000  1.0
  C  C31  1  0.38779000  0.45800000  0.83703000  1.0
  C  C32  1  0.96202000  0.02723000  0.73000000  1.0
  C  C33  1  0.53799000  0.52723000  0.27000000  1.0
  C  C34  1  0.03799000  0.97277000  0.27000000  1.0
  C  C35  1  0.46201000  0.47277000  0.73000000  1.0
  C  C36  1  0.03975000  0.13915000  0.69515000  1.0
  C  C37  1  0.46025000  0.63915000  0.30485000  1.0
  C  C38  1  0.96025000  0.86085000  0.30485000  1.0
  C  C39  1  0.53975000  0.36085000  0.69515000  1.0
  C  C40  1  0.04485000  0.26253000  0.76323000  1.0
  C  C41  1  0.45515000  0.76253000  0.23677000  1.0
  C  C42  1  0.95515000  0.73747000  0.23677000  1.0
  C  C43  1  0.54485000  0.23747000  0.76323000  1.0
  C  C44  1  0.97191000  0.27847000  0.86873000  1.0
  C  C45  1  0.52809000  0.77847000  0.13127000  1.0
  C  C46  1  0.02809000  0.72153000  0.13127000  1.0
  C  C47  1  0.47191000  0.22153000  0.86873000  1.0
  C  C48  1  0.89344000  0.16545000  0.90484000  1.0
  C  C49  1  0.60656000  0.66545000  0.09516000  1.0
  C  C50  1  0.10656000  0.83455000  0.09516000  1.0
  C  C51  1  0.39344000  0.33455000  0.90484000  1.0
  C  C52  1  0.58345000  0.15291000  0.28830000  1.0
  C  C53  1  0.91655000  0.65291000  0.71170000  1.0
  C  C54  1  0.41656000  0.84708000  0.71171000  1.0
  C  C55  1  0.08345000  0.34708000  0.28829000  1.0
  C  C56  1  0.53902000  0.07666000  0.39839000  1.0
  C  C57  1  0.96098000  0.57666000  0.60161000  1.0
  C  C58  1  0.46098000  0.92334000  0.60161000  1.0
  C  C59  1  0.03902000  0.42334000  0.39839000  1.0
  C  C60  1  0.64601000  0.01136000  0.47916000  1.0
  C  C61  1  0.85399000  0.51136000  0.52084000  1.0
  C  C62  1  0.35400000  0.98864000  0.52084000  1.0
  C  C63  1  0.14600000  0.48864000  0.47916000  1.0
  C  C64  1  0.39272000  0.06527000  0.42088000  1.0
  C  C65  1  0.10728000  0.56527000  0.57911000  1.0
  C  C66  1  0.60728000  0.93473000  0.57912000  1.0
  C  C67  1  0.89272000  0.43473000  0.42088000  1.0
  N  N68  1  0.80979000  0.14621000  0.00187000  1.0
  N  N69  1  0.69021000  0.64621000  0.99814000  1.0
  N  N70  1  0.19021000  0.85379000  0.99814000  1.0
  N  N71  1  0.30979000  0.35379000  0.00187000  1.0
  N  N72  1  0.75468000  0.02131000  0.99574000  1.0
  N  N73  1  0.74532000  0.52131000  0.00426000  1.0
  N  N74  1  0.24532000  0.97869000  0.00425000  1.0
  N  N75  1  0.25468000  0.47869000  0.99575000  1.0
  N  N76  1  0.79994000  0.95654000  0.89740000  1.0
  N  N77  1  0.70006000  0.45654000  0.10260000  1.0
  N  N78  1  0.20006000  0.04346000  0.10260000  1.0
  N  N79  1  0.29994000  0.54346000  0.89740000  1.0
  O  O80  1  0.72031000  0.17620000  0.28814000  1.0
  O  O81  1  0.77969000  0.67619000  0.71186000  1.0
  O  O82  1  0.27970000  0.82380000  0.71186000  1.0
  O  O83  1  0.22030000  0.32380000  0.28814000  1.0
  O  O84  1  0.49237000  0.19221000  0.19912000  1.0
  O  O85  1  0.00763000  0.69221000  0.80088000  1.0
  O  O86  1  0.50763000  0.80779000  0.80089000  1.0
  O  O87  1  0.99237000  0.30779000  0.19911000  1.0
