# generated using pymatgen
data_ZnH7C10NO5
_symmetry_space_group_name_H-M   'P 1'
_cell_length_a   8.24930000
_cell_length_b   9.28389000
_cell_length_c   10.87060000
_cell_angle_alpha   97.55720000
_cell_angle_beta   92.78360000
_cell_angle_gamma   90.14430000
_symmetry_Int_Tables_number   1
_chemical_formula_structural   ZnH7C10NO5
_chemical_formula_sum   'Zn2 H14 C20 N2 O10'
_cell_volume   824.29290689
_cell_formula_units_Z   2
loop_
 _symmetry_equiv_pos_site_id
 _symmetry_equiv_pos_as_xyz
  1  'x, y, z'
loop_
 _atom_site_type_symbol
 _atom_site_label
 _atom_site_symmetry_multiplicity
 _atom_site_fract_x
 _atom_site_fract_y
 _atom_site_fract_z
 _atom_site_occupancy
  Zn  Zn0  1  0.65866000  0.50268000  0.50968000  1.0
  Zn  Zn1  1  0.34093000  0.49736000  0.49025000  1.0
  H  H2  1  0.61912000  0.86069000  0.04109000  1.0
  H  H3  1  0.65988000  0.21882000  0.81179000  1.0
  H  H4  1  0.81360000  0.35485000  0.83248000  1.0
  H  H5  1  0.21320000  0.75986000  0.05010000  1.0
  H  H6  1  0.18680000  0.64508000  0.16750000  1.0
  H  H7  1  0.34047000  0.78114000  0.18818000  1.0
  H  H8  1  0.38136000  0.13927000  0.95883000  1.0
  H  H9  1  0.89746000  0.60512000  0.02157000  1.0
  H  H10  1  0.82522000  0.66683000  0.17122000  1.0
  H  H11  1  0.88258000  0.48320000  0.13470000  1.0
  H  H12  1  0.10296000  0.39489000  0.97840000  1.0
  H  H13  1  0.11783000  0.51680000  0.86529000  1.0
  H  H14  1  0.17516000  0.33316000  0.82875000  1.0
  H  H15  1  0.78716000  0.24007000  0.94988000  1.0
  C  C16  1  0.50048000  0.78034000  0.50619000  1.0
  C  C17  1  0.46173000  0.36364000  0.02268000  1.0
  C  C18  1  0.48983000  0.50676000  0.87481000  1.0
  C  C19  1  0.51065000  0.49323000  0.12520000  1.0
  C  C20  1  0.49938000  0.93533000  0.50330000  1.0
  C  C21  1  0.49887000  0.06474000  0.49691000  1.0
  C  C22  1  0.56653000  0.78851000  0.95821000  1.0
  C  C23  1  0.43383000  0.21146000  0.04176000  1.0
  C  C24  1  0.82423000  0.57499000  0.09628000  1.0
  C  C25  1  0.17617000  0.42500000  0.90368000  1.0
  C  C26  1  0.72341000  0.29922000  0.88098000  1.0
  C  C27  1  0.49766000  0.21971000  0.49386000  1.0
  C  C28  1  0.27697000  0.70073000  0.11900000  1.0
  C  C29  1  0.51023000  0.48423000  0.26073000  1.0
  C  C30  1  0.49050000  0.51577000  0.73928000  1.0
  C  C31  1  0.65483000  0.53546000  0.04776000  1.0
  C  C32  1  0.34560000  0.46452000  0.95223000  1.0
  C  C33  1  0.60798000  0.40643000  0.94275000  1.0
  C  C34  1  0.39246000  0.59355000  0.05726000  1.0
  C  C35  1  0.53872000  0.63633000  0.97731000  1.0
  N  N36  1  0.06548000  0.49891000  0.49149000  1.0
  N  N37  1  0.93409000  0.50119000  0.50862000  1.0
  O  O38  1  0.63951000  0.72177000  0.51345000  1.0
  O  O39  1  0.47000000  0.16159000  0.13848000  1.0
  O  O40  1  0.35861000  0.27818000  0.48628000  1.0
  O  O41  1  0.63588000  0.28298000  0.50152000  1.0
  O  O42  1  0.36223000  0.71712000  0.49866000  1.0
  O  O43  1  0.64660000  0.48641000  0.32170000  1.0
  O  O44  1  0.35421000  0.51335000  0.67822000  1.0
  O  O45  1  0.63040000  0.52070000  0.69416000  1.0
  O  O46  1  0.37036000  0.47958000  0.30597000  1.0
  O  O47  1  0.53017000  0.83841000  0.86152000  1.0
