# generated using pymatgen
data_SnH13C6SN3
_symmetry_space_group_name_H-M   'P 1'
_cell_length_a   6.68051000
_cell_length_b   11.01310000
_cell_length_c   13.61840000
_cell_angle_alpha   90.00050000
_cell_angle_beta   90.00050000
_cell_angle_gamma   89.99930000
_symmetry_Int_Tables_number   1
_chemical_formula_structural   SnH13C6SN3
_chemical_formula_sum   'Sn4 H52 C24 S4 N12'
_cell_volume   1001.94824100
_cell_formula_units_Z   4
loop_
 _symmetry_equiv_pos_site_id
 _symmetry_equiv_pos_as_xyz
  1  'x, y, z'
loop_
 _atom_site_type_symbol
 _atom_site_label
 _atom_site_symmetry_multiplicity
 _atom_site_fract_x
 _atom_site_fract_y
 _atom_site_fract_z
 _atom_site_occupancy
  Sn  Sn0  1  0.49955000  0.14911000  0.69234000  1.0
  Sn  Sn1  1  0.99954000  0.85088000  0.30766000  1.0
  Sn  Sn2  1  0.49954000  0.35089000  0.19233000  1.0
  Sn  Sn3  1  0.99954000  0.64912000  0.80767000  1.0
  H  H4  1  0.21218000  0.45012000  0.61021000  1.0
  H  H5  1  0.71217000  0.54987000  0.38979000  1.0
  H  H6  1  0.21219000  0.04988000  0.11021000  1.0
  H  H7  1  0.71218000  0.95012000  0.88980000  1.0
  H  H8  1  0.95111000  0.36534000  0.40599000  1.0
  H  H9  1  0.45110000  0.63467000  0.59401000  1.0
  H  H10  1  0.95113000  0.13467000  0.90599000  1.0
  H  H11  1  0.45111000  0.86533000  0.09401000  1.0
  H  H12  1  0.90166000  0.22766000  0.47112000  1.0
  H  H13  1  0.40164000  0.77234000  0.52888000  1.0
  H  H14  1  0.90166000  0.27235000  0.97113000  1.0
  H  H15  1  0.40166000  0.72766000  0.02888000  1.0
  H  H16  1  0.14654000  0.29638000  0.47481000  1.0
  H  H17  1  0.64653000  0.70362000  0.52519000  1.0
  H  H18  1  0.14655000  0.20362000  0.97481000  1.0
  H  H19  1  0.64654000  0.79638000  0.02519000  1.0
  H  H20  1  0.25123000  0.97074000  0.62492000  1.0
  H  H21  1  0.75123000  0.02926000  0.37508000  1.0
  H  H22  1  0.25121000  0.52925000  0.12492000  1.0
  H  H23  1  0.75123000  0.47075000  0.87508000  1.0
  H  H24  1  0.44886000  0.99955000  0.53748000  1.0
  H  H25  1  0.94886000  0.00045000  0.46252000  1.0
  H  H26  1  0.44884000  0.50045000  0.03747000  1.0
  H  H27  1  0.94886000  0.49956000  0.96252000  1.0
  H  H28  1  0.23876000  0.09886000  0.54350000  1.0
  H  H29  1  0.73877000  0.90114000  0.45650000  1.0
  H  H30  1  0.23876000  0.40113000  0.04350000  1.0
  H  H31  1  0.73877000  0.59887000  0.95650000  1.0
  H  H32  1  0.41174000  0.25097000  0.86684000  1.0
  H  H33  1  0.91174000  0.74902000  0.13316000  1.0
  H  H34  1  0.41175000  0.24903000  0.36683000  1.0
  H  H35  1  0.91175000  0.75097000  0.63316000  1.0
  H  H36  1  0.20815000  0.28195000  0.78384000  1.0
  H  H37  1  0.70815000  0.71805000  0.21616000  1.0
  H  H38  1  0.20814000  0.21806000  0.28383000  1.0
  H  H39  1  0.70815000  0.78194000  0.71616000  1.0
  H  H40  1  0.43695000  0.36731000  0.77541000  1.0
  H  H41  1  0.93695000  0.63268000  0.22459000  1.0
  H  H42  1  0.43694000  0.13268000  0.27540000  1.0
  H  H43  1  0.93696000  0.86732000  0.72459000  1.0
  H  H44  1  0.88535000  0.21674000  0.72406000  1.0
  H  H45  1  0.38534000  0.78326000  0.27594000  1.0
  H  H46  1  0.88534000  0.28326000  0.22405000  1.0
  H  H47  1  0.38535000  0.71674000  0.77594000  1.0
  H  H48  1  0.87879000  0.10593000  0.62827000  1.0
  H  H49  1  0.37880000  0.89407000  0.37174000  1.0
  H  H50  1  0.87879000  0.39407000  0.12826000  1.0
  H  H51  1  0.37880000  0.60594000  0.87174000  1.0
  H  H52  1  0.86531000  0.05913000  0.75283000  1.0
  H  H53  1  0.36531000  0.94086000  0.24717000  1.0
  H  H54  1  0.86531000  0.44086000  0.25283000  1.0
  H  H55  1  0.36532000  0.55914000  0.74717000  1.0
  C  C56  1  0.73558000  0.39539000  0.59617000  1.0
  C  C57  1  0.23558000  0.60460000  0.40383000  1.0
  C  C58  1  0.73559000  0.10460000  0.09616000  1.0
  C  C59  1  0.23558000  0.89539000  0.90383000  1.0
  C  C60  1  0.05042000  0.44644000  0.61913000  1.0
  C  C61  1  0.55041000  0.55356000  0.38087000  1.0
  C  C62  1  0.05042000  0.05355000  0.11912000  1.0
  C  C63  1  0.55042000  0.94645000  0.88089000  1.0
  C  C64  1  0.98532000  0.31328000  0.47259000  1.0
  C  C65  1  0.48530000  0.68672000  0.52741000  1.0
  C  C66  1  0.98532000  0.18671000  0.97259000  1.0
  C  C67  1  0.48532000  0.81328000  0.02741000  1.0
  C  C68  1  0.33819000  0.04070000  0.58685000  1.0
  C  C69  1  0.83820000  0.95930000  0.41315000  1.0
  C  C70  1  0.33818000  0.45930000  0.08684000  1.0
  C  C71  1  0.83820000  0.54070000  0.91315000  1.0
  C  C72  1  0.37112000  0.27865000  0.79210000  1.0
  C  C73  1  0.87111000  0.72134000  0.20790000  1.0
  C  C74  1  0.37111000  0.22135000  0.29209000  1.0
  C  C75  1  0.87113000  0.77865000  0.70790000  1.0
  C  C76  1  0.82035000  0.12996000  0.70089000  1.0
  C  C77  1  0.32035000  0.87004000  0.29912000  1.0
  C  C78  1  0.82036000  0.37004000  0.20088000  1.0
  C  C79  1  0.32035000  0.62996000  0.79912000  1.0
  S  S80  1  0.53154000  0.32240000  0.54751000  1.0
  S  S81  1  0.03152000  0.67759000  0.45249000  1.0
  S  S82  1  0.53154000  0.17759000  0.04751000  1.0
  S  S83  1  0.03153000  0.82241000  0.95249000  1.0
  N  N84  1  0.92851000  0.38138000  0.55948000  1.0
  N  N85  1  0.42850000  0.61862000  0.44053000  1.0
  N  N86  1  0.92853000  0.11861000  0.05947000  1.0
  N  N87  1  0.42851000  0.88138000  0.94053000  1.0
  N  N88  1  0.94138000  0.49740000  0.68893000  1.0
  N  N89  1  0.44136000  0.50259000  0.31107000  1.0
  N  N90  1  0.94138000  0.00259000  0.18892000  1.0
  N  N91  1  0.44137000  0.99742000  0.81109000  1.0
  N  N92  1  0.74290000  0.46724000  0.67505000  1.0
  N  N93  1  0.24288000  0.53275000  0.32495000  1.0
  N  N94  1  0.74290000  0.03275000  0.17504000  1.0
  N  N95  1  0.24290000  0.96724000  0.82496000  1.0
