# generated using pymatgen
data_MnH14C14(NO2)2
_symmetry_space_group_name_H-M   'P 1'
_cell_length_a   7.80776000
_cell_length_b   9.21856000
_cell_length_c   10.80660000
_cell_angle_alpha   109.51400000
_cell_angle_beta   101.35600000
_cell_angle_gamma   100.60400000
_symmetry_Int_Tables_number   1
_chemical_formula_structural   MnH14C14(NO2)2
_chemical_formula_sum   'Mn2 H28 C28 N4 O8'
_cell_volume   692.03052904
_cell_formula_units_Z   2
loop_
 _symmetry_equiv_pos_site_id
 _symmetry_equiv_pos_as_xyz
  1  'x, y, z'
loop_
 _atom_site_type_symbol
 _atom_site_label
 _atom_site_symmetry_multiplicity
 _atom_site_fract_x
 _atom_site_fract_y
 _atom_site_fract_z
 _atom_site_occupancy
  Mn  Mn0  1  0.33226000  0.02114000  0.84616000  1.0
  Mn  Mn1  1  0.66773000  0.97886000  0.15384000  1.0
  H  H2  1  0.04784000  0.27902000  0.60072000  1.0
  H  H3  1  0.95218000  0.72099000  0.39929000  1.0
  H  H4  1  0.88557000  0.23652000  0.68919000  1.0
  H  H5  1  0.11443000  0.76350000  0.31081000  1.0
  H  H6  1  0.88090000  0.09059000  0.53294000  1.0
  H  H7  1  0.11910000  0.90943000  0.46706000  1.0
  H  H8  1  0.02619000  0.59377000  0.90906000  1.0
  H  H9  1  0.97381000  0.40623000  0.09094000  1.0
  H  H10  1  0.03299000  0.71470000  0.07826000  1.0
  H  H11  1  0.96701000  0.28529000  0.92174000  1.0
  H  H12  1  0.18274000  0.59109000  0.05444000  1.0
  H  H13  1  0.81727000  0.40891000  0.94556000  1.0
  H  H14  1  0.55973000  0.97113000  0.63211000  1.0
  H  H15  1  0.44030000  0.02887000  0.36790000  1.0
  H  H16  1  0.56109000  0.76983000  0.41239000  1.0
  H  H17  1  0.43894000  0.23016000  0.58762000  1.0
  H  H18  1  0.14962000  0.43440000  0.47290000  1.0
  H  H19  1  0.85037000  0.56561000  0.52709000  1.0
  H  H20  1  0.16644000  0.65301000  0.68864000  1.0
  H  H21  1  0.83355000  0.34699000  0.31135000  1.0
  H  H22  1  0.51707000  0.38482000  0.01557000  1.0
  H  H23  1  0.48290000  0.61519000  0.98442000  1.0
  H  H24  1  0.53624000  0.60519000  0.22924000  1.0
  H  H25  1  0.46373000  0.39481000  0.77075000  1.0
  H  H26  1  0.15058000  0.26010000  0.30407000  1.0
  H  H27  1  0.84944000  0.73988000  0.69594000  1.0
  H  H28  1  0.14704000  0.06232000  0.08960000  1.0
  H  H29  1  0.85297000  0.93767000  0.91041000  1.0
  C  C30  1  0.09816000  0.11928000  0.70303000  1.0
  C  C31  1  0.90183000  0.88072000  0.29697000  1.0
  C  C32  1  0.97198000  0.18669000  0.62700000  1.0
  C  C33  1  0.02802000  0.81332000  0.37300000  1.0
  C  C34  1  0.25529000  0.80245000  0.01251000  1.0
  C  C35  1  0.74471000  0.19755000  0.98749000  1.0
  C  C36  1  0.11571000  0.66549000  0.01206000  1.0
  C  C37  1  0.88429000  0.33451000  0.98794000  1.0
  C  C38  1  0.46874000  0.85075000  0.59100000  1.0
  C  C39  1  0.53128000  0.14925000  0.40900000  1.0
  C  C40  1  0.46895000  0.73645000  0.46834000  1.0
  C  C41  1  0.53107000  0.26354000  0.53166000  1.0
  C  C42  1  0.35209000  0.58146000  0.41998000  1.0
  C  C43  1  0.64792000  0.41854000  0.58002000  1.0
  C  C44  1  0.24185000  0.55168000  0.50186000  1.0
  C  C45  1  0.75814000  0.44832000  0.49814000  1.0
  C  C46  1  0.24957000  0.67286000  0.62261000  1.0
  C  C47  1  0.75043000  0.32715000  0.37739000  1.0
  C  C48  1  0.43746000  0.36381000  0.08326000  1.0
  C  C49  1  0.56253000  0.63619000  0.91673000  1.0
  C  C50  1  0.44720000  0.48686000  0.20356000  1.0
  C  C51  1  0.55279000  0.51314000  0.79643000  1.0
  C  C52  1  0.34471000  0.45521000  0.28980000  1.0
  C  C53  1  0.65530000  0.54478000  0.71020000  1.0
  C  C54  1  0.23517000  0.29861000  0.24596000  1.0
  C  C55  1  0.76484000  0.70138000  0.75405000  1.0
  C  C56  1  0.23267000  0.18334000  0.12321000  1.0
  C  C57  1  0.76733000  0.81665000  0.87680000  1.0
  N  N58  1  0.36010000  0.82140000  0.66744000  1.0
  N  N59  1  0.63990000  0.17860000  0.33255000  1.0
  N  N60  1  0.33315000  0.21328000  0.04236000  1.0
  N  N61  1  0.66684000  0.78672000  0.95763000  1.0
  O  O62  1  0.03400000  0.01834000  0.75005000  1.0
  O  O63  1  0.96596000  0.98166000  0.24994000  1.0
  O  O64  1  0.26971000  0.16517000  0.71954000  1.0
  O  O65  1  0.73028000  0.83483000  0.28048000  1.0
  O  O66  1  0.22684000  0.83949000  0.90826000  1.0
  O  O67  1  0.77316000  0.16051000  0.09174000  1.0
  O  O68  1  0.39123000  0.87251000  0.11771000  1.0
  O  O69  1  0.60877000  0.12749000  0.88229000  1.0
