# generated using pymatgen
data_SnH14(C2O)3
_symmetry_space_group_name_H-M   'P 1'
_cell_length_a   6.34539000
_cell_length_b   7.82808000
_cell_length_c   9.95130000
_cell_angle_alpha   103.35100000
_cell_angle_beta   104.55100000
_cell_angle_gamma   97.97830000
_symmetry_Int_Tables_number   1
_chemical_formula_structural   SnH14(C2O)3
_chemical_formula_sum   'Sn2 H28 C12 O6'
_cell_volume   455.23836448
_cell_formula_units_Z   2
loop_
 _symmetry_equiv_pos_site_id
 _symmetry_equiv_pos_as_xyz
  1  'x, y, z'
loop_
 _atom_site_type_symbol
 _atom_site_label
 _atom_site_symmetry_multiplicity
 _atom_site_fract_x
 _atom_site_fract_y
 _atom_site_fract_z
 _atom_site_occupancy
  Sn  Sn0  1  0.21219000  0.41775000  0.23724000  1.0
  Sn  Sn1  1  0.79490000  0.57302000  0.76145000  1.0
  H  H2  1  0.14205000  0.85851000  0.88228000  1.0
  H  H3  1  0.16577000  0.70285000  0.99052000  1.0
  H  H4  1  0.97965000  0.85357000  0.00419000  1.0
  H  H5  1  0.68353000  0.97587000  0.83285000  1.0
  H  H6  1  0.50914000  0.08603000  0.92319000  1.0
  H  H7  1  0.66929000  0.01400000  0.50322000  1.0
  H  H8  1  0.85632000  0.90485000  0.42615000  1.0
  H  H9  1  0.91346000  0.59003000  0.33558000  1.0
  H  H10  1  0.92427000  0.62884000  0.16702000  1.0
  H  H11  1  0.14125000  0.75049000  0.32904000  1.0
  H  H12  1  0.71761000  0.29878000  0.52329000  1.0
  H  H13  1  0.98085000  0.30440000  0.64628000  1.0
  H  H14  1  0.95795000  0.45855000  0.53766000  1.0
  H  H15  1  0.35461000  0.56534000  0.66900000  1.0
  H  H16  1  0.45839000  0.68649000  0.85636000  1.0
  H  H17  1  0.40292000  0.44607000  0.80348000  1.0
  H  H18  1  0.49851000  0.55131000  0.10921000  1.0
  H  H19  1  0.33375000  0.33890000  0.99259000  1.0
  H  H20  1  0.56573000  0.34842000  0.14354000  1.0
  H  H21  1  0.04816000  0.19103000  0.37190000  1.0
  H  H22  1  0.33388000  0.28929000  0.46950000  1.0
  H  H23  1  0.26254000  0.10667000  0.30767000  1.0
  H  H24  1  0.23805000  0.05134000  0.55622000  1.0
  H  H25  1  0.18924000  0.04070000  0.72424000  1.0
  H  H26  1  0.32247000  0.88015000  0.63758000  1.0
  H  H27  1  0.47547000  0.92656000  0.10702000  1.0
  H  H28  1  0.76359000  0.93454000  0.19240000  1.0
  H  H29  1  0.62856000  0.10314000  0.26617000  1.0
  C  C30  1  0.05269000  0.77120000  0.93054000  1.0
  C  C31  1  0.82312000  0.24899000  0.95290000  1.0
  C  C32  1  0.62421000  0.10233000  0.85780000  1.0
  C  C33  1  0.65061000  0.74066000  0.50519000  1.0
  C  C34  1  0.68300000  0.88785000  0.43166000  1.0
  C  C35  1  0.02384000  0.62261000  0.27221000  1.0
  C  C36  1  0.87355000  0.38512000  0.59717000  1.0
  C  C37  1  0.46135000  0.56678000  0.77466000  1.0
  C  C38  1  0.42963000  0.41302000  0.10375000  1.0
  C  C39  1  0.21544000  0.22758000  0.36215000  1.0
  C  C40  1  0.30571000  0.02159000  0.65888000  1.0
  C  C41  1  0.60483000  0.95927000  0.21086000  1.0
  O  O42  1  0.78095000  0.78034000  0.63477000  1.0
  O  O43  1  0.51606000  0.14201000  0.72935000  1.0
  O  O44  1  0.51252000  0.59401000  0.44424000  1.0
  O  O45  1  0.88286000  0.39062000  0.92053000  1.0
  O  O46  1  0.53072000  0.84772000  0.29184000  1.0
  O  O47  1  0.92360000  0.21372000  0.06931000  1.0
