# generated using pymatgen
data_CdH24(C19N9)2
_symmetry_space_group_name_H-M   'P 1'
_cell_length_a   7.95963000
_cell_length_b   9.42556000
_cell_length_c   12.79040000
_cell_angle_alpha   87.92390000
_cell_angle_beta   85.08180000
_cell_angle_gamma   70.97960000
_symmetry_Int_Tables_number   1
_chemical_formula_structural   CdH24(C19N9)2
_chemical_formula_sum   'Cd1 H24 C38 N18'
_cell_volume   903.82048868
_cell_formula_units_Z   1
loop_
 _symmetry_equiv_pos_site_id
 _symmetry_equiv_pos_as_xyz
  1  'x, y, z'
loop_
 _atom_site_type_symbol
 _atom_site_label
 _atom_site_symmetry_multiplicity
 _atom_site_fract_x
 _atom_site_fract_y
 _atom_site_fract_z
 _atom_site_occupancy
  Cd  Cd0  1  0.00000000  0.50000000  0.50000000  1.0
  H  H1  1  0.19447000  0.51030000  0.96744000  1.0
  H  H2  1  0.80554000  0.48969000  0.03256000  1.0
  H  H3  1  0.33619000  0.50462000  0.13320000  1.0
  H  H4  1  0.66381000  0.49539000  0.86680000  1.0
  H  H5  1  0.42148000  0.26475000  0.23981000  1.0
  H  H6  1  0.57851000  0.73525000  0.76019000  1.0
  H  H7  1  0.37389000  0.03643000  0.16736000  1.0
  H  H8  1  0.62611000  0.96357000  0.83265000  1.0
  H  H9  1  0.93855000  0.97402000  0.73673000  1.0
  H  H10  1  0.06145000  0.02598000  0.26327000  1.0
  H  H11  1  0.88542000  0.83087000  0.59648000  1.0
  H  H12  1  0.11458000  0.16912000  0.40353000  1.0
  H  H13  1  0.28381000  0.44237000  0.67883000  1.0
  H  H14  1  0.71618000  0.55763000  0.32117000  1.0
  H  H15  1  0.35599000  0.57205000  0.82666000  1.0
  H  H16  1  0.64401000  0.42795000  0.17334000  1.0
  H  H17  1  0.38500000  0.98207000  0.70124000  1.0
  H  H18  1  0.61499000  0.01793000  0.29877000  1.0
  H  H19  1  0.70029000  0.84769000  0.45186000  1.0
  H  H20  1  0.29970000  0.15232000  0.54814000  1.0
  H  H21  1  0.16115000  0.58214000  0.28967000  1.0
  H  H22  1  0.83885000  0.41786000  0.71034000  1.0
  H  H23  1  0.90688000  0.25911000  0.87407000  1.0
  H  H24  1  0.09312000  0.74089000  0.12593000  1.0
  C  C25  1  0.23882000  0.40596000  0.01246000  1.0
  C  C26  1  0.76119000  0.59404000  0.98754000  1.0
  C  C27  1  0.31568000  0.40330000  0.10680000  1.0
  C  C28  1  0.68432000  0.59670000  0.89320000  1.0
  C  C29  1  0.36479000  0.26967000  0.16465000  1.0
  C  C30  1  0.63521000  0.73033000  0.83535000  1.0
  C  C31  1  0.33909000  0.14344000  0.12525000  1.0
  C  C32  1  0.66091000  0.85656000  0.87475000  1.0
  C  C33  1  0.26454000  0.15648000  0.02808000  1.0
  C  C34  1  0.73547000  0.84352000  0.97192000  1.0
  C  C35  1  0.24003000  0.02339000  0.98507000  1.0
  C  C36  1  0.75997000  0.97661000  0.01493000  1.0
  C  C37  1  0.19559000  0.85872000  0.88293000  1.0
  C  C38  1  0.80441000  0.14128000  0.11707000  1.0
  C  C39  1  0.15457000  0.78465000  0.79488000  1.0
  C  C40  1  0.84543000  0.21534000  0.20512000  1.0
  C  C41  1  0.02150000  0.85719000  0.72811000  1.0
  C  C42  1  0.97849000  0.14281000  0.27189000  1.0
  C  C43  1  0.98977000  0.77548000  0.64819000  1.0
  C  C44  1  0.01022000  0.22452000  0.35182000  1.0
  C  C45  1  0.21009000  0.56009000  0.69503000  1.0
  C  C46  1  0.78991000  0.43990000  0.30497000  1.0
  C  C47  1  0.25036000  0.63233000  0.77720000  1.0
  C  C48  1  0.74964000  0.36766000  0.22280000  1.0
  C  C49  1  0.15159000  0.10972000  0.79946000  1.0
  C  C50  1  0.84842000  0.89029000  0.20054000  1.0
  C  C51  1  0.26386000  0.07838000  0.70758000  1.0
  C  C52  1  0.73614000  0.92162000  0.29242000  1.0
  C  C53  1  0.21559000  0.17338000  0.62148000  1.0
  C  C54  1  0.78440000  0.82662000  0.37852000  1.0
  C  C55  1  0.04079000  0.67912000  0.28689000  1.0
  C  C56  1  0.95920000  0.32087000  0.71311000  1.0
  C  C57  1  0.99647000  0.23337000  0.80320000  1.0
  C  C58  1  0.00353000  0.76663000  0.19681000  1.0
  C  C59  1  0.56737000  0.67090000  0.55551000  1.0
  C  C60  1  0.43263000  0.32911000  0.44448000  1.0
  C  C61  1  0.35024000  0.83473000  0.46180000  1.0
  C  C62  1  0.64977000  0.16527000  0.53817000  1.0
  N  N63  1  0.21385000  0.28543000  0.97280000  1.0
  N  N64  1  0.78617000  0.71457000  0.02720000  1.0
  N  N65  1  0.27107000  0.89381000  0.03729000  1.0
  N  N66  1  0.72893000  0.10618000  0.96271000  1.0
  N  N67  1  0.24318000  0.79164000  0.97405000  1.0
  N  N68  1  0.75682000  0.20836000  0.02595000  1.0
  N  N69  1  0.19009000  0.00683000  0.88627000  1.0
  N  N70  1  0.80991000  0.99317000  0.11373000  1.0
  N  N71  1  0.08111000  0.62981000  0.63157000  1.0
  N  N72  1  0.91888000  0.37019000  0.36844000  1.0
  N  N73  1  0.06663000  0.29282000  0.62381000  1.0
  N  N74  1  0.93337000  0.70717000  0.37620000  1.0
  N  N75  1  0.70454000  0.57800000  0.57234000  1.0
  N  N76  1  0.29545000  0.42201000  0.42767000  1.0
  N  N77  1  0.41547000  0.77361000  0.54934000  1.0
  N  N78  1  0.58452000  0.22640000  0.45064000  1.0
  N  N79  1  0.28241000  0.89915000  0.38763000  1.0
  N  N80  1  0.71761000  0.10083000  0.61234000  1.0
