# generated using pymatgen
data_ZnH10C12(NO2)2
_symmetry_space_group_name_H-M   'P 1'
_cell_length_a   8.82498000
_cell_length_b   9.51719000
_cell_length_c   15.40820000
_cell_angle_alpha   88.29440000
_cell_angle_beta   89.99990000
_cell_angle_gamma   89.99990000
_symmetry_Int_Tables_number   1
_chemical_formula_structural   ZnH10C12(NO2)2
_chemical_formula_sum   'Zn4 H40 C48 N8 O16'
_cell_volume   1293.54613343
_cell_formula_units_Z   4
loop_
 _symmetry_equiv_pos_site_id
 _symmetry_equiv_pos_as_xyz
  1  'x, y, z'
loop_
 _atom_site_type_symbol
 _atom_site_label
 _atom_site_symmetry_multiplicity
 _atom_site_fract_x
 _atom_site_fract_y
 _atom_site_fract_z
 _atom_site_occupancy
  Zn  Zn0  1  0.08547000  0.24677000  0.07842000  1.0
  Zn  Zn1  1  0.41453000  0.24676000  0.57842000  1.0
  Zn  Zn2  1  0.91453000  0.75323000  0.92158000  1.0
  Zn  Zn3  1  0.58547000  0.75323000  0.42158000  1.0
  H  H4  1  0.25083000  0.09957000  0.23232000  1.0
  H  H5  1  0.24917000  0.09957000  0.73232000  1.0
  H  H6  1  0.74918000  0.90043000  0.76768000  1.0
  H  H7  1  0.75082000  0.90043000  0.26768000  1.0
  H  H8  1  0.19125000  0.00984000  0.38342000  1.0
  H  H9  1  0.30875000  0.00984000  0.88342000  1.0
  H  H10  1  0.80876000  0.99016000  0.61658000  1.0
  H  H11  1  0.69125000  0.99016000  0.11658000  1.0
  H  H12  1  0.92536000  0.04668000  0.44062000  1.0
  H  H13  1  0.57464000  0.04668000  0.94062000  1.0
  H  H14  1  0.07464000  0.95332000  0.55938000  1.0
  H  H15  1  0.42536000  0.95332000  0.05938000  1.0
  H  H16  1  0.73729000  0.17078000  0.34619000  1.0
  H  H17  1  0.76271000  0.17078000  0.84619000  1.0
  H  H18  1  0.26271000  0.82922000  0.65381000  1.0
  H  H19  1  0.23729000  0.82922000  0.15381000  1.0
  H  H20  1  0.81464000  0.24723000  0.19481000  1.0
  H  H21  1  0.68536000  0.24723000  0.69481000  1.0
  H  H22  1  0.18536000  0.75277000  0.80519000  1.0
  H  H23  1  0.31464000  0.75277000  0.30519000  1.0
  H  H24  1  0.24126000  0.41821000  0.21909000  1.0
  H  H25  1  0.25874000  0.41821000  0.71909000  1.0
  H  H26  1  0.75874000  0.58179000  0.78091000  1.0
  H  H27  1  0.74126000  0.58179000  0.28091000  1.0
  H  H28  1  0.49455000  0.51871000  0.24949000  1.0
  H  H29  1  0.00545000  0.51870000  0.74949000  1.0
  H  H30  1  0.50545000  0.48129000  0.75051000  1.0
  H  H31  1  0.99455000  0.48130000  0.25051000  1.0
  H  H32  1  0.70891000  0.47525000  0.14230000  1.0
  H  H33  1  0.79109000  0.47526000  0.64230000  1.0
  H  H34  1  0.29109000  0.52475000  0.85770000  1.0
  H  H35  1  0.20891000  0.52474000  0.35770000  1.0
  H  H36  1  0.65602000  0.32307000  0.01633000  1.0
  H  H37  1  0.84398000  0.32307000  0.51633000  1.0
  H  H38  1  0.34398000  0.67693000  0.98367000  1.0
  H  H39  1  0.15602000  0.67693000  0.48367000  1.0
  H  H40  1  0.39086000  0.23247000  0.99601000  1.0
  H  H41  1  0.10913000  0.23247000  0.49601000  1.0
  H  H42  1  0.60914000  0.76753000  0.00399000  1.0
  H  H43  1  0.89086000  0.76753000  0.50399000  1.0
  C  C44  1  0.13831000  0.11195000  0.26018000  1.0
  C  C45  1  0.36169000  0.11195000  0.76018000  1.0
  C  C46  1  0.86169000  0.88805000  0.73982000  1.0
  C  C47  1  0.63831000  0.88805000  0.23982000  1.0
  C  C48  1  0.10478000  0.06301000  0.34409000  1.0
  C  C49  1  0.39522000  0.06301000  0.84409000  1.0
  C  C50  1  0.89522000  0.93699000  0.65591000  1.0
  C  C51  1  0.60478000  0.93699000  0.15591000  1.0
  C  C52  1  0.95891000  0.08416000  0.37603000  1.0
  C  C53  1  0.54109000  0.08416000  0.87603000  1.0
  C  C54  1  0.04110000  0.91584000  0.62397000  1.0
  C  C55  1  0.45891000  0.91584000  0.12397000  1.0
  C  C56  1  0.85215000  0.15272000  0.32311000  1.0
  C  C57  1  0.64785000  0.15272000  0.82311000  1.0
  C  C58  1  0.14785000  0.84728000  0.67689000  1.0
  C  C59  1  0.35215000  0.84728000  0.17689000  1.0
  C  C60  1  0.89416000  0.19576000  0.23948000  1.0
  C  C61  1  0.60584000  0.19576000  0.73948000  1.0
  C  C62  1  0.10584000  0.80424000  0.76052000  1.0
  C  C63  1  0.39416000  0.80424000  0.26052000  1.0
  C  C64  1  0.33626000  0.40109000  0.17549000  1.0
  C  C65  1  0.16374000  0.40108000  0.67549000  1.0
  C  C66  1  0.66374000  0.59891000  0.82451000  1.0
  C  C67  1  0.83626000  0.59892000  0.32451000  1.0
  C  C68  1  0.47852000  0.45787000  0.19139000  1.0
  C  C69  1  0.02148000  0.45787000  0.69139000  1.0
  C  C70  1  0.52148000  0.54213000  0.80861000  1.0
  C  C71  1  0.97852000  0.54213000  0.30861000  1.0
  C  C72  1  0.59575000  0.43192000  0.13320000  1.0
  C  C73  1  0.90426000  0.43192000  0.63320000  1.0
  C  C74  1  0.40425000  0.56808000  0.86680000  1.0
  C  C75  1  0.09575000  0.56809000  0.36680000  1.0
  C  C76  1  0.56656000  0.34867000  0.06197000  1.0
  C  C77  1  0.93344000  0.34867000  0.56197000  1.0
  C  C78  1  0.43344000  0.65133000  0.93803000  1.0
  C  C79  1  0.06656000  0.65133000  0.43803000  1.0
  C  C80  1  0.42081000  0.29657000  0.05075000  1.0
  C  C81  1  0.07919000  0.29657000  0.55075000  1.0
  C  C82  1  0.57919000  0.70343000  0.94925000  1.0
  C  C83  1  0.92081000  0.70343000  0.44925000  1.0
  C  C84  1  0.03636000  0.47702000  0.95634000  1.0
  C  C85  1  0.46363000  0.47701000  0.45634000  1.0
  C  C86  1  0.96363000  0.52299000  0.04366000  1.0
  C  C87  1  0.53636000  0.52298000  0.54366000  1.0
  C  C88  1  0.08495000  0.97730000  0.99910000  1.0
  C  C89  1  0.41505000  0.97730000  0.49910000  1.0
  C  C90  1  0.91505000  0.02270000  0.00090000  1.0
  C  C91  1  0.58495000  0.02270000  0.50090000  1.0
  N  N92  1  0.03507000  0.17620000  0.20850000  1.0
  N  N93  1  0.46493000  0.17620000  0.70850000  1.0
  N  N94  1  0.96493000  0.82380000  0.79150000  1.0
  N  N95  1  0.53507000  0.82380000  0.29150000  1.0
  N  N96  1  0.30732000  0.32214000  0.10651000  1.0
  N  N97  1  0.19268000  0.32214000  0.60651000  1.0
  N  N98  1  0.69268000  0.67786000  0.89349000  1.0
  N  N99  1  0.80732000  0.67786000  0.39349000  1.0
  O  O100  1  0.18063000  0.06091000  0.03105000  1.0
  O  O101  1  0.31938000  0.06090000  0.53105000  1.0
  O  O102  1  0.81937000  0.93910000  0.96895000  1.0
  O  O103  1  0.68064000  0.93909000  0.46895000  1.0
  O  O104  1  0.09665000  0.35693000  0.95435000  1.0
  O  O105  1  0.40335000  0.35693000  0.45435000  1.0
  O  O106  1  0.90334000  0.64307000  0.04565000  1.0
  O  O107  1  0.59665000  0.64307000  0.54565000  1.0
  O  O108  1  0.03065000  0.56545000  0.89288000  1.0
  O  O109  1  0.46934000  0.56545000  0.39288000  1.0
  O  O110  1  0.96935000  0.43455000  0.10712000  1.0
  O  O111  1  0.53065000  0.43455000  0.60712000  1.0
  O  O112  1  0.11684000  0.86113000  0.96574000  1.0
  O  O113  1  0.38315000  0.86113000  0.46574000  1.0
  O  O114  1  0.88315000  0.13887000  0.03426000  1.0
  O  O115  1  0.61685000  0.13886000  0.53426000  1.0
