# generated using pymatgen
data_Zn2H28C43O9
_symmetry_space_group_name_H-M   'P 1'
_cell_length_a   16.52960000
_cell_length_b   16.66200000
_cell_length_c   28.80880000
_cell_angle_alpha   91.09640000
_cell_angle_beta   90.50300000
_cell_angle_gamma   91.16410000
_symmetry_Int_Tables_number   1
_chemical_formula_structural   Zn2H28C43O9
_chemical_formula_sum   'Zn4 H56 C86 O18'
_cell_volume   7930.98657145
_cell_formula_units_Z   2
loop_
 _symmetry_equiv_pos_site_id
 _symmetry_equiv_pos_as_xyz
  1  'x, y, z'
loop_
 _atom_site_type_symbol
 _atom_site_label
 _atom_site_symmetry_multiplicity
 _atom_site_fract_x
 _atom_site_fract_y
 _atom_site_fract_z
 _atom_site_occupancy
  Zn  Zn0  1  0.49995000  0.07660000  0.50064000  1.0
  Zn  Zn1  1  0.50001000  0.92341000  0.49937000  1.0
  Zn  Zn2  1  0.07737000  0.50039000  0.00043000  1.0
  Zn  Zn3  1  0.92264000  0.49960000  0.99957000  1.0
  H  H4  1  0.27474000  0.10953000  0.42825000  1.0
  H  H5  1  0.72524000  0.89049000  0.57174000  1.0
  H  H6  1  0.79674000  0.87531000  0.34051000  1.0
  H  H7  1  0.20323000  0.12470000  0.65949000  1.0
  H  H8  1  0.12819000  0.21413000  0.16285000  1.0
  H  H9  1  0.87175000  0.78562000  0.83702000  1.0
  H  H10  1  0.86727000  0.21081000  0.16072000  1.0
  H  H11  1  0.13267000  0.78944000  0.83944000  1.0
  H  H12  1  0.24413000  0.89711000  0.30626000  1.0
  H  H13  1  0.75583000  0.10289000  0.69374000  1.0
  H  H14  1  0.68447000  0.87366000  0.39839000  1.0
  H  H15  1  0.31549000  0.12635000  0.60161000  1.0
  H  H16  1  0.12895000  0.32580000  0.10598000  1.0
  H  H17  1  0.87100000  0.67395000  0.89388000  1.0
  H  H18  1  0.88608000  0.73179000  0.06681000  1.0
  H  H19  1  0.11442000  0.26866000  0.93289000  1.0
  H  H20  1  0.86919000  0.32296000  0.10410000  1.0
  H  H21  1  0.13078000  0.67726000  0.89604000  1.0
  H  H22  1  0.67959000  0.13106000  0.39695000  1.0
  H  H23  1  0.32037000  0.86895000  0.60305000  1.0
  H  H24  1  0.15803000  0.11253000  0.37261000  1.0
  H  H25  1  0.84194000  0.88750000  0.62738000  1.0
  H  H26  1  0.82283000  0.85133000  0.09248000  1.0
  H  H27  1  0.83093000  0.87053000  0.15345000  1.0
  H  H28  1  0.89093000  0.92697000  0.11515000  1.0
  H  H29  1  0.17797000  0.14940000  0.90705000  1.0
  H  H30  1  0.11003000  0.07345000  0.88458000  1.0
  H  H31  1  0.16946000  0.13015000  0.84611000  1.0
  H  H32  1  0.16067000  0.71640000  0.19763000  1.0
  H  H33  1  0.14859000  0.82263000  0.19751000  1.0
  H  H34  1  0.08962000  0.76393000  0.23517000  1.0
  H  H35  1  0.83868000  0.28296000  0.80284000  1.0
  H  H36  1  0.90958000  0.23569000  0.76509000  1.0
  H  H37  1  0.85114000  0.17679000  0.80291000  1.0
  H  H38  1  0.76836000  0.20737000  0.34978000  1.0
  H  H39  1  0.86533000  0.16436000  0.34180000  1.0
  H  H40  1  0.79382000  0.15947000  0.29611000  1.0
  H  H41  1  0.23160000  0.79264000  0.65022000  1.0
  H  H42  1  0.20613000  0.84054000  0.70389000  1.0
  H  H43  1  0.13463000  0.83565000  0.65820000  1.0
  H  H44  1  0.02685000  0.53548000  0.14258000  1.0
  H  H45  1  0.06063000  0.57963000  0.19643000  1.0
  H  H46  1  0.20109000  0.52742000  0.18116000  1.0
  H  H47  1  0.12705000  0.44813000  0.18248000  1.0
  H  H48  1  0.16435000  0.48167000  0.12821000  1.0
  H  H49  1  0.93829000  0.41987000  0.80362000  1.0
  H  H50  1  0.97250000  0.46422000  0.85733000  1.0
  H  H51  1  0.83507000  0.51784000  0.87209000  1.0
  H  H52  1  0.87175000  0.55129000  0.81766000  1.0
  H  H53  1  0.79787000  0.47189000  0.81930000  1.0
  H  H54  1  0.36377000  0.83986000  0.32670000  1.0
  H  H55  1  0.43718000  0.89440000  0.36113000  1.0
  H  H56  1  0.36800000  0.82931000  0.38819000  1.0
  H  H57  1  0.63619000  0.16015000  0.67330000  1.0
  H  H58  1  0.63197000  0.17070000  0.61181000  1.0
  H  H59  1  0.56279000  0.10561000  0.63887000  1.0
  C  C60  1  0.61223000  0.99858000  0.56401000  1.0
  C  C61  1  0.38773000  0.00144000  0.43600000  1.0
  C  C62  1  0.93211000  0.73933000  0.09396000  1.0
  C  C63  1  0.06819000  0.26091000  0.90587000  1.0
  C  C64  1  0.05274000  0.75491000  0.16318000  1.0
  C  C65  1  0.94703000  0.24482000  0.83698000  1.0
  C  C66  1  0.05190000  0.68891000  0.13218000  1.0
  C  C67  1  0.94789000  0.31085000  0.86797000  1.0
  C  C68  1  0.92439000  0.23656000  0.14881000  1.0
  C  C69  1  0.07556000  0.76357000  0.85128000  1.0
  C  C70  1  0.92539000  0.29870000  0.11735000  1.0
  C  C71  1  0.07457000  0.70141000  0.88273000  1.0
  C  C72  1  0.25062000  0.94302000  0.33363000  1.0
  C  C73  1  0.74935000  0.05699000  0.66637000  1.0
  C  C74  1  0.31519000  0.93925000  0.36511000  1.0
  C  C75  1  0.68478000  0.06076000  0.63489000  1.0
  C  C76  1  0.76816000  0.07825000  0.35183000  1.0
  C  C77  1  0.23181000  0.92176000  0.64817000  1.0
  C  C78  1  0.70589000  0.07549000  0.38413000  1.0
  C  C79  1  0.29406000  0.92452000  0.61587000  1.0
  C  C80  1  0.99581000  0.00760000  0.24854000  1.0
  C  C81  1  0.00416000  0.99238000  0.75147000  1.0
  C  C82  1  0.61090000  0.00179000  0.43654000  1.0
  C  C83  1  0.38906000  0.99823000  0.56346000  1.0
  C  C84  1  0.19320000  0.00413000  0.33612000  1.0
  C  C85  1  0.80677000  0.99588000  0.66388000  1.0
  C  C86  1  0.32247000  0.00036000  0.39980000  1.0
  C  C87  1  0.67750000  0.99966000  0.60020000  1.0
  C  C88  1  0.80127000  0.00453000  0.33637000  1.0
  C  C89  1  0.19870000  0.99548000  0.66364000  1.0
  C  C90  1  0.67601000  0.00248000  0.40109000  1.0
  C  C91  1  0.32395000  0.99753000  0.59891000  1.0
  C  C92  1  0.99764000  0.20503000  0.16524000  1.0
  C  C93  1  0.00230000  0.79496000  0.83477000  1.0
  C  C94  1  0.99918000  0.33060000  0.10157000  1.0
  C  C95  1  0.00079000  0.66937000  0.89843000  1.0
  C  C96  1  0.99195000  0.81301000  0.15865000  1.0
  C  C97  1  0.00809000  0.18696000  0.84136000  1.0
  C  C98  1  0.99240000  0.68157000  0.09686000  1.0
  C  C99  1  0.00764000  0.31843000  0.90314000  1.0
  C  C100  1  0.06875000  0.00619000  0.27853000  1.0
  C  C101  1  0.93121000  0.99382000  0.72148000  1.0
  C  C102  1  0.99668000  0.08100000  0.22049000  1.0
  C  C103  1  0.00329000  0.91899000  0.77952000  1.0
  C  C104  1  0.20203000  0.06480000  0.37062000  1.0
  C  C105  1  0.79795000  0.93522000  0.62937000  1.0
  C  C106  1  0.92385000  0.00616000  0.27865000  1.0
  C  C107  1  0.07612000  0.99384000  0.72136000  1.0
  C  C108  1  0.99377000  0.93703000  0.21670000  1.0
  C  C109  1  0.00623000  0.06295000  0.78331000  1.0
  C  C110  1  0.12680000  0.00475000  0.30461000  1.0
  C  C111  1  0.87317000  0.99526000  0.69540000  1.0
  C  C112  1  0.99260000  0.87989000  0.18984000  1.0
  C  C113  1  0.00744000  0.12009000  0.81018000  1.0
  C  C114  1  0.99698000  0.13908000  0.19565000  1.0
  C  C115  1  0.00296000  0.86091000  0.80436000  1.0
  C  C116  1  0.86662000  0.00481000  0.30482000  1.0
  C  C117  1  0.13336000  0.99520000  0.69519000  1.0
  C  C118  1  0.99148000  0.61510000  0.06136000  1.0
  C  C119  1  0.00855000  0.38489000  0.93864000  1.0
  C  C120  1  0.00016000  0.39463000  0.06601000  1.0
  C  C121  1  0.99980000  0.60535000  0.93399000  1.0
  C  C122  1  0.26664000  0.06276000  0.40157000  1.0
  C  C123  1  0.73334000  0.93726000  0.59843000  1.0
  C  C124  1  0.77049000  0.93108000  0.35301000  1.0
  C  C125  1  0.22948000  0.06893000  0.64699000  1.0
  C  C126  1  0.70837000  0.92999000  0.38508000  1.0
  C  C127  1  0.29159000  0.07002000  0.61492000  1.0
  C  C128  1  0.07169000  0.23838000  0.14998000  1.0
  C  C129  1  0.92826000  0.76148000  0.84994000  1.0
  C  C130  1  0.07215000  0.30033000  0.11843000  1.0
  C  C131  1  0.92781000  0.69952000  0.88149000  1.0
  C  C132  1  0.93035000  0.80533000  0.12424000  1.0
  C  C133  1  0.06997000  0.19492000  0.87559000  1.0
  C  C134  1  0.86523000  0.86661000  0.12095000  1.0
  C  C135  1  0.13540000  0.13392000  0.87870000  1.0
  C  C136  1  0.11661000  0.76439000  0.20039000  1.0
  C  C137  1  0.88288000  0.23512000  0.79995000  1.0
  C  C138  1  0.80030000  0.15671000  0.33409000  1.0
  C  C139  1  0.19966000  0.84330000  0.66591000  1.0
  C  C140  1  0.08024000  0.56110000  0.16130000  1.0
  C  C141  1  0.14751000  0.50115000  0.16336000  1.0
  C  C142  1  0.91898000  0.43846000  0.83880000  1.0
  C  C143  1  0.85159000  0.49829000  0.83690000  1.0
  C  C144  1  0.37419000  0.87210000  0.35986000  1.0
  C  C145  1  0.62578000  0.12791000  0.64014000  1.0
  O  O146  1  0.58640000  0.06614000  0.55036000  1.0
  O  O147  1  0.41356000  0.93387000  0.44964000  1.0
  O  O148  1  0.58514000  0.93302000  0.44985000  1.0
  O  O149  1  0.41482000  0.06699000  0.55015000  1.0
  O  O150  1  0.58562000  0.06971000  0.45133000  1.0
  O  O151  1  0.41433000  0.93029000  0.54867000  1.0
  O  O152  1  0.58777000  0.92962000  0.54855000  1.0
  O  O153  1  0.41219000  0.07039000  0.45146000  1.0
  O  O154  1  0.05943000  0.58938000  0.04722000  1.0
  O  O155  1  0.94062000  0.41057000  0.95282000  1.0
  O  O156  1  0.93176000  0.41921000  0.05155000  1.0
  O  O157  1  0.06821000  0.58083000  0.94848000  1.0
  O  O158  1  0.06955000  0.41969000  0.05231000  1.0
  O  O159  1  0.93042000  0.58024000  0.94766000  1.0
  O  O160  1  0.92184000  0.59000000  0.04672000  1.0
  O  O161  1  0.07821000  0.41005000  0.95325000  1.0
  O  O162  1  0.10979000  0.63130000  0.13748000  1.0
  O  O163  1  0.88979000  0.36828000  0.86278000  1.0
