# generated using pymatgen
data_CsNiH3(CO2)3
_symmetry_space_group_name_H-M   'P 1'
_cell_length_a   7.47228205
_cell_length_b   7.47242000
_cell_length_c   8.06778000
_cell_angle_alpha   90.00000000
_cell_angle_beta   90.00010000
_cell_angle_gamma   60.00016797
_symmetry_Int_Tables_number   1
_chemical_formula_structural   CsNiH3(CO2)3
_chemical_formula_sum   'Cs2 Ni2 H6 C6 O12'
_cell_volume   390.12155323
_cell_formula_units_Z   2
loop_
 _symmetry_equiv_pos_site_id
 _symmetry_equiv_pos_as_xyz
  1  'x, y, z'
loop_
 _atom_site_type_symbol
 _atom_site_label
 _atom_site_symmetry_multiplicity
 _atom_site_fract_x
 _atom_site_fract_y
 _atom_site_fract_z
 _atom_site_occupancy
  Cs  Cs0  1  0.00001000  0.00000000  0.25000000  1.0
  Cs  Cs1  1  0.99999000  0.00000000  0.75000000  1.0
  Ni  Ni2  1  0.33333333  0.33333333  0.25000000  1.0
  Ni  Ni3  1  0.66666667  0.66666667  0.75000000  1.0
  H  H4  1  0.00000000  0.40047000  0.50000000  1.0
  H  H5  1  0.40047000  0.00000000  1.00000000  1.0
  H  H6  1  0.40047000  0.59953000  0.50000000  1.0
  H  H7  1  0.00000000  0.59953000  1.00000000  1.0
  H  H8  1  0.59953000  0.00000000  0.50000000  1.0
  H  H9  1  0.59953000  0.40047000  1.00000000  1.0
  C  C10  1  0.00000000  0.54827000  0.50000000  1.0
  C  C11  1  0.54827000  0.00000000  1.00000000  1.0
  C  C12  1  0.54827000  0.45173000  0.50000000  1.0
  C  C13  1  0.00000000  0.45173000  0.00000000  1.0
  C  C14  1  0.45173000  0.00000000  0.50000000  1.0
  C  C15  1  0.45173000  0.54827000  1.00000000  1.0
  O  O16  1  0.11492000  0.57189000  0.39654000  1.0
  O  O17  1  0.68681000  0.88508000  0.89654000  1.0
  O  O18  1  0.57189000  0.31319000  0.39654000  1.0
  O  O19  1  0.88508000  0.42811000  0.89654000  1.0
  O  O20  1  0.31319000  0.11492000  0.39654000  1.0
  O  O21  1  0.42811000  0.68681000  0.89654000  1.0
  O  O22  1  0.88508000  0.68681000  0.60346000  1.0
  O  O23  1  0.42811000  0.88508000  0.60346000  1.0
  O  O24  1  0.68681000  0.42811000  0.60346000  1.0
  O  O25  1  0.31319000  0.57189000  0.10346000  1.0
  O  O26  1  0.11492000  0.31319000  0.10346000  1.0
  O  O27  1  0.57189000  0.11492000  0.10346000  1.0
