# generated using pymatgen
data_CdH8C14S2(N3O)2
_symmetry_space_group_name_H-M   'P 1'
_cell_length_a   7.44952000
_cell_length_b   9.19470000
_cell_length_c   12.87990000
_cell_angle_alpha   83.30160000
_cell_angle_beta   73.20420000
_cell_angle_gamma   66.11080000
_symmetry_Int_Tables_number   1
_chemical_formula_structural   CdH8C14S2(N3O)2
_chemical_formula_sum   'Cd2 H16 C28 S4 N12 O4'
_cell_volume   772.23225021
_cell_formula_units_Z   2
loop_
 _symmetry_equiv_pos_site_id
 _symmetry_equiv_pos_as_xyz
  1  'x, y, z'
loop_
 _atom_site_type_symbol
 _atom_site_label
 _atom_site_symmetry_multiplicity
 _atom_site_fract_x
 _atom_site_fract_y
 _atom_site_fract_z
 _atom_site_occupancy
  Cd  Cd0  1  0.87392000  0.00005000  0.00003000  1.0
  Cd  Cd1  1  0.62405000  0.49990000  0.50001000  1.0
  H  H2  1  0.79345000  0.66395000  0.02601000  1.0
  H  H3  1  0.48286000  0.33600000  0.97383000  1.0
  H  H4  1  0.20709000  0.83577000  0.52619000  1.0
  H  H5  1  0.56917000  0.16343000  0.47392000  1.0
  H  H6  1  0.81420000  0.45752000  0.90562000  1.0
  H  H7  1  0.17686000  0.54228000  0.09418000  1.0
  H  H8  1  0.02199000  0.04236000  0.40586000  1.0
  H  H9  1  0.46946000  0.95739000  0.59442000  1.0
  H  H10  1  0.85340000  0.51587000  0.70749000  1.0
  H  H11  1  0.07723000  0.48446000  0.29243000  1.0
  H  H12  1  0.12031000  0.98431000  0.20758000  1.0
  H  H13  1  0.31148000  0.01587000  0.79262000  1.0
  H  H14  1  0.86378000  0.77906000  0.63627000  1.0
  H  H15  1  0.27983000  0.22147000  0.36370000  1.0
  H  H16  1  0.39385000  0.72110000  0.13626000  1.0
  H  H17  1  0.25074000  0.27924000  0.86364000  1.0
  C  C18  1  0.80737000  0.68509000  0.93946000  1.0
  C  C19  1  0.43161000  0.31493000  0.06042000  1.0
  C  C20  1  0.24243000  0.81469000  0.43960000  1.0
  C  C21  1  0.49667000  0.18478000  0.56048000  1.0
  C  C22  1  0.81864000  0.57098000  0.87244000  1.0
  C  C23  1  0.26179000  0.42901000  0.12742000  1.0
  C  C24  1  0.13987000  0.92892000  0.37262000  1.0
  C  C25  1  0.44091000  0.07083000  0.62757000  1.0
  C  C26  1  0.84105000  0.60369000  0.76209000  1.0
  C  C27  1  0.20705000  0.39655000  0.23784000  1.0
  C  C28  1  0.19546000  0.89640000  0.26218000  1.0
  C  C29  1  0.35342000  0.10368000  0.73794000  1.0
  C  C30  1  0.85009000  0.74883000  0.72182000  1.0
  C  C31  1  0.32117000  0.25158000  0.27813000  1.0
  C  C32  1  0.34958000  0.75124000  0.22187000  1.0
  C  C33  1  0.32245000  0.24883000  0.77810000  1.0
  C  C34  1  0.83834000  0.85582000  0.79440000  1.0
  C  C35  1  0.48872000  0.14444000  0.20554000  1.0
  C  C36  1  0.44444000  0.64408000  0.29442000  1.0
  C  C37  1  0.38289000  0.35582000  0.70541000  1.0
  C  C38  1  0.85173000  0.00852000  0.76151000  1.0
  C  C39  1  0.62174000  0.99170000  0.23844000  1.0
  C  C40  1  0.61045000  0.49135000  0.26152000  1.0
  C  C41  1  0.36297000  0.50864000  0.73831000  1.0
  C  C42  1  0.90074000  0.20537000  0.66299000  1.0
  C  C43  1  0.76901000  0.79489000  0.33704000  1.0
  C  C44  1  0.85640000  0.29427000  0.16313000  1.0
  C  C45  1  0.31355000  0.70536000  0.83702000  1.0
  S  S46  1  0.96663000  0.30475000  0.54943000  1.0
  S  S47  1  0.82064000  0.69566000  0.45065000  1.0
  S  S48  1  0.02198000  0.19465000  0.04967000  1.0
  S  S49  1  0.26611000  0.80453000  0.95068000  1.0
  N  N50  1  0.81737000  0.82410000  0.90178000  1.0
  N  N51  1  0.54310000  0.17605000  0.09813000  1.0
  N  N52  1  0.39152000  0.67574000  0.40184000  1.0
  N  N53  1  0.46905000  0.32390000  0.59802000  1.0
  N  N54  1  0.82962000  0.11669000  0.82752000  1.0
  N  N55  1  0.77332000  0.88323000  0.17245000  1.0
  N  N56  1  0.69617000  0.38323000  0.32760000  1.0
  N  N57  1  0.40621000  0.61703000  0.67238000  1.0
  N  N58  1  0.86709000  0.75778000  0.23388000  1.0
  N  N59  1  0.85940000  0.24216000  0.76613000  1.0
  N  N60  1  0.37460000  0.74245000  0.73389000  1.0
  N  N61  1  0.85141000  0.25763000  0.26631000  1.0
  O  O62  1  0.89556000  0.05418000  0.65658000  1.0
  O  O63  1  0.60652000  0.94623000  0.34339000  1.0
  O  O64  1  0.70025000  0.44553000  0.15662000  1.0
  O  O65  1  0.30219000  0.55411000  0.84329000  1.0
