# generated using pymatgen
data_CuH22C18(NO3)2
_symmetry_space_group_name_H-M   'P 1'
_cell_length_a   9.91531000
_cell_length_b   9.91530000
_cell_length_c   11.20070000
_cell_angle_alpha   68.81760000
_cell_angle_beta   68.81760000
_cell_angle_gamma   67.84700000
_symmetry_Int_Tables_number   1
_chemical_formula_structural   CuH22C18(NO3)2
_chemical_formula_sum   'Cu2 H44 C36 N4 O12'
_cell_volume   918.11174456
_cell_formula_units_Z   2
loop_
 _symmetry_equiv_pos_site_id
 _symmetry_equiv_pos_as_xyz
  1  'x, y, z'
loop_
 _atom_site_type_symbol
 _atom_site_label
 _atom_site_symmetry_multiplicity
 _atom_site_fract_x
 _atom_site_fract_y
 _atom_site_fract_z
 _atom_site_occupancy
  Cu  Cu0  1  0.05050000  0.94950000  0.75000000  1.0
  Cu  Cu1  1  0.94950000  0.05050000  0.25000000  1.0
  H  H2  1  0.33915000  0.86183000  0.81343000  1.0
  H  H3  1  0.86183000  0.33915000  0.31343000  1.0
  H  H4  1  0.66085000  0.13817000  0.18657000  1.0
  H  H5  1  0.13817000  0.66085000  0.68657000  1.0
  H  H6  1  0.56970000  0.64019000  0.81702000  1.0
  H  H7  1  0.64019000  0.56970000  0.31702000  1.0
  H  H8  1  0.43030000  0.35981000  0.18298000  1.0
  H  H9  1  0.35981000  0.43030000  0.68298000  1.0
  H  H10  1  0.88470000  0.15940000  0.91918000  1.0
  H  H11  1  0.15940000  0.88470000  0.41918000  1.0
  H  H12  1  0.11530000  0.84060000  0.08082000  1.0
  H  H13  1  0.84060000  0.11530000  0.58082000  1.0
  H  H14  1  0.65734000  0.38256000  0.92873000  1.0
  H  H15  1  0.38256000  0.65734000  0.42873000  1.0
  H  H16  1  0.34266000  0.61744000  0.07127000  1.0
  H  H17  1  0.61744000  0.34267000  0.57127000  1.0
  H  H18  1  0.63041000  0.97605000  0.88893000  1.0
  H  H19  1  0.97605000  0.63041000  0.38893000  1.0
  H  H20  1  0.36959000  0.02395000  0.11107000  1.0
  H  H21  1  0.02395000  0.36959000  0.61107000  1.0
  H  H22  1  0.57771000  0.81555000  0.00755000  1.0
  H  H23  1  0.81555000  0.57771000  0.50755000  1.0
  H  H24  1  0.42229000  0.18445000  0.99245000  1.0
  H  H25  1  0.18445000  0.42229000  0.49245000  1.0
  H  H26  1  0.59941000  0.84590000  0.83424000  1.0
  H  H27  1  0.84590000  0.59941000  0.33424000  1.0
  H  H28  1  0.40059000  0.15410000  0.16576000  1.0
  H  H29  1  0.15410000  0.40059000  0.66576000  1.0
  H  H30  1  0.79734000  0.57792000  0.84320000  1.0
  H  H31  1  0.57792000  0.79734000  0.34320000  1.0
  H  H32  1  0.20266000  0.42209000  0.15680000  1.0
  H  H33  1  0.42209000  0.20266000  0.65680000  1.0
  H  H34  1  0.76544000  0.55208000  0.01734000  1.0
  H  H35  1  0.55207000  0.76544000  0.51734000  1.0
  H  H36  1  0.23456000  0.44792000  0.98266000  1.0
  H  H37  1  0.44792000  0.23456000  0.48266000  1.0
  H  H38  1  0.95103000  0.53219000  0.90936000  1.0
  H  H39  1  0.53219000  0.95103000  0.40936000  1.0
  H  H40  1  0.04897000  0.46781000  0.09064000  1.0
  H  H41  1  0.46781000  0.04897000  0.59064000  1.0
  H  H42  1  0.83980000  0.82268000  0.69374000  1.0
  H  H43  1  0.82268000  0.83979000  0.19374000  1.0
  H  H44  1  0.16021000  0.17732000  0.30626000  1.0
  H  H45  1  0.17732000  0.16020000  0.80626000  1.0
  C  C46  1  0.86789000  0.79270000  0.98674000  1.0
  C  C47  1  0.79270000  0.86789000  0.48674000  1.0
  C  C48  1  0.13211000  0.20730000  0.01326000  1.0
  C  C49  1  0.20730000  0.13211000  0.51326000  1.0
  C  C50  1  0.81066000  0.76503000  0.88879000  1.0
  C  C51  1  0.76503000  0.81066000  0.38879000  1.0
  C  C52  1  0.18934000  0.23497000  0.11121000  1.0
  C  C53  1  0.23497000  0.18934000  0.61121000  1.0
  C  C54  1  0.34895000  0.76182000  0.78770000  1.0
  C  C55  1  0.76182000  0.34895000  0.28770000  1.0
  C  C56  1  0.65105000  0.23818000  0.21230000  1.0
  C  C57  1  0.23818000  0.65105000  0.71230000  1.0
  C  C58  1  0.47586000  0.63781000  0.78994000  1.0
  C  C59  1  0.63780000  0.47586000  0.28994000  1.0
  C  C60  1  0.52414000  0.36219000  0.21006000  1.0
  C  C61  1  0.36219000  0.52414000  0.71006000  1.0
  C  C62  1  0.48461000  0.51539000  0.75000000  1.0
  C  C63  1  0.51539000  0.48461000  0.25000000  1.0
  C  C64  1  0.82057000  0.20318000  0.84513000  1.0
  C  C65  1  0.20318000  0.82057000  0.34514000  1.0
  C  C66  1  0.17943000  0.79682000  0.15487000  1.0
  C  C67  1  0.79682000  0.17943000  0.65486000  1.0
  C  C68  1  0.69516000  0.32876000  0.84839000  1.0
  C  C69  1  0.32876000  0.69516000  0.34839000  1.0
  C  C70  1  0.30484000  0.67124000  0.15161000  1.0
  C  C71  1  0.67124000  0.30484000  0.65161000  1.0
  C  C72  1  0.61770000  0.38231000  0.75000000  1.0
  C  C73  1  0.38231000  0.61770000  0.25000000  1.0
  C  C74  1  0.64346000  0.85600000  0.90654000  1.0
  C  C75  1  0.85600000  0.64346000  0.40654000  1.0
  C  C76  1  0.35654000  0.14400000  0.09346000  1.0
  C  C77  1  0.14400000  0.35654000  0.59346000  1.0
  C  C78  1  0.83185000  0.59594000  0.91774000  1.0
  C  C79  1  0.59593000  0.83185000  0.41774000  1.0
  C  C80  1  0.16815000  0.40406000  0.08226000  1.0
  C  C81  1  0.40406000  0.16815000  0.58226000  1.0
  N  N82  1  0.86968000  0.13032000  0.75000000  1.0
  N  N83  1  0.13032000  0.86968000  0.25000000  1.0
  N  N84  1  0.23193000  0.76807000  0.75000000  1.0
  N  N85  1  0.76807000  0.23193000  0.25000000  1.0
  O  O86  1  0.96847000  0.86296000  0.94383000  1.0
  O  O87  1  0.86296000  0.96847000  0.44383000  1.0
  O  O88  1  0.03153000  0.13704000  0.05617000  1.0
  O  O89  1  0.13704000  0.03153000  0.55617000  1.0
  O  O90  1  0.89580000  0.81654000  0.75634000  1.0
  O  O91  1  0.81654000  0.89580000  0.25634000  1.0
  O  O92  1  0.10420000  0.18346000  0.24366000  1.0
  O  O93  1  0.18346000  0.10420000  0.74366000  1.0
  O  O94  1  0.80815000  0.74703000  0.10870000  1.0
  O  O95  1  0.74704000  0.80815000  0.60870000  1.0
  O  O96  1  0.19185000  0.25296000  0.89130000  1.0
  O  O97  1  0.25297000  0.19185000  0.39130000  1.0
