# generated using pymatgen
data_KH2C2(NO)4
_symmetry_space_group_name_H-M   'P 1'
_cell_length_a   5.96481000
_cell_length_b   6.42988000
_cell_length_c   16.15200000
_cell_angle_alpha   90.00020000
_cell_angle_beta   90.00010000
_cell_angle_gamma   98.63650000
_symmetry_Int_Tables_number   1
_chemical_formula_structural   KH2C2(NO)4
_chemical_formula_sum   'K4 H8 C8 N16 O16'
_cell_volume   612.45354905
_cell_formula_units_Z   4
loop_
 _symmetry_equiv_pos_site_id
 _symmetry_equiv_pos_as_xyz
  1  'x, y, z'
loop_
 _atom_site_type_symbol
 _atom_site_label
 _atom_site_symmetry_multiplicity
 _atom_site_fract_x
 _atom_site_fract_y
 _atom_site_fract_z
 _atom_site_occupancy
  K  K0  1  0.96585000  0.71025000  0.78083000  1.0
  K  K1  1  0.53416000  0.78974000  0.28083000  1.0
  K  K2  1  0.03416000  0.28974000  0.21917000  1.0
  K  K3  1  0.46583000  0.21025000  0.71917000  1.0
  H  H4  1  0.92731000  0.22100000  0.84195000  1.0
  H  H5  1  0.57268000  0.27899000  0.34195000  1.0
  H  H6  1  0.07268000  0.77899000  0.15805000  1.0
  H  H7  1  0.42732000  0.72101000  0.65805000  1.0
  H  H8  1  0.71188000  0.28362000  0.88585000  1.0
  H  H9  1  0.78812000  0.21638000  0.38585000  1.0
  H  H10  1  0.28812000  0.71638000  0.11415000  1.0
  H  H11  1  0.21188000  0.78362000  0.61415000  1.0
  C  C12  1  0.10957000  0.06259000  0.00320000  1.0
  C  C13  1  0.39043000  0.43741000  0.50320000  1.0
  C  C14  1  0.89043000  0.93741000  0.99680000  1.0
  C  C15  1  0.60957000  0.56259000  0.49680000  1.0
  C  C16  1  0.41548000  0.23369000  0.04400000  1.0
  C  C17  1  0.08452000  0.26631000  0.54400000  1.0
  C  C18  1  0.58452000  0.76631000  0.95600000  1.0
  C  C19  1  0.91547000  0.73370000  0.45600000  1.0
  N  N20  1  0.24928000  0.12100000  0.93504000  1.0
  N  N21  1  0.25073000  0.37900000  0.43503000  1.0
  N  N22  1  0.75073000  0.87900000  0.06496000  1.0
  N  N23  1  0.74927000  0.62100000  0.56497000  1.0
  N  N24  1  0.44796000  0.22722000  0.96149000  1.0
  N  N25  1  0.05205000  0.27278000  0.46149000  1.0
  N  N26  1  0.55204000  0.77278000  0.03851000  1.0
  N  N27  1  0.94795000  0.72722000  0.53851000  1.0
  N  N28  1  0.21526000  0.13857000  0.07232000  1.0
  N  N29  1  0.28474000  0.36143000  0.57232000  1.0
  N  N30  1  0.78474000  0.86143000  0.92768000  1.0
  N  N31  1  0.71526000  0.63858000  0.42768000  1.0
  N  N32  1  0.58731000  0.33178000  0.09802000  1.0
  N  N33  1  0.91269000  0.16822000  0.59802000  1.0
  N  N34  1  0.41269000  0.66822000  0.90198000  1.0
  N  N35  1  0.08731000  0.83178000  0.40198000  1.0
  O  O36  1  0.80479000  0.30626000  0.83537000  1.0
  O  O37  1  0.69521000  0.19375000  0.33536000  1.0
  O  O38  1  0.19521000  0.69375000  0.16463000  1.0
  O  O39  1  0.30479000  0.80625000  0.66464000  1.0
  O  O40  1  0.20227000  0.08917000  0.85789000  1.0
  O  O41  1  0.29773000  0.41084000  0.35789000  1.0
  O  O42  1  0.79772000  0.91083000  0.14211000  1.0
  O  O43  1  0.70227000  0.58916000  0.64211000  1.0
  O  O44  1  0.78081000  0.38752000  0.06869000  1.0
  O  O45  1  0.71920000  0.11248000  0.56869000  1.0
  O  O46  1  0.21920000  0.61249000  0.93130000  1.0
  O  O47  1  0.28080000  0.88751000  0.43131000  1.0
  O  O48  1  0.53674000  0.35539000  0.17249000  1.0
  O  O49  1  0.96326000  0.14462000  0.67248000  1.0
  O  O50  1  0.46326000  0.64461000  0.82751000  1.0
  O  O51  1  0.03675000  0.85537000  0.32752000  1.0
