# generated using pymatgen
data_CuH8C6IN2
_symmetry_space_group_name_H-M   'P 1'
_cell_length_a   6.96575000
_cell_length_b   8.31458000
_cell_length_c   13.59240000
_cell_angle_alpha   90.00020000
_cell_angle_beta   90.00040000
_cell_angle_gamma   99.19980000
_symmetry_Int_Tables_number   1
_chemical_formula_structural   CuH8C6IN2
_chemical_formula_sum   'Cu4 H32 C24 I4 N8'
_cell_volume   777.10857133
_cell_formula_units_Z   4
loop_
 _symmetry_equiv_pos_site_id
 _symmetry_equiv_pos_as_xyz
  1  'x, y, z'
loop_
 _atom_site_type_symbol
 _atom_site_label
 _atom_site_symmetry_multiplicity
 _atom_site_fract_x
 _atom_site_fract_y
 _atom_site_fract_z
 _atom_site_occupancy
  Cu  Cu0  1  0.18543000  0.04514000  0.53744000  1.0
  Cu  Cu1  1  0.31458000  0.95486000  0.03743000  1.0
  Cu  Cu2  1  0.81458000  0.95487000  0.46256000  1.0
  Cu  Cu3  1  0.68541000  0.04513000  0.96256000  1.0
  H  H4  1  0.13927000  0.38799000  0.50287000  1.0
  H  H5  1  0.36074000  0.61199000  0.00287000  1.0
  H  H6  1  0.86072000  0.61201000  0.49714000  1.0
  H  H7  1  0.63927000  0.38800000  0.99714000  1.0
  H  H8  1  0.37411000  0.88251000  0.65440000  1.0
  H  H9  1  0.12589000  0.11749000  0.15441000  1.0
  H  H10  1  0.62589000  0.11750000  0.34559000  1.0
  H  H11  1  0.87410000  0.88250000  0.84559000  1.0
  H  H12  1  0.55640000  0.68519000  0.68856000  1.0
  H  H13  1  0.94359000  0.31481000  0.18856000  1.0
  H  H14  1  0.44359000  0.31481000  0.31144000  1.0
  H  H15  1  0.05641000  0.68519000  0.81145000  1.0
  H  H16  1  0.69437000  0.43141000  0.72756000  1.0
  H  H17  1  0.80565000  0.56861000  0.22755000  1.0
  H  H18  1  0.30565000  0.56861000  0.27244000  1.0
  H  H19  1  0.19434000  0.43138000  0.77244000  1.0
  H  H20  1  0.54140000  0.16758000  0.65626000  1.0
  H  H21  1  0.95862000  0.83242000  0.15625000  1.0
  H  H22  1  0.45861000  0.83243000  0.34374000  1.0
  H  H23  1  0.04137000  0.16757000  0.84374000  1.0
  H  H24  1  0.09760000  0.69456000  0.61276000  1.0
  H  H25  1  0.40240000  0.30543000  0.11276000  1.0
  H  H26  1  0.90239000  0.30544000  0.38724000  1.0
  H  H27  1  0.59760000  0.69455000  0.88724000  1.0
  H  H28  1  0.47666000  0.86899000  0.54684000  1.0
  H  H29  1  0.02334000  0.13100000  0.04684000  1.0
  H  H30  1  0.52334000  0.13101000  0.45315000  1.0
  H  H31  1  0.97666000  0.86900000  0.95315000  1.0
  H  H32  1  0.18246000  0.68691000  0.49092000  1.0
  H  H33  1  0.31754000  0.31308000  0.99092000  1.0
  H  H34  1  0.81754000  0.31309000  0.50908000  1.0
  H  H35  1  0.68246000  0.68692000  0.00908000  1.0
  C  C36  1  0.25868000  0.40275000  0.55563000  1.0
  C  C37  1  0.24134000  0.59724000  0.05563000  1.0
  C  C38  1  0.74133000  0.59725000  0.44437000  1.0
  C  C39  1  0.75867000  0.40275000  0.94437000  1.0
  C  C40  1  0.33042000  0.55588000  0.59471000  1.0
  C  C41  1  0.16957000  0.44412000  0.09471000  1.0
  C  C42  1  0.66957000  0.44413000  0.40529000  1.0
  C  C43  1  0.83044000  0.55588000  0.90530000  1.0
  C  C44  1  0.49062000  0.56769000  0.65801000  1.0
  C  C45  1  0.00938000  0.43232000  0.15801000  1.0
  C  C46  1  0.50938000  0.43232000  0.34199000  1.0
  C  C47  1  0.99061000  0.56769000  0.84200000  1.0
  C  C48  1  0.56834000  0.42716000  0.67967000  1.0
  C  C49  1  0.93166000  0.57284000  0.17966000  1.0
  C  C50  1  0.43167000  0.57283000  0.32033000  1.0
  C  C51  1  0.06833000  0.42717000  0.82034000  1.0
  C  C52  1  0.48333000  0.27879000  0.63975000  1.0
  C  C53  1  0.01669000  0.72121000  0.13975000  1.0
  C  C54  1  0.51668000  0.72122000  0.36025000  1.0
  C  C55  1  0.98331000  0.27879000  0.86025000  1.0
  C  C56  1  0.23066000  0.69846000  0.56807000  1.0
  C  C57  1  0.26936000  0.30153000  0.06807000  1.0
  C  C58  1  0.76935000  0.30154000  0.43193000  1.0
  C  C59  1  0.73064000  0.69846000  0.93193000  1.0
  I  I60  1  0.12642000  0.02102000  0.34797000  1.0
  I  I61  1  0.37357000  0.97897000  0.84797000  1.0
  I  I62  1  0.87358000  0.97898000  0.65203000  1.0
  I  I63  1  0.62642000  0.02102000  0.15203000  1.0
  N  N64  1  0.32911000  0.26539000  0.57827000  1.0
  N  N65  1  0.17090000  0.73461000  0.07826000  1.0
  N  N66  1  0.67089000  0.73461000  0.42173000  1.0
  N  N67  1  0.82910000  0.26539000  0.92174000  1.0
  N  N68  1  0.34385000  0.86151000  0.58106000  1.0
  N  N69  1  0.15616000  0.13848000  0.08106000  1.0
  N  N70  1  0.65615000  0.13849000  0.41894000  1.0
  N  N71  1  0.84384000  0.86151000  0.91894000  1.0
