# generated using pymatgen
data_Cu4H24WC36S4(N9Cl)2
_symmetry_space_group_name_H-M   'P 1'
_cell_length_a   13.99890000
_cell_length_b   20.12230000
_cell_length_c   20.12220000
_cell_angle_alpha   74.32200000
_cell_angle_beta   90.00120000
_cell_angle_gamma   90.00020000
_symmetry_Int_Tables_number   1
_chemical_formula_structural   Cu4H24WC36S4(N9Cl)2
_chemical_formula_sum   'Cu16 H96 W4 C144 S16 N72 Cl8'
_cell_volume   5457.34084585
_cell_formula_units_Z   4
loop_
 _symmetry_equiv_pos_site_id
 _symmetry_equiv_pos_as_xyz
  1  'x, y, z'
loop_
 _atom_site_type_symbol
 _atom_site_label
 _atom_site_symmetry_multiplicity
 _atom_site_fract_x
 _atom_site_fract_y
 _atom_site_fract_z
 _atom_site_occupancy
  Cu  Cu0  1  0.17285000  0.22384000  0.88870000  1.0
  Cu  Cu1  1  0.17308000  0.27623000  0.61143000  1.0
  Cu  Cu2  1  0.32692000  0.88858000  0.22378000  1.0
  Cu  Cu3  1  0.32713000  0.61131000  0.27616000  1.0
  Cu  Cu4  1  0.82716000  0.77617000  0.11131000  1.0
  Cu  Cu5  1  0.82694000  0.72377000  0.38858000  1.0
  Cu  Cu6  1  0.67306000  0.11142000  0.77622000  1.0
  Cu  Cu7  1  0.67284000  0.38869000  0.72384000  1.0
  Cu  Cu8  1  0.18456000  0.11466000  0.75806000  1.0
  Cu  Cu9  1  0.18430000  0.38549000  0.74204000  1.0
  Cu  Cu10  1  0.31570000  0.75798000  0.11450000  1.0
  Cu  Cu11  1  0.31544000  0.74195000  0.38534000  1.0
  Cu  Cu12  1  0.81545000  0.88534000  0.24194000  1.0
  Cu  Cu13  1  0.81571000  0.61450000  0.25798000  1.0
  Cu  Cu14  1  0.68429000  0.24202000  0.88550000  1.0
  Cu  Cu15  1  0.68456000  0.25806000  0.61467000  1.0
  H  H16  1  0.16877000  0.26362000  0.01727000  1.0
  H  H17  1  0.16889000  0.23651000  0.48274000  1.0
  H  H18  1  0.33111000  0.01727000  0.26349000  1.0
  H  H19  1  0.33124000  0.48274000  0.23637000  1.0
  H  H20  1  0.83124000  0.73638000  0.98273000  1.0
  H  H21  1  0.83112000  0.76349000  0.51726000  1.0
  H  H22  1  0.66887000  0.98274000  0.73651000  1.0
  H  H23  1  0.66876000  0.51727000  0.76362000  1.0
  H  H24  1  0.26395000  0.33562000  0.07770000  1.0
  H  H25  1  0.26399000  0.16452000  0.42228000  1.0
  H  H26  1  0.23601000  0.07773000  0.33549000  1.0
  H  H27  1  0.23607000  0.42231000  0.16438000  1.0
  H  H28  1  0.73605000  0.66439000  0.92230000  1.0
  H  H29  1  0.73602000  0.83548000  0.57773000  1.0
  H  H30  1  0.76398000  0.92228000  0.66451000  1.0
  H  H31  1  0.76395000  0.57771000  0.83561000  1.0
  H  H32  1  0.48150000  0.35096000  0.92121000  1.0
  H  H33  1  0.48160000  0.14906000  0.57872000  1.0
  H  H34  1  0.01842000  0.92128000  0.35094000  1.0
  H  H35  1  0.01850000  0.57879000  0.14902000  1.0
  H  H36  1  0.51851000  0.64904000  0.07879000  1.0
  H  H37  1  0.51841000  0.85094000  0.42129000  1.0
  H  H38  1  0.98158000  0.07872000  0.64906000  1.0
  H  H39  1  0.98149000  0.42120000  0.85097000  1.0
  H  H40  1  0.37498000  0.28233000  0.86572000  1.0
  H  H41  1  0.37516000  0.21768000  0.63428000  1.0
  H  H42  1  0.12485000  0.86573000  0.28232000  1.0
  H  H43  1  0.12501000  0.63429000  0.21766000  1.0
  H  H44  1  0.62504000  0.71767000  0.13428000  1.0
  H  H45  1  0.62485000  0.78232000  0.36572000  1.0
  H  H46  1  0.87514000  0.13428000  0.71768000  1.0
  H  H47  1  0.87497000  0.36572000  0.78233000  1.0
  H  H48  1  0.50187000  0.50808000  0.21335000  1.0
  H  H49  1  0.50175000  0.99190000  0.28661000  1.0
  H  H50  1  0.99826000  0.21339000  0.50811000  1.0
  H  H51  1  0.99812000  0.28664000  0.99193000  1.0
  H  H52  1  0.49813000  0.49193000  0.78665000  1.0
  H  H53  1  0.49826000  0.00811000  0.71338000  1.0
  H  H54  1  0.00174000  0.78662000  0.49190000  1.0
  H  H55  1  0.00186000  0.71335000  0.00807000  1.0
  H  H56  1  0.61002000  0.57112000  0.27059000  1.0
  H  H57  1  0.60980000  0.92878000  0.22942000  1.0
  H  H58  1  0.89021000  0.27058000  0.57122000  1.0
  H  H59  1  0.88997000  0.22940000  0.92889000  1.0
  H  H60  1  0.38998000  0.42888000  0.72942000  1.0
  H  H61  1  0.39022000  0.07122000  0.77058000  1.0
  H  H62  1  0.10979000  0.72942000  0.42878000  1.0
  H  H63  1  0.11000000  0.77058000  0.07111000  1.0
  H  H64  1  0.83490000  0.55815000  0.13896000  1.0
  H  H65  1  0.83477000  0.94178000  0.36097000  1.0
  H  H66  1  0.66522000  0.13904000  0.55820000  1.0
  H  H67  1  0.66509000  0.36105000  0.94184000  1.0
  H  H68  1  0.16509000  0.44185000  0.86105000  1.0
  H  H69  1  0.16523000  0.05821000  0.63903000  1.0
  H  H70  1  0.33477000  0.86098000  0.44179000  1.0
  H  H71  1  0.33490000  0.63896000  0.05814000  1.0
  H  H72  1  0.73593000  0.49351000  0.07594000  1.0
  H  H73  1  0.73585000  0.00647000  0.42395000  1.0
  H  H74  1  0.76416000  0.07606000  0.49352000  1.0
  H  H75  1  0.76407000  0.42406000  0.00649000  1.0
  H  H76  1  0.26407000  0.50649000  0.92406000  1.0
  H  H77  1  0.26416000  0.99353000  0.57605000  1.0
  H  H78  1  0.23584000  0.92395000  0.50648000  1.0
  H  H79  1  0.23593000  0.57595000  0.99350000  1.0
  H  H80  1  0.10095000  0.97209000  0.76268000  1.0
  H  H81  1  0.10052000  0.52785000  0.73753000  1.0
  H  H82  1  0.39950000  0.76248000  0.97214000  1.0
  H  H83  1  0.39905000  0.73734000  0.52791000  1.0
  H  H84  1  0.89905000  0.02791000  0.23733000  1.0
  H  H85  1  0.89949000  0.47214000  0.26247000  1.0
  H  H86  1  0.60051000  0.23752000  0.02786000  1.0
  H  H87  1  0.60097000  0.26268000  0.47208000  1.0
  H  H88  1  0.95127000  0.90989000  0.81438000  1.0
  H  H89  1  0.95084000  0.59004000  0.68578000  1.0
  H  H90  1  0.54917000  0.81421000  0.90997000  1.0
  H  H91  1  0.54872000  0.68563000  0.59011000  1.0
  H  H92  1  0.04872000  0.09011000  0.18562000  1.0
  H  H93  1  0.04917000  0.40995000  0.31421000  1.0
  H  H94  1  0.45084000  0.18578000  0.09005000  1.0
  H  H95  1  0.45129000  0.31438000  0.40988000  1.0
  H  H96  1  0.91767000  0.06266000  0.92740000  1.0
  H  H97  1  0.91755000  0.43741000  0.57257000  1.0
  H  H98  1  0.58245000  0.92743000  0.06260000  1.0
  H  H99  1  0.58231000  0.57259000  0.43734000  1.0
  H  H100  1  0.08231000  0.93734000  0.07259000  1.0
  H  H101  1  0.08246000  0.56258000  0.42743000  1.0
  H  H102  1  0.41756000  0.07256000  0.93742000  1.0
  H  H103  1  0.41768000  0.42741000  0.56265000  1.0
  H  H104  1  0.06730000  0.11760000  0.87335000  1.0
  H  H105  1  0.06718000  0.38249000  0.62664000  1.0
  H  H106  1  0.43281000  0.87337000  0.11750000  1.0
  H  H107  1  0.43269000  0.62665000  0.38240000  1.0
  H  H108  1  0.93269000  0.88240000  0.12665000  1.0
  H  H109  1  0.93282000  0.61749000  0.37337000  1.0
  H  H110  1  0.56719000  0.12663000  0.88251000  1.0
  H  H111  1  0.56730000  0.37335000  0.61759000  1.0
  W  W112  1  0.17612000  0.25006000  0.75005000  1.0
  W  W113  1  0.32388000  0.74996000  0.24993000  1.0
  W  W114  1  0.82389000  0.74993000  0.24996000  1.0
  W  W115  1  0.67611000  0.25005000  0.75007000  1.0
  C  C116  1  0.23797000  0.28530000  0.99775000  1.0
  C  C117  1  0.23809000  0.21482000  0.50224000  1.0
  C  C118  1  0.26191000  0.99777000  0.28518000  1.0
  C  C119  1  0.26203000  0.50226000  0.21470000  1.0
  C  C120  1  0.76204000  0.71470000  0.00225000  1.0
  C  C121  1  0.76192000  0.78517000  0.49776000  1.0
  C  C122  1  0.73808000  0.00224000  0.71482000  1.0
  C  C123  1  0.73796000  0.49775000  0.78529000  1.0
  C  C124  1  0.29167000  0.32417000  0.03151000  1.0
  C  C125  1  0.29175000  0.17594000  0.46847000  1.0
  C  C126  1  0.20824000  0.03154000  0.32405000  1.0
  C  C127  1  0.20833000  0.46850000  0.17583000  1.0
  C  C128  1  0.70832000  0.67583000  0.96849000  1.0
  C  C129  1  0.70825000  0.82405000  0.53154000  1.0
  C  C130  1  0.79175000  0.96846000  0.67594000  1.0
  C  C131  1  0.79167000  0.53151000  0.82416000  1.0
  C  C132  1  0.38129000  0.34873000  0.00452000  1.0
  C  C133  1  0.38136000  0.15134000  0.49542000  1.0
  C  C134  1  0.11864000  0.00458000  0.34866000  1.0
  C  C135  1  0.11871000  0.49548000  0.15126000  1.0
  C  C136  1  0.61872000  0.65127000  0.99548000  1.0
  C  C137  1  0.61865000  0.84866000  0.50458000  1.0
  C  C138  1  0.88135000  0.99542000  0.65134000  1.0
  C  C139  1  0.88128000  0.50452000  0.84873000  1.0
  C  C140  1  0.41253000  0.33316000  0.94408000  1.0
  C  C141  1  0.41264000  0.16691000  0.55586000  1.0
  C  C142  1  0.08737000  0.94414000  0.33309000  1.0
  C  C143  1  0.08747000  0.55592000  0.16683000  1.0
  C  C144  1  0.58748000  0.66684000  0.05592000  1.0
  C  C145  1  0.58736000  0.83309000  0.44414000  1.0
  C  C146  1  0.91262000  0.05586000  0.66691000  1.0
  C  C147  1  0.91253000  0.44407000  0.83315000  1.0
  C  C148  1  0.35343000  0.29500000  0.91303000  1.0
  C  C149  1  0.35357000  0.20506000  0.58695000  1.0
  C  C150  1  0.14643000  0.91306000  0.29494000  1.0
  C  C151  1  0.14657000  0.58698000  0.20499000  1.0
  C  C152  1  0.64659000  0.70500000  0.08697000  1.0
  C  C153  1  0.64643000  0.79494000  0.41306000  1.0
  C  C154  1  0.85356000  0.08694000  0.70506000  1.0
  C  C155  1  0.85342000  0.41302000  0.79500000  1.0
  C  C156  1  0.44066000  0.38960000  0.03873000  1.0
  C  C157  1  0.44067000  0.11047000  0.46120000  1.0
  C  C158  1  0.05933000  0.03881000  0.38953000  1.0
  C  C159  1  0.05935000  0.46127000  0.11040000  1.0
  C  C160  1  0.55934000  0.61041000  0.96127000  1.0
  C  C161  1  0.55934000  0.88952000  0.53881000  1.0
  C  C162  1  0.94066000  0.96119000  0.61047000  1.0
  C  C163  1  0.94066000  0.53873000  0.88959000  1.0
  C  C164  1  0.54770000  0.45807000  0.10206000  1.0
  C  C165  1  0.54762000  0.04193000  0.39788000  1.0
  C  C166  1  0.95238000  0.10213000  0.45806000  1.0
  C  C167  1  0.95230000  0.39794000  0.04193000  1.0
  C  C168  1  0.45230000  0.54193000  0.89794000  1.0
  C  C169  1  0.45239000  0.95806000  0.60214000  1.0
  C  C170  1  0.04761000  0.89787000  0.54194000  1.0
  C  C171  1  0.04769000  0.60206000  0.95806000  1.0
  C  C172  1  0.60953000  0.49485000  0.13904000  1.0
  C  C173  1  0.60942000  0.00510000  0.36093000  1.0
  C  C174  1  0.89058000  0.13908000  0.49488000  1.0
  C  C175  1  0.89047000  0.36096000  0.00515000  1.0
  C  C176  1  0.39047000  0.50515000  0.86097000  1.0
  C  C177  1  0.39059000  0.99489000  0.63908000  1.0
  C  C178  1  0.10941000  0.86093000  0.50512000  1.0
  C  C179  1  0.10953000  0.63904000  0.99484000  1.0
  C  C180  1  0.57497000  0.51738000  0.19471000  1.0
  C  C181  1  0.57482000  0.98254000  0.30529000  1.0
  C  C182  1  0.92518000  0.19472000  0.51745000  1.0
  C  C183  1  0.92502000  0.30528000  0.98263000  1.0
  C  C184  1  0.42503000  0.48262000  0.80529000  1.0
  C  C185  1  0.42518000  0.01746000  0.69471000  1.0
  C  C186  1  0.07482000  0.80528000  0.48255000  1.0
  C  C187  1  0.07496000  0.69471000  0.01737000  1.0
  C  C188  1  0.63584000  0.55304000  0.22736000  1.0
  C  C189  1  0.63565000  0.94687000  0.27263000  1.0
  C  C190  1  0.86435000  0.22738000  0.55312000  1.0
  C  C191  1  0.86415000  0.27264000  0.94697000  1.0
  C  C192  1  0.36416000  0.44697000  0.77264000  1.0
  C  C193  1  0.36435000  0.05313000  0.72738000  1.0
  C  C194  1  0.13565000  0.77263000  0.44688000  1.0
  C  C195  1  0.13583000  0.72737000  0.05302000  1.0
  C  C196  1  0.76084000  0.54557000  0.15400000  1.0
  C  C197  1  0.76070000  0.95434000  0.34595000  1.0
  C  C198  1  0.73930000  0.15407000  0.54564000  1.0
  C  C199  1  0.73916000  0.34601000  0.95443000  1.0
  C  C200  1  0.23916000  0.45443000  0.84601000  1.0
  C  C201  1  0.23931000  0.04565000  0.65405000  1.0
  C  C202  1  0.26069000  0.84595000  0.45435000  1.0
  C  C203  1  0.26083000  0.65400000  0.04556000  1.0
  C  C204  1  0.70503000  0.50949000  0.11875000  1.0
  C  C205  1  0.70493000  0.99047000  0.38117000  1.0
  C  C206  1  0.79507000  0.11885000  0.50951000  1.0
  C  C207  1  0.79497000  0.38125000  0.99052000  1.0
  C  C208  1  0.29497000  0.49052000  0.88125000  1.0
  C  C209  1  0.29507000  0.00952000  0.61884000  1.0
  C  C210  1  0.20493000  0.88116000  0.49048000  1.0
  C  C211  1  0.20503000  0.61876000  0.00947000  1.0
  C  C212  1  0.05800000  0.99021000  0.79959000  1.0
  C  C213  1  0.05763000  0.50977000  0.70056000  1.0
  C  C214  1  0.44237000  0.79945000  0.99023000  1.0
  C  C215  1  0.44199000  0.70042000  0.50979000  1.0
  C  C216  1  0.94199000  0.00980000  0.20041000  1.0
  C  C217  1  0.94237000  0.49023000  0.29944000  1.0
  C  C218  1  0.55763000  0.20055000  0.00978000  1.0
  C  C219  1  0.55802000  0.29959000  0.49019000  1.0
  C  C220  1  0.97536000  0.95597000  0.82794000  1.0
  C  C221  1  0.97501000  0.54399000  0.67219000  1.0
  C  C222  1  0.52501000  0.82781000  0.95601000  1.0
  C  C223  1  0.52463000  0.67207000  0.54403000  1.0
  C  C224  1  0.02463000  0.04403000  0.17206000  1.0
  C  C225  1  0.02500000  0.45600000  0.32780000  1.0
  C  C226  1  0.47500000  0.17218000  0.04401000  1.0
  C  C227  1  0.47537000  0.32794000  0.45596000  1.0
  C  C228  1  0.92166000  0.98271000  0.87360000  1.0
  C  C229  1  0.92139000  0.51729000  0.62645000  1.0
  C  C230  1  0.57861000  0.87355000  0.98272000  1.0
  C  C231  1  0.57833000  0.62639000  0.51729000  1.0
  C  C232  1  0.07833000  0.01729000  0.12639000  1.0
  C  C233  1  0.07861000  0.48271000  0.37355000  1.0
  C  C234  1  0.42140000  0.12644000  0.01729000  1.0
  C  C235  1  0.42167000  0.37360000  0.48270000  1.0
  C  C236  1  0.95603000  0.04115000  0.89104000  1.0
  C  C237  1  0.95585000  0.45890000  0.60897000  1.0
  C  C238  1  0.54415000  0.89103000  0.04110000  1.0
  C  C239  1  0.54396000  0.60896000  0.45885000  1.0
  C  C240  1  0.04396000  0.95885000  0.10896000  1.0
  C  C241  1  0.04415000  0.54110000  0.39103000  1.0
  C  C242  1  0.45586000  0.10896000  0.95890000  1.0
  C  C243  1  0.45604000  0.39104000  0.54114000  1.0
  C  C244  1  0.03939000  0.07196000  0.86058000  1.0
  C  C245  1  0.03919000  0.42809000  0.63945000  1.0
  C  C246  1  0.46080000  0.86056000  0.07190000  1.0
  C  C247  1  0.46060000  0.63941000  0.42805000  1.0
  C  C248  1  0.96061000  0.92805000  0.13941000  1.0
  C  C249  1  0.96081000  0.57190000  0.36056000  1.0
  C  C250  1  0.53920000  0.13944000  0.92810000  1.0
  C  C251  1  0.53940000  0.36059000  0.57195000  1.0
  C  C252  1  0.83040000  0.95222000  0.90209000  1.0
  C  C253  1  0.83014000  0.54779000  0.59792000  1.0
  C  C254  1  0.66987000  0.90208000  0.95221000  1.0
  C  C255  1  0.66960000  0.59791000  0.54779000  1.0
  C  C256  1  0.16960000  0.04779000  0.09790000  1.0
  C  C257  1  0.16986000  0.45220000  0.40207000  1.0
  C  C258  1  0.33014000  0.09792000  0.04780000  1.0
  C  C259  1  0.33040000  0.40209000  0.45220000  1.0
  S  S260  1  0.26798000  0.17200000  0.82389000  1.0
  S  S261  1  0.26795000  0.32819000  0.67624000  1.0
  S  S262  1  0.23205000  0.82376000  0.17182000  1.0
  S  S263  1  0.23202000  0.67612000  0.32799000  1.0
  S  S264  1  0.73202000  0.82799000  0.17612000  1.0
  S  S265  1  0.73207000  0.67181000  0.32377000  1.0
  S  S266  1  0.76793000  0.17623000  0.82818000  1.0
  S  S267  1  0.76797000  0.32389000  0.67201000  1.0
  S  S268  1  0.08416000  0.30424000  0.81087000  1.0
  S  S269  1  0.08429000  0.19589000  0.68928000  1.0
  S  S270  1  0.41571000  0.81074000  0.30411000  1.0
  S  S271  1  0.41584000  0.68914000  0.19576000  1.0
  S  S272  1  0.91585000  0.69576000  0.18914000  1.0
  S  S273  1  0.91572000  0.80411000  0.31073000  1.0
  S  S274  1  0.58428000  0.18928000  0.69589000  1.0
  S  S275  1  0.58415000  0.31086000  0.80424000  1.0
  N  N276  1  0.26746000  0.27129000  0.93921000  1.0
  N  N277  1  0.26762000  0.22881000  0.56079000  1.0
  N  N278  1  0.23238000  0.93922000  0.27119000  1.0
  N  N279  1  0.23254000  0.56080000  0.22870000  1.0
  N  N280  1  0.73255000  0.72870000  0.06080000  1.0
  N  N281  1  0.73239000  0.77120000  0.43922000  1.0
  N  N282  1  0.76760000  0.06078000  0.72880000  1.0
  N  N283  1  0.76745000  0.43920000  0.77129000  1.0
  N  N284  1  0.40239000  0.40932000  0.09250000  1.0
  N  N285  1  0.40237000  0.09079000  0.40741000  1.0
  N  N286  1  0.09764000  0.09259000  0.40921000  1.0
  N  N287  1  0.09761000  0.40749000  0.09069000  1.0
  N  N288  1  0.59761000  0.59070000  0.90749000  1.0
  N  N289  1  0.59764000  0.90920000  0.59260000  1.0
  N  N290  1  0.90236000  0.90740000  0.59080000  1.0
  N  N291  1  0.90239000  0.59250000  0.90930000  1.0
  N  N292  1  0.45671000  0.44360000  0.12487000  1.0
  N  N293  1  0.45665000  0.05648000  0.37505000  1.0
  N  N294  1  0.04335000  0.12496000  0.44351000  1.0
  N  N295  1  0.04329000  0.37513000  0.05640000  1.0
  N  N296  1  0.54328000  0.55641000  0.87513000  1.0
  N  N297  1  0.54335000  0.94351000  0.62497000  1.0
  N  N298  1  0.95665000  0.87503000  0.55649000  1.0
  N  N299  1  0.95671000  0.62486000  0.94358000  1.0
  N  N300  1  0.52968000  0.40723000  0.01375000  1.0
  N  N301  1  0.52968000  0.09278000  0.48617000  1.0
  N  N302  1  0.97033000  0.01383000  0.40721000  1.0
  N  N303  1  0.97033000  0.48625000  0.09277000  1.0
  N  N304  1  0.47032000  0.59278000  0.98624000  1.0
  N  N305  1  0.47033000  0.90720000  0.51384000  1.0
  N  N306  1  0.02967000  0.98617000  0.59280000  1.0
  N  N307  1  0.02968000  0.51375000  0.90722000  1.0
  N  N308  1  0.58380000  0.44249000  0.04563000  1.0
  N  N309  1  0.58375000  0.05752000  0.45429000  1.0
  N  N310  1  0.91625000  0.04571000  0.44247000  1.0
  N  N311  1  0.91620000  0.45437000  0.05752000  1.0
  N  N312  1  0.41620000  0.55753000  0.95436000  1.0
  N  N313  1  0.41626000  0.94246000  0.54572000  1.0
  N  N314  1  0.08374000  0.95428000  0.55754000  1.0
  N  N315  1  0.08380000  0.54563000  0.94247000  1.0
  N  N316  1  0.72760000  0.56730000  0.20772000  1.0
  N  N317  1  0.72742000  0.93259000  0.29225000  1.0
  N  N318  1  0.77259000  0.20775000  0.56740000  1.0
  N  N319  1  0.77240000  0.29228000  0.93270000  1.0
  N  N320  1  0.27240000  0.43270000  0.79229000  1.0
  N  N321  1  0.27259000  0.06741000  0.70775000  1.0
  N  N322  1  0.22741000  0.79226000  0.43260000  1.0
  N  N323  1  0.22759000  0.70772000  0.06729000  1.0
  N  N324  1  0.08900000  0.04808000  0.81441000  1.0
  N  N325  1  0.08872000  0.45194000  0.68568000  1.0
  N  N326  1  0.41128000  0.81433000  0.04805000  1.0
  N  N327  1  0.41100000  0.68560000  0.45192000  1.0
  N  N328  1  0.91100000  0.95192000  0.18560000  1.0
  N  N329  1  0.91128000  0.54805000  0.31433000  1.0
  N  N330  1  0.58872000  0.18567000  0.95196000  1.0
  N  N331  1  0.58900000  0.31440000  0.54807000  1.0
  N  N332  1  0.79147000  0.97701000  0.95227000  1.0
  N  N333  1  0.79125000  0.52296000  0.54775000  1.0
  N  N334  1  0.70875000  0.95225000  0.97704000  1.0
  N  N335  1  0.70853000  0.54773000  0.52299000  1.0
  N  N336  1  0.20854000  0.02298000  0.04773000  1.0
  N  N337  1  0.20875000  0.47703000  0.45224000  1.0
  N  N338  1  0.29126000  0.04775000  0.02297000  1.0
  N  N339  1  0.29147000  0.45226000  0.47700000  1.0
  N  N340  1  0.79091000  0.90341000  0.87625000  1.0
  N  N341  1  0.79061000  0.59658000  0.62377000  1.0
  N  N342  1  0.70939000  0.87623000  0.90342000  1.0
  N  N343  1  0.70908000  0.62375000  0.59660000  1.0
  N  N344  1  0.20909000  0.09659000  0.12375000  1.0
  N  N345  1  0.20939000  0.40341000  0.37622000  1.0
  N  N346  1  0.29061000  0.12376000  0.09659000  1.0
  N  N347  1  0.29092000  0.37625000  0.40339000  1.0
  Cl  Cl348  1  0.07363000  0.16853000  0.97589000  1.0
  Cl  Cl349  1  0.07385000  0.33151000  0.52421000  1.0
  Cl  Cl350  1  0.42616000  0.97580000  0.16849000  1.0
  Cl  Cl351  1  0.42636000  0.52413000  0.33147000  1.0
  Cl  Cl352  1  0.92637000  0.83147000  0.02411000  1.0
  Cl  Cl353  1  0.92617000  0.66849000  0.47580000  1.0
  Cl  Cl354  1  0.57385000  0.02420000  0.83152000  1.0
  Cl  Cl355  1  0.57362000  0.47588000  0.66853000  1.0
