# generated using pymatgen
data_Hf3H8C20(N3O8)2
_symmetry_space_group_name_H-M   'P 1'
_cell_length_a   15.42380000
_cell_length_b   18.92620000
_cell_length_c   18.93490000
_cell_angle_alpha   88.78000000
_cell_angle_beta   89.88620000
_cell_angle_gamma   89.90610000
_symmetry_Int_Tables_number   1
_chemical_formula_structural   Hf3H8C20(N3O8)2
_chemical_formula_sum   'Hf6 H16 C40 N12 O32'
_cell_volume   5526.09001994
_cell_formula_units_Z   2
loop_
 _symmetry_equiv_pos_site_id
 _symmetry_equiv_pos_as_xyz
  1  'x, y, z'
loop_
 _atom_site_type_symbol
 _atom_site_label
 _atom_site_symmetry_multiplicity
 _atom_site_fract_x
 _atom_site_fract_y
 _atom_site_fract_z
 _atom_site_occupancy
  Hf  Hf0  1  0.99356000  0.09864000  0.01030000  1.0
  Hf  Hf1  1  0.99689000  0.96081000  0.88739000  1.0
  Hf  Hf2  1  0.99652000  0.97297000  0.15049000  1.0
  Hf  Hf3  1  0.99377000  0.83559000  0.02789000  1.0
  Hf  Hf4  1  0.83452000  0.96744000  0.01922000  1.0
  Hf  Hf5  1  0.15616000  0.96712000  0.01920000  1.0
  H  H6  1  0.11246000  0.07815000  0.90903000  1.0
  H  H7  1  0.87460000  0.85752000  0.91451000  1.0
  H  H8  1  0.11173000  0.85585000  0.12989000  1.0
  H  H9  1  0.87801000  0.07583000  0.12696000  1.0
  H  H10  1  0.94312000  0.86975000  0.78707000  1.0
  H  H11  1  0.05106000  0.73298000  0.94501000  1.0
  H  H12  1  0.96157000  0.73340000  0.12221000  1.0
  H  H13  1  0.03998000  0.90115000  0.27469000  1.0
  H  H14  1  0.02845000  0.06682000  0.24904000  1.0
  H  H15  1  0.94709000  0.22127000  0.07788000  1.0
  H  H16  1  0.96038000  0.19987000  0.91536000  1.0
  H  H17  1  0.04546000  0.03107000  0.76737000  1.0
  H  H18  1  0.93929000  0.89378000  0.25908000  1.0
  H  H19  1  0.04781000  0.20637000  0.08743000  1.0
  H  H20  1  0.94426000  0.04239000  0.77702000  1.0
  H  H21  1  0.95315000  0.71193000  0.95933000  1.0
  C  C22  1  0.49395000  0.35978000  0.02013000  1.0
  C  C23  1  0.42137000  0.25603000  0.02569000  1.0
  C  C24  1  0.56806000  0.25673000  0.01705000  1.0
  C  C25  1  0.49540000  0.57467000  0.01841000  1.0
  C  C26  1  0.56971000  0.67736000  0.02246000  1.0
  C  C27  1  0.42315000  0.67876000  0.01301000  1.0
  C  C28  1  0.49651000  0.97029000  0.62644000  1.0
  C  C29  1  0.42244000  0.97011000  0.72967000  1.0
  C  C30  1  0.56923000  0.97637000  0.72968000  1.0
  C  C31  1  0.49492000  0.96490000  0.41185000  1.0
  C  C32  1  0.42009000  0.96589000  0.30926000  1.0
  C  C33  1  0.56686000  0.95853000  0.30793000  1.0
  C  C34  1  0.78355000  0.13165000  0.00990000  1.0
  C  C35  1  0.20780000  0.96447000  0.85596000  1.0
  C  C36  1  0.78289000  0.97681000  0.85638000  1.0
  C  C37  1  0.20733000  0.12951000  0.02807000  1.0
  C  C38  1  0.20529000  0.97199000  0.18379000  1.0
  C  C39  1  0.78440000  0.80280000  0.02872000  1.0
  C  C40  1  0.20814000  0.80481000  0.01061000  1.0
  C  C41  1  0.78149000  0.95671000  0.18144000  1.0
  C  C42  1  0.27646000  0.97105000  0.23367000  1.0
  C  C43  1  0.34053000  0.96886000  0.27088000  1.0
  C  C44  1  0.64549000  0.95480000  0.26830000  1.0
  C  C45  1  0.70933000  0.95352000  0.23067000  1.0
  C  C46  1  0.34331000  0.96755000  0.76866000  1.0
  C  C47  1  0.27958000  0.96555000  0.80642000  1.0
  C  C48  1  0.64801000  0.97966000  0.76890000  1.0
  C  C49  1  0.71127000  0.98057000  0.80698000  1.0
  C  C50  1  0.49664000  0.96832000  0.55118000  1.0
  C  C51  1  0.49594000  0.96674000  0.48711000  1.0
  C  C52  1  0.28033000  0.75572000  0.00741000  1.0
  C  C53  1  0.34441000  0.71831000  0.00893000  1.0
  C  C54  1  0.64909000  0.71580000  0.02668000  1.0
  C  C55  1  0.71303000  0.75306000  0.02918000  1.0
  C  C56  1  0.34263000  0.21668000  0.02965000  1.0
  C  C57  1  0.27900000  0.17890000  0.03107000  1.0
  C  C58  1  0.71184000  0.18123000  0.01043000  1.0
  C  C59  1  0.64747000  0.21814000  0.01308000  1.0
  C  C60  1  0.49373000  0.43514000  0.01938000  1.0
  C  C61  1  0.49453000  0.49930000  0.01891000  1.0
  N  N62  1  0.41643000  0.32720000  0.02519000  1.0
  N  N63  1  0.49509000  0.21783000  0.02199000  1.0
  N  N64  1  0.57201000  0.32789000  0.01575000  1.0
  N  N65  1  0.57350000  0.60617000  0.02349000  1.0
  N  N66  1  0.49690000  0.71660000  0.01741000  1.0
  N  N67  1  0.41808000  0.60763000  0.01291000  1.0
  N  N68  1  0.41846000  0.96781000  0.65863000  1.0
  N  N69  1  0.49564000  0.97461000  0.76814000  1.0
  N  N70  1  0.57423000  0.97445000  0.65865000  1.0
  N  N71  1  0.41659000  0.96819000  0.38032000  1.0
  N  N72  1  0.49288000  0.96100000  0.27012000  1.0
  N  N73  1  0.57227000  0.96005000  0.37896000  1.0
  O  O74  1  0.86035000  0.15638000  0.00826000  1.0
  O  O75  1  0.76156000  0.06697000  0.01209000  1.0
  O  O76  1  0.13138000  0.96597000  0.83118000  1.0
  O  O77  1  0.22980000  0.96284000  0.92072000  1.0
  O  O78  1  0.85943000  0.98309000  0.83217000  1.0
  O  O79  1  0.76099000  0.96503000  0.92047000  1.0
  O  O80  1  0.13081000  0.15293000  0.03530000  1.0
  O  O81  1  0.22964000  0.06592000  0.01633000  1.0
  O  O82  1  0.00759000  0.17077000  0.93303000  1.0
  O  O83  1  0.98951000  0.18620000  0.09391000  1.0
  O  O84  1  0.00086000  0.04796000  0.79971000  1.0
  O  O85  1  0.99098000  0.88868000  0.81349000  1.0
  O  O86  1  0.92545000  0.02117000  0.96073000  1.0
  O  O87  1  0.08365000  0.04387000  0.93999000  1.0
  O  O88  1  0.12823000  0.97286000  0.20833000  1.0
  O  O89  1  0.22792000  0.97111000  0.11931000  1.0
  O  O90  1  0.86134000  0.77809000  0.02993000  1.0
  O  O91  1  0.76207000  0.86746000  0.02578000  1.0
  O  O92  1  0.13190000  0.78138000  0.00243000  1.0
  O  O93  1  0.22961000  0.86821000  0.02372000  1.0
  O  O94  1  0.85769000  0.94839000  0.20521000  1.0
  O  O95  1  0.76006000  0.96978000  0.11744000  1.0
  O  O96  1  0.99774000  0.88705000  0.23943000  1.0
  O  O97  1  0.98166000  0.04939000  0.22022000  1.0
  O  O98  1  0.00842000  0.76281000  0.10446000  1.0
  O  O99  1  0.99075000  0.74990000  0.94200000  1.0
  O  O100  1  0.08272000  0.89061000  0.09959000  1.0
  O  O101  1  0.92497000  0.91288000  0.07681000  1.0
  O  O102  1  0.06490000  0.02331000  0.07242000  1.0
  O  O103  1  0.90752000  0.88804000  0.94498000  1.0
  O  O104  1  0.90689000  0.04596000  0.09294000  1.0
  O  O105  1  0.06521000  0.91071000  0.96588000  1.0
