# generated using pymatgen
data_Al4H16C36(SO12)3
_symmetry_space_group_name_H-M   'P 1'
_cell_length_a   6.98407000
_cell_length_b   16.31450000
_cell_length_c   18.56870000
_cell_angle_alpha   106.60700000
_cell_angle_beta   90.35210000
_cell_angle_gamma   90.73050000
_symmetry_Int_Tables_number   1
_chemical_formula_structural   Al4H16C36(SO12)3
_chemical_formula_sum   'Al4 H16 C36 S3 O36'
_cell_volume   2027.22421866
_cell_formula_units_Z   1
loop_
 _symmetry_equiv_pos_site_id
 _symmetry_equiv_pos_as_xyz
  1  'x, y, z'
loop_
 _atom_site_type_symbol
 _atom_site_label
 _atom_site_symmetry_multiplicity
 _atom_site_fract_x
 _atom_site_fract_y
 _atom_site_fract_z
 _atom_site_occupancy
  Al  Al0  1  0.14212000  0.49538000  0.50110000  1.0
  Al  Al1  1  0.64322000  0.49717000  0.50171000  1.0
  Al  Al2  1  0.61529000  0.99696000  0.00282000  1.0
  Al  Al3  1  0.11824000  0.99540000  0.00125000  1.0
  H  H4  1  0.69728000  0.78967000  0.80736000  1.0
  H  H5  1  0.17291000  0.70444000  0.83724000  1.0
  H  H6  1  0.03242000  0.16043000  0.36605000  1.0
  H  H7  1  0.65635000  0.60276000  0.75713000  1.0
  H  H8  1  0.01116000  0.85951000  0.71500000  1.0
  H  H9  1  0.58351000  0.14146000  0.31655000  1.0
  H  H10  1  0.56113000  0.33120000  0.14310000  1.0
  H  H11  1  0.87885000  0.34092000  0.12213000  1.0
  H  H12  1  0.22375000  0.36065000  0.19097000  1.0
  H  H13  1  0.35880000  0.27638000  0.32120000  1.0
  H  H14  1  0.31103000  0.90061000  0.67753000  1.0
  H  H15  1  0.71036000  0.82507000  0.66258000  1.0
  H  H16  1  0.39081000  0.39044000  0.50587000  1.0
  H  H17  1  0.90146000  0.60804000  0.53312000  1.0
  H  H18  1  0.36926000  0.09863000  0.05969000  1.0
  H  H19  1  0.86378000  0.89535000  0.01425000  1.0
  C  C20  1  0.39176000  0.61107000  0.61420000  1.0
  C  C21  1  0.39684000  0.58393000  0.42003000  1.0
  C  C22  1  0.89089000  0.39119000  0.38280000  1.0
  C  C23  1  0.88704000  0.40509000  0.58183000  1.0
  C  C24  1  0.88779000  0.35543000  0.63482000  1.0
  C  C25  1  0.88610000  0.31305000  0.67978000  1.0
  C  C26  1  0.88317000  0.26632000  0.72862000  1.0
  C  C27  1  0.87912000  0.22289000  0.77321000  1.0
  C  C28  1  0.87458000  0.17552000  0.82153000  1.0
  C  C29  1  0.87032000  0.13216000  0.86569000  1.0
  C  C30  1  0.75475000  0.19092000  0.26022000  1.0
  C  C31  1  0.93309000  0.23248000  0.30889000  1.0
  C  C32  1  0.88566000  0.32489000  0.30765000  1.0
  C  C33  1  0.70118000  0.29110000  0.25910000  1.0
  C  C34  1  0.82526000  0.27232000  0.18672000  1.0
  C  C35  1  0.00548000  0.31196000  0.23271000  1.0
  C  C36  1  0.05815000  0.21746000  0.23569000  1.0
  C  C37  1  0.87543000  0.18016000  0.18745000  1.0
  C  C38  1  0.49156000  0.77810000  0.69990000  1.0
  C  C39  1  0.30633000  0.82096000  0.73630000  1.0
  C  C40  1  0.37030000  0.81533000  0.81563000  1.0
  C  C41  1  0.55857000  0.77234000  0.77990000  1.0
  C  C42  1  0.45702000  0.68276000  0.76360000  1.0
  C  C43  1  0.26594000  0.72523000  0.79854000  1.0
  C  C44  1  0.20388000  0.73108000  0.71906000  1.0
  C  C45  1  0.38878000  0.68673000  0.68164000  1.0
  C  C46  1  0.39244000  0.63338000  0.36712000  1.0
  C  C47  1  0.38549000  0.67624000  0.32268000  1.0
  C  C48  1  0.37835000  0.72351000  0.27444000  1.0
  C  C49  1  0.37208000  0.76744000  0.23034000  1.0
  C  C50  1  0.36723000  0.81481000  0.18213000  1.0
  C  C51  1  0.36412000  0.85794000  0.13783000  1.0
  C  C52  1  0.36461000  0.90671000  0.08452000  1.0
  C  C53  1  0.36372000  0.88576000  0.88712000  1.0
  C  C54  1  0.86881000  0.08220000  0.91842000  1.0
  C  C55  1  0.87149000  0.10777000  0.11663000  1.0
  S  S56  1  0.97686000  0.72190000  0.67855000  1.0
  S  S57  1  0.53804000  0.37362000  0.26384000  1.0
  S  S58  1  0.26902000  0.16151000  0.23364000  1.0
  O  O59  1  0.56127000  0.56121000  0.43623000  1.0
  O  O60  1  0.22905000  0.57535000  0.59326000  1.0
  O  O61  1  0.04990000  0.41871000  0.55650000  1.0
  O  O62  1  0.23501000  0.56928000  0.44547000  1.0
  O  O63  1  0.05592000  0.41715000  0.40829000  1.0
  O  O64  1  0.55470000  0.58826000  0.58568000  1.0
  O  O65  1  0.39183000  0.44390000  0.49272000  1.0
  O  O66  1  0.73017000  0.40840000  0.41511000  1.0
  O  O67  1  0.72254000  0.42902000  0.56625000  1.0
  O  O68  1  0.89455000  0.54599000  0.51155000  1.0
  O  O69  1  0.19938000  0.91036000  0.91314000  1.0
  O  O70  1  0.52974000  0.92542000  0.06391000  1.0
  O  O71  1  0.70655000  0.08215000  0.09046000  1.0
  O  O72  1  0.52615000  0.91428000  0.91520000  1.0
  O  O73  1  0.70488000  0.06461000  0.94012000  1.0
  O  O74  1  0.20035000  0.92453000  0.06279000  1.0
  O  O75  1  0.36784000  0.04901000  0.01520000  1.0
  O  O76  1  0.03261000  0.06193000  0.93785000  1.0
  O  O77  1  0.03424000  0.08351000  0.08882000  1.0
  O  O78  1  0.86502000  0.94476000  0.99492000  1.0
  O  O79  1  0.98001000  0.21780000  0.37591000  1.0
  O  O80  1  0.52854000  0.61189000  0.77924000  1.0
  O  O81  1  0.98833000  0.71736000  0.59995000  1.0
  O  O82  1  0.85456000  0.66444000  0.70363000  1.0
  O  O83  1  0.90655000  0.81845000  0.72098000  1.0
  O  O84  1  0.65898000  0.12292000  0.27058000  1.0
  O  O85  1  0.37608000  0.37067000  0.31145000  1.0
  O  O86  1  0.64653000  0.45137000  0.27439000  1.0
  O  O87  1  0.45113000  0.34751000  0.17956000  1.0
  O  O88  1  0.78091000  0.29659000  0.12256000  1.0
  O  O89  1  0.08898000  0.37303000  0.20557000  1.0
  O  O90  1  0.22203000  0.07775000  0.23995000  1.0
  O  O91  1  0.39062000  0.17309000  0.17491000  1.0
  O  O92  1  0.35050000  0.21258000  0.31560000  1.0
  O  O93  1  0.23384000  0.89233000  0.71907000  1.0
  O  O94  1  0.57467000  0.81345000  0.64841000  1.0
