# generated using pymatgen
data_MnH16C20S2(N5O3)2
_symmetry_space_group_name_H-M   'P 1'
_cell_length_a   7.49440000
_cell_length_b   11.57810000
_cell_length_c   14.40100000
_cell_angle_alpha   89.97750000
_cell_angle_beta   89.96360000
_cell_angle_gamma   103.34300000
_symmetry_Int_Tables_number   1
_chemical_formula_structural   MnH16C20S2(N5O3)2
_chemical_formula_sum   'Mn2 H32 C40 S4 N20 O12'
_cell_volume   1215.85604012
_cell_formula_units_Z   2
loop_
 _symmetry_equiv_pos_site_id
 _symmetry_equiv_pos_as_xyz
  1  'x, y, z'
loop_
 _atom_site_type_symbol
 _atom_site_label
 _atom_site_symmetry_multiplicity
 _atom_site_fract_x
 _atom_site_fract_y
 _atom_site_fract_z
 _atom_site_occupancy
  Mn  Mn0  1  0.99999000  0.00001000  0.50000000  1.0
  Mn  Mn1  1  0.49997000  0.49999000  0.00000000  1.0
  H  H2  1  0.53645000  0.86838000  0.48526000  1.0
  H  H3  1  0.96332000  0.63154000  0.98522000  1.0
  H  H4  1  0.46359000  0.13160000  0.51477000  1.0
  H  H5  1  0.03666000  0.36847000  0.01479000  1.0
  H  H6  1  0.96661000  0.86017000  0.29750000  1.0
  H  H7  1  0.53361000  0.63988000  0.79746000  1.0
  H  H8  1  0.03341000  0.13981000  0.70252000  1.0
  H  H9  1  0.46639000  0.36011000  0.20252000  1.0
  H  H10  1  0.67056000  0.67217000  0.25701000  1.0
  H  H11  1  0.82981000  0.82801000  0.75701000  1.0
  H  H12  1  0.32942000  0.32785000  0.74298000  1.0
  H  H13  1  0.17019000  0.17199000  0.24299000  1.0
  H  H14  1  0.17971000  0.77330000  0.38190000  1.0
  H  H15  1  0.32018000  0.72675000  0.88184000  1.0
  H  H16  1  0.82031000  0.22671000  0.61810000  1.0
  H  H17  1  0.67979000  0.27324000  0.11816000  1.0
  H  H18  1  0.92399000  0.57178000  0.38935000  1.0
  H  H19  1  0.57596000  0.92824000  0.88941000  1.0
  H  H20  1  0.07602000  0.42822000  0.61064000  1.0
  H  H21  1  0.42401000  0.07175000  0.11058000  1.0
  H  H22  1  0.24816000  0.28647000  0.46935000  1.0
  H  H23  1  0.25167000  0.21342000  0.96942000  1.0
  H  H24  1  0.75186000  0.71353000  0.53065000  1.0
  H  H25  1  0.74834000  0.78656000  0.03060000  1.0
  H  H26  1  0.80334000  0.35931000  0.31664000  1.0
  H  H27  1  0.69677000  0.14076000  0.81656000  1.0
  H  H28  1  0.19667000  0.64068000  0.68337000  1.0
  H  H29  1  0.30320000  0.85925000  0.18341000  1.0
  H  H30  1  0.72804000  0.11957000  0.36263000  1.0
  H  H31  1  0.77213000  0.38040000  0.86256000  1.0
  H  H32  1  0.27197000  0.88042000  0.63737000  1.0
  H  H33  1  0.22784000  0.61960000  0.13740000  1.0
  C  C34  1  0.61387000  0.84456000  0.42756000  1.0
  C  C35  1  0.88606000  0.65537000  0.92750000  1.0
  C  C36  1  0.38615000  0.15542000  0.57246000  1.0
  C  C37  1  0.11392000  0.34464000  0.07251000  1.0
  C  C38  1  0.83258000  0.83401000  0.32977000  1.0
  C  C39  1  0.66755000  0.66601000  0.82973000  1.0
  C  C40  1  0.16744000  0.16599000  0.67023000  1.0
  C  C41  1  0.33243000  0.33398000  0.17027000  1.0
  C  C42  1  0.68823000  0.74195000  0.30839000  1.0
  C  C43  1  0.81192000  0.75813000  0.80835000  1.0
  C  C44  1  0.31177000  0.25807000  0.69161000  1.0
  C  C45  1  0.18807000  0.24187000  0.19166000  1.0
  C  C46  1  0.38052000  0.66537000  0.37696000  1.0
  C  C47  1  0.11942000  0.83468000  0.87693000  1.0
  C  C48  1  0.61948000  0.33463000  0.62303000  1.0
  C  C49  1  0.88057000  0.16532000  0.12308000  1.0
  C  C50  1  0.20673000  0.68479000  0.38203000  1.0
  C  C51  1  0.29317000  0.81524000  0.88200000  1.0
  C  C52  1  0.79328000  0.31522000  0.61796000  1.0
  C  C53  1  0.70681000  0.18476000  0.11800000  1.0
  C  C54  1  0.07054000  0.57705000  0.38765000  1.0
  C  C55  1  0.42938000  0.92296000  0.88765000  1.0
  C  C56  1  0.92948000  0.42295000  0.61235000  1.0
  C  C57  1  0.57061000  0.07703000  0.11235000  1.0
  C  C58  1  0.14484000  0.47890000  0.38731000  1.0
  C  C59  1  0.35511000  0.02113000  0.88729000  1.0
  C  C60  1  0.85518000  0.52110000  0.61269000  1.0
  C  C61  1  0.64487000  0.97887000  0.11270000  1.0
  C  C62  1  0.11654000  0.27079000  0.43466000  1.0
  C  C63  1  0.38340000  0.22917000  0.93470000  1.0
  C  C64  1  0.88347000  0.72921000  0.56534000  1.0
  C  C65  1  0.61660000  0.77081000  0.06529000  1.0
  C  C66  1  0.88051000  0.30744000  0.35592000  1.0
  C  C67  1  0.61956000  0.19259000  0.85589000  1.0
  C  C68  1  0.11953000  0.69257000  0.64408000  1.0
  C  C69  1  0.38042000  0.80741000  0.14409000  1.0
  C  C70  1  0.84795000  0.18920000  0.37819000  1.0
  C  C71  1  0.65213000  0.31080000  0.87818000  1.0
  C  C72  1  0.15207000  0.81079000  0.62182000  1.0
  C  C73  1  0.34786000  0.68921000  0.12179000  1.0
  S  S74  1  0.38118000  0.51576000  0.37800000  1.0
  S  S75  1  0.11880000  0.98427000  0.87794000  1.0
  S  S76  1  0.61882000  0.48425000  0.62200000  1.0
  S  S77  1  0.88120000  0.01573000  0.12205000  1.0
  N  N78  1  0.78531000  0.89718000  0.40411000  1.0
  N  N79  1  0.71468000  0.60277000  0.90403000  1.0
  N  N80  1  0.21471000  0.10281000  0.59589000  1.0
  N  N81  1  0.28531000  0.39723000  0.09598000  1.0
  N  N82  1  0.54943000  0.74889000  0.37082000  1.0
  N  N83  1  0.95058000  0.75111000  0.87077000  1.0
  N  N84  1  0.45058000  0.25111000  0.62918000  1.0
  N  N85  1  0.04942000  0.24889000  0.12924000  1.0
  N  N86  1  0.05257000  0.35872000  0.39207000  1.0
  N  N87  1  0.44739000  0.14128000  0.89207000  1.0
  N  N88  1  0.94745000  0.64128000  0.60792000  1.0
  N  N89  1  0.55261000  0.85872000  0.10792000  1.0
  N  N90  1  0.99594000  0.16731000  0.42708000  1.0
  N  N91  1  0.50409000  0.33265000  0.92713000  1.0
  N  N92  1  0.00409000  0.83268000  0.57293000  1.0
  N  N93  1  0.49590000  0.66734000  0.07288000  1.0
  N  N94  1  0.70792000  0.97341000  0.65644000  1.0
  N  N95  1  0.79187000  0.52653000  0.15640000  1.0
  N  N96  1  0.29211000  0.02660000  0.34356000  1.0
  N  N97  1  0.20811000  0.47348000  0.84360000  1.0
  O  O98  1  0.77074000  0.03298000  0.58216000  1.0
  O  O99  1  0.72907000  0.46695000  0.08219000  1.0
  O  O100  1  0.22930000  0.96703000  0.41784000  1.0
  O  O101  1  0.27088000  0.53304000  0.91782000  1.0
  O  O102  1  0.77468000  0.01150000  0.73408000  1.0
  O  O103  1  0.72499000  0.48852000  0.23412000  1.0
  O  O104  1  0.22534000  0.98850000  0.26592000  1.0
  O  O105  1  0.27500000  0.51149000  0.76591000  1.0
  O  O106  1  0.58523000  0.87988000  0.64919000  1.0
  O  O107  1  0.91458000  0.62008000  0.14907000  1.0
  O  O108  1  0.41477000  0.12015000  0.35081000  1.0
  O  O109  1  0.08541000  0.37992000  0.85093000  1.0
