# generated using pymatgen
data_KH7(C3O)3
_symmetry_space_group_name_H-M   'P 1'
_cell_length_a   6.49310000
_cell_length_b   8.16109000
_cell_length_c   16.89710000
_cell_angle_alpha   90.00010000
_cell_angle_beta   90.00040000
_cell_angle_gamma   106.95800000
_symmetry_Int_Tables_number   1
_chemical_formula_structural   KH7(C3O)3
_chemical_formula_sum   'K4 H28 C36 O12'
_cell_volume   856.45776624
_cell_formula_units_Z   4
loop_
 _symmetry_equiv_pos_site_id
 _symmetry_equiv_pos_as_xyz
  1  'x, y, z'
loop_
 _atom_site_type_symbol
 _atom_site_label
 _atom_site_symmetry_multiplicity
 _atom_site_fract_x
 _atom_site_fract_y
 _atom_site_fract_z
 _atom_site_occupancy
  K  K0  1  0.30223000  0.97058000  0.57780000  1.0
  K  K1  1  0.19778000  0.52941000  0.07780000  1.0
  K  K2  1  0.69778000  0.02945000  0.42221000  1.0
  K  K3  1  0.80222000  0.47057000  0.92220000  1.0
  H  H4  1  0.04165000  0.45048000  0.57097000  1.0
  H  H5  1  0.45835000  0.04950000  0.07098000  1.0
  H  H6  1  0.95836000  0.54953000  0.42902000  1.0
  H  H7  1  0.54166000  0.95049000  0.92902000  1.0
  H  H8  1  0.31612000  0.51714000  0.67661000  1.0
  H  H9  1  0.18388000  0.98286000  0.17660000  1.0
  H  H10  1  0.68389000  0.48287000  0.32339000  1.0
  H  H11  1  0.81612000  0.01714000  0.82339000  1.0
  H  H12  1  0.27944000  0.69859000  0.79138000  1.0
  H  H13  1  0.22056000  0.80140000  0.29137000  1.0
  H  H14  1  0.72058000  0.30141000  0.20862000  1.0
  H  H15  1  0.77941000  0.19859000  0.70862000  1.0
  H  H16  1  0.95889000  0.80714000  0.80001000  1.0
  H  H17  1  0.54111000  0.69285000  0.30001000  1.0
  H  H18  1  0.04111000  0.19285000  0.19999000  1.0
  H  H19  1  0.45887000  0.30715000  0.69999000  1.0
  H  H20  1  0.67752000  0.73337000  0.69668000  1.0
  H  H21  1  0.82247000  0.76662000  0.19668000  1.0
  H  H22  1  0.32248000  0.26662000  0.30332000  1.0
  H  H23  1  0.17751000  0.23337000  0.80332000  1.0
  H  H24  1  0.85416000  0.98210000  0.59317000  1.0
  H  H25  1  0.64585000  0.51789000  0.09317000  1.0
  H  H26  1  0.14584000  0.01791000  0.40683000  1.0
  H  H27  1  0.35415000  0.48210000  0.90683000  1.0
  H  H28  1  0.89480000  0.17767000  0.58745000  1.0
  H  H29  1  0.60520000  0.32231000  0.08745000  1.0
  H  H30  1  0.10520000  0.82233000  0.41255000  1.0
  H  H31  1  0.39480000  0.67767000  0.91255000  1.0
  C  C32  1  0.57500000  0.66716000  0.53520000  1.0
  C  C33  1  0.92501000  0.83284000  0.03520000  1.0
  C  C34  1  0.42501000  0.33285000  0.46481000  1.0
  C  C35  1  0.07499000  0.16715000  0.96481000  1.0
  C  C36  1  0.67038000  0.54270000  0.56309000  1.0
  C  C37  1  0.82962000  0.95730000  0.06308000  1.0
  C  C38  1  0.32962000  0.45729000  0.43692000  1.0
  C  C39  1  0.17038000  0.04269000  0.93692000  1.0
  C  C40  1  0.60052000  0.37641000  0.52962000  1.0
  C  C41  1  0.89948000  0.12359000  0.02962000  1.0
  C  C42  1  0.39947000  0.62359000  0.47038000  1.0
  C  C43  1  0.10052000  0.87640000  0.97038000  1.0
  C  C44  1  0.01975000  0.52577000  0.62177000  1.0
  C  C45  1  0.48026000  0.97423000  0.12177000  1.0
  C  C46  1  0.98027000  0.47425000  0.37822000  1.0
  C  C47  1  0.51975000  0.02576000  0.87823000  1.0
  C  C48  1  0.83666000  0.58522000  0.62575000  1.0
  C  C49  1  0.66334000  0.91479000  0.12574000  1.0
  C  C50  1  0.16335000  0.41479000  0.37426000  1.0
  C  C51  1  0.33666000  0.08520000  0.87426000  1.0
  C  C52  1  0.17622000  0.56483000  0.68110000  1.0
  C  C53  1  0.32378000  0.93517000  0.18110000  1.0
  C  C54  1  0.82380000  0.43519000  0.31890000  1.0
  C  C55  1  0.67621000  0.06482000  0.81890000  1.0
  C  C56  1  0.15616000  0.66666667  0.74556000  1.0
  C  C57  1  0.34383000  0.83341000  0.24556000  1.0
  C  C58  1  0.84385000  0.33341000  0.25444000  1.0
  C  C59  1  0.65615000  0.16659000  0.75443000  1.0
  C  C60  1  0.97572000  0.72697000  0.75020000  1.0
  C  C61  1  0.52428000  0.77303000  0.25019000  1.0
  C  C62  1  0.02429000  0.27303000  0.24980000  1.0
  C  C63  1  0.47570000  0.22697000  0.74981000  1.0
  C  C64  1  0.81729000  0.68602000  0.69159000  1.0
  C  C65  1  0.68272000  0.81398000  0.19159000  1.0
  C  C66  1  0.18272000  0.31398000  0.30841000  1.0
  C  C67  1  0.31728000  0.18601000  0.80841000  1.0
  O  O68  1  0.62505000  0.82094000  0.55950000  1.0
  O  O69  1  0.87496000  0.67906000  0.05950000  1.0
  O  O70  1  0.37494000  0.17906000  0.44050000  1.0
  O  O71  1  0.12504000  0.32092000  0.94050000  1.0
  O  O72  1  0.66890000  0.25208000  0.55023000  1.0
  O  O73  1  0.83111000  0.24792000  0.05022000  1.0
  O  O74  1  0.33111000  0.74793000  0.44977000  1.0
  O  O75  1  0.16889000  0.75207000  0.94977000  1.0
  O  O76  1  0.97083000  0.09153000  0.59710000  1.0
  O  O77  1  0.52917000  0.40847000  0.09710000  1.0
  O  O78  1  0.02916000  0.90849000  0.40291000  1.0
  O  O79  1  0.47083000  0.59152000  0.90290000  1.0
