# generated using pymatgen
data_ZnH14C14(N3O)4
_symmetry_space_group_name_H-M   'P 1'
_cell_length_a   6.09585000
_cell_length_b   11.89770000
_cell_length_c   13.48230000
_cell_angle_alpha   92.88340000
_cell_angle_beta   90.00070000
_cell_angle_gamma   104.82800000
_symmetry_Int_Tables_number   1
_chemical_formula_structural   ZnH14C14(N3O)4
_chemical_formula_sum   'Zn2 H28 C28 N24 O8'
_cell_volume   943.98138122
_cell_formula_units_Z   2
loop_
 _symmetry_equiv_pos_site_id
 _symmetry_equiv_pos_as_xyz
  1  'x, y, z'
loop_
 _atom_site_type_symbol
 _atom_site_label
 _atom_site_symmetry_multiplicity
 _atom_site_fract_x
 _atom_site_fract_y
 _atom_site_fract_z
 _atom_site_occupancy
  Zn  Zn0  1  0.05704000  0.00004000  0.75009000  1.0
  Zn  Zn1  1  0.94295000  0.99997000  0.24991000  1.0
  H  H2  1  0.49551000  0.62482000  0.13587000  1.0
  H  H3  1  0.87218000  0.37546000  0.36410000  1.0
  H  H4  1  0.50450000  0.37518000  0.86413000  1.0
  H  H5  1  0.12782000  0.62455000  0.63591000  1.0
  H  H6  1  0.36215000  0.73869000  0.11547000  1.0
  H  H7  1  0.62461000  0.26169000  0.38432000  1.0
  H  H8  1  0.63786000  0.26131000  0.88453000  1.0
  H  H9  1  0.37539000  0.73831000  0.61568000  1.0
  H  H10  1  0.64782000  0.62605000  0.97121000  1.0
  H  H11  1  0.02242000  0.37407000  0.52886000  1.0
  H  H12  1  0.35219000  0.37395000  0.02879000  1.0
  H  H13  1  0.97757000  0.62593000  0.47115000  1.0
  H  H14  1  0.88866000  0.75040000  0.84807000  1.0
  H  H15  1  0.13860000  0.24965000  0.65214000  1.0
  H  H16  1  0.11136000  0.24961000  0.15194000  1.0
  H  H17  1  0.86140000  0.75034000  0.34786000  1.0
  H  H18  1  0.62817000  0.04558000  0.88809000  1.0
  H  H19  1  0.58321000  0.95451000  0.61170000  1.0
  H  H20  1  0.37179000  0.95441000  0.11190000  1.0
  H  H21  1  0.41677000  0.04550000  0.38830000  1.0
  H  H22  1  0.01746000  0.45674000  0.77478000  1.0
  H  H23  1  0.56095000  0.54304000  0.72537000  1.0
  H  H24  1  0.98255000  0.54326000  0.22522000  1.0
  H  H25  1  0.43904000  0.45696000  0.27464000  1.0
  H  H26  1  0.06572000  0.69602000  0.01904000  1.0
  H  H27  1  0.37046000  0.30399000  0.48087000  1.0
  H  H28  1  0.93428000  0.30397000  0.98096000  1.0
  H  H29  1  0.62954000  0.69601000  0.51914000  1.0
  C  C30  1  0.72250000  0.79682000  0.14133000  1.0
  C  C31  1  0.92662000  0.20335000  0.35853000  1.0
  C  C32  1  0.27752000  0.20319000  0.85867000  1.0
  C  C33  1  0.07338000  0.79666000  0.64146000  1.0
  C  C34  1  0.51257000  0.70709000  0.09915000  1.0
  C  C35  1  0.80658000  0.29318000  0.40074000  1.0
  C  C36  1  0.48744000  0.29291000  0.90085000  1.0
  C  C37  1  0.19342000  0.70683000  0.59926000  1.0
  C  C38  1  0.53036000  0.68050000  0.98782000  1.0
  C  C39  1  0.85065000  0.31964000  0.51207000  1.0
  C  C40  1  0.46965000  0.31950000  0.01218000  1.0
  C  C41  1  0.14935000  0.68035000  0.48793000  1.0
  C  C42  1  0.79189000  0.81143000  0.87199000  1.0
  C  C43  1  0.98082000  0.18868000  0.62810000  1.0
  C  C44  1  0.20812000  0.18858000  0.12802000  1.0
  C  C45  1  0.01917000  0.81132000  0.37190000  1.0
  C  C46  1  0.65393000  0.95941000  0.89407000  1.0
  C  C47  1  0.69513000  0.04070000  0.60584000  1.0
  C  C48  1  0.34605000  0.04058000  0.10592000  1.0
  C  C49  1  0.30485000  0.95931000  0.39417000  1.0
  C  C50  1  0.08510000  0.51618000  0.83768000  1.0
  C  C51  1  0.56943000  0.48367000  0.66240000  1.0
  C  C52  1  0.91491000  0.48381000  0.16231000  1.0
  C  C53  1  0.43057000  0.51633000  0.33761000  1.0
  C  C54  1  0.10470000  0.63760000  0.96048000  1.0
  C  C55  1  0.46772000  0.36238000  0.53949000  1.0
  C  C56  1  0.89531000  0.36240000  0.03952000  1.0
  C  C57  1  0.53228000  0.63762000  0.46051000  1.0
  N  N58  1  0.52700000  0.87996000  0.94966000  1.0
  N  N59  1  0.64786000  0.12015000  0.55013000  1.0
  N  N60  1  0.47298000  0.12004000  0.05033000  1.0
  N  N61  1  0.35214000  0.87985000  0.44987000  1.0
  N  N62  1  0.61751000  0.78708000  0.93476000  1.0
  N  N63  1  0.83117000  0.21300000  0.56511000  1.0
  N  N64  1  0.38248000  0.21292000  0.06524000  1.0
  N  N65  1  0.16883000  0.78699000  0.43489000  1.0
  N  N66  1  0.82008000  0.92073000  0.84526000  1.0
  N  N67  1  0.89962000  0.07941000  0.65485000  1.0
  N  N68  1  0.17992000  0.07928000  0.15474000  1.0
  N  N69  1  0.10037000  0.92058000  0.34514000  1.0
  N  N70  1  0.30249000  0.54152000  0.86513000  1.0
  N  N71  1  0.76153000  0.45846000  0.63484000  1.0
  N  N72  1  0.69752000  0.45848000  0.13487000  1.0
  N  N73  1  0.23847000  0.54154000  0.36516000  1.0
  N  N74  1  0.31175000  0.61863000  0.94453000  1.0
  N  N75  1  0.69379000  0.38148000  0.55534000  1.0
  N  N76  1  0.68826000  0.38137000  0.05547000  1.0
  N  N77  1  0.30621000  0.61852000  0.44466000  1.0
  N  N78  1  0.95656000  0.57348000  0.89402000  1.0
  N  N79  1  0.38362000  0.42636000  0.60606000  1.0
  N  N80  1  0.04345000  0.42651000  0.10598000  1.0
  N  N81  1  0.61638000  0.57364000  0.39395000  1.0
  O  O82  1  0.67694000  0.87628000  0.20116000  1.0
  O  O83  1  0.80112000  0.12382000  0.29888000  1.0
  O  O84  1  0.32307000  0.12372000  0.79883000  1.0
  O  O85  1  0.19887000  0.87619000  0.70112000  1.0
  O  O86  1  0.91754000  0.79008000  0.11806000  1.0
  O  O87  1  0.12852000  0.21007000  0.38153000  1.0
  O  O88  1  0.08248000  0.20992000  0.88194000  1.0
  O  O89  1  0.87148000  0.78993000  0.61847000  1.0
