# generated using pymatgen
data_Cd3H46C58(N2O7)2
_symmetry_space_group_name_H-M   'P 1'
_cell_length_a   9.98969000
_cell_length_b   11.92490000
_cell_length_c   13.12400000
_cell_angle_alpha   68.69460000
_cell_angle_beta   74.55030000
_cell_angle_gamma   70.09490000
_symmetry_Int_Tables_number   1
_chemical_formula_structural   Cd3H46C58(N2O7)2
_chemical_formula_sum   'Cd3 H46 C58 N4 O14'
_cell_volume   1351.25332909
_cell_formula_units_Z   1
loop_
 _symmetry_equiv_pos_site_id
 _symmetry_equiv_pos_as_xyz
  1  'x, y, z'
loop_
 _atom_site_type_symbol
 _atom_site_label
 _atom_site_symmetry_multiplicity
 _atom_site_fract_x
 _atom_site_fract_y
 _atom_site_fract_z
 _atom_site_occupancy
  Cd  Cd0  1  0.14649000  0.72305000  0.93124000  1.0
  Cd  Cd1  1  0.85351000  0.27695000  0.06876000  1.0
  Cd  Cd2  1  0.00000000  0.00000000  0.00000000  1.0
  H  H3  1  0.65014000  0.74519000  0.93920000  1.0
  H  H4  1  0.34986000  0.25481000  0.06079000  1.0
  H  H5  1  0.68869000  0.90541000  0.17176000  1.0
  H  H6  1  0.31131000  0.09458000  0.82824000  1.0
  H  H7  1  0.26852000  0.90419000  0.14043000  1.0
  H  H8  1  0.73148000  0.09581000  0.85956000  1.0
  H  H9  1  0.22037000  0.06709000  0.19488000  1.0
  H  H10  1  0.77963000  0.93292000  0.80512000  1.0
  H  H11  1  0.25992000  0.10262000  0.30122000  1.0
  H  H12  1  0.74008000  0.89738000  0.69878000  1.0
  H  H13  1  0.35612000  0.85647000  0.46038000  1.0
  H  H14  1  0.64389000  0.14352000  0.53962000  1.0
  H  H15  1  0.22144000  0.72053000  0.61483000  1.0
  H  H16  1  0.77856000  0.27946000  0.38517000  1.0
  H  H17  1  0.97435000  0.72671000  0.60283000  1.0
  H  H18  1  0.02565000  0.27329000  0.39717000  1.0
  H  H19  1  0.86474000  0.86750000  0.43444000  1.0
  H  H20  1  0.13526000  0.13250000  0.56556000  1.0
  H  H21  1  0.44308000  0.54745000  0.83581000  1.0
  H  H22  1  0.55692000  0.45255000  0.16419000  1.0
  H  H23  1  0.01272000  0.57709000  0.85497000  1.0
  H  H24  1  0.98728000  0.42291000  0.14504000  1.0
  H  H25  1  0.07316000  0.44376000  0.73083000  1.0
  H  H26  1  0.92684000  0.55624000  0.26917000  1.0
  H  H27  1  0.52251000  0.41173000  0.71100000  1.0
  H  H28  1  0.47749000  0.58828000  0.28900000  1.0
  H  H29  1  0.28768000  0.27233000  0.65900000  1.0
  H  H30  1  0.71232000  0.72767000  0.34100000  1.0
  H  H31  1  0.45823000  0.30388000  0.61249000  1.0
  H  H32  1  0.54177000  0.69612000  0.38751000  1.0
  H  H33  1  0.17596000  0.48185000  0.53139000  1.0
  H  H34  1  0.82404000  0.51815000  0.46860000  1.0
  H  H35  1  0.34683000  0.50983000  0.48066000  1.0
  H  H36  1  0.65317000  0.49017000  0.51934000  1.0
  H  H37  1  0.43487000  0.31861000  0.41415000  1.0
  H  H38  1  0.56513000  0.68139000  0.58585000  1.0
  H  H39  1  0.26527000  0.28919000  0.46751000  1.0
  H  H40  1  0.73473000  0.71081000  0.53249000  1.0
  H  H41  1  0.35490000  0.29586000  0.24526000  1.0
  H  H42  1  0.64510000  0.70414000  0.75474000  1.0
  H  H43  1  0.17322000  0.62135000  0.36253000  1.0
  H  H44  1  0.82678000  0.37865000  0.63747000  1.0
  H  H45  1  0.10279000  0.74221000  0.17888000  1.0
  H  H46  1  0.89721000  0.25779000  0.82113000  1.0
  H  H47  1  0.27542000  0.43175000  0.06571000  1.0
  H  H48  1  0.72457000  0.56825000  0.93429000  1.0
  C  C49  1  0.36164000  0.79367000  0.97685000  1.0
  C  C50  1  0.63836000  0.20633000  0.02315000  1.0
  C  C51  1  0.45097000  0.82214000  0.03455000  1.0
  C  C52  1  0.54903000  0.17786000  0.96544000  1.0
  C  C53  1  0.60034000  0.78960000  0.00413000  1.0
  C  C54  1  0.39966000  0.21040000  0.99587000  1.0
  C  C55  1  0.68595000  0.81845000  0.05435000  1.0
  C  C56  1  0.31405000  0.18155000  0.94565000  1.0
  C  C57  1  0.84552000  0.78651000  0.01911000  1.0
  C  C58  1  0.15448000  0.21348000  0.98089000  1.0
  C  C59  1  0.62203000  0.87943000  0.13527000  1.0
  C  C60  1  0.37797000  0.12057000  0.86473000  1.0
  C  C61  1  0.47197000  0.90998000  0.16760000  1.0
  C  C62  1  0.52803000  0.09003000  0.83240000  1.0
  C  C63  1  0.38559000  0.88105000  0.11764000  1.0
  C  C64  1  0.61441000  0.11895000  0.88236000  1.0
  C  C65  1  0.26787000  0.02513000  0.27123000  1.0
  C  C66  1  0.73213000  0.97487000  0.72877000  1.0
  C  C67  1  0.18853000  0.93652000  0.35984000  1.0
  C  C68  1  0.81148000  0.06348000  0.64015000  1.0
  C  C69  1  0.24897000  0.85679000  0.45458000  1.0
  C  C70  1  0.75103000  0.14321000  0.54541000  1.0
  C  C71  1  0.17386000  0.78028000  0.54098000  1.0
  C  C72  1  0.82614000  0.21972000  0.45902000  1.0
  C  C73  1  0.03482000  0.78445000  0.53434000  1.0
  C  C74  1  0.96518000  0.21555000  0.46566000  1.0
  C  C75  1  0.97324000  0.86348000  0.44062000  1.0
  C  C76  1  0.02676000  0.13651000  0.55938000  1.0
  C  C77  1  0.04968000  0.93870000  0.35272000  1.0
  C  C78  1  0.95032000  0.06130000  0.64728000  1.0
  C  C79  1  0.98681000  0.01458000  0.24734000  1.0
  C  C80  1  0.01319000  0.98542000  0.75266000  1.0
  C  C81  1  0.36530000  0.52238000  0.80933000  1.0
  C  C82  1  0.63470000  0.47762000  0.19067000  1.0
  C  C83  1  0.12403000  0.53878000  0.82022000  1.0
  C  C84  1  0.87597000  0.46122000  0.17978000  1.0
  C  C85  1  0.15892000  0.46539000  0.75075000  1.0
  C  C86  1  0.84108000  0.53461000  0.24925000  1.0
  C  C87  1  0.40797000  0.44818000  0.73920000  1.0
  C  C88  1  0.59203000  0.55182000  0.26080000  1.0
  C  C89  1  0.30367000  0.41964000  0.70717000  1.0
  C  C90  1  0.69633000  0.58036000  0.29283000  1.0
  C  C91  1  0.34140000  0.34812000  0.62537000  1.0
  C  C92  1  0.65860000  0.65188000  0.37463000  1.0
  C  C93  1  0.29184000  0.43480000  0.51507000  1.0
  C  C94  1  0.70816000  0.56520000  0.48493000  1.0
  C  C95  1  0.31876000  0.36542000  0.43118000  1.0
  C  C96  1  0.68124000  0.63458000  0.56882000  1.0
  C  C97  1  0.26877000  0.44554000  0.32208000  1.0
  C  C98  1  0.73123000  0.55446000  0.67792000  1.0
  C  C99  1  0.29587000  0.39371000  0.23584000  1.0
  C  C100  1  0.70413000  0.60629000  0.76416000  1.0
  C  C101  1  0.19740000  0.57335000  0.30051000  1.0
  C  C102  1  0.80259000  0.42665000  0.69950000  1.0
  C  C103  1  0.15762000  0.64269000  0.19686000  1.0
  C  C104  1  0.84238000  0.35731000  0.80315000  1.0
  C  C105  1  0.25315000  0.46937000  0.13455000  1.0
  C  C106  1  0.74684000  0.53064000  0.86546000  1.0
  N  N107  1  0.22550000  0.56846000  0.84784000  1.0
  N  N108  1  0.77450000  0.43154000  0.15216000  1.0
  N  N109  1  0.18472000  0.59177000  0.11482000  1.0
  N  N110  1  0.81528000  0.40823000  0.88518000  1.0
  O  O111  1  0.22594000  0.85380000  0.98220000  1.0
  O  O112  1  0.77406000  0.14621000  0.01780000  1.0
  O  O113  1  0.41711000  0.71115000  0.92797000  1.0
  O  O114  1  0.58289000  0.28885000  0.07203000  1.0
  O  O115  1  0.90217000  0.72213000  0.95191000  1.0
  O  O116  1  0.09783000  0.27788000  0.04809000  1.0
  O  O117  1  0.92057000  0.82447000  0.05871000  1.0
  O  O118  1  0.07944000  0.17552000  0.94129000  1.0
  O  O119  1  0.42095000  0.97094000  0.24680000  1.0
  O  O120  1  0.57905000  0.02906000  0.75319000  1.0
  O  O121  1  0.02935000  0.95649000  0.17456000  1.0
  O  O122  1  0.97065000  0.04351000  0.82544000  1.0
  O  O123  1  0.90342000  0.12300000  0.23885000  1.0
  O  O124  1  0.09658000  0.87700000  0.76114000  1.0
