# generated using pymatgen
data_NaH11C12SO5
_symmetry_space_group_name_H-M   'P 1'
_cell_length_a   6.02952000
_cell_length_b   10.51090000
_cell_length_c   20.28240000
_cell_angle_alpha   90.00040000
_cell_angle_beta   90.00140000
_cell_angle_gamma   87.84490000
_symmetry_Int_Tables_number   1
_chemical_formula_structural   NaH11C12SO5
_chemical_formula_sum   'Na4 H44 C48 S4 O20'
_cell_volume   1284.50174643
_cell_formula_units_Z   4
loop_
 _symmetry_equiv_pos_site_id
 _symmetry_equiv_pos_as_xyz
  1  'x, y, z'
loop_
 _atom_site_type_symbol
 _atom_site_label
 _atom_site_symmetry_multiplicity
 _atom_site_fract_x
 _atom_site_fract_y
 _atom_site_fract_z
 _atom_site_occupancy
  Na  Na0  1  0.12893000  0.56295000  0.30068000  1.0
  Na  Na1  1  0.37108000  0.43704000  0.80069000  1.0
  Na  Na2  1  0.87108000  0.43703000  0.69932000  1.0
  Na  Na3  1  0.62890000  0.56296000  0.19932000  1.0
  H  H4  1  0.91472000  0.34671000  0.36526000  1.0
  H  H5  1  0.58528000  0.65329000  0.86526000  1.0
  H  H6  1  0.08530000  0.65327000  0.63474000  1.0
  H  H7  1  0.41469000  0.34673000  0.13474000  1.0
  H  H8  1  0.51896000  0.37676000  0.29714000  1.0
  H  H9  1  0.98104000  0.62324000  0.79715000  1.0
  H  H10  1  0.48102000  0.62324000  0.70285000  1.0
  H  H11  1  0.01897000  0.37676000  0.20285000  1.0
  H  H12  1  0.35226000  0.36653000  0.23734000  1.0
  H  H13  1  0.14773000  0.63348000  0.73735000  1.0
  H  H14  1  0.64773000  0.63347000  0.76266000  1.0
  H  H15  1  0.85226000  0.36652000  0.26265000  1.0
  H  H16  1  0.36123000  0.18465000  0.37281000  1.0
  H  H17  1  0.13877000  0.81536000  0.87281000  1.0
  H  H18  1  0.63879000  0.81534000  0.62719000  1.0
  H  H19  1  0.86117000  0.18465000  0.12718000  1.0
  H  H20  1  0.31098000  0.95162000  0.38008000  1.0
  H  H21  1  0.18903000  0.04839000  0.88008000  1.0
  H  H22  1  0.68903000  0.04837000  0.61992000  1.0
  H  H23  1  0.81097000  0.95163000  0.11992000  1.0
  H  H24  1  0.96917000  0.88327000  0.30000000  1.0
  H  H25  1  0.53085000  0.11671000  0.80000000  1.0
  H  H26  1  0.03087000  0.11672000  0.69999000  1.0
  H  H27  1  0.46913000  0.88329000  0.20000000  1.0
  H  H28  1  0.02214000  0.11566000  0.29538000  1.0
  H  H29  1  0.47784000  0.88431000  0.79538000  1.0
  H  H30  1  0.97784000  0.88433000  0.70461000  1.0
  H  H31  1  0.52216000  0.11569000  0.20462000  1.0
  H  H32  1  0.40632000  0.62951000  0.46440000  1.0
  H  H33  1  0.09368000  0.37050000  0.96440000  1.0
  H  H34  1  0.59372000  0.37047000  0.53560000  1.0
  H  H35  1  0.90630000  0.62952000  0.03560000  1.0
  H  H36  1  0.54662000  0.57551000  0.57720000  1.0
  H  H37  1  0.95338000  0.42449000  0.07721000  1.0
  H  H38  1  0.45341000  0.42446000  0.42280000  1.0
  H  H39  1  0.04664000  0.57554000  0.92280000  1.0
  H  H40  1  0.16954000  0.74048000  0.53029000  1.0
  H  H41  1  0.33046000  0.25953000  0.03029000  1.0
  H  H42  1  0.83045000  0.25952000  0.46972000  1.0
  H  H43  1  0.66954000  0.74048000  0.96972000  1.0
  H  H44  1  0.03288000  0.79296000  0.41775000  1.0
  H  H45  1  0.46710000  0.20704000  0.91775000  1.0
  H  H46  1  0.96715000  0.20705000  0.58225000  1.0
  H  H47  1  0.53288000  0.79296000  0.08225000  1.0
  C  C48  1  0.69672000  0.16738000  0.33534000  1.0
  C  C49  1  0.80329000  0.83261000  0.83534000  1.0
  C  C50  1  0.30326000  0.83259000  0.66466000  1.0
  C  C51  1  0.19671000  0.16741000  0.16466000  1.0
  C  C52  1  0.49435000  0.11794000  0.35794000  1.0
  C  C53  1  0.00565000  0.88208000  0.85795000  1.0
  C  C54  1  0.50565000  0.88204000  0.64205000  1.0
  C  C55  1  0.99432000  0.11795000  0.14205000  1.0
  C  C56  1  0.46629000  0.98804000  0.36177000  1.0
  C  C57  1  0.03372000  0.01197000  0.86176000  1.0
  C  C58  1  0.53372000  0.01194000  0.63823000  1.0
  C  C59  1  0.96627000  0.98805000  0.13824000  1.0
  C  C60  1  0.63829000  0.90354000  0.34119000  1.0
  C  C61  1  0.86172000  0.09646000  0.84118000  1.0
  C  C62  1  0.36172000  0.09644000  0.65881000  1.0
  C  C63  1  0.13830000  0.90356000  0.15882000  1.0
  C  C64  1  0.83841000  0.94960000  0.31722000  1.0
  C  C65  1  0.66159000  0.05037000  0.81723000  1.0
  C  C66  1  0.16160000  0.05037000  0.68277000  1.0
  C  C67  1  0.33843000  0.94964000  0.18277000  1.0
  C  C68  1  0.86765000  0.07978000  0.31462000  1.0
  C  C69  1  0.63233000  0.92020000  0.81463000  1.0
  C  C70  1  0.13233000  0.92020000  0.68538000  1.0
  C  C71  1  0.36767000  0.07982000  0.18537000  1.0
  C  C72  1  0.71267000  0.70979000  0.43361000  1.0
  C  C73  1  0.78732000  0.29021000  0.93360000  1.0
  C  C74  1  0.28733000  0.29022000  0.56640000  1.0
  C  C75  1  0.21268000  0.70979000  0.06640000  1.0
  C  C76  1  0.57463000  0.65089000  0.47868000  1.0
  C  C77  1  0.92536000  0.34911000  0.97868000  1.0
  C  C78  1  0.42538000  0.34911000  0.52133000  1.0
  C  C79  1  0.07463000  0.65089000  0.02133000  1.0
  C  C80  1  0.65334000  0.61920000  0.54103000  1.0
  C  C81  1  0.84664000  0.38082000  0.04103000  1.0
  C  C82  1  0.34668000  0.38079000  0.45897000  1.0
  C  C83  1  0.15336000  0.61920000  0.95898000  1.0
  C  C84  1  0.87146000  0.64632000  0.55914000  1.0
  C  C85  1  0.62851000  0.35368000  0.05914000  1.0
  C  C86  1  0.12853000  0.35365000  0.44085000  1.0
  C  C87  1  0.37149000  0.64634000  0.94086000  1.0
  C  C88  1  0.00475000  0.71337000  0.51487000  1.0
  C  C89  1  0.49526000  0.28663000  0.01487000  1.0
  C  C90  1  0.99527000  0.28660000  0.48512000  1.0
  C  C91  1  0.50474000  0.71340000  0.98513000  1.0
  C  C92  1  0.92673000  0.74365000  0.45214000  1.0
  C  C93  1  0.57328000  0.25633000  0.95214000  1.0
  C  C94  1  0.07328000  0.25633000  0.54786000  1.0
  C  C95  1  0.42671000  0.74367000  0.04787000  1.0
  S  S96  1  0.61401000  0.74017000  0.35298000  1.0
  S  S97  1  0.88597000  0.25982000  0.85298000  1.0
  S  S98  1  0.38598000  0.25982000  0.64702000  1.0
  S  S99  1  0.11402000  0.74019000  0.14702000  1.0
  O  O100  1  0.72185000  0.29210000  0.33323000  1.0
  O  O101  1  0.77824000  0.70788000  0.83323000  1.0
  O  O102  1  0.27817000  0.70788000  0.66677000  1.0
  O  O103  1  0.22174000  0.29213000  0.16676000  1.0
  O  O104  1  0.94312000  0.60822000  0.61897000  1.0
  O  O105  1  0.55686000  0.39178000  0.11897000  1.0
  O  O106  1  0.05690000  0.39176000  0.38103000  1.0
  O  O107  1  0.44313000  0.60823000  0.88104000  1.0
  O  O108  1  0.37986000  0.70915000  0.35130000  1.0
  O  O109  1  0.12014000  0.29085000  0.85130000  1.0
  O  O110  1  0.62015000  0.29083000  0.64870000  1.0
  O  O111  1  0.87988000  0.70917000  0.14870000  1.0
  O  O112  1  0.76368000  0.67313000  0.30643000  1.0
  O  O113  1  0.73631000  0.32687000  0.80643000  1.0
  O  O114  1  0.23634000  0.32687000  0.69357000  1.0
  O  O115  1  0.26369000  0.67314000  0.19357000  1.0
  O  O116  1  0.41891000  0.42854000  0.26740000  1.0
  O  O117  1  0.08107000  0.57145000  0.76740000  1.0
  O  O118  1  0.58108000  0.57146000  0.73260000  1.0
  O  O119  1  0.91891000  0.42856000  0.23260000  1.0
