# generated using pymatgen
data_CdH10C6N3O7
_symmetry_space_group_name_H-M   'P 1'
_cell_length_a   8.70337000
_cell_length_b   10.16790000
_cell_length_c   14.24230000
_cell_angle_alpha   70.54170000
_cell_angle_beta   72.21330000
_cell_angle_gamma   64.66400000
_symmetry_Int_Tables_number   1
_chemical_formula_structural   CdH10C6N3O7
_chemical_formula_sum   'Cd4 H40 C24 N12 O28'
_cell_volume   1054.26720078
_cell_formula_units_Z   4
loop_
 _symmetry_equiv_pos_site_id
 _symmetry_equiv_pos_as_xyz
  1  'x, y, z'
loop_
 _atom_site_type_symbol
 _atom_site_label
 _atom_site_symmetry_multiplicity
 _atom_site_fract_x
 _atom_site_fract_y
 _atom_site_fract_z
 _atom_site_occupancy
  Cd  Cd0  1  0.43158000  0.53264000  0.80813000  1.0
  Cd  Cd1  1  0.77214000  0.96747000  0.69188000  1.0
  Cd  Cd2  1  0.56842000  0.46736000  0.19188000  1.0
  Cd  Cd3  1  0.22786000  0.03253000  0.30812000  1.0
  H  H4  1  0.44051000  0.15932000  0.09725000  1.0
  H  H5  1  0.69734000  0.34055000  0.40256000  1.0
  H  H6  1  0.55949000  0.84068000  0.90275000  1.0
  H  H7  1  0.30266000  0.65945000  0.59745000  1.0
  H  H8  1  0.72676000  0.99341000  0.97709000  1.0
  H  H9  1  0.69731000  0.50639000  0.52284000  1.0
  H  H10  1  0.27324000  0.00658000  0.02291000  1.0
  H  H11  1  0.30269000  0.49361000  0.47716000  1.0
  H  H12  1  0.89997000  0.59977000  0.13892000  1.0
  H  H13  1  0.63859000  0.90015000  0.36097000  1.0
  H  H14  1  0.10003000  0.40023000  0.86108000  1.0
  H  H15  1  0.36141000  0.09985000  0.63902000  1.0
  H  H16  1  0.85026000  0.67677000  0.01572000  1.0
  H  H17  1  0.54257000  0.82328000  0.48417000  1.0
  H  H18  1  0.14974000  0.32323000  0.98428000  1.0
  H  H19  1  0.45743000  0.17672000  0.51583000  1.0
  H  H20  1  0.09762000  0.72838000  0.10103000  1.0
  H  H21  1  0.92684000  0.77171000  0.39897000  1.0
  H  H22  1  0.90238000  0.27162000  0.89897000  1.0
  H  H23  1  0.07317000  0.22829000  0.60103000  1.0
  H  H24  1  0.00216000  0.86451000  0.00103000  1.0
  H  H25  1  0.86753000  0.63561000  0.49901000  1.0
  H  H26  1  0.99784000  0.13549000  0.99897000  1.0
  H  H27  1  0.13247000  0.36439000  0.50099000  1.0
  H  H28  1  0.60126000  0.32438000  0.96354000  1.0
  H  H29  1  0.88917000  0.17557000  0.53654000  1.0
  H  H30  1  0.39874000  0.67562000  0.03646000  1.0
  H  H31  1  0.11084000  0.82443000  0.46346000  1.0
  H  H32  1  0.65665000  0.23649000  0.87699000  1.0
  H  H33  1  0.77021000  0.26352000  0.62306000  1.0
  H  H34  1  0.34335000  0.76351000  0.12301000  1.0
  H  H35  1  0.22979000  0.73648000  0.37694000  1.0
  H  H36  1  0.49161000  0.80045000  0.66137000  1.0
  H  H37  1  0.95358000  0.69963000  0.83859000  1.0
  H  H38  1  0.50839000  0.19955000  0.33863000  1.0
  H  H39  1  0.04642000  0.30037000  0.16141000  1.0
  H  H40  1  0.28446000  0.83954000  0.69834000  1.0
  H  H41  1  0.82246000  0.66044000  0.80171000  1.0
  H  H42  1  0.71554000  0.16046000  0.30166000  1.0
  H  H43  1  0.17754000  0.33956000  0.19829000  1.0
  C  C44  1  0.62254000  0.81560000  0.20793000  1.0
  C  C45  1  0.64606000  0.68436000  0.29202000  1.0
  C  C46  1  0.37746000  0.18440000  0.79207000  1.0
  C  C47  1  0.35394000  0.31564000  0.70798000  1.0
  C  C48  1  0.52580000  0.04370000  0.11593000  1.0
  C  C49  1  0.68557000  0.45622000  0.38392000  1.0
  C  C50  1  0.47420000  0.95630000  0.88407000  1.0
  C  C51  1  0.31443000  0.54378000  0.61609000  1.0
  C  C52  1  0.66637000  0.96291000  0.05561000  1.0
  C  C53  1  0.68489000  0.53696000  0.44432000  1.0
  C  C54  1  0.33363000  0.03708000  0.94439000  1.0
  C  C55  1  0.31511000  0.46304000  0.55569000  1.0
  C  C56  1  0.87945000  0.70035000  0.07680000  1.0
  C  C57  1  0.65647000  0.79964000  0.42314000  1.0
  C  C58  1  0.12055000  0.29965000  0.92320000  1.0
  C  C59  1  0.34353000  0.20036000  0.57686000  1.0
  C  C60  1  0.03952000  0.74434000  0.03808000  1.0
  C  C61  1  0.82173000  0.75576000  0.46191000  1.0
  C  C62  1  0.96047000  0.25566000  0.96192000  1.0
  C  C63  1  0.17827000  0.24424000  0.53809000  1.0
  C  C64  1  0.17545000  0.66517000  0.95906000  1.0
  C  C65  1  0.79949000  0.83504000  0.54090000  1.0
  C  C66  1  0.82455000  0.33483000  0.04094000  1.0
  C  C67  1  0.20051000  0.16496000  0.45910000  1.0
  N  N68  1  0.80473000  0.47895000  0.71853000  1.0
  N  N69  1  0.00221000  0.02103000  0.78145000  1.0
  N  N70  1  0.19527000  0.52105000  0.28147000  1.0
  N  N71  1  0.99778000  0.97897000  0.21855000  1.0
  N  N72  1  0.49827000  0.95160000  0.21006000  1.0
  N  N73  1  0.66004000  0.54836000  0.28980000  1.0
  N  N74  1  0.50173000  0.04840000  0.78994000  1.0
  N  N75  1  0.33996000  0.45164000  0.71020000  1.0
  N  N76  1  0.72687000  0.82006000  0.11380000  1.0
  N  N77  1  0.66070000  0.67986000  0.38617000  1.0
  N  N78  1  0.27313000  0.17994000  0.88620000  1.0
  N  N79  1  0.33930000  0.32014000  0.61383000  1.0
  O  O80  1  0.33485000  0.63628000  0.95560000  1.0
  O  O81  1  0.92652000  0.86401000  0.54430000  1.0
  O  O82  1  0.66515000  0.36372000  0.04439000  1.0
  O  O83  1  0.07348000  0.13599000  0.45570000  1.0
  O  O84  1  0.13085000  0.63328000  0.89443000  1.0
  O  O85  1  0.65838000  0.86690000  0.60555000  1.0
  O  O86  1  0.86915000  0.36672000  0.10557000  1.0
  O  O87  1  0.34162000  0.13310000  0.39445000  1.0
  O  O88  1  0.72009000  0.54889000  0.79004000  1.0
  O  O89  1  0.05910000  0.95117000  0.70989000  1.0
  O  O90  1  0.27991000  0.45111000  0.20996000  1.0
  O  O91  1  0.94090000  0.04883000  0.29011000  1.0
  O  O92  1  0.72241000  0.42727000  0.68783000  1.0
  O  O93  1  0.83750000  0.07271000  0.81209000  1.0
  O  O94  1  0.27759000  0.57273000  0.31217000  1.0
  O  O95  1  0.16250000  0.92729000  0.18791000  1.0
  O  O96  1  0.95844000  0.46341000  0.68170000  1.0
  O  O97  1  0.10346000  0.03651000  0.81841000  1.0
  O  O98  1  0.04156000  0.53658000  0.31831000  1.0
  O  O99  1  0.89654000  0.96349000  0.18159000  1.0
  O  O100  1  0.55630000  0.30451000  0.91400000  1.0
  O  O101  1  0.77476000  0.19558000  0.58603000  1.0
  O  O102  1  0.44370000  0.69549000  0.08600000  1.0
  O  O103  1  0.22524000  0.80442000  0.41397000  1.0
  O  O104  1  0.39849000  0.75811000  0.68803000  1.0
  O  O105  1  0.84482000  0.74193000  0.81190000  1.0
  O  O106  1  0.60151000  0.24189000  0.31198000  1.0
  O  O107  1  0.15518000  0.25807000  0.18810000  1.0
