# generated using pymatgen
data_CdH16C18(NO3)2
_symmetry_space_group_name_H-M   'P 1'
_cell_length_a   7.07341000
_cell_length_b   9.99403000
_cell_length_c   12.19490000
_cell_angle_alpha   93.29460000
_cell_angle_beta   101.92700000
_cell_angle_gamma   90.60360000
_symmetry_Int_Tables_number   1
_chemical_formula_structural   CdH16C18(NO3)2
_chemical_formula_sum   'Cd2 H32 C36 N4 O12'
_cell_volume   841.85373166
_cell_formula_units_Z   2
loop_
 _symmetry_equiv_pos_site_id
 _symmetry_equiv_pos_as_xyz
  1  'x, y, z'
loop_
 _atom_site_type_symbol
 _atom_site_label
 _atom_site_symmetry_multiplicity
 _atom_site_fract_x
 _atom_site_fract_y
 _atom_site_fract_z
 _atom_site_occupancy
  Cd  Cd0  1  0.16971000  0.01569000  0.24000000  1.0
  Cd  Cd1  1  0.83029000  0.98431000  0.76000000  1.0
  H  H2  1  0.97353000  0.49321000  0.08907000  1.0
  H  H3  1  0.02647000  0.50679000  0.91093000  1.0
  H  H4  1  0.75859000  0.68754000  0.10034000  1.0
  H  H5  1  0.24141000  0.31246000  0.89966000  1.0
  H  H6  1  0.43690000  0.65303000  0.14641000  1.0
  H  H7  1  0.56310000  0.34697000  0.85359000  1.0
  H  H8  1  0.32790000  0.42085000  0.17893000  1.0
  H  H9  1  0.67210000  0.57915000  0.82107000  1.0
  H  H10  1  0.11335000  0.69238000  0.21149000  1.0
  H  H11  1  0.88665000  0.30762000  0.78851000  1.0
  H  H12  1  0.11894000  0.48903000  0.32437000  1.0
  H  H13  1  0.88106000  0.51097000  0.67563000  1.0
  H  H14  1  0.18187000  0.52472000  0.53566000  1.0
  H  H15  1  0.81813000  0.47528000  0.46433000  1.0
  H  H16  1  0.22903000  0.75539000  0.62275000  1.0
  H  H17  1  0.77097000  0.24461000  0.37725000  1.0
  H  H18  1  0.25613000  0.94793000  0.68387000  1.0
  H  H19  1  0.74386000  0.05207000  0.31613000  1.0
  H  H20  1  0.33743000  0.18315000  0.75137000  1.0
  H  H21  1  0.66257000  0.81685000  0.24863000  1.0
  H  H22  1  0.37042000  0.35381000  0.61267000  1.0
  H  H23  1  0.62959000  0.64619000  0.38733000  1.0
  H  H24  1  0.30647000  0.27649000  0.40594000  1.0
  H  H25  1  0.69353000  0.72351000  0.59406000  1.0
  H  H26  1  0.42430000  0.95587000  0.10911000  1.0
  H  H27  1  0.57570000  0.04413000  0.89089000  1.0
  H  H28  1  0.77587000  0.98107000  0.11009000  1.0
  H  H29  1  0.22414000  0.01893000  0.88991000  1.0
  H  H30  1  0.90696000  0.88629000  0.04842000  1.0
  H  H31  1  0.09304000  0.11371000  0.95158000  1.0
  H  H32  1  0.24248000  0.85405000  0.05766000  1.0
  H  H33  1  0.75752000  0.14595000  0.94234000  1.0
  C  C34  1  0.91152000  0.23718000  0.13337000  1.0
  C  C35  1  0.08848000  0.76282000  0.86663000  1.0
  C  C36  1  0.77207000  0.34987000  0.12880000  1.0
  C  C37  1  0.22793000  0.65013000  0.87119000  1.0
  C  C38  1  0.83153000  0.47859000  0.10919000  1.0
  C  C39  1  0.16847000  0.52141000  0.89080000  1.0
  C  C40  1  0.71141000  0.58734000  0.11575000  1.0
  C  C41  1  0.28858000  0.41266000  0.88425000  1.0
  C  C42  1  0.53070000  0.56775000  0.14244000  1.0
  C  C43  1  0.46930000  0.43225000  0.85756000  1.0
  C  C44  1  0.47008000  0.43924000  0.16060000  1.0
  C  C45  1  0.52992000  0.56076000  0.83940000  1.0
  C  C46  1  0.58841000  0.32908000  0.15286000  1.0
  C  C47  1  0.41159000  0.67092000  0.84714000  1.0
  C  C48  1  0.51218000  0.19092000  0.16542000  1.0
  C  C49  1  0.48782000  0.80908000  0.83458000  1.0
  C  C50  1  0.14123000  0.70118000  0.30297000  1.0
  C  C51  1  0.85877000  0.29883000  0.69703000  1.0
  C  C52  1  0.14498000  0.58888000  0.36609000  1.0
  C  C53  1  0.85502000  0.41113000  0.63391000  1.0
  C  C54  1  0.17885000  0.60919000  0.48272000  1.0
  C  C55  1  0.82115000  0.39081000  0.51728000  1.0
  C  C56  1  0.20678000  0.73891000  0.53202000  1.0
  C  C57  1  0.79322000  0.26110000  0.46799000  1.0
  C  C58  1  0.20377000  0.84646000  0.46283000  1.0
  C  C59  1  0.79622000  0.15355000  0.53717000  1.0
  C  C60  1  0.24254000  0.98714000  0.50922000  1.0
  C  C61  1  0.75746000  0.01286000  0.49078000  1.0
  C  C62  1  0.27002000  0.02228000  0.62423000  1.0
  C  C63  1  0.72998000  0.97772000  0.37577000  1.0
  C  C64  1  0.31511000  0.15513000  0.66215000  1.0
  C  C65  1  0.68489000  0.84487000  0.33785000  1.0
  C  C66  1  0.33127000  0.24980000  0.58489000  1.0
  C  C67  1  0.66873000  0.75020000  0.41511000  1.0
  C  C68  1  0.29740000  0.20805000  0.47131000  1.0
  C  C69  1  0.70260000  0.79195000  0.52869000  1.0
  N  N70  1  0.17054000  0.82585000  0.35011000  1.0
  N  N71  1  0.82946000  0.17415000  0.64989000  1.0
  N  N72  1  0.25416000  0.08018000  0.43499000  1.0
  N  N73  1  0.74584000  0.91983000  0.56501000  1.0
  O  O74  1  0.96965000  0.19386000  0.23078000  1.0
  O  O75  1  0.03035000  0.80614000  0.76922000  1.0
  O  O76  1  0.33234000  0.88740000  0.12797000  1.0
  O  O77  1  0.66766000  0.11260000  0.87203000  1.0
  O  O78  1  0.87740000  0.91316000  0.12226000  1.0
  O  O79  1  0.12261000  0.08684000  0.87773000  1.0
  O  O80  1  0.96368000  0.19615000  0.04407000  1.0
  O  O81  1  0.03632000  0.80385000  0.95593000  1.0
  O  O82  1  0.39051000  0.18446000  0.22854000  1.0
  O  O83  1  0.60948000  0.81554000  0.77146000  1.0
  O  O84  1  0.56959000  0.09100000  0.11162000  1.0
  O  O85  1  0.43041000  0.90900000  0.88838000  1.0
