# generated using pymatgen
data_NiH26C24N6O5
_symmetry_space_group_name_H-M   'P 1'
_cell_length_a   8.67523000
_cell_length_b   10.28470000
_cell_length_c   14.11840000
_cell_angle_alpha   90.71320000
_cell_angle_beta   98.34730000
_cell_angle_gamma   95.19940000
_symmetry_Int_Tables_number   1
_chemical_formula_structural   NiH26C24N6O5
_chemical_formula_sum   'Ni2 H52 C48 N12 O10'
_cell_volume   1240.78189894
_cell_formula_units_Z   2
loop_
 _symmetry_equiv_pos_site_id
 _symmetry_equiv_pos_as_xyz
  1  'x, y, z'
loop_
 _atom_site_type_symbol
 _atom_site_label
 _atom_site_symmetry_multiplicity
 _atom_site_fract_x
 _atom_site_fract_y
 _atom_site_fract_z
 _atom_site_occupancy
  Ni  Ni0  1  0.11390000  0.79688000  0.30704000  1.0
  Ni  Ni1  1  0.87781000  0.20627000  0.69284000  1.0
  H  H2  1  0.17283000  0.63520000  0.67593000  1.0
  H  H3  1  0.83314000  0.36328000  0.32482000  1.0
  H  H4  1  0.37500000  0.68464000  0.71618000  1.0
  H  H5  1  0.63002000  0.31523000  0.28649000  1.0
  H  H6  1  0.20778000  0.92317000  0.10726000  1.0
  H  H7  1  0.78186000  0.07907000  0.89000000  1.0
  H  H8  1  0.51006000  0.80567000  0.27623000  1.0
  H  H9  1  0.49638000  0.19606000  0.72312000  1.0
  H  H10  1  0.32476000  0.53975000  0.18754000  1.0
  H  H11  1  0.67768000  0.45752000  0.81218000  1.0
  H  H12  1  0.13125000  0.24158000  0.35671000  1.0
  H  H13  1  0.86778000  0.76005000  0.64457000  1.0
  H  H14  1  0.11754000  0.64485000  0.50355000  1.0
  H  H15  1  0.88712000  0.35684000  0.49775000  1.0
  H  H16  1  0.28104000  0.70960000  0.89349000  1.0
  H  H17  1  0.71842000  0.29128000  0.10723000  1.0
  H  H18  1  0.08917000  0.66176000  0.83358000  1.0
  H  H19  1  0.91164000  0.33798000  0.16558000  1.0
  H  H20  1  0.59388000  0.72317000  0.51790000  1.0
  H  H21  1  0.40951000  0.27803000  0.48122000  1.0
  H  H22  1  0.44244000  0.69619000  0.41844000  1.0
  H  H23  1  0.56198000  0.30597000  0.58001000  1.0
  H  H24  1  0.34466000  0.53338000  0.02923000  1.0
  H  H25  1  0.65580000  0.46114000  0.97104000  1.0
  H  H26  1  0.53285000  0.56392000  0.10054000  1.0
  H  H27  1  0.46754000  0.43092000  0.89953000  1.0
  H  H28  1  0.51615000  0.47195000  0.39394000  1.0
  H  H29  1  0.48623000  0.52973000  0.60466000  1.0
  H  H30  1  0.67460000  0.49752000  0.48876000  1.0
  H  H31  1  0.32802000  0.50324000  0.50985000  1.0
  H  H32  1  0.30797000  0.89318000  0.78162000  1.0
  H  H33  1  0.69298000  0.10695000  0.21835000  1.0
  H  H34  1  0.11083000  0.86074000  0.72922000  1.0
  H  H35  1  0.89128000  0.13737000  0.26904000  1.0
  H  H36  1  0.59275000  0.85933000  0.86194000  1.0
  H  H37  1  0.40428000  0.13567000  0.13982000  1.0
  H  H38  1  0.33907000  0.01411000  0.45119000  1.0
  H  H39  1  0.65952000  0.99094000  0.55347000  1.0
  H  H40  1  0.90926000  0.59086000  0.15158000  1.0
  H  H41  1  0.08619000  0.40679000  0.84294000  1.0
  H  H42  1  0.88239000  0.65225000  0.45435000  1.0
  H  H43  1  0.12259000  0.34844000  0.54595000  1.0
  H  H44  1  0.91485000  0.61552000  0.95498000  1.0
  H  H45  1  0.08442000  0.38330000  0.03995000  1.0
  H  H46  1  0.41838000  0.95953000  0.64321000  1.0
  H  H47  1  0.58658000  0.03986000  0.36059000  1.0
  H  H48  1  0.78802000  0.85854000  0.19916000  1.0
  H  H49  1  0.21997000  0.14480000  0.80180000  1.0
  H  H50  1  0.00197000  0.87631000  0.87594000  1.0
  H  H51  1  0.99703000  0.12450000  0.11982000  1.0
  H  H52  1  0.19207000  0.92756000  0.93574000  1.0
  H  H53  1  0.80558000  0.07316000  0.06237000  1.0
  C  C54  1  0.15679000  0.50592000  0.33016000  1.0
  C  C55  1  0.84470000  0.49485000  0.66973000  1.0
  C  C56  1  0.75027000  0.96722000  0.73092000  1.0
  C  C57  1  0.23394000  0.03237000  0.27174000  1.0
  C  C58  1  0.26069000  0.71972000  0.69036000  1.0
  C  C59  1  0.74441000  0.27930000  0.31091000  1.0
  C  C60  1  0.37159000  0.34080000  0.15263000  1.0
  C  C61  1  0.62932000  0.65514000  0.84890000  1.0
  C  C62  1  0.22526000  0.40043000  0.27776000  1.0
  C  C63  1  0.77644000  0.59928000  0.72321000  1.0
  C  C64  1  0.12447000  0.83760000  0.09420000  1.0
  C  C65  1  0.86716000  0.16336000  0.90247000  1.0
  C  C66  1  0.62822000  0.78039000  0.29929000  1.0
  C  C67  1  0.37834000  0.22195000  0.70062000  1.0
  C  C68  1  0.31013000  0.43643000  0.20316000  1.0
  C  C69  1  0.69189000  0.56112000  0.79756000  1.0
  C  C70  1  0.20093000  0.26948000  0.30068000  1.0
  C  C71  1  0.79923000  0.73085000  0.70092000  1.0
  C  C72  1  0.18490000  0.73950000  0.51397000  1.0
  C  C73  1  0.81912000  0.26248000  0.48797000  1.0
  C  C74  1  0.17589000  0.74624000  0.85338000  1.0
  C  C75  1  0.82419000  0.25395000  0.14596000  1.0
  C  C76  1  0.55863000  0.66981000  0.44896000  1.0
  C  C77  1  0.44531000  0.33163000  0.55003000  1.0
  C  C78  1  0.46192000  0.49819000  0.04516000  1.0
  C  C79  1  0.53846000  0.49617000  0.95521000  1.0
  C  C80  1  0.55548000  0.52302000  0.46344000  1.0
  C  C81  1  0.44737000  0.47834000  0.53523000  1.0
  C  C82  1  0.21361000  0.81399000  0.76295000  1.0
  C  C83  1  0.78849000  0.18529000  0.23686000  1.0
  C  C84  1  0.64628000  0.78633000  0.82423000  1.0
  C  C85  1  0.35291000  0.20961000  0.17803000  1.0
  C  C86  1  0.30257000  0.92981000  0.49029000  1.0
  C  C87  1  0.69832000  0.07361000  0.51360000  1.0
  C  C88  1  0.73203000  0.82417000  0.75116000  1.0
  C  C89  1  0.26590000  0.17408000  0.25102000  1.0
  C  C90  1  0.97165000  0.66393000  0.11305000  1.0
  C  C91  1  0.02300000  0.33515000  0.88213000  1.0
  C  C92  1  0.82259000  0.70267000  0.39495000  1.0
  C  C93  1  0.18269000  0.29852000  0.60557000  1.0
  C  C94  1  0.97326000  0.67455000  0.01606000  1.0
  C  C95  1  0.02332000  0.32479000  0.97929000  1.0
  C  C96  1  0.34345000  0.90426000  0.58548000  1.0
  C  C97  1  0.66100000  0.09659000  0.41772000  1.0
  C  C98  1  0.76614000  0.80683000  0.26295000  1.0
  C  C99  1  0.24062000  0.19602000  0.73750000  1.0
  C  C100  1  0.10812000  0.84151000  0.91598000  1.0
  C  C101  1  0.88965000  0.15931000  0.08137000  1.0
  N  N102  1  0.66645000  0.71500000  0.38307000  1.0
  N  N103  1  0.33906000  0.28644000  0.61660000  1.0
  N  N104  1  0.26731000  0.78343000  0.59910000  1.0
  N  N105  1  0.73906000  0.21608000  0.40277000  1.0
  N  N106  1  0.07086000  0.78566000  0.00541000  1.0
  N  N107  1  0.92382000  0.21518000  0.99097000  1.0
  N  N108  1  0.88643000  0.75794000  0.32310000  1.0
  N  N109  1  0.11958000  0.24433000  0.67782000  1.0
  N  N110  1  0.20435000  0.82642000  0.44645000  1.0
  N  N111  1  0.79638000  0.17777000  0.55672000  1.0
  N  N112  1  0.06594000  0.76646000  0.16090000  1.0
  N  N113  1  0.92562000  0.23356000  0.83498000  1.0
  O  O114  1  0.06386000  0.47385000  0.38823000  1.0
  O  O115  1  0.93678000  0.52685000  0.61144000  1.0
  O  O116  1  0.45081000  0.36645000  0.07649000  1.0
  O  O117  1  0.54953000  0.62818000  0.92451000  1.0
  O  O118  1  0.88264000  0.01273000  0.70778000  1.0
  O  O119  1  0.09738000  0.99642000  0.29182000  1.0
  O  O120  1  0.63902000  0.03443000  0.74102000  1.0
  O  O121  1  0.33728000  0.95408000  0.26591000  1.0
  O  O122  1  0.20323000  0.62215000  0.30786000  1.0
  O  O123  1  0.79709000  0.37846000  0.69207000  1.0
