# generated using pymatgen
data_CuHCN7
_symmetry_space_group_name_H-M   'P 1'
_cell_length_a   6.81198000
_cell_length_b   7.48579000
_cell_length_c   9.61684000
_cell_angle_alpha   89.99990000
_cell_angle_beta   90.00160000
_cell_angle_gamma   89.99940000
_symmetry_Int_Tables_number   1
_chemical_formula_structural   CuHCN7
_chemical_formula_sum   'Cu4 H4 C4 N28'
_cell_volume   490.39201971
_cell_formula_units_Z   4
loop_
 _symmetry_equiv_pos_site_id
 _symmetry_equiv_pos_as_xyz
  1  'x, y, z'
loop_
 _atom_site_type_symbol
 _atom_site_label
 _atom_site_symmetry_multiplicity
 _atom_site_fract_x
 _atom_site_fract_y
 _atom_site_fract_z
 _atom_site_occupancy
  Cu  Cu0  1  0.09242000  0.76788000  0.51951000  1.0
  Cu  Cu1  1  0.40758000  0.23212000  0.01951000  1.0
  Cu  Cu2  1  0.59242000  0.73211000  0.48048000  1.0
  Cu  Cu3  1  0.90758000  0.26788000  0.98048000  1.0
  H  H4  1  0.46956000  0.97544000  0.73153000  1.0
  H  H5  1  0.03044000  0.02457000  0.23153000  1.0
  H  H6  1  0.96957000  0.52455000  0.26848000  1.0
  H  H7  1  0.53044000  0.47543000  0.76846000  1.0
  C  C8  1  0.31919000  0.00087000  0.76260000  1.0
  C  C9  1  0.18081000  0.99914000  0.26260000  1.0
  C  C10  1  0.81920000  0.49913000  0.23740000  1.0
  C  C11  1  0.68082000  0.50086000  0.73740000  1.0
  N  N12  1  0.15874000  0.93704000  0.69919000  1.0
  N  N13  1  0.34126000  0.06296000  0.19919000  1.0
  N  N14  1  0.65874000  0.56296000  0.30081000  1.0
  N  N15  1  0.84126000  0.43704000  0.80081000  1.0
  N  N16  1  0.33459000  0.60981000  0.53220000  1.0
  N  N17  1  0.16540000  0.39020000  0.03220000  1.0
  N  N18  1  0.83459000  0.89018000  0.46779000  1.0
  N  N19  1  0.66541000  0.10982000  0.96780000  1.0
  N  N20  1  0.93019000  0.59995000  0.62892000  1.0
  N  N21  1  0.56982000  0.40005000  0.12891000  1.0
  N  N22  1  0.43018000  0.90005000  0.37108000  1.0
  N  N23  1  0.06982000  0.09994000  0.87108000  1.0
  N  N24  1  0.23331000  0.89656000  0.37008000  1.0
  N  N25  1  0.26668000  0.10345000  0.87008000  1.0
  N  N26  1  0.73332000  0.60345000  0.62993000  1.0
  N  N27  1  0.76669000  0.39655000  0.12993000  1.0
  N  N28  1  0.00353000  0.00080000  0.76907000  1.0
  N  N29  1  0.49647000  0.99920000  0.26907000  1.0
  N  N30  1  0.50353000  0.49920000  0.23092000  1.0
  N  N31  1  0.99647000  0.50080000  0.73093000  1.0
  N  N32  1  0.32189000  0.44766000  0.52064000  1.0
  N  N33  1  0.17809000  0.55233000  0.02064000  1.0
  N  N34  1  0.82190000  0.05231000  0.47936000  1.0
  N  N35  1  0.67810000  0.94769000  0.97936000  1.0
  N  N36  1  0.31186000  0.29376000  0.51198000  1.0
  N  N37  1  0.18812000  0.70624000  0.01199000  1.0
  N  N38  1  0.81187000  0.20622000  0.48802000  1.0
  N  N39  1  0.68813000  0.79377000  0.98801000  1.0
