# generated using pymatgen
data_MnH16C20(N3O5)2
_symmetry_space_group_name_H-M   'P 1'
_cell_length_a   6.29423000
_cell_length_b   7.23962000
_cell_length_c   11.00960000
_cell_angle_alpha   87.00980000
_cell_angle_beta   84.83350000
_cell_angle_gamma   87.91120000
_symmetry_Int_Tables_number   1
_chemical_formula_structural   MnH16C20(N3O5)2
_chemical_formula_sum   'Mn1 H16 C20 N6 O10'
_cell_volume   498.71078628
_cell_formula_units_Z   1
loop_
 _symmetry_equiv_pos_site_id
 _symmetry_equiv_pos_as_xyz
  1  'x, y, z'
loop_
 _atom_site_type_symbol
 _atom_site_label
 _atom_site_symmetry_multiplicity
 _atom_site_fract_x
 _atom_site_fract_y
 _atom_site_fract_z
 _atom_site_occupancy
  Mn  Mn0  1  0.00001000  0.00001000  0.00000000  1.0
  H  H1  1  0.33552000  0.79030000  0.04014000  1.0
  H  H2  1  0.66450000  0.20971000  0.95986000  1.0
  H  H3  1  0.38512000  0.97139000  0.10972000  1.0
  H  H4  1  0.61491000  0.02862000  0.89027000  1.0
  H  H5  1  0.66425000  0.80254000  0.70214000  1.0
  H  H6  1  0.33574000  0.19745000  0.29786000  1.0
  H  H7  1  0.76683000  0.68994000  0.41359000  1.0
  H  H8  1  0.23315000  0.31006000  0.58642000  1.0
  H  H9  1  0.72282000  0.18639000  0.63690000  1.0
  H  H10  1  0.27716000  0.81359000  0.36310000  1.0
  H  H11  1  0.71096000  0.00808000  0.45064000  1.0
  H  H12  1  0.28904000  0.99191000  0.54935000  1.0
  H  H13  1  0.97143000  0.76941000  0.24522000  1.0
  H  H14  1  0.02855000  0.23061000  0.75479000  1.0
  H  H15  1  0.72975000  0.62061000  0.92055000  1.0
  H  H16  1  0.27029000  0.37940000  0.07944000  1.0
  C  C17  1  0.71836000  0.13823000  0.21561000  1.0
  C  C18  1  0.28165000  0.86178000  0.78438000  1.0
  C  C19  1  0.74049000  0.24689000  0.32580000  1.0
  C  C20  1  0.25951000  0.75311000  0.67419000  1.0
  C  C21  1  0.76409000  0.43934000  0.31560000  1.0
  C  C22  1  0.23590000  0.56066000  0.68440000  1.0
  C  C23  1  0.76301000  0.53984000  0.42058000  1.0
  C  C24  1  0.23697000  0.46015000  0.57943000  1.0
  C  C25  1  0.74919000  0.44962000  0.53591000  1.0
  C  C26  1  0.25078000  0.55036000  0.46410000  1.0
  C  C27  1  0.73631000  0.25628000  0.54651000  1.0
  C  C28  1  0.26368000  0.74371000  0.45349000  1.0
  C  C29  1  0.72899000  0.15756000  0.44203000  1.0
  C  C30  1  0.27100000  0.84243000  0.55797000  1.0
  C  C31  1  0.73204000  0.55634000  0.64843000  1.0
  C  C32  1  0.26795000  0.44364000  0.35157000  1.0
  C  C33  1  0.88671000  0.70187000  0.17992000  1.0
  C  C34  1  0.11329000  0.29814000  0.82009000  1.0
  C  C35  1  0.76647000  0.62207000  0.01527000  1.0
  C  C36  1  0.23356000  0.37794000  0.98473000  1.0
  N  N37  1  0.87489000  0.75932000  0.06339000  1.0
  N  N38  1  0.12513000  0.24070000  0.93661000  1.0
  N  N39  1  0.78856000  0.53878000  0.20116000  1.0
  N  N40  1  0.21144000  0.46122000  0.79884000  1.0
  N  N41  1  0.71195000  0.48594000  0.09598000  1.0
  N  N42  1  0.28807000  0.51407000  0.90402000  1.0
  O  O43  1  0.89386000  0.10521000  0.15250000  1.0
  O  O44  1  0.10616000  0.89480000  0.84750000  1.0
  O  O45  1  0.53061000  0.09111000  0.19770000  1.0
  O  O46  1  0.46940000  0.90890000  0.80228000  1.0
  O  O47  1  0.27002000  0.89713000  0.08112000  1.0
  O  O48  1  0.73000000  0.10288000  0.91887000  1.0
  O  O49  1  0.71217000  0.48114000  0.75152000  1.0
  O  O50  1  0.28781000  0.51885000  0.24848000  1.0
  O  O51  1  0.73312000  0.74106000  0.62739000  1.0
  O  O52  1  0.26687000  0.25893000  0.37261000  1.0
