# generated using pymatgen
data_La2H22C10N4O19
_symmetry_space_group_name_H-M   'P 1'
_cell_length_a   8.09501000
_cell_length_b   12.56660000
_cell_length_c   24.26430000
_cell_angle_alpha   75.28700000
_cell_angle_beta   89.99970000
_cell_angle_gamma   89.99990000
_symmetry_Int_Tables_number   1
_chemical_formula_structural   La2H22C10N4O19
_chemical_formula_sum   'La8 H88 C40 N16 O76'
_cell_volume   2387.39233023
_cell_formula_units_Z   4
loop_
 _symmetry_equiv_pos_site_id
 _symmetry_equiv_pos_as_xyz
  1  'x, y, z'
loop_
 _atom_site_type_symbol
 _atom_site_label
 _atom_site_symmetry_multiplicity
 _atom_site_fract_x
 _atom_site_fract_y
 _atom_site_fract_z
 _atom_site_occupancy
  La  La0  1  0.72698000  0.91253000  0.87244000  1.0
  La  La1  1  0.99006000  0.09291000  0.60909000  1.0
  La  La2  1  0.22698000  0.58747000  0.62756000  1.0
  La  La3  1  0.49006000  0.40710000  0.89091000  1.0
  La  La4  1  0.27303000  0.08747000  0.12756000  1.0
  La  La5  1  0.00994000  0.90710000  0.39091000  1.0
  La  La6  1  0.77302000  0.41254000  0.37244000  1.0
  La  La7  1  0.50994000  0.59290000  0.10909000  1.0
  H  H8  1  0.47603000  0.04791000  0.74248000  1.0
  H  H9  1  0.49367000  0.95619000  0.69746000  1.0
  H  H10  1  0.70591000  0.79449000  0.75828000  1.0
  H  H11  1  0.50424000  0.75521000  0.74337000  1.0
  H  H12  1  0.44739000  0.03052000  0.95042000  1.0
  H  H13  1  0.26640000  0.07695000  0.91026000  1.0
  H  H14  1  0.28942000  0.78264000  0.91576000  1.0
  H  H15  1  0.21841000  0.87153000  0.95676000  1.0
  H  H16  1  0.32424000  0.78890000  0.83005000  1.0
  H  H17  1  0.26345000  0.88376000  0.76615000  1.0
  H  H18  1  0.31572000  0.03951000  0.81024000  1.0
  H  H19  1  0.16204000  0.94936000  0.84562000  1.0
  H  H20  1  0.01667000  0.05313000  0.74068000  1.0
  H  H21  1  0.30545000  0.99440000  0.56418000  1.0
  H  H22  1  0.16756000  0.90249000  0.57414000  1.0
  H  H23  1  0.65545000  0.22622000  0.57358000  1.0
  H  H24  1  0.77622000  0.24594000  0.52118000  1.0
  H  H25  1  0.35223000  0.20234000  0.59764000  1.0
  H  H26  1  0.73092000  0.93104000  0.57685000  1.0
  H  H27  1  0.82725000  0.98103000  0.51987000  1.0
  H  H28  1  0.06753000  0.17387000  0.70948000  1.0
  H  H29  1  0.31405000  0.13108000  0.66003000  1.0
  H  H30  1  0.97602000  0.45209000  0.75753000  1.0
  H  H31  1  0.99366000  0.54381000  0.80254000  1.0
  H  H32  1  0.20591000  0.70551000  0.74173000  1.0
  H  H33  1  0.00424000  0.74479000  0.75663000  1.0
  H  H34  1  0.94738000  0.46948000  0.54958000  1.0
  H  H35  1  0.76639000  0.42305000  0.58974000  1.0
  H  H36  1  0.78942000  0.71735000  0.58424000  1.0
  H  H37  1  0.71841000  0.62847000  0.54324000  1.0
  H  H38  1  0.82425000  0.71110000  0.66995000  1.0
  H  H39  1  0.76344000  0.61624000  0.73385000  1.0
  H  H40  1  0.81572000  0.46049000  0.68976000  1.0
  H  H41  1  0.66204000  0.55064000  0.65438000  1.0
  H  H42  1  0.51666000  0.44687000  0.75932000  1.0
  H  H43  1  0.80545000  0.50560000  0.93582000  1.0
  H  H44  1  0.66756000  0.59751000  0.92586000  1.0
  H  H45  1  0.15546000  0.27377000  0.92642000  1.0
  H  H46  1  0.27624000  0.25406000  0.97882000  1.0
  H  H47  1  0.85223000  0.29766000  0.90236000  1.0
  H  H48  1  0.23093000  0.56895000  0.92316000  1.0
  H  H49  1  0.32725000  0.51897000  0.98014000  1.0
  H  H50  1  0.56753000  0.32613000  0.79052000  1.0
  H  H51  1  0.81407000  0.36892000  0.83997000  1.0
  H  H52  1  0.52397000  0.95209000  0.25752000  1.0
  H  H53  1  0.50634000  0.04381000  0.30254000  1.0
  H  H54  1  0.29409000  0.20551000  0.24173000  1.0
  H  H55  1  0.49576000  0.24478000  0.25663000  1.0
  H  H56  1  0.55262000  0.96949000  0.04957000  1.0
  H  H57  1  0.73361000  0.92305000  0.08973000  1.0
  H  H58  1  0.71058000  0.21735000  0.08424000  1.0
  H  H59  1  0.78161000  0.12847000  0.04324000  1.0
  H  H60  1  0.67576000  0.21110000  0.16995000  1.0
  H  H61  1  0.73656000  0.11624000  0.23385000  1.0
  H  H62  1  0.68428000  0.96049000  0.18976000  1.0
  H  H63  1  0.83797000  0.05063000  0.15438000  1.0
  H  H64  1  0.98333000  0.94687000  0.25932000  1.0
  H  H65  1  0.69455000  0.00561000  0.43582000  1.0
  H  H66  1  0.83244000  0.09751000  0.42586000  1.0
  H  H67  1  0.34455000  0.77378000  0.42642000  1.0
  H  H68  1  0.22378000  0.75407000  0.47882000  1.0
  H  H69  1  0.64777000  0.79767000  0.40236000  1.0
  H  H70  1  0.26907000  0.06896000  0.42315000  1.0
  H  H71  1  0.17275000  0.01898000  0.48013000  1.0
  H  H72  1  0.93246000  0.82613000  0.29052000  1.0
  H  H73  1  0.68594000  0.86893000  0.33998000  1.0
  H  H74  1  0.02397000  0.54791000  0.24248000  1.0
  H  H75  1  0.00634000  0.45620000  0.19746000  1.0
  H  H76  1  0.79409000  0.29449000  0.25827000  1.0
  H  H77  1  0.99576000  0.25521000  0.24337000  1.0
  H  H78  1  0.05260000  0.53052000  0.45042000  1.0
  H  H79  1  0.23360000  0.57695000  0.41026000  1.0
  H  H80  1  0.21057000  0.28265000  0.41576000  1.0
  H  H81  1  0.28159000  0.37153000  0.45676000  1.0
  H  H82  1  0.17576000  0.28890000  0.33005000  1.0
  H  H83  1  0.23655000  0.38376000  0.26615000  1.0
  H  H84  1  0.18427000  0.53951000  0.31024000  1.0
  H  H85  1  0.33796000  0.44937000  0.34562000  1.0
  H  H86  1  0.48334000  0.55314000  0.24068000  1.0
  H  H87  1  0.19454000  0.49439000  0.06418000  1.0
  H  H88  1  0.33244000  0.40248000  0.07415000  1.0
  H  H89  1  0.84454000  0.72622000  0.07358000  1.0
  H  H90  1  0.72378000  0.74593000  0.02118000  1.0
  H  H91  1  0.14777000  0.70234000  0.09764000  1.0
  H  H92  1  0.76907000  0.43104000  0.07685000  1.0
  H  H93  1  0.67275000  0.48102000  0.01987000  1.0
  H  H94  1  0.43247000  0.67388000  0.20948000  1.0
  H  H95  1  0.18594000  0.63108000  0.16003000  1.0
  C  C96  1  0.54271000  0.97559000  0.73620000  1.0
  C  C97  1  0.72255000  0.00981000  0.72612000  1.0
  C  C98  1  0.57937000  0.78129000  0.77545000  1.0
  C  C99  1  0.58871000  0.68957000  0.83003000  1.0
  C  C100  1  0.39203000  0.04473000  0.90775000  1.0
  C  C101  1  0.49681000  0.13150000  0.86723000  1.0
  C  C102  1  0.32760000  0.84922000  0.93485000  1.0
  C  C103  1  0.45690000  0.79744000  0.97879000  1.0
  C  C104  1  0.34403000  0.87310000  0.80386000  1.0
  C  C105  1  0.29534000  0.95573000  0.83663000  1.0
  C  C106  1  0.04271000  0.52441000  0.76380000  1.0
  C  C107  1  0.22255000  0.49019000  0.77388000  1.0
  C  C108  1  0.07936000  0.71871000  0.72456000  1.0
  C  C109  1  0.08872000  0.81043000  0.66997000  1.0
  C  C110  1  0.89203000  0.45526000  0.59225000  1.0
  C  C111  1  0.99680000  0.36850000  0.63277000  1.0
  C  C112  1  0.82760000  0.65077000  0.56515000  1.0
  C  C113  1  0.95690000  0.70255000  0.52121000  1.0
  C  C114  1  0.84403000  0.62690000  0.69614000  1.0
  C  C115  1  0.79534000  0.54427000  0.66337000  1.0
  C  C116  1  0.45729000  0.02441000  0.26380000  1.0
  C  C117  1  0.27745000  0.99019000  0.27388000  1.0
  C  C118  1  0.42064000  0.21871000  0.22455000  1.0
  C  C119  1  0.41129000  0.31043000  0.16997000  1.0
  C  C120  1  0.60798000  0.95527000  0.09225000  1.0
  C  C121  1  0.50320000  0.86850000  0.13276000  1.0
  C  C122  1  0.67242000  0.15077000  0.06515000  1.0
  C  C123  1  0.54311000  0.20254000  0.02121000  1.0
  C  C124  1  0.65597000  0.12690000  0.19614000  1.0
  C  C125  1  0.70467000  0.04427000  0.16337000  1.0
  C  C126  1  0.95729000  0.47560000  0.23620000  1.0
  C  C127  1  0.77745000  0.50982000  0.22612000  1.0
  C  C128  1  0.92063000  0.28129000  0.27544000  1.0
  C  C129  1  0.91128000  0.18957000  0.33003000  1.0
  C  C130  1  0.10796000  0.54474000  0.40775000  1.0
  C  C131  1  0.00320000  0.63151000  0.36723000  1.0
  C  C132  1  0.17240000  0.34923000  0.43485000  1.0
  C  C133  1  0.04309000  0.29746000  0.47879000  1.0
  C  C134  1  0.15596000  0.37310000  0.30386000  1.0
  C  C135  1  0.20466000  0.45574000  0.33663000  1.0
  N  N136  1  0.52041000  0.88420000  0.78704000  1.0
  N  N137  1  0.39212000  0.94123000  0.88987000  1.0
  N  N138  1  0.98290000  0.72655000  0.88656000  1.0
  N  N139  1  0.90763000  0.08669000  0.92121000  1.0
  N  N140  1  0.02042000  0.61580000  0.71296000  1.0
  N  N141  1  0.89212000  0.55876000  0.61013000  1.0
  N  N142  1  0.48289000  0.77344000  0.61344000  1.0
  N  N143  1  0.40764000  0.41332000  0.57879000  1.0
  N  N144  1  0.47959000  0.11579000  0.21296000  1.0
  N  N145  1  0.60788000  0.05876000  0.11013000  1.0
  N  N146  1  0.01711000  0.27344000  0.11344000  1.0
  N  N147  1  0.09237000  0.91331000  0.07879000  1.0
  N  N148  1  0.97958000  0.38421000  0.28704000  1.0
  N  N149  1  0.10787000  0.44124000  0.38987000  1.0
  N  N150  1  0.51710000  0.22656000  0.38656000  1.0
  N  N151  1  0.59236000  0.58669000  0.42121000  1.0
  O  O152  1  0.82142000  0.99037000  0.76844000  1.0
  O  O153  1  0.76089000  0.05779000  0.67537000  1.0
  O  O154  1  0.62614000  0.71710000  0.87600000  1.0
  O  O155  1  0.56321000  0.59251000  0.82687000  1.0
  O  O156  1  0.61023000  0.09907000  0.83893000  1.0
  O  O157  1  0.46696000  0.23162000  0.86373000  1.0
  O  O158  1  0.60722000  0.82850000  0.96916000  1.0
  O  O159  1  0.40877000  0.72422000  0.02157000  1.0
  O  O160  1  0.93881000  0.75272000  0.93151000  1.0
  O  O161  1  0.95820000  0.79698000  0.83865000  1.0
  O  O162  1  0.04582000  0.63475000  0.88760000  1.0
  O  O163  1  0.96693000  0.05968000  0.87799000  1.0
  O  O164  1  0.79481000  0.02628000  0.94977000  1.0
  O  O165  1  0.95815000  0.17076000  0.93525000  1.0
  O  O166  1  0.10560000  0.09740000  0.71710000  1.0
  O  O167  1  0.19223000  0.98111000  0.55360000  1.0
  O  O168  1  0.73758000  0.18927000  0.55550000  1.0
  O  O169  1  0.30394000  0.13234000  0.61979000  1.0
  O  O170  1  0.84082000  0.95736000  0.56207000  1.0
  O  O171  1  0.32142000  0.50962000  0.73156000  1.0
  O  O172  1  0.26088000  0.44221000  0.82463000  1.0
  O  O173  1  0.12615000  0.78290000  0.62401000  1.0
  O  O174  1  0.06323000  0.90750000  0.67314000  1.0
  O  O175  1  0.11023000  0.40092000  0.66107000  1.0
  O  O176  1  0.96696000  0.26837000  0.63627000  1.0
  O  O177  1  0.10722000  0.67150000  0.53084000  1.0
  O  O178  1  0.90876000  0.77577000  0.47842000  1.0
  O  O179  1  0.43881000  0.74727000  0.56850000  1.0
  O  O180  1  0.45819000  0.70302000  0.66135000  1.0
  O  O181  1  0.54581000  0.86524000  0.61240000  1.0
  O  O182  1  0.46693000  0.44032000  0.62201000  1.0
  O  O183  1  0.29482000  0.47373000  0.55022000  1.0
  O  O184  1  0.45815000  0.32924000  0.56475000  1.0
  O  O185  1  0.60559000  0.40261000  0.78289000  1.0
  O  O186  1  0.69223000  0.51889000  0.94640000  1.0
  O  O187  1  0.23758000  0.31073000  0.94450000  1.0
  O  O188  1  0.80394000  0.36766000  0.88020000  1.0
  O  O189  1  0.34083000  0.54263000  0.93793000  1.0
  O  O190  1  0.17858000  0.00962000  0.23156000  1.0
  O  O191  1  0.23912000  0.94221000  0.32463000  1.0
  O  O192  1  0.37386000  0.28289000  0.12401000  1.0
  O  O193  1  0.43677000  0.40749000  0.17314000  1.0
  O  O194  1  0.38978000  0.90092000  0.16107000  1.0
  O  O195  1  0.53303000  0.76838000  0.13626000  1.0
  O  O196  1  0.39280000  0.17150000  0.03084000  1.0
  O  O197  1  0.59125000  0.27577000  0.97842000  1.0
  O  O198  1  0.06120000  0.24728000  0.06850000  1.0
  O  O199  1  0.04181000  0.20301000  0.16135000  1.0
  O  O200  1  0.95418000  0.36524000  0.11241000  1.0
  O  O201  1  0.03308000  0.94033000  0.12201000  1.0
  O  O202  1  0.20520000  0.97372000  0.05023000  1.0
  O  O203  1  0.04184000  0.82924000  0.06475000  1.0
  O  O204  1  0.89440000  0.90261000  0.28290000  1.0
  O  O205  1  0.80777000  0.01890000  0.44640000  1.0
  O  O206  1  0.26242000  0.81074000  0.44450000  1.0
  O  O207  1  0.69606000  0.86767000  0.38021000  1.0
  O  O208  1  0.15917000  0.04264000  0.43793000  1.0
  O  O209  1  0.67858000  0.49039000  0.26844000  1.0
  O  O210  1  0.73912000  0.55780000  0.17537000  1.0
  O  O211  1  0.87385000  0.21711000  0.37600000  1.0
  O  O212  1  0.93676000  0.09251000  0.32687000  1.0
  O  O213  1  0.88977000  0.59908000  0.33893000  1.0
  O  O214  1  0.03304000  0.73163000  0.36373000  1.0
  O  O215  1  0.89277000  0.32851000  0.46916000  1.0
  O  O216  1  0.09122000  0.22423000  0.52157000  1.0
  O  O217  1  0.56119000  0.25273000  0.43150000  1.0
  O  O218  1  0.54180000  0.29699000  0.33865000  1.0
  O  O219  1  0.45418000  0.13476000  0.38760000  1.0
  O  O220  1  0.53307000  0.55968000  0.37799000  1.0
  O  O221  1  0.70520000  0.52628000  0.44977000  1.0
  O  O222  1  0.54184000  0.67077000  0.43525000  1.0
  O  O223  1  0.39441000  0.59740000  0.21711000  1.0
  O  O224  1  0.30776000  0.48110000  0.05360000  1.0
  O  O225  1  0.76243000  0.68926000  0.05550000  1.0
  O  O226  1  0.19605000  0.63234000  0.11979000  1.0
  O  O227  1  0.65917000  0.45736000  0.06207000  1.0
