# generated using pymatgen
data_Co2H18C24N4O9
_symmetry_space_group_name_H-M   'P 1'
_cell_length_a   10.40880000
_cell_length_b   11.45330000
_cell_length_c   13.85559281
_cell_angle_alpha   105.77622978
_cell_angle_beta   102.61193242
_cell_angle_gamma   111.53400000
_symmetry_Int_Tables_number   1
_chemical_formula_structural   Co2H18C24N4O9
_chemical_formula_sum   'Co4 H36 C48 N8 O18'
_cell_volume   1382.08814138
_cell_formula_units_Z   2
loop_
 _symmetry_equiv_pos_site_id
 _symmetry_equiv_pos_as_xyz
  1  'x, y, z'
loop_
 _atom_site_type_symbol
 _atom_site_label
 _atom_site_symmetry_multiplicity
 _atom_site_fract_x
 _atom_site_fract_y
 _atom_site_fract_z
 _atom_site_occupancy
  Co  Co0  1  0.97243000  0.27853000  0.78307000  1.0
  Co  Co1  1  0.75675000  0.53781000  0.30812000  1.0
  Co  Co2  1  0.02757000  0.72148000  0.21693000  1.0
  Co  Co3  1  0.24324000  0.46219000  0.69189000  1.0
  H  H4  1  0.52014000  0.57832000  0.40274000  1.0
  H  H5  1  0.25226333  0.52294333  0.33333333  1.0
  H  H6  1  0.11292000  0.40921000  0.13509000  1.0
  H  H7  1  0.52174000  0.44342000  0.09437000  1.0
  H  H8  1  0.51148000  0.26252000  0.22412000  1.0
  H  H9  1  0.44436000  0.07180000  0.28749000  1.0
  H  H10  1  0.61786000  0.10104000  0.46239000  1.0
  H  H11  1  0.88855000  0.50810000  0.49588000  1.0
  H  H12  1  0.89957000  0.06660000  0.88138000  1.0
  H  H13  1  0.81586000  0.81435000  0.82283000  1.0
  H  H14  1  0.77680000  0.68028000  0.63210000  1.0
  H  H15  1  0.89336000  0.05144000  0.57797000  1.0
  H  H16  1  0.62938000  0.16079000  0.69303000  1.0
  H  H17  1  0.43148000  0.15527000  0.77148000  1.0
  H  H18  1  0.50541000  0.27030000  0.97024000  1.0
  H  H19  1  0.95733000  0.38565000  0.99191000  1.0
  H  H20  1  0.24069000  0.32585000  0.81380000  1.0
  H  H21  1  0.17009000  0.23348000  0.68026000  1.0
  H  H22  1  0.47985000  0.42169000  0.59727000  1.0
  H  H23  1  0.74772667  0.47704667  0.66666667  1.0
  H  H24  1  0.88709000  0.59078000  0.86492000  1.0
  H  H25  1  0.47825000  0.55658000  0.90564000  1.0
  H  H26  1  0.48853000  0.73747000  0.77587000  1.0
  H  H27  1  0.55568000  0.92817000  0.71248000  1.0
  H  H28  1  0.38217000  0.89893000  0.53757000  1.0
  H  H29  1  0.11143000  0.49191000  0.50413000  1.0
  H  H30  1  0.10043000  0.93336000  0.11863000  1.0
  H  H31  1  0.18415000  0.18564000  0.17716000  1.0
  H  H32  1  0.22322000  0.31973000  0.36790000  1.0
  H  H33  1  0.10664000  0.94856000  0.42202000  1.0
  H  H34  1  0.37060000  0.83920000  0.30697000  1.0
  H  H35  1  0.56852000  0.84474000  0.22854000  1.0
  H  H36  1  0.49460000  0.72972000  0.02977000  1.0
  H  H37  1  0.04265000  0.61435000  0.00810000  1.0
  H  H38  1  0.75930000  0.67412000  0.18621000  1.0
  H  H39  1  0.82990000  0.76652000  0.31975000  1.0
  C  C40  1  0.45670000  0.53282000  0.31688000  1.0
  C  C41  1  0.30743000  0.49990000  0.27781000  1.0
  C  C42  1  0.22991000  0.43674000  0.16736000  1.0
  C  C43  1  0.30697000  0.41289000  0.09931000  1.0
  C  C44  1  0.45801000  0.45504000  0.14540000  1.0
  C  C45  1  0.23657000  0.34895000  0.97892000  1.0
  C  C46  1  0.57972000  0.27258000  0.30052000  1.0
  C  C47  1  0.54461000  0.16655000  0.33632000  1.0
  C  C48  1  0.63937000  0.18258000  0.43260000  1.0
  C  C49  1  0.76728000  0.30646000  0.49077000  1.0
  C  C50  1  0.79182000  0.41009000  0.45207000  1.0
  C  C51  1  0.88383000  0.33090000  0.59075000  1.0
  C  C52  1  0.87792000  0.00308000  0.79940000  1.0
  C  C53  1  0.83265000  0.86362000  0.76639000  1.0
  C  C54  1  0.81033000  0.78911000  0.66100000  1.0
  C  C55  1  0.83233000  0.85667000  0.59137000  1.0
  C  C56  1  0.87586000  0.99644000  0.63048000  1.0
  C  C57  1  0.81427000  0.78596000  0.47758000  1.0
  C  C58  1  0.65534000  0.20673000  0.77927000  1.0
  C  C59  1  0.54711000  0.20485000  0.82373000  1.0
  C  C60  1  0.58856000  0.26894000  0.93468000  1.0
  C  C61  1  0.73916000  0.33722000  0.99748000  1.0
  C  C62  1  0.83977000  0.33381000  0.94604000  1.0
  C  C63  1  0.80274000  0.42503000  0.11507000  1.0
  C  C64  1  0.54330000  0.46719000  0.68313000  1.0
  C  C65  1  0.69256000  0.50009000  0.72220000  1.0
  C  C66  1  0.77008000  0.56325000  0.83264000  1.0
  C  C67  1  0.69303000  0.58711000  0.90069000  1.0
  C  C68  1  0.54199000  0.54496000  0.85460000  1.0
  C  C69  1  0.76343000  0.65105000  0.02108000  1.0
  C  C70  1  0.42028000  0.72741000  0.69947000  1.0
  C  C71  1  0.45541000  0.83342000  0.66366000  1.0
  C  C72  1  0.36065000  0.81741000  0.56738000  1.0
  C  C73  1  0.23273000  0.69353000  0.50922000  1.0
  C  C74  1  0.20819000  0.58990000  0.54792000  1.0
  C  C75  1  0.11615000  0.66909000  0.40924000  1.0
  C  C76  1  0.12210000  0.99693000  0.20061000  1.0
  C  C77  1  0.16736000  0.13638000  0.23361000  1.0
  C  C78  1  0.18968000  0.21091000  0.33900000  1.0
  C  C79  1  0.16766000  0.14334000  0.40862000  1.0
  C  C80  1  0.12414000  0.00357000  0.36952000  1.0
  C  C81  1  0.18573000  0.21405000  0.52242000  1.0
  C  C82  1  0.34465000  0.79326000  0.22073000  1.0
  C  C83  1  0.45289000  0.79516000  0.17628000  1.0
  C  C84  1  0.41145000  0.73108000  0.06533000  1.0
  C  C85  1  0.26084000  0.66279000  0.00252000  1.0
  C  C86  1  0.16022000  0.66619000  0.05396000  1.0
  C  C87  1  0.19725000  0.57498000  0.88493000  1.0
  N  N88  1  0.53191000  0.51095000  0.25177000  1.0
  N  N89  1  0.70140000  0.39363000  0.35807000  1.0
  N  N90  1  0.89924000  0.06883000  0.73247000  1.0
  N  N91  1  0.80021000  0.26846000  0.84002000  1.0
  N  N92  1  0.46809000  0.48905000  0.74823000  1.0
  N  N93  1  0.29861000  0.60636000  0.64192000  1.0
  N  N94  1  0.10076000  0.93118000  0.26754000  1.0
  N  N95  1  0.19978000  0.73154000  0.15998000  1.0
  O  O96  1  0.09671000  0.29970000  0.93827000  1.0
  O  O97  1  0.32222000  0.35035000  0.92577000  1.0
  O  O98  1  0.84470000  0.24505000  0.63510000  1.0
  O  O99  1  0.00830000  0.43117000  0.62173000  1.0
  O  O100  1  0.79103000  0.66122000  0.45018000  1.0
  O  O101  1  0.82383000  0.85256000  0.41756000  1.0
  O  O102  1  0.93784000  0.51190000  0.15193000  1.0
  O  O103  1  0.71497000  0.40829000  0.16790000  1.0
  O  O104  1  0.17025000  0.31179000  0.74065000  1.0
  O  O105  1  0.90330000  0.70030000  0.06171000  1.0
  O  O106  1  0.67777000  0.64963000  0.07423000  1.0
  O  O107  1  0.15528000  0.75497000  0.36491000  1.0
  O  O108  1  0.99167000  0.56881000  0.37824000  1.0
  O  O109  1  0.20899000  0.33878000  0.54983000  1.0
  O  O110  1  0.17615000  0.14744000  0.58243000  1.0
  O  O111  1  0.06216000  0.48811000  0.84808000  1.0
  O  O112  1  0.28502000  0.59171000  0.83210000  1.0
  O  O113  1  0.82974000  0.68821000  0.25936000  1.0
