# generated using pymatgen
data_CdH10C10(NCl)2
_symmetry_space_group_name_H-M   'P 1'
_cell_length_a   3.82159000
_cell_length_b   8.52471000
_cell_length_c   17.53398224
_cell_angle_alpha   89.99946776
_cell_angle_beta   84.71315548
_cell_angle_gamma   89.99940000
_symmetry_Int_Tables_number   1
_chemical_formula_structural   CdH10C10(NCl)2
_chemical_formula_sum   'Cd2 H20 C20 N4 Cl4'
_cell_volume   568.79109226
_cell_formula_units_Z   2
loop_
 _symmetry_equiv_pos_site_id
 _symmetry_equiv_pos_as_xyz
  1  'x, y, z'
loop_
 _atom_site_type_symbol
 _atom_site_label
 _atom_site_symmetry_multiplicity
 _atom_site_fract_x
 _atom_site_fract_y
 _atom_site_fract_z
 _atom_site_occupancy
  Cd  Cd0  1  0.00000000  0.00000000  0.00000000  1.0
  Cd  Cd1  1  0.00000000  0.49999000  0.50000000  1.0
  H  H2  1  0.67519000  0.06514000  0.17112000  1.0
  H  H3  1  0.32478000  0.56514000  0.32887000  1.0
  H  H4  1  0.32479000  0.93485000  0.82887000  1.0
  H  H5  1  0.67520000  0.43486000  0.67113000  1.0
  H  H6  1  0.59612000  0.27864000  0.27156000  1.0
  H  H7  1  0.40383000  0.77865000  0.22844000  1.0
  H  H8  1  0.40386000  0.72136000  0.72844000  1.0
  H  H9  1  0.59614000  0.22136000  0.77157000  1.0
  H  H10  1  0.83025000  0.54628000  0.23768000  1.0
  H  H11  1  0.16973000  0.04629000  0.26232000  1.0
  H  H12  1  0.16976000  0.45372000  0.76231000  1.0
  H  H13  1  0.83026000  0.95372000  0.73769000  1.0
  H  H14  1  0.14575000  0.59087000  0.10739000  1.0
  H  H15  1  0.85426000  0.09087000  0.39262000  1.0
  H  H16  1  0.85427000  0.40913000  0.89261000  1.0
  H  H17  1  0.14575000  0.90913000  0.60739000  1.0
  H  H18  1  0.21613000  0.36242000  0.01631000  1.0
  H  H19  1  0.78389000  0.86241000  0.48370000  1.0
  H  H20  1  0.78389000  0.63758000  0.98369000  1.0
  H  H21  1  0.21611000  0.13758000  0.51631000  1.0
  C  C22  1  0.77744000  0.18339000  0.16050000  1.0
  C  C23  1  0.22254000  0.68338000  0.33950000  1.0
  C  C24  1  0.22256000  0.81661000  0.83949000  1.0
  C  C25  1  0.77744000  0.31662000  0.66051000  1.0
  C  C26  1  0.73096000  0.30187000  0.21515000  1.0
  C  C27  1  0.26900000  0.80188000  0.28484000  1.0
  C  C28  1  0.26903000  0.69812000  0.78484000  1.0
  C  C29  1  0.73098000  0.19813000  0.71516000  1.0
  C  C30  1  0.86203000  0.45092000  0.19625000  1.0
  C  C31  1  0.13796000  0.95092000  0.30374000  1.0
  C  C32  1  0.13799000  0.54908000  0.80374000  1.0
  C  C33  1  0.86204000  0.04909000  0.69626000  1.0
  C  C34  1  0.03720000  0.47619000  0.12402000  1.0
  C  C35  1  0.96280000  0.97619000  0.37598000  1.0
  C  C36  1  0.96281000  0.52381000  0.87598000  1.0
  C  C37  1  0.03720000  0.02381000  0.62403000  1.0
  C  C38  1  0.07575000  0.35066000  0.07307000  1.0
  C  C39  1  0.92426000  0.85065000  0.42693000  1.0
  C  C40  1  0.92426000  0.64935000  0.92693000  1.0
  C  C41  1  0.07574000  0.14935000  0.57308000  1.0
  N  N42  1  0.94709000  0.20700000  0.09080000  1.0
  N  N43  1  0.05292000  0.70700000  0.40919000  1.0
  N  N44  1  0.05292000  0.79300000  0.90919000  1.0
  N  N45  1  0.94708000  0.29300000  0.59081000  1.0
  Cl  Cl46  1  0.47219000  0.85083000  0.07877000  1.0
  Cl  Cl47  1  0.52782000  0.35082000  0.42123000  1.0
  Cl  Cl48  1  0.52782000  0.14917000  0.92122000  1.0
  Cl  Cl49  1  0.47218000  0.64917000  0.57877000  1.0
