# generated using pymatgen
data_NaH14C12S2N3O11
_symmetry_space_group_name_H-M   'P 1'
_cell_length_a   6.22300000
_cell_length_b   7.71022000
_cell_length_c   18.71940000
_cell_angle_alpha   99.10410000
_cell_angle_beta   89.99980000
_cell_angle_gamma   89.99990000
_symmetry_Int_Tables_number   1
_chemical_formula_structural   NaH14C12S2N3O11
_chemical_formula_sum   'Na2 H28 C24 S4 N6 O22'
_cell_volume   886.85519071
_cell_formula_units_Z   2
loop_
 _symmetry_equiv_pos_site_id
 _symmetry_equiv_pos_as_xyz
  1  'x, y, z'
loop_
 _atom_site_type_symbol
 _atom_site_label
 _atom_site_symmetry_multiplicity
 _atom_site_fract_x
 _atom_site_fract_y
 _atom_site_fract_z
 _atom_site_occupancy
  Na  Na0  1  0.56123000  0.16327000  0.97525000  1.0
  Na  Na1  1  0.06123000  0.83672000  0.02475000  1.0
  H  H2  1  0.20640000  0.98408000  0.90248000  1.0
  H  H3  1  0.70641000  0.01591000  0.09752000  1.0
  H  H4  1  0.09748000  0.13702000  0.95707000  1.0
  H  H5  1  0.59749000  0.86297000  0.04294000  1.0
  H  H6  1  0.54998000  0.42917000  0.11438000  1.0
  H  H7  1  0.04999000  0.57082000  0.88562000  1.0
  H  H8  1  0.31200000  0.37743000  0.09425000  1.0
  H  H9  1  0.81200000  0.62256000  0.90576000  1.0
  H  H10  1  0.95538000  0.32674000  0.03481000  1.0
  H  H11  1  0.45539000  0.67325000  0.96520000  1.0
  H  H12  1  0.93160000  0.41509000  0.96510000  1.0
  H  H13  1  0.43160000  0.58490000  0.03490000  1.0
  H  H14  1  0.36223000  0.36701000  0.68014000  1.0
  H  H15  1  0.86225000  0.63300000  0.31987000  1.0
  H  H16  1  0.59668000  0.20781000  0.58250000  1.0
  H  H17  1  0.09671000  0.79220000  0.41750000  1.0
  H  H18  1  0.06500000  0.11589000  0.74181000  1.0
  H  H19  1  0.56501000  0.88412000  0.25819000  1.0
  H  H20  1  0.83062000  0.27149000  0.83991000  1.0
  H  H21  1  0.33062000  0.72852000  0.16009000  1.0
  H  H22  1  0.33638000  0.84179000  0.68712000  1.0
  H  H23  1  0.83637000  0.15821000  0.31287000  1.0
  H  H24  1  0.47295000  0.78216000  0.55999000  1.0
  H  H25  1  0.97294000  0.21785000  0.44001000  1.0
  H  H26  1  0.07235000  0.60008000  0.63660000  1.0
  H  H27  1  0.57234000  0.39992000  0.36341000  1.0
  H  H28  1  0.94017000  0.66320000  0.76429000  1.0
  H  H29  1  0.44018000  0.33680000  0.23572000  1.0
  C  C30  1  0.58639000  0.33077000  0.76500000  1.0
  C  C31  1  0.08640000  0.66924000  0.23500000  1.0
  C  C32  1  0.51582000  0.31294000  0.69338000  1.0
  C  C33  1  0.01584000  0.68708000  0.30662000  1.0
  C  C34  1  0.64524000  0.22418000  0.63891000  1.0
  C  C35  1  0.14525000  0.77582000  0.36109000  1.0
  C  C36  1  0.84205000  0.15832000  0.65788000  1.0
  C  C37  1  0.34206000  0.84169000  0.34212000  1.0
  C  C38  1  0.91202000  0.17222000  0.72933000  1.0
  C  C39  1  0.41204000  0.82778000  0.27067000  1.0
  C  C40  1  0.78141000  0.25934000  0.78361000  1.0
  C  C41  1  0.28142000  0.74067000  0.21638000  1.0
  C  C42  1  0.62872000  0.75509000  0.73238000  1.0
  C  C43  1  0.12871000  0.24490000  0.26762000  1.0
  C  C44  1  0.49580000  0.78683000  0.67574000  1.0
  C  C45  1  0.99579000  0.21317000  0.32426000  1.0
  C  C46  1  0.57124000  0.75340000  0.60478000  1.0
  C  C47  1  0.07122000  0.24660000  0.39522000  1.0
  C  C48  1  0.77898000  0.68817000  0.59305000  1.0
  C  C49  1  0.27896000  0.31183000  0.40696000  1.0
  C  C50  1  0.91223000  0.65284000  0.64916000  1.0
  C  C51  1  0.41221000  0.34717000  0.35084000  1.0
  C  C52  1  0.83676000  0.68742000  0.71996000  1.0
  C  C53  1  0.33675000  0.31258000  0.28004000  1.0
  S  S54  1  0.43111000  0.45088000  0.83553000  1.0
  S  S55  1  0.93112000  0.54912000  0.16446000  1.0
  S  S56  1  0.52844000  0.80802000  0.82247000  1.0
  S  S57  1  0.02844000  0.19198000  0.17753000  1.0
  N  N58  1  0.55653000  0.63430000  0.86067000  1.0
  N  N59  1  0.05654000  0.36570000  0.13933000  1.0
  N  N60  1  0.98121000  0.06944000  0.59982000  1.0
  N  N61  1  0.48124000  0.93057000  0.40018000  1.0
  N  N62  1  0.86673000  0.66423000  0.51913000  1.0
  N  N63  1  0.36672000  0.33576000  0.48087000  1.0
  O  O64  1  0.20235000  0.03822000  0.95364000  1.0
  O  O65  1  0.70235000  0.96178000  0.04636000  1.0
  O  O66  1  0.45403000  0.39741000  0.07247000  1.0
  O  O67  1  0.95403000  0.60257000  0.92754000  1.0
  O  O68  1  0.91319000  0.30097000  0.98362000  1.0
  O  O69  1  0.41321000  0.69903000  0.01638000  1.0
  O  O70  1  0.44497000  0.35824000  0.89696000  1.0
  O  O71  1  0.94498000  0.64175000  0.10304000  1.0
  O  O72  1  0.21748000  0.47607000  0.80677000  1.0
  O  O73  1  0.71749000  0.52391000  0.19323000  1.0
  O  O74  1  0.67023000  0.93706000  0.86320000  1.0
  O  O75  1  0.17022000  0.06294000  0.13680000  1.0
  O  O76  1  0.30422000  0.85819000  0.81583000  1.0
  O  O77  1  0.80421000  0.14180000  0.18417000  1.0
  O  O78  1  0.90986000  0.04628000  0.53727000  1.0
  O  O79  1  0.40988000  0.95373000  0.46273000  1.0
  O  O80  1  0.16188000  0.02173000  0.61713000  1.0
  O  O81  1  0.66192000  0.97827000  0.38286000  1.0
  O  O82  1  0.74173000  0.66913000  0.46801000  1.0
  O  O83  1  0.24172000  0.33086000  0.53199000  1.0
  O  O84  1  0.06398000  0.64380000  0.51260000  1.0
  O  O85  1  0.56397000  0.35622000  0.48740000  1.0
