# generated using pymatgen
data_H24Rh2C33(NO5)2
_symmetry_space_group_name_H-M   'P 1'
_cell_length_a   9.49522000
_cell_length_b   10.24240000
_cell_length_c   10.73200000
_cell_angle_alpha   72.75280000
_cell_angle_beta   64.74450000
_cell_angle_gamma   63.26820000
_symmetry_Int_Tables_number   1
_chemical_formula_structural   H24Rh2C33(NO5)2
_chemical_formula_sum   'H24 Rh2 C33 N2 O10'
_cell_volume   835.97789801
_cell_formula_units_Z   1
loop_
 _symmetry_equiv_pos_site_id
 _symmetry_equiv_pos_as_xyz
  1  'x, y, z'
loop_
 _atom_site_type_symbol
 _atom_site_label
 _atom_site_symmetry_multiplicity
 _atom_site_fract_x
 _atom_site_fract_y
 _atom_site_fract_z
 _atom_site_occupancy
  H  H0  1  0.43655000  0.94611000  0.61173000  1.0
  H  H1  1  0.56345000  0.05388000  0.38828000  1.0
  H  H2  1  0.26712000  0.19734000  0.68651000  1.0
  H  H3  1  0.73290000  0.80265000  0.31349000  1.0
  H  H4  1  0.95819000  0.30343000  0.73656000  1.0
  H  H5  1  0.04183000  0.69658000  0.26344000  1.0
  H  H6  1  0.82211000  0.16871000  0.69893000  1.0
  H  H7  1  0.17791000  0.83131000  0.30108000  1.0
  H  H8  1  0.99398000  0.91589000  0.62492000  1.0
  H  H9  1  0.00602000  0.08413000  0.37508000  1.0
  H  H10  1  0.76083000  0.77170000  0.08842000  1.0
  H  H11  1  0.23918000  0.22830000  0.91157000  1.0
  H  H12  1  0.78860000  0.91030000  0.85219000  1.0
  H  H13  1  0.21140000  0.08969000  0.14780000  1.0
  H  H14  1  0.61824000  0.91785000  0.72430000  1.0
  H  H15  1  0.38176000  0.08213000  0.27570000  1.0
  H  H16  1  0.41871000  0.78651000  0.83555000  1.0
  H  H17  1  0.58129000  0.21348000  0.16446000  1.0
  H  H18  1  0.38785000  0.65187000  0.07473000  1.0
  H  H19  1  0.61215000  0.34812000  0.92528000  1.0
  H  H20  1  0.72643000  0.63256000  0.65910000  1.0
  H  H21  1  0.27355000  0.36744000  0.34090000  1.0
  H  H22  1  0.00499000  0.38479000  0.32877000  1.0
  H  H23  1  0.99499000  0.61522000  0.67122000  1.0
  Rh  Rh24  1  0.62539000  0.50764000  0.49554000  1.0
  Rh  Rh25  1  0.37459000  0.49236000  0.50446000  1.0
  C  C26  1  0.22418000  0.91563000  0.61695000  1.0
  C  C27  1  0.77582000  0.08437000  0.38306000  1.0
  C  C28  1  0.30167000  0.99537000  0.63289000  1.0
  C  C29  1  0.69833000  0.00463000  0.36711000  1.0
  C  C30  1  0.20658000  0.13493000  0.67528000  1.0
  C  C31  1  0.79344000  0.86507000  0.32472000  1.0
  C  C32  1  0.03350000  0.19521000  0.70148000  1.0
  C  C33  1  0.96651000  0.80480000  0.29853000  1.0
  C  C34  1  0.95619000  0.11822000  0.68205000  1.0
  C  C35  1  0.04381000  0.88179000  0.31795000  1.0
  C  C36  1  0.05131000  0.97842000  0.64014000  1.0
  C  C37  1  0.94869000  0.02159000  0.35987000  1.0
  C  C38  1  0.32434000  0.76442000  0.57733000  1.0
  C  C39  1  0.67565000  0.23558000  0.42267000  1.0
  C  C40  1  0.57218000  0.70369000  0.09636000  1.0
  C  C41  1  0.42781000  0.29631000  0.90364000  1.0
  C  C42  1  0.68602000  0.77570000  0.03270000  1.0
  C  C43  1  0.31398000  0.22430000  0.96730000  1.0
  C  C44  1  0.70159000  0.85299000  0.89968000  1.0
  C  C45  1  0.29842000  0.14700000  0.10031000  1.0
  C  C46  1  0.60544000  0.85737000  0.82860000  1.0
  C  C47  1  0.39456000  0.14262000  0.17139000  1.0
  C  C48  1  0.49304000  0.78431000  0.89100000  1.0
  C  C49  1  0.50696000  0.21567000  0.10900000  1.0
  C  C50  1  0.47558000  0.70850000  0.02473000  1.0
  C  C51  1  0.52442000  0.29150000  0.97527000  1.0
  C  C52  1  0.55091000  0.62533000  0.24030000  1.0
  C  C53  1  0.44908000  0.37467000  0.75970000  1.0
  C  C54  1  0.84935000  0.57346000  0.58810000  1.0
  C  C55  1  0.15065000  0.42654000  0.41189000  1.0
  C  C56  1  0.00366000  0.43659000  0.40477000  1.0
  C  C57  1  0.99634000  0.56341000  0.59523000  1.0
  C  C58  1  0.00000000  0.99999000  0.99999000  1.0
  N  N59  1  0.85218000  0.51011000  0.49295000  1.0
  N  N60  1  0.14779000  0.48989000  0.50704000  1.0
  O  O61  1  0.48203000  0.71212000  0.55781000  1.0
  O  O62  1  0.51797000  0.28789000  0.44218000  1.0
  O  O63  1  0.24549000  0.69713000  0.56577000  1.0
  O  O64  1  0.75450000  0.30287000  0.43424000  1.0
  O  O65  1  0.65889000  0.60382000  0.29346000  1.0
  O  O66  1  0.34111000  0.39618000  0.70654000  1.0
  O  O67  1  0.42347000  0.58677000  0.30186000  1.0
  O  O68  1  0.57651000  0.41324000  0.69815000  1.0
  O  O69  1  0.03091000  0.88656000  0.96924000  1.0
  O  O70  1  0.96910000  0.11344000  0.03075000  1.0
