# generated using pymatgen
data_MgCd2P2H4(CO3)4
_symmetry_space_group_name_H-M   'P 1'
_cell_length_a   5.08205000
_cell_length_b   8.94231000
_cell_length_c   12.53270000
_cell_angle_alpha   89.99990000
_cell_angle_beta   89.99950000
_cell_angle_gamma   75.64000000
_symmetry_Int_Tables_number   1
_chemical_formula_structural   MgCd2P2H4(CO3)4
_chemical_formula_sum   'Mg2 Cd4 P4 H8 C8 O24'
_cell_volume   551.75712206
_cell_formula_units_Z   2
loop_
 _symmetry_equiv_pos_site_id
 _symmetry_equiv_pos_as_xyz
  1  'x, y, z'
loop_
 _atom_site_type_symbol
 _atom_site_label
 _atom_site_symmetry_multiplicity
 _atom_site_fract_x
 _atom_site_fract_y
 _atom_site_fract_z
 _atom_site_occupancy
  Mg  Mg0  1  0.50000000  0.50000000  0.50000000  1.0
  Mg  Mg1  1  0.00000000  0.00000000  0.00000000  1.0
  Cd  Cd2  1  0.64358000  0.13520000  0.42796000  1.0
  Cd  Cd3  1  0.85642000  0.36480000  0.92796000  1.0
  Cd  Cd4  1  0.35642000  0.86480000  0.57204000  1.0
  Cd  Cd5  1  0.14358000  0.63520000  0.07204000  1.0
  P  P6  1  0.40020000  0.24328000  0.06581000  1.0
  P  P7  1  0.09980000  0.25672000  0.56580000  1.0
  P  P8  1  0.59980000  0.75672000  0.93419000  1.0
  P  P9  1  0.90021000  0.74329000  0.43419000  1.0
  H  H10  1  0.20567000  0.10673000  0.27291000  1.0
  H  H11  1  0.29433000  0.39327000  0.77290000  1.0
  H  H12  1  0.79433000  0.89327000  0.72710000  1.0
  H  H13  1  0.70567000  0.60673000  0.22710000  1.0
  H  H14  1  0.09967000  0.34400000  0.21063000  1.0
  H  H15  1  0.40033000  0.15600000  0.71063000  1.0
  H  H16  1  0.90032000  0.65600000  0.78937000  1.0
  H  H17  1  0.59967000  0.84400000  0.28937000  1.0
  C  C18  1  0.45812000  0.40402000  0.25745000  1.0
  C  C19  1  0.04189000  0.09598000  0.75745000  1.0
  C  C20  1  0.54188000  0.59598000  0.74255000  1.0
  C  C21  1  0.95812000  0.90402000  0.24255000  1.0
  C  C22  1  0.31932000  0.28684000  0.20915000  1.0
  C  C23  1  0.18068000  0.21316000  0.70914000  1.0
  C  C24  1  0.68068000  0.71316000  0.79085000  1.0
  C  C25  1  0.81932000  0.78684000  0.29086000  1.0
  O  O26  1  0.37216000  0.14866000  0.27005000  1.0
  O  O27  1  0.12784000  0.35134000  0.77004000  1.0
  O  O28  1  0.62784000  0.85133000  0.72995000  1.0
  O  O29  1  0.87216000  0.64866000  0.22996000  1.0
  O  O30  1  0.56647000  0.37756000  0.34913000  1.0
  O  O31  1  0.93354000  0.12244000  0.84913000  1.0
  O  O32  1  0.43352000  0.62244000  0.65088000  1.0
  O  O33  1  0.06646000  0.87756000  0.15087000  1.0
  O  O34  1  0.46000000  0.52500000  0.20443000  1.0
  O  O35  1  0.04000000  0.97500000  0.70443000  1.0
  O  O36  1  0.53999000  0.47500000  0.79557000  1.0
  O  O37  1  0.96000000  0.02500000  0.29557000  1.0
  O  O38  1  0.26199000  0.39413000  0.00428000  1.0
  O  O39  1  0.23800000  0.10587000  0.50428000  1.0
  O  O40  1  0.73801000  0.60587000  0.99572000  1.0
  O  O41  1  0.76200000  0.89413000  0.49572000  1.0
  O  O42  1  0.71161000  0.20610000  0.05014000  1.0
  O  O43  1  0.78839000  0.29390000  0.55014000  1.0
  O  O44  1  0.28839000  0.79390000  0.94986000  1.0
  O  O45  1  0.21161000  0.70610000  0.44986000  1.0
  O  O46  1  0.27257000  0.11405000  0.03724000  1.0
  O  O47  1  0.22743000  0.38594000  0.53723000  1.0
  O  O48  1  0.72743000  0.88595000  0.96276000  1.0
  O  O49  1  0.77257000  0.61406000  0.46277000  1.0
