# generated using pymatgen
data_Ni2H14C24N4O9F4
_symmetry_space_group_name_H-M   'P 1'
_cell_length_a   13.90690000
_cell_length_b   20.39750000
_cell_length_c   20.39750000
_cell_angle_alpha   90.00000000
_cell_angle_beta   90.00000000
_cell_angle_gamma   90.00000000
_symmetry_Int_Tables_number   1
_chemical_formula_structural   Ni2H14C24N4O9F4
_chemical_formula_sum   'Ni16 H112 C192 N32 O72 F32'
_cell_volume   5786.07708712
_cell_formula_units_Z   8
loop_
 _symmetry_equiv_pos_site_id
 _symmetry_equiv_pos_as_xyz
  1  'x, y, z'
loop_
 _atom_site_type_symbol
 _atom_site_label
 _atom_site_symmetry_multiplicity
 _atom_site_fract_x
 _atom_site_fract_y
 _atom_site_fract_z
 _atom_site_occupancy
  Ni  Ni0  1  0.34208000  0.38176000  0.53514000  1.0
  Ni  Ni1  1  0.34208000  0.96486000  0.38176000  1.0
  Ni  Ni2  1  0.15792000  0.88176000  0.46486000  1.0
  Ni  Ni3  1  0.34208000  0.11824000  0.96486000  1.0
  Ni  Ni4  1  0.15792000  0.46486000  0.61824000  1.0
  Ni  Ni5  1  0.15792000  0.03514000  0.88176000  1.0
  Ni  Ni6  1  0.34208000  0.53514000  0.11824000  1.0
  Ni  Ni7  1  0.15792000  0.61824000  0.03514000  1.0
  Ni  Ni8  1  0.65792000  0.61824000  0.46486000  1.0
  Ni  Ni9  1  0.65792000  0.03514000  0.61824000  1.0
  Ni  Ni10  1  0.84208000  0.11824000  0.53514000  1.0
  Ni  Ni11  1  0.65792000  0.88176000  0.03513000  1.0
  Ni  Ni12  1  0.84208000  0.53514000  0.38176000  1.0
  Ni  Ni13  1  0.84208000  0.96486000  0.11824000  1.0
  Ni  Ni14  1  0.65792000  0.46486000  0.88176000  1.0
  Ni  Ni15  1  0.84208000  0.38176000  0.96486000  1.0
  H  H16  1  0.20057000  0.34535000  0.61761000  1.0
  H  H17  1  0.20057000  0.88239000  0.34535000  1.0
  H  H18  1  0.29943000  0.84535000  0.38239000  1.0
  H  H19  1  0.20057000  0.15465000  0.88239000  1.0
  H  H20  1  0.29943000  0.38239000  0.65465000  1.0
  H  H21  1  0.29943000  0.11761000  0.84535000  1.0
  H  H22  1  0.20057000  0.61761000  0.15465000  1.0
  H  H23  1  0.29943000  0.65465000  0.11761000  1.0
  H  H24  1  0.79943000  0.65465000  0.38239000  1.0
  H  H25  1  0.79943000  0.11761000  0.65465000  1.0
  H  H26  1  0.70057000  0.15465000  0.61761000  1.0
  H  H27  1  0.79943000  0.84535000  0.11761000  1.0
  H  H28  1  0.70057000  0.61761000  0.34535000  1.0
  H  H29  1  0.70057000  0.88239000  0.15465000  1.0
  H  H30  1  0.79943000  0.38239000  0.84535000  1.0
  H  H31  1  0.70057000  0.34535000  0.88239000  1.0
  H  H32  1  0.52502000  0.44279000  0.50751000  1.0
  H  H33  1  0.52502000  0.99249000  0.44279000  1.0
  H  H34  1  0.97498000  0.94279000  0.49249000  1.0
  H  H35  1  0.52502000  0.05721000  0.99249000  1.0
  H  H36  1  0.97498000  0.49249000  0.55721000  1.0
  H  H37  1  0.97498000  0.00751000  0.94279000  1.0
  H  H38  1  0.52502000  0.50751000  0.05721000  1.0
  H  H39  1  0.97498000  0.55721000  0.00751000  1.0
  H  H40  1  0.47498000  0.55721000  0.49249000  1.0
  H  H41  1  0.47498000  0.00751000  0.55721000  1.0
  H  H42  1  0.02502000  0.05721000  0.50751000  1.0
  H  H43  1  0.47498000  0.94279000  0.00751000  1.0
  H  H44  1  0.02502000  0.50751000  0.44279000  1.0
  H  H45  1  0.02502000  0.99249000  0.05721000  1.0
  H  H46  1  0.47498000  0.49249000  0.94279000  1.0
  H  H47  1  0.02502000  0.44279000  0.99249000  1.0
  H  H48  1  0.33887000  0.33373000  0.39231000  1.0
  H  H49  1  0.33887000  0.10769000  0.33373000  1.0
  H  H50  1  0.16113000  0.83373000  0.60769000  1.0
  H  H51  1  0.33887000  0.16627000  0.10769000  1.0
  H  H52  1  0.16113000  0.60769000  0.66627000  1.0
  H  H53  1  0.16113000  0.89231000  0.83373000  1.0
  H  H54  1  0.33887000  0.39231000  0.16627000  1.0
  H  H55  1  0.16113000  0.66627000  0.89231000  1.0
  H  H56  1  0.66113000  0.66627000  0.60769000  1.0
  H  H57  1  0.66113000  0.89231000  0.66627000  1.0
  H  H58  1  0.83887000  0.16627000  0.39231000  1.0
  H  H59  1  0.66113000  0.83373000  0.89231000  1.0
  H  H60  1  0.83887000  0.39231000  0.33373000  1.0
  H  H61  1  0.83887000  0.10769000  0.16627000  1.0
  H  H62  1  0.66113000  0.60769000  0.83373000  1.0
  H  H63  1  0.83887000  0.33373000  0.10769000  1.0
  H  H64  1  0.59760000  0.41240000  0.30407000  1.0
  H  H65  1  0.59760000  0.19593000  0.41240000  1.0
  H  H66  1  0.90240000  0.91240000  0.69593000  1.0
  H  H67  1  0.59760000  0.08760000  0.19593000  1.0
  H  H68  1  0.90240000  0.69593000  0.58760000  1.0
  H  H69  1  0.90240000  0.80407000  0.91240000  1.0
  H  H70  1  0.59760000  0.30407000  0.08760000  1.0
  H  H71  1  0.90240000  0.58760000  0.80407000  1.0
  H  H72  1  0.40240000  0.58760000  0.69593000  1.0
  H  H73  1  0.40240000  0.80407000  0.58760000  1.0
  H  H74  1  0.09760000  0.08760000  0.30407000  1.0
  H  H75  1  0.40240000  0.91240000  0.80407000  1.0
  H  H76  1  0.09760000  0.30407000  0.41240000  1.0
  H  H77  1  0.09760000  0.19593000  0.08760000  1.0
  H  H78  1  0.40240000  0.69593000  0.91240000  1.0
  H  H79  1  0.09760000  0.41240000  0.19593000  1.0
  H  H80  1  0.49402000  0.28583000  0.57531000  1.0
  H  H81  1  0.49402000  0.92469000  0.28583000  1.0
  H  H82  1  0.00598000  0.78583000  0.42469000  1.0
  H  H83  1  0.49402000  0.21417000  0.92469000  1.0
  H  H84  1  0.00598000  0.42469000  0.71417000  1.0
  H  H85  1  0.00598000  0.07531000  0.78583000  1.0
  H  H86  1  0.49402000  0.57531000  0.21417000  1.0
  H  H87  1  0.00598000  0.71417000  0.07531000  1.0
  H  H88  1  0.50598000  0.71417000  0.42469000  1.0
  H  H89  1  0.50598000  0.07531000  0.71417000  1.0
  H  H90  1  0.99402000  0.21417000  0.57531000  1.0
  H  H91  1  0.50598000  0.78583000  0.07531000  1.0
  H  H92  1  0.99402000  0.57531000  0.28583000  1.0
  H  H93  1  0.99402000  0.92469000  0.21417000  1.0
  H  H94  1  0.50598000  0.42469000  0.78583000  1.0
  H  H95  1  0.99402000  0.28583000  0.92469000  1.0
  H  H96  1  0.21424000  0.26697000  0.50639000  1.0
  H  H97  1  0.21424000  0.99361000  0.26697000  1.0
  H  H98  1  0.28576000  0.76697000  0.49361000  1.0
  H  H99  1  0.21424000  0.23303000  0.99361000  1.0
  H  H100  1  0.28576000  0.49361000  0.73303000  1.0
  H  H101  1  0.28576000  0.00639000  0.76697000  1.0
  H  H102  1  0.21424000  0.50639000  0.23303000  1.0
  H  H103  1  0.28576000  0.73303000  0.00639000  1.0
  H  H104  1  0.78576000  0.73303000  0.49361000  1.0
  H  H105  1  0.78576000  0.00639000  0.73303000  1.0
  H  H106  1  0.71424000  0.23303000  0.50639000  1.0
  H  H107  1  0.78576000  0.76697000  0.00639000  1.0
  H  H108  1  0.71424000  0.50639000  0.26697000  1.0
  H  H109  1  0.71424000  0.99361000  0.23303000  1.0
  H  H110  1  0.78576000  0.49361000  0.76697000  1.0
  H  H111  1  0.71424000  0.26697000  0.99361000  1.0
  H  H112  1  0.37221000  0.09149000  0.55667000  1.0
  H  H113  1  0.37221000  0.94333000  0.09149000  1.0
  H  H114  1  0.12779000  0.59149000  0.44333000  1.0
  H  H115  1  0.37221000  0.40851000  0.94333000  1.0
  H  H116  1  0.12779000  0.44333000  0.90851000  1.0
  H  H117  1  0.12779000  0.05667000  0.59149000  1.0
  H  H118  1  0.37221000  0.55667000  0.40851000  1.0
  H  H119  1  0.12779000  0.90851000  0.05667000  1.0
  H  H120  1  0.62779000  0.90851000  0.44333000  1.0
  H  H121  1  0.62779000  0.05667000  0.90851000  1.0
  H  H122  1  0.87221000  0.40851000  0.55667000  1.0
  H  H123  1  0.62779000  0.59149000  0.05667000  1.0
  H  H124  1  0.87221000  0.55667000  0.09149000  1.0
  H  H125  1  0.87221000  0.94333000  0.40851000  1.0
  H  H126  1  0.62779000  0.44333000  0.59149000  1.0
  H  H127  1  0.87221000  0.09149000  0.94333000  1.0
  C  C128  1  0.65712000  0.47788000  0.41758000  1.0
  C  C129  1  0.65712000  0.08242000  0.47788000  1.0
  C  C130  1  0.84288000  0.97788000  0.58242000  1.0
  C  C131  1  0.65712000  0.02212000  0.08242000  1.0
  C  C132  1  0.84288000  0.58242000  0.52212000  1.0
  C  C133  1  0.84288000  0.91758000  0.97788000  1.0
  C  C134  1  0.65712000  0.41758000  0.02212000  1.0
  C  C135  1  0.84288000  0.52212000  0.91758000  1.0
  C  C136  1  0.34288000  0.52212000  0.58242000  1.0
  C  C137  1  0.34288000  0.91758000  0.52212000  1.0
  C  C138  1  0.15712000  0.02212000  0.41758000  1.0
  C  C139  1  0.34288000  0.97788000  0.91758000  1.0
  C  C140  1  0.15712000  0.41758000  0.47788000  1.0
  C  C141  1  0.15712000  0.08242000  0.02212000  1.0
  C  C142  1  0.34288000  0.58242000  0.97788000  1.0
  C  C143  1  0.15712000  0.47788000  0.08242000  1.0
  C  C144  1  0.57302000  0.43270000  0.40725000  1.0
  C  C145  1  0.57302000  0.09275000  0.43270000  1.0
  C  C146  1  0.92698000  0.93270000  0.59275000  1.0
  C  C147  1  0.57302000  0.06730000  0.09275000  1.0
  C  C148  1  0.92698000  0.59275000  0.56730000  1.0
  C  C149  1  0.92698000  0.90725000  0.93270000  1.0
  C  C150  1  0.57302000  0.40725000  0.06730000  1.0
  C  C151  1  0.92698000  0.56729000  0.90725000  1.0
  C  C152  1  0.42698000  0.56730000  0.59275000  1.0
  C  C153  1  0.42698000  0.90725000  0.56730000  1.0
  C  C154  1  0.07302000  0.06729000  0.40725000  1.0
  C  C155  1  0.42698000  0.93270000  0.90725000  1.0
  C  C156  1  0.07302000  0.40725000  0.43270000  1.0
  C  C157  1  0.07302000  0.09275000  0.06730000  1.0
  C  C158  1  0.42698000  0.59275000  0.93270000  1.0
  C  C159  1  0.07302000  0.43270000  0.09275000  1.0
  C  C160  1  0.51043000  0.42209000  0.45960000  1.0
  C  C161  1  0.51043000  0.04040000  0.42209000  1.0
  C  C162  1  0.98957000  0.92209000  0.54040000  1.0
  C  C163  1  0.51043000  0.07791000  0.04040000  1.0
  C  C164  1  0.98957000  0.54040000  0.57791000  1.0
  C  C165  1  0.98957000  0.95960000  0.92209000  1.0
  C  C166  1  0.51043000  0.45961000  0.07791000  1.0
  C  C167  1  0.98957000  0.57791000  0.95960000  1.0
  C  C168  1  0.48957000  0.57791000  0.54040000  1.0
  C  C169  1  0.48957000  0.95960000  0.57791000  1.0
  C  C170  1  0.01043000  0.07791000  0.45960000  1.0
  C  C171  1  0.48957000  0.92209000  0.95960000  1.0
  C  C172  1  0.01043000  0.45960000  0.42209000  1.0
  C  C173  1  0.01043000  0.04040000  0.07791000  1.0
  C  C174  1  0.48957000  0.54040000  0.92209000  1.0
  C  C175  1  0.01043000  0.42209000  0.04040000  1.0
  C  C176  1  0.40612000  0.36083000  0.39576000  1.0
  C  C177  1  0.40612000  0.10424000  0.36083000  1.0
  C  C178  1  0.09388000  0.86083000  0.60424000  1.0
  C  C179  1  0.40612000  0.13917000  0.10424000  1.0
  C  C180  1  0.09388000  0.60424000  0.63917000  1.0
  C  C181  1  0.09388000  0.89576000  0.86083000  1.0
  C  C182  1  0.40612000  0.39576000  0.13917000  1.0
  C  C183  1  0.09388000  0.63917000  0.89576000  1.0
  C  C184  1  0.59388000  0.63917000  0.60424000  1.0
  C  C185  1  0.59388000  0.89576000  0.63917000  1.0
  C  C186  1  0.90612000  0.13917000  0.39576000  1.0
  C  C187  1  0.59388000  0.86083000  0.89576000  1.0
  C  C188  1  0.90612000  0.39576000  0.36083000  1.0
  C  C189  1  0.90612000  0.10424000  0.13917000  1.0
  C  C190  1  0.59388000  0.60424000  0.86083000  1.0
  C  C191  1  0.90612000  0.36083000  0.10424000  1.0
  C  C192  1  0.46571000  0.37017000  0.34183000  1.0
  C  C193  1  0.46571000  0.15817000  0.37017000  1.0
  C  C194  1  0.03429000  0.87017000  0.65817000  1.0
  C  C195  1  0.46571000  0.12983000  0.15817000  1.0
  C  C196  1  0.03429000  0.65817000  0.62983000  1.0
  C  C197  1  0.03429000  0.84183000  0.87017000  1.0
  C  C198  1  0.46571000  0.34183000  0.12983000  1.0
  C  C199  1  0.03429000  0.62983000  0.84183000  1.0
  C  C200  1  0.53429000  0.62983000  0.65817000  1.0
  C  C201  1  0.53429000  0.84183000  0.62983000  1.0
  C  C202  1  0.96571000  0.12983000  0.34183000  1.0
  C  C203  1  0.53428000  0.87017000  0.84183000  1.0
  C  C204  1  0.96571000  0.34183000  0.37017000  1.0
  C  C205  1  0.96571000  0.15817000  0.12983000  1.0
  C  C206  1  0.53429000  0.65817000  0.87017000  1.0
  C  C207  1  0.96571000  0.37017000  0.15817000  1.0
  C  C208  1  0.55096000  0.40526000  0.34637000  1.0
  C  C209  1  0.55096000  0.15363000  0.40526000  1.0
  C  C210  1  0.94904000  0.90526000  0.65363000  1.0
  C  C211  1  0.55096000  0.09474000  0.15363000  1.0
  C  C212  1  0.94904000  0.65363000  0.59474000  1.0
  C  C213  1  0.94904000  0.84637000  0.90526000  1.0
  C  C214  1  0.55096000  0.34637000  0.09474000  1.0
  C  C215  1  0.94904000  0.59474000  0.84637000  1.0
  C  C216  1  0.44904000  0.59474000  0.65363000  1.0
  C  C217  1  0.44904000  0.84637000  0.59474000  1.0
  C  C218  1  0.05096000  0.09474000  0.34637000  1.0
  C  C219  1  0.44904000  0.90526000  0.84637000  1.0
  C  C220  1  0.05096000  0.34637000  0.40526000  1.0
  C  C221  1  0.05096000  0.15363000  0.09474000  1.0
  C  C222  1  0.44904000  0.65363000  0.90526000  1.0
  C  C223  1  0.05096000  0.40526000  0.15363000  1.0
  C  C224  1  0.53812000  0.15732000  0.59601000  1.0
  C  C225  1  0.53812000  0.90399000  0.15732000  1.0
  C  C226  1  0.96188000  0.65732000  0.40399000  1.0
  C  C227  1  0.53812000  0.34268000  0.90399000  1.0
  C  C228  1  0.96188000  0.40399000  0.84268000  1.0
  C  C229  1  0.96188000  0.09601000  0.65732000  1.0
  C  C230  1  0.53812000  0.59601000  0.34268000  1.0
  C  C231  1  0.96188000  0.84268000  0.09601000  1.0
  C  C232  1  0.46188000  0.84268000  0.40399000  1.0
  C  C233  1  0.46188000  0.09601000  0.84268000  1.0
  C  C234  1  0.03812000  0.34268000  0.59601000  1.0
  C  C235  1  0.46188000  0.65732000  0.09601000  1.0
  C  C236  1  0.03812000  0.59601000  0.15732000  1.0
  C  C237  1  0.03812000  0.90399000  0.34268000  1.0
  C  C238  1  0.46188000  0.40399000  0.65732000  1.0
  C  C239  1  0.03812000  0.15732000  0.90399000  1.0
  C  C240  1  0.44513000  0.18529000  0.56983000  1.0
  C  C241  1  0.44513000  0.93017000  0.18529000  1.0
  C  C242  1  0.05487000  0.68529000  0.43017000  1.0
  C  C243  1  0.44513000  0.31471000  0.93017000  1.0
  C  C244  1  0.05487000  0.43017000  0.81471000  1.0
  C  C245  1  0.05487000  0.06983000  0.68529000  1.0
  C  C246  1  0.44513000  0.56983000  0.31471000  1.0
  C  C247  1  0.05487000  0.81471000  0.06983000  1.0
  C  C248  1  0.55487000  0.81471000  0.43017000  1.0
  C  C249  1  0.55487000  0.06983000  0.81471000  1.0
  C  C250  1  0.94513000  0.31471000  0.56983000  1.0
  C  C251  1  0.55487000  0.68529000  0.06983000  1.0
  C  C252  1  0.94513000  0.56983000  0.18529000  1.0
  C  C253  1  0.94513000  0.93017000  0.31471000  1.0
  C  C254  1  0.55487000  0.43017000  0.68529000  1.0
  C  C255  1  0.94513000  0.18529000  0.93017000  1.0
  C  C256  1  0.43532000  0.25300000  0.56242000  1.0
  C  C257  1  0.43532000  0.93758000  0.25300000  1.0
  C  C258  1  0.06468000  0.75300000  0.43758000  1.0
  C  C259  1  0.43532000  0.24700000  0.93758000  1.0
  C  C260  1  0.06468000  0.43758000  0.74700000  1.0
  C  C261  1  0.06467000  0.06242000  0.75300000  1.0
  C  C262  1  0.43532000  0.56242000  0.24700000  1.0
  C  C263  1  0.06468000  0.74700000  0.06242000  1.0
  C  C264  1  0.56468000  0.74700000  0.43758000  1.0
  C  C265  1  0.56468000  0.06242000  0.74700000  1.0
  C  C266  1  0.93532000  0.24700000  0.56242000  1.0
  C  C267  1  0.56468000  0.75300000  0.06242000  1.0
  C  C268  1  0.93533000  0.56242000  0.25300000  1.0
  C  C269  1  0.93532000  0.93758000  0.24700000  1.0
  C  C270  1  0.56468000  0.43758000  0.75300000  1.0
  C  C271  1  0.93532000  0.25300000  0.93758000  1.0
  C  C272  1  0.27940000  0.24270000  0.52318000  1.0
  C  C273  1  0.27940000  0.97682000  0.24270000  1.0
  C  C274  1  0.22060000  0.74270000  0.47682000  1.0
  C  C275  1  0.27940000  0.25730000  0.97682000  1.0
  C  C276  1  0.22060000  0.47682000  0.75730000  1.0
  C  C277  1  0.22060000  0.02318000  0.74270000  1.0
  C  C278  1  0.27940000  0.52318000  0.25730000  1.0
  C  C279  1  0.22060000  0.75730000  0.02318000  1.0
  C  C280  1  0.72060000  0.75730000  0.47682000  1.0
  C  C281  1  0.72060000  0.02318000  0.75730000  1.0
  C  C282  1  0.77940000  0.25730000  0.52318000  1.0
  C  C283  1  0.72060000  0.74270000  0.02318000  1.0
  C  C284  1  0.77940000  0.52318000  0.24270000  1.0
  C  C285  1  0.77940000  0.97682000  0.25730000  1.0
  C  C286  1  0.72060000  0.47682000  0.74270000  1.0
  C  C287  1  0.77940000  0.24270000  0.97682000  1.0
  C  C288  1  0.28625000  0.17496000  0.52837000  1.0
  C  C289  1  0.28625000  0.97163000  0.17496000  1.0
  C  C290  1  0.21375000  0.67496000  0.47163000  1.0
  C  C291  1  0.28625000  0.32504000  0.97163000  1.0
  C  C292  1  0.21375000  0.47163000  0.82504000  1.0
  C  C293  1  0.21375000  0.02837000  0.67496000  1.0
  C  C294  1  0.28625000  0.52837000  0.32504000  1.0
  C  C295  1  0.21375000  0.82504000  0.02837000  1.0
  C  C296  1  0.71376000  0.82504000  0.47163000  1.0
  C  C297  1  0.71375000  0.02837000  0.82504000  1.0
  C  C298  1  0.78625000  0.32504000  0.52837000  1.0
  C  C299  1  0.71376000  0.67496000  0.02837000  1.0
  C  C300  1  0.78624000  0.52837000  0.17496000  1.0
  C  C301  1  0.78624000  0.97163000  0.32504000  1.0
  C  C302  1  0.71375000  0.47163000  0.67496000  1.0
  C  C303  1  0.78625000  0.17496000  0.97163000  1.0
  C  C304  1  0.36827000  0.14460000  0.55209000  1.0
  C  C305  1  0.36827000  0.94791000  0.14460000  1.0
  C  C306  1  0.13173000  0.64460000  0.44791000  1.0
  C  C307  1  0.36827000  0.35540000  0.94791000  1.0
  C  C308  1  0.13173000  0.44791000  0.85540000  1.0
  C  C309  1  0.13173000  0.05209000  0.64460000  1.0
  C  C310  1  0.36827000  0.55209000  0.35540000  1.0
  C  C311  1  0.13173000  0.85540000  0.05209000  1.0
  C  C312  1  0.63173000  0.85540000  0.44791000  1.0
  C  C313  1  0.63173000  0.05209000  0.85540000  1.0
  C  C314  1  0.86827000  0.35540000  0.55209000  1.0
  C  C315  1  0.63173000  0.64460000  0.05209000  1.0
  C  C316  1  0.86827000  0.55209000  0.14460000  1.0
  C  C317  1  0.86827000  0.94791000  0.35540000  1.0
  C  C318  1  0.63173000  0.44791000  0.64460000  1.0
  C  C319  1  0.86827000  0.14460000  0.94791000  1.0
  N  N320  1  0.42982000  0.38658000  0.45426000  1.0
  N  N321  1  0.42982000  0.04574000  0.38658000  1.0
  N  N322  1  0.07018000  0.88658000  0.54574000  1.0
  N  N323  1  0.42982000  0.11342000  0.04574000  1.0
  N  N324  1  0.07018000  0.54574000  0.61342000  1.0
  N  N325  1  0.07018000  0.95426000  0.88658000  1.0
  N  N326  1  0.42982000  0.45426000  0.11342000  1.0
  N  N327  1  0.07018000  0.61342000  0.95426000  1.0
  N  N328  1  0.57018000  0.61342000  0.54574000  1.0
  N  N329  1  0.57018000  0.95426000  0.61342000  1.0
  N  N330  1  0.92982000  0.11342000  0.45426000  1.0
  N  N331  1  0.57018000  0.88658000  0.95426000  1.0
  N  N332  1  0.92982000  0.45426000  0.38658000  1.0
  N  N333  1  0.92982000  0.04574000  0.11342000  1.0
  N  N334  1  0.57018000  0.54574000  0.88658000  1.0
  N  N335  1  0.92982000  0.38658000  0.04574000  1.0
  N  N336  1  0.35397000  0.28103000  0.54022000  1.0
  N  N337  1  0.35397000  0.95978000  0.28103000  1.0
  N  N338  1  0.14603000  0.78103000  0.45978000  1.0
  N  N339  1  0.35397000  0.21897000  0.95978000  1.0
  N  N340  1  0.14603000  0.45978000  0.71897000  1.0
  N  N341  1  0.14603000  0.04022000  0.78103000  1.0
  N  N342  1  0.35397000  0.54022000  0.21897000  1.0
  N  N343  1  0.14603000  0.71897000  0.04022000  1.0
  N  N344  1  0.64603000  0.71897000  0.45978000  1.0
  N  N345  1  0.64603000  0.04022000  0.71897000  1.0
  N  N346  1  0.85397000  0.21897000  0.54022000  1.0
  N  N347  1  0.64603000  0.78104000  0.04022000  1.0
  N  N348  1  0.85397000  0.54022000  0.28104000  1.0
  N  N349  1  0.85397000  0.95978000  0.21897000  1.0
  N  N350  1  0.64603000  0.45978000  0.78103000  1.0
  N  N351  1  0.85397000  0.28104000  0.95978000  1.0
  O  O352  1  0.65136000  0.51541000  0.46670000  1.0
  O  O353  1  0.65136000  0.03330000  0.51541000  1.0
  O  O354  1  0.84864000  0.01541000  0.53330000  1.0
  O  O355  1  0.65136000  0.98459000  0.03330000  1.0
  O  O356  1  0.84864000  0.53330000  0.48459000  1.0
  O  O357  1  0.84864000  0.96670000  0.01541000  1.0
  O  O358  1  0.65136000  0.46670000  0.98459000  1.0
  O  O359  1  0.84864000  0.48459000  0.96670000  1.0
  O  O360  1  0.34864000  0.48459000  0.53330000  1.0
  O  O361  1  0.34864000  0.96670000  0.48459000  1.0
  O  O362  1  0.15136000  0.98459000  0.46670000  1.0
  O  O363  1  0.34864000  0.01541000  0.96670000  1.0
  O  O364  1  0.15136000  0.46670000  0.51541000  1.0
  O  O365  1  0.15136000  0.03330000  0.98459000  1.0
  O  O366  1  0.34864000  0.53330000  0.01541000  1.0
  O  O367  1  0.15136000  0.51541000  0.03330000  1.0
  O  O368  1  0.72410000  0.47564000  0.37478000  1.0
  O  O369  1  0.72410000  0.12522000  0.47564000  1.0
  O  O370  1  0.77590000  0.97564000  0.62522000  1.0
  O  O371  1  0.72410000  0.02436000  0.12522000  1.0
  O  O372  1  0.77590000  0.62522000  0.52436000  1.0
  O  O373  1  0.77590000  0.87478000  0.97564000  1.0
  O  O374  1  0.72410000  0.37478000  0.02436000  1.0
  O  O375  1  0.77590000  0.52436000  0.87478000  1.0
  O  O376  1  0.27590000  0.52436000  0.62522000  1.0
  O  O377  1  0.27590000  0.87478000  0.52436000  1.0
  O  O378  1  0.22410000  0.02436000  0.37478000  1.0
  O  O379  1  0.27590000  0.97564000  0.87478000  1.0
  O  O380  1  0.22410000  0.37478000  0.47564000  1.0
  O  O381  1  0.22410000  0.12522000  0.02436000  1.0
  O  O382  1  0.27590000  0.62522000  0.97564000  1.0
  O  O383  1  0.22410000  0.47564000  0.12522000  1.0
  O  O384  1  0.60853000  0.19591000  0.60396000  1.0
  O  O385  1  0.60853000  0.89603000  0.19591000  1.0
  O  O386  1  0.89147000  0.69591000  0.39604000  1.0
  O  O387  1  0.60853000  0.30409000  0.89603000  1.0
  O  O388  1  0.89147000  0.39604000  0.80409000  1.0
  O  O389  1  0.89147000  0.10396000  0.69591000  1.0
  O  O390  1  0.60853000  0.60397000  0.30409000  1.0
  O  O391  1  0.89147000  0.80409000  0.10396000  1.0
  O  O392  1  0.39147000  0.80409000  0.39604000  1.0
  O  O393  1  0.39147000  0.10396000  0.80409000  1.0
  O  O394  1  0.10853000  0.30409000  0.60397000  1.0
  O  O395  1  0.39147000  0.69591000  0.10396000  1.0
  O  O396  1  0.10853000  0.60397000  0.19591000  1.0
  O  O397  1  0.10853000  0.89604000  0.30409000  1.0
  O  O398  1  0.39147000  0.39604000  0.69591000  1.0
  O  O399  1  0.10853000  0.19591000  0.89603000  1.0
  O  O400  1  0.53751000  0.09572000  0.60722000  1.0
  O  O401  1  0.53751000  0.89279000  0.09572000  1.0
  O  O402  1  0.96249000  0.59572000  0.39279000  1.0
  O  O403  1  0.53751000  0.40428000  0.89279000  1.0
  O  O404  1  0.96249000  0.39279000  0.90428000  1.0
  O  O405  1  0.96249000  0.10721000  0.59572000  1.0
  O  O406  1  0.53751000  0.60721000  0.40428000  1.0
  O  O407  1  0.96249000  0.90428000  0.10721000  1.0
  O  O408  1  0.46249000  0.90428000  0.39279000  1.0
  O  O409  1  0.46249000  0.10721000  0.90428000  1.0
  O  O410  1  0.03751000  0.40428000  0.60721000  1.0
  O  O411  1  0.46249000  0.59572000  0.10721000  1.0
  O  O412  1  0.03751000  0.60721000  0.09572000  1.0
  O  O413  1  0.03751000  0.89278000  0.40428000  1.0
  O  O414  1  0.46249000  0.39279000  0.59572000  1.0
  O  O415  1  0.03751000  0.09572000  0.89279000  1.0
  O  O416  1  0.25000000  0.38303000  0.61697000  1.0
  O  O417  1  0.25000000  0.88303000  0.38303000  1.0
  O  O418  1  0.25000000  0.11697000  0.88303000  1.0
  O  O419  1  0.25000000  0.61697000  0.11697000  1.0
  O  O420  1  0.75000000  0.61697000  0.38303000  1.0
  O  O421  1  0.75000000  0.11697000  0.61697000  1.0
  O  O422  1  0.75000000  0.88303000  0.11697000  1.0
  O  O423  1  0.75000000  0.38303000  0.88303000  1.0
  F  F424  1  0.43847000  0.34463000  0.28313000  1.0
  F  F425  1  0.43847000  0.21687000  0.34463000  1.0
  F  F426  1  0.06153000  0.84463000  0.71687000  1.0
  F  F427  1  0.43847000  0.15537000  0.21687000  1.0
  F  F428  1  0.06153000  0.71687000  0.65537000  1.0
  F  F429  1  0.06153000  0.78313000  0.84463000  1.0
  F  F430  1  0.43847000  0.28313000  0.15537000  1.0
  F  F431  1  0.06153000  0.65537000  0.78313000  1.0
  F  F432  1  0.56153000  0.65537000  0.71687000  1.0
  F  F433  1  0.56153000  0.78313000  0.65537000  1.0
  F  F434  1  0.93847000  0.15537000  0.28313000  1.0
  F  F435  1  0.56153000  0.84463000  0.78313000  1.0
  F  F436  1  0.93847000  0.28313000  0.34463000  1.0
  F  F437  1  0.93847000  0.21687000  0.15537000  1.0
  F  F438  1  0.56153000  0.71687000  0.84463000  1.0
  F  F439  1  0.93847000  0.34463000  0.21687000  1.0
  F  F440  1  0.20897000  0.13840000  0.50989000  1.0
  F  F441  1  0.20897000  0.99011000  0.13840000  1.0
  F  F442  1  0.29103000  0.63840000  0.49011000  1.0
  F  F443  1  0.20897000  0.36160000  0.99011000  1.0
  F  F444  1  0.29103000  0.49011000  0.86160000  1.0
  F  F445  1  0.29103000  0.00989000  0.63840000  1.0
  F  F446  1  0.20897000  0.50989000  0.36160000  1.0
  F  F447  1  0.29103000  0.86160000  0.00989000  1.0
  F  F448  1  0.79103000  0.86160000  0.49011000  1.0
  F  F449  1  0.79103000  0.00989000  0.86160000  1.0
  F  F450  1  0.70897000  0.36160000  0.50989000  1.0
  F  F451  1  0.79103000  0.63840000  0.00989000  1.0
  F  F452  1  0.70897000  0.50989000  0.13840000  1.0
  F  F453  1  0.70897000  0.99011000  0.36160000  1.0
  F  F454  1  0.79103000  0.49011000  0.63840000  1.0
  F  F455  1  0.70897000  0.13840000  0.99011000  1.0
