# generated using pymatgen
data_Zn2H11C41SN2(OF)10
_symmetry_space_group_name_H-M   'P 1'
_cell_length_a   16.53930000
_cell_length_b   17.87910000
_cell_length_c   30.62910000
_cell_angle_alpha   90.25700000
_cell_angle_beta   90.11840000
_cell_angle_gamma   89.96370000
_symmetry_Int_Tables_number   1
_chemical_formula_structural   Zn2H11C41SN2(OF)10
_chemical_formula_sum   'Zn4 H22 C82 S2 N4 O20 F20'
_cell_volume   9057.15151719
_cell_formula_units_Z   2
loop_
 _symmetry_equiv_pos_site_id
 _symmetry_equiv_pos_as_xyz
  1  'x, y, z'
loop_
 _atom_site_type_symbol
 _atom_site_label
 _atom_site_symmetry_multiplicity
 _atom_site_fract_x
 _atom_site_fract_y
 _atom_site_fract_z
 _atom_site_occupancy
  Zn  Zn0  1  0.58607000  0.50106000  0.50199000  1.0
  Zn  Zn1  1  0.41719000  0.50052000  0.50208000  1.0
  Zn  Zn2  1  0.41402000  0.50351000  0.91789000  1.0
  Zn  Zn3  1  0.58292000  0.50298000  0.91762000  1.0
  H  H4  1  0.28858000  0.56729000  0.55939000  1.0
  H  H5  1  0.28849000  0.42669000  0.45031000  1.0
  H  H6  1  0.71525000  0.58557000  0.54941000  1.0
  H  H7  1  0.71507000  0.41840000  0.45401000  1.0
  H  H8  1  0.63186000  0.74146000  0.50387000  1.0
  H  H9  1  0.37121000  0.73582000  0.49427000  1.0
  H  H10  1  0.63528000  0.25926000  0.49703000  1.0
  H  H11  1  0.37491000  0.26684000  0.50789000  1.0
  H  H12  1  0.37345000  0.50970000  0.05597000  1.0
  H  H13  1  0.63418000  0.49412000  0.05768000  1.0
  H  H14  1  0.36608000  0.49117000  0.36206000  1.0
  H  H15  1  0.62679000  0.50679000  0.36377000  1.0
  H  H16  1  0.71150000  0.56962000  0.86064000  1.0
  H  H17  1  0.71160000  0.42909000  0.96902000  1.0
  H  H18  1  0.28475000  0.58767000  0.87094000  1.0
  H  H19  1  0.28503000  0.42054000  0.96549000  1.0
  H  H20  1  0.36801000  0.74373000  0.91476000  1.0
  H  H21  1  0.62870000  0.73858000  0.92414000  1.0
  H  H22  1  0.36492000  0.26207000  0.92220000  1.0
  H  H23  1  0.62523000  0.26900000  0.91092000  1.0
  H  H24  1  0.33785000  0.58967000  0.67725000  1.0
  H  H25  1  0.66182000  0.58980000  0.74267000  1.0
  C  C26  1  0.50316000  0.64610000  0.50076000  1.0
  C  C27  1  0.50050000  0.50117000  0.58709000  1.0
  C  C28  1  0.50771000  0.35554000  0.50299000  1.0
  C  C29  1  0.49589000  0.49766000  0.41694000  1.0
  C  C30  1  0.49681000  0.64858000  0.91850000  1.0
  C  C31  1  0.49927000  0.50217000  0.83268000  1.0
  C  C32  1  0.49263000  0.35799000  0.91668000  1.0
  C  C33  1  0.50445000  0.50128000  0.00281000  1.0
  C  C34  1  0.25317000  0.53667000  0.53523000  1.0
  C  C35  1  0.16932000  0.53726000  0.53584000  1.0
  C  C36  1  0.12361000  0.49655000  0.50499000  1.0
  C  C37  1  0.16921000  0.45562000  0.47425000  1.0
  C  C38  1  0.25296000  0.45712000  0.47448000  1.0
  C  C39  1  0.03868000  0.49725000  0.50459000  1.0
  C  C40  1  0.96511000  0.49841000  0.50389000  1.0
  C  C41  1  0.88024000  0.49977000  0.50308000  1.0
  C  C42  1  0.83455000  0.54778000  0.53006000  1.0
  C  C43  1  0.75074000  0.54825000  0.52875000  1.0
  C  C44  1  0.75064000  0.45499000  0.47512000  1.0
  C  C45  1  0.83448000  0.45315000  0.47522000  1.0
  C  C46  1  0.50165000  0.72989000  0.49951000  1.0
  C  C47  1  0.57411000  0.77033000  0.50161000  1.0
  C  C48  1  0.57095000  0.84754000  0.50058000  1.0
  C  C49  1  0.49783000  0.88822000  0.49799000  1.0
  C  C50  1  0.42677000  0.84459000  0.49581000  1.0
  C  C51  1  0.42737000  0.76730000  0.49630000  1.0
  C  C52  1  0.49658000  0.96682000  0.49805000  1.0
  C  C53  1  0.49745000  0.03500000  0.49876000  1.0
  C  C54  1  0.49980000  0.11356000  0.49987000  1.0
  C  C55  1  0.57332000  0.15359000  0.49789000  1.0
  C  C56  1  0.57728000  0.23079000  0.49883000  1.0
  C  C57  1  0.50528000  0.27175000  0.50228000  1.0
  C  C58  1  0.43065000  0.23495000  0.50476000  1.0
  C  C59  1  0.42924000  0.15771000  0.50329000  1.0
  C  C60  1  0.43246000  0.49427000  0.66281000  1.0
  C  C61  1  0.56715000  0.49464000  0.75693000  1.0
  C  C62  1  0.49897000  0.49500000  0.63528000  1.0
  C  C63  1  0.50067000  0.49556000  0.78447000  1.0
  C  C64  1  0.54214000  0.49400000  0.71249000  1.0
  C  C65  1  0.45745000  0.49397000  0.70725000  1.0
  C  C66  1  0.50384000  0.50154000  0.05173000  1.0
  C  C67  1  0.43003000  0.50590000  0.07398000  1.0
  C  C68  1  0.43041000  0.50528000  0.11908000  1.0
  C  C69  1  0.50205000  0.50119000  0.14412000  1.0
  C  C70  1  0.57467000  0.49750000  0.12003000  1.0
  C  C71  1  0.57683000  0.49729000  0.07491000  1.0
  C  C72  1  0.50084000  0.50080000  0.18998000  1.0
  C  C73  1  0.49910000  0.50047000  0.22976000  1.0
  C  C74  1  0.49801000  0.49996000  0.27562000  1.0
  C  C75  1  0.42545000  0.49580000  0.29972000  1.0
  C  C76  1  0.42340000  0.49461000  0.34483000  1.0
  C  C77  1  0.49643000  0.49842000  0.36801000  1.0
  C  C78  1  0.57018000  0.50322000  0.34577000  1.0
  C  C79  1  0.56969000  0.50353000  0.30067000  1.0
  C  C80  1  0.74690000  0.53898000  0.88466000  1.0
  C  C81  1  0.83075000  0.53950000  0.88406000  1.0
  C  C82  1  0.87647000  0.49877000  0.91470000  1.0
  C  C83  1  0.83090000  0.45789000  0.94524000  1.0
  C  C84  1  0.74713000  0.45948000  0.94501000  1.0
  C  C85  1  0.96139000  0.49940000  0.91512000  1.0
  C  C86  1  0.03496000  0.50049000  0.91586000  1.0
  C  C87  1  0.11983000  0.50183000  0.91672000  1.0
  C  C88  1  0.16549000  0.54985000  0.89001000  1.0
  C  C89  1  0.24929000  0.55035000  0.89138000  1.0
  C  C90  1  0.24945000  0.45713000  0.94455000  1.0
  C  C91  1  0.16562000  0.45522000  0.94435000  1.0
  C  C92  1  0.49824000  0.73240000  0.91911000  1.0
  C  C93  1  0.42571000  0.77273000  0.91678000  1.0
  C  C94  1  0.42871000  0.84998000  0.91728000  1.0
  C  C95  1  0.50177000  0.89074000  0.91959000  1.0
  C  C96  1  0.57293000  0.84723000  0.92195000  1.0
  C  C97  1  0.57246000  0.76994000  0.92195000  1.0
  C  C98  1  0.50293000  0.96931000  0.91933000  1.0
  C  C99  1  0.50228000  0.03749000  0.91874000  1.0
  C  C100  1  0.50010000  0.11604000  0.91803000  1.0
  C  C101  1  0.42666000  0.15624000  0.92044000  1.0
  C  C102  1  0.42285000  0.23345000  0.92010000  1.0
  C  C103  1  0.49491000  0.27421000  0.91682000  1.0
  C  C104  1  0.56946000  0.23723000  0.91391000  1.0
  C  C105  1  0.57074000  0.15998000  0.91480000  1.0
  C  C106  1  0.34578000  0.49353000  0.64843000  1.0
  C  C107  1  0.65384000  0.49393000  0.77128000  1.0
  S  S108  1  0.59080000  0.49313000  0.66274000  1.0
  S  S109  1  0.40882000  0.49347000  0.75702000  1.0
  N  N110  1  0.29307000  0.49748000  0.50462000  1.0
  N  N111  1  0.71063000  0.50213000  0.50163000  1.0
  N  N112  1  0.70702000  0.49986000  0.91507000  1.0
  N  N113  1  0.28944000  0.50430000  0.91832000  1.0
  O  O114  1  0.57083000  0.61476000  0.50883000  1.0
  O  O115  1  0.43636000  0.61274000  0.49370000  1.0
  O  O116  1  0.43438000  0.51820000  0.56848000  1.0
  O  O117  1  0.56872000  0.48970000  0.56894000  1.0
  O  O118  1  0.44123000  0.38921000  0.51048000  1.0
  O  O119  1  0.57572000  0.38670000  0.49601000  1.0
  O  O120  1  0.56316000  0.50953000  0.43611000  1.0
  O  O121  1  0.42835000  0.48543000  0.43557000  1.0
  O  O122  1  0.42913000  0.61702000  0.91072000  1.0
  O  O123  1  0.56364000  0.61543000  0.92575000  1.0
  O  O124  1  0.56546000  0.51941000  0.85124000  1.0
  O  O125  1  0.43118000  0.49084000  0.85090000  1.0
  O  O126  1  0.55913000  0.39151000  0.90930000  1.0
  O  O127  1  0.42469000  0.38929000  0.92395000  1.0
  O  O128  1  0.43720000  0.51330000  0.98370000  1.0
  O  O129  1  0.57201000  0.48907000  0.98412000  1.0
  O  O130  1  0.30205000  0.55453000  0.66213000  1.0
  O  O131  1  0.31309000  0.44390000  0.62803000  1.0
  O  O132  1  0.69759000  0.55474000  0.75773000  1.0
  O  O133  1  0.68651000  0.44439000  0.79155000  1.0
  F  F134  1  0.13007000  0.41490000  0.44378000  1.0
  F  F135  1  0.13033000  0.57784000  0.56627000  1.0
  F  F136  1  0.87344000  0.40570000  0.44831000  1.0
  F  F137  1  0.87356000  0.59419000  0.55765000  1.0
  F  F138  1  0.35497000  0.88102000  0.49319000  1.0
  F  F139  1  0.64088000  0.88698000  0.50240000  1.0
  F  F140  1  0.35718000  0.12179000  0.50531000  1.0
  F  F141  1  0.64279000  0.11359000  0.49481000  1.0
  F  F142  1  0.64509000  0.49380000  0.14268000  1.0
  F  F143  1  0.35915000  0.50883000  0.14081000  1.0
  F  F144  1  0.64091000  0.50761000  0.27896000  1.0
  F  F145  1  0.35497000  0.49271000  0.27709000  1.0
  F  F146  1  0.87004000  0.41713000  0.97549000  1.0
  F  F147  1  0.86977000  0.58001000  0.85384000  1.0
  F  F148  1  0.12665000  0.40769000  0.97095000  1.0
  F  F149  1  0.12646000  0.59622000  0.86262000  1.0
  F  F150  1  0.64463000  0.88382000  0.92431000  1.0
  F  F151  1  0.35871000  0.88934000  0.91524000  1.0
  F  F152  1  0.64270000  0.12383000  0.91241000  1.0
  F  F153  1  0.35715000  0.11641000  0.92334000  1.0
