# generated using pymatgen
data_FeH18Au2(C13N3)2
_symmetry_space_group_name_H-M   'P 1'
_cell_length_a   10.10280000
_cell_length_b   10.10290000
_cell_length_c   13.93422067
_cell_angle_alpha   103.14455409
_cell_angle_beta   106.81022011
_cell_angle_gamma   106.69700000
_symmetry_Int_Tables_number   1
_chemical_formula_structural   FeH18Au2(C13N3)2
_chemical_formula_sum   'Fe2 H36 Au4 C52 N12'
_cell_volume   1227.00707409
_cell_formula_units_Z   2
loop_
 _symmetry_equiv_pos_site_id
 _symmetry_equiv_pos_as_xyz
  1  'x, y, z'
loop_
 _atom_site_type_symbol
 _atom_site_label
 _atom_site_symmetry_multiplicity
 _atom_site_fract_x
 _atom_site_fract_y
 _atom_site_fract_z
 _atom_site_occupancy
  Fe  Fe0  1  0.00000000  0.00000000  0.00000000  1.0
  Fe  Fe1  1  0.50000000  1.00000000  0.50000000  1.0
  H  H2  1  0.70137000  0.24660000  0.79907000  1.0
  H  H3  1  0.94740000  0.90228000  0.70111000  1.0
  H  H4  1  0.29863000  0.75340000  0.20093000  1.0
  H  H5  1  0.05260000  0.09772000  0.29889000  1.0
  H  H6  1  0.73892000  0.05434000  0.87665000  1.0
  H  H7  1  0.67760000  0.86232000  0.62338000  1.0
  H  H8  1  0.26108000  0.94566000  0.12335000  1.0
  H  H9  1  0.32240000  0.13768000  0.37662000  1.0
  H  H10  1  0.92450000  0.44922000  0.81093000  1.0
  H  H11  1  0.13821000  0.11347000  0.68917000  1.0
  H  H12  1  0.07550000  0.55078000  0.18907000  1.0
  H  H13  1  0.86179000  0.88653000  0.31083000  1.0
  H  H14  1  0.19893000  0.25244000  0.97684000  1.0
  H  H15  1  0.77570000  0.22211000  0.52317000  1.0
  H  H16  1  0.80106000  0.74756000  0.02316000  1.0
  H  H17  1  0.22430000  0.77789000  0.47683000  1.0
  H  H18  1  0.16065000  0.65983000  0.94533000  1.0
  H  H19  1  0.21450000  0.21517000  0.55468000  1.0
  H  H20  1  0.83935000  0.34017000  0.05467000  1.0
  H  H21  1  0.78550000  0.78483000  0.44532000  1.0
  H  H22  1  0.58141000  0.75635000  0.90621000  1.0
  H  H23  1  0.35004000  0.67504000  0.59382000  1.0
  H  H24  1  0.41859000  0.24365000  0.09379000  1.0
  H  H25  1  0.64996000  0.32496000  0.40618000  1.0
  H  H26  1  0.39529000  0.84050000  0.95716000  1.0
  H  H27  1  0.38325000  0.43805000  0.54280000  1.0
  H  H28  1  0.60472000  0.15951000  0.04285000  1.0
  H  H29  1  0.61675000  0.56195000  0.45720000  1.0
  H  H30  1  0.53767000  0.48965000  0.85266000  1.0
  H  H31  1  0.13696000  0.68489000  0.64742000  1.0
  H  H32  1  0.46233000  0.51035000  0.14734000  1.0
  H  H33  1  0.86304000  0.31511000  0.35258000  1.0
  H  H34  1  0.31006000  0.31015000  0.85058000  1.0
  H  H35  1  0.95955000  0.45931000  0.64951000  1.0
  H  H36  1  0.68994000  0.68985000  0.14942000  1.0
  H  H37  1  0.04045000  0.54069000  0.35049000  1.0
  Au  Au38  1  0.33688000  0.98624000  0.80198000  1.0
  Au  Au39  1  0.68432000  0.53485000  0.69807000  1.0
  Au  Au40  1  0.66312000  0.01376000  0.19802000  1.0
  Au  Au41  1  0.31568000  0.46515000  0.30193000  1.0
  C  C42  1  0.22400000  0.98715000  0.89561000  1.0
  C  C43  1  0.59152000  0.32841000  0.60432000  1.0
  C  C44  1  0.77600000  0.01285000  0.10439000  1.0
  C  C45  1  0.40848000  0.67159000  0.39568000  1.0
  C  C46  1  0.21878000  0.47251000  0.89694000  1.0
  C  C47  1  0.07566000  0.32173000  0.60321000  1.0
  C  C48  1  0.78122000  0.52749000  0.10306000  1.0
  C  C49  1  0.92434000  0.67827000  0.39679000  1.0
  C  C50  1  0.81399000  0.25240000  0.83831000  1.0
  C  C51  1  0.91399000  0.97569000  0.66190000  1.0
  C  C52  1  0.18601000  0.74760000  0.16169000  1.0
  C  C53  1  0.08601000  0.02431000  0.33810000  1.0
  C  C54  1  0.83335000  0.14432000  0.88102000  1.0
  C  C55  1  0.76325000  0.95240333  0.61907000  1.0
  C  C56  1  0.16665000  0.85568000  0.11898000  1.0
  C  C57  1  0.23675000  0.04759667  0.38093000  1.0
  C  C58  1  0.93831000  0.36441000  0.84480000  1.0
  C  C59  1  0.01954000  0.09344000  0.65535000  1.0
  C  C60  1  0.06169000  0.63558000  0.15520000  1.0
  C  C61  1  0.98046000  0.90655000  0.34465000  1.0
  C  C62  1  0.09053000  0.25394000  0.93582000  1.0
  C  C63  1  0.81816000  0.15469000  0.56421000  1.0
  C  C64  1  0.90948000  0.74607000  0.06419000  1.0
  C  C65  1  0.18184000  0.84531000  0.43579000  1.0
  C  C66  1  0.08099000  0.36422000  0.89237000  1.0
  C  C67  1  0.97185000  0.18854000  0.60773000  1.0
  C  C68  1  0.91901000  0.63578000  0.10763000  1.0
  C  C69  1  0.02815000  0.81146000  0.39227000  1.0
  C  C70  1  0.24360000  0.62250000  0.92561000  1.0
  C  C71  1  0.19693000  0.31785000  0.57447000  1.0
  C  C72  1  0.75640000  0.37750000  0.07439000  1.0
  C  C73  1  0.80307000  0.68215000  0.42553000  1.0
  C  C74  1  0.48061000  0.67670000  0.90419000  1.0
  C  C75  1  0.27249000  0.57629000  0.59595000  1.0
  C  C76  1  0.51939000  0.32330000  0.09581000  1.0
  C  C77  1  0.72751000  0.42371000  0.40405000  1.0
  C  C78  1  0.37527000  0.72390000  0.93156000  1.0
  C  C79  1  0.29230000  0.44357000  0.56848000  1.0
  C  C80  1  0.62474000  0.27610000  0.06844000  1.0
  C  C81  1  0.70770000  0.55643000  0.43152000  1.0
  C  C82  1  0.45600000  0.52749000  0.87427000  1.0
  C  C83  1  0.15323000  0.58162000  0.62588000  1.0
  C  C84  1  0.54400000  0.47251000  0.12573000  1.0
  C  C85  1  0.84677000  0.41838000  0.37412000  1.0
  C  C86  1  0.32737000  0.42637000  0.87249000  1.0
  C  C87  1  0.05394000  0.45477000  0.62768000  1.0
  C  C88  1  0.67263000  0.57363000  0.12751000  1.0
  C  C89  1  0.94606000  0.54523000  0.37232000  1.0
  C  C90  1  0.78898000  0.73325000  0.80417000  1.0
  C  C91  1  0.42936000  0.98477000  0.69594000  1.0
  C  C92  1  0.21102000  0.26674000  0.19583000  1.0
  C  C93  1  0.57064000  0.01523000  0.30406000  1.0
  N  N94  1  0.14584000  0.98918000  0.94336000  1.0
  N  N95  1  0.54576000  0.20248000  0.55661000  1.0
  N  N96  1  0.85416000  0.01082000  0.05664000  1.0
  N  N97  1  0.45424000  0.79752000  0.44339000  1.0
  N  N98  1  0.97052000  0.14679000  0.93120000  1.0
  N  N99  1  0.71558000  0.03935000  0.56881000  1.0
  N  N100  1  0.02948000  0.85321000  0.06880000  1.0
  N  N101  1  0.28442000  0.96065000  0.43119000  1.0
  N  N102  1  0.86055000  0.84295000  0.87629000  1.0
  N  N103  1  0.46676000  0.98424000  0.62374000  1.0
  N  N104  1  0.13945000  0.15705000  0.12371000  1.0
  N  N105  1  0.53324000  0.01576000  0.37626000  1.0
