# generated using pymatgen
data_CdH14C14(N2O)6
_symmetry_space_group_name_H-M   'P 1'
_cell_length_a   7.12478000
_cell_length_b   9.65736000
_cell_length_c   13.91160000
_cell_angle_alpha   90.00000000
_cell_angle_beta   100.50500000
_cell_angle_gamma   89.99960000
_symmetry_Int_Tables_number   1
_chemical_formula_structural   CdH14C14(N2O)6
_chemical_formula_sum   'Cd2 H28 C28 N24 O12'
_cell_volume   941.16562866
_cell_formula_units_Z   2
loop_
 _symmetry_equiv_pos_site_id
 _symmetry_equiv_pos_as_xyz
  1  'x, y, z'
loop_
 _atom_site_type_symbol
 _atom_site_label
 _atom_site_symmetry_multiplicity
 _atom_site_fract_x
 _atom_site_fract_y
 _atom_site_fract_z
 _atom_site_occupancy
  Cd  Cd0  1  0.50000000  0.50000000  0.50000000  1.0
  Cd  Cd1  1  0.50000000  0.00000000  0.00000000  1.0
  H  H2  1  0.64018000  0.29041000  0.07604000  1.0
  H  H3  1  0.35982000  0.79041000  0.42395000  1.0
  H  H4  1  0.35982000  0.70959000  0.92396000  1.0
  H  H5  1  0.64018000  0.20960000  0.57605000  1.0
  H  H6  1  0.07751000  0.16536000  0.99338000  1.0
  H  H7  1  0.92249000  0.66536000  0.50662000  1.0
  H  H8  1  0.92249000  0.83464000  0.00662000  1.0
  H  H9  1  0.07751000  0.33464000  0.49338000  1.0
  H  H10  1  0.96767000  0.39388000  0.05431000  1.0
  H  H11  1  0.03233000  0.89389000  0.44569000  1.0
  H  H12  1  0.03233000  0.60611000  0.94569000  1.0
  H  H13  1  0.96767000  0.10612000  0.55431000  1.0
  H  H14  1  0.05834000  0.75565000  0.26657000  1.0
  H  H15  1  0.94165000  0.25565000  0.23343000  1.0
  H  H16  1  0.94165000  0.24435000  0.73343000  1.0
  H  H17  1  0.05834000  0.74434000  0.76657000  1.0
  H  H18  1  0.11037000  0.62229000  0.18593000  1.0
  H  H19  1  0.88962000  0.12229000  0.31407000  1.0
  H  H20  1  0.88963000  0.37772000  0.81407000  1.0
  H  H21  1  0.11037000  0.87771000  0.68593000  1.0
  H  H22  1  0.80116000  0.41368000  0.38869000  1.0
  H  H23  1  0.19884000  0.91369000  0.11131000  1.0
  H  H24  1  0.19884000  0.58632000  0.61131000  1.0
  H  H25  1  0.80116000  0.08631000  0.88869000  1.0
  H  H26  1  0.63090000  0.30050000  0.36887000  1.0
  H  H27  1  0.36910000  0.80050000  0.13114000  1.0
  H  H28  1  0.36910000  0.69950000  0.63113000  1.0
  H  H29  1  0.63090000  0.19950000  0.86887000  1.0
  C  C30  1  0.42877000  0.43973000  0.10613000  1.0
  C  C31  1  0.57122000  0.93974000  0.39387000  1.0
  C  C32  1  0.57123000  0.56026000  0.89387000  1.0
  C  C33  1  0.42878000  0.06027000  0.60613000  1.0
  C  C34  1  0.48971000  0.31417000  0.07155000  1.0
  C  C35  1  0.51028000  0.81417000  0.42845000  1.0
  C  C36  1  0.51028000  0.68583000  0.92845000  1.0
  C  C37  1  0.48972000  0.18584000  0.57155000  1.0
  C  C38  1  0.17766000  0.24481000  0.02629000  1.0
  C  C39  1  0.82234000  0.74481000  0.47371000  1.0
  C  C40  1  0.82234000  0.75518000  0.97371000  1.0
  C  C41  1  0.17766000  0.25519000  0.52629000  1.0
  C  C42  1  0.11914000  0.37128000  0.05939000  1.0
  C  C43  1  0.88085000  0.87128000  0.44061000  1.0
  C  C44  1  0.88086000  0.62871000  0.94061000  1.0
  C  C45  1  0.11915000  0.12872000  0.55939000  1.0
  C  C46  1  0.57104000  0.53982000  0.15280000  1.0
  C  C47  1  0.42896000  0.03982000  0.34720000  1.0
  C  C48  1  0.42896000  0.46018000  0.84720000  1.0
  C  C49  1  0.57104000  0.96018000  0.65280000  1.0
  C  C50  1  0.03609000  0.64625000  0.24665000  1.0
  C  C51  1  0.96391000  0.14625000  0.25335000  1.0
  C  C52  1  0.96391000  0.35375000  0.75335000  1.0
  C  C53  1  0.03609000  0.85375000  0.74665000  1.0
  C  C54  1  0.12050000  0.55194000  0.33352000  1.0
  C  C55  1  0.87949000  0.05194000  0.16647000  1.0
  C  C56  1  0.87949000  0.44806000  0.66648000  1.0
  C  C57  1  0.12051000  0.94805000  0.83353000  1.0
  N  N58  1  0.36424000  0.21793000  0.03196000  1.0
  N  N59  1  0.63576000  0.71793000  0.46804000  1.0
  N  N60  1  0.63578000  0.78207000  0.96804000  1.0
  N  N61  1  0.36424000  0.28207000  0.53196000  1.0
  N  N62  1  0.24244000  0.46924000  0.09843000  1.0
  N  N63  1  0.75756000  0.96924000  0.40157000  1.0
  N  N64  1  0.75756000  0.53075000  0.90157000  1.0
  N  N65  1  0.24244000  0.03076000  0.59843000  1.0
  N  N66  1  0.75916000  0.51264000  0.16854000  1.0
  N  N67  1  0.24083000  0.01265000  0.33146000  1.0
  N  N68  1  0.24084000  0.48736000  0.83146000  1.0
  N  N69  1  0.75917000  0.98736000  0.66854000  1.0
  N  N70  1  0.53568000  0.66751000  0.18702000  1.0
  N  N71  1  0.46431000  0.16751000  0.31298000  1.0
  N  N72  1  0.46432000  0.33249000  0.81298000  1.0
  N  N73  1  0.53568000  0.83249000  0.68702000  1.0
  N  N74  1  0.83302000  0.62701000  0.21309000  1.0
  N  N75  1  0.16698000  0.12702000  0.28691000  1.0
  N  N76  1  0.16698000  0.37299000  0.78691000  1.0
  N  N77  1  0.83302000  0.87299000  0.71309000  1.0
  N  N78  1  0.70269000  0.72132000  0.22548000  1.0
  N  N79  1  0.29730000  0.22132000  0.27453000  1.0
  N  N80  1  0.29730000  0.27868000  0.77453000  1.0
  N  N81  1  0.70269000  0.77868000  0.72547000  1.0
  O  O82  1  0.01340000  0.47411000  0.37153000  1.0
  O  O83  1  0.98660000  0.97412000  0.12846000  1.0
  O  O84  1  0.98660000  0.52589000  0.62846000  1.0
  O  O85  1  0.01340000  0.02587000  0.87155000  1.0
  O  O86  1  0.30009000  0.56525000  0.35758000  1.0
  O  O87  1  0.69991000  0.06525000  0.14242000  1.0
  O  O88  1  0.69991000  0.43475000  0.64242000  1.0
  O  O89  1  0.30009000  0.93475000  0.85758000  1.0
  O  O90  1  0.69778000  0.36849000  0.41664000  1.0
  O  O91  1  0.30222000  0.86849000  0.08336000  1.0
  O  O92  1  0.30222000  0.63151000  0.58336000  1.0
  O  O93  1  0.69779000  0.13151000  0.91664000  1.0
