# generated using pymatgen
data_MnH12(C8N5)2
_symmetry_space_group_name_H-M   'P 1'
_cell_length_a   6.81249000
_cell_length_b   9.80649000
_cell_length_c   12.48600000
_cell_angle_alpha   98.72750000
_cell_angle_beta   89.98520000
_cell_angle_gamma   110.32900000
_symmetry_Int_Tables_number   1
_chemical_formula_structural   MnH12(C8N5)2
_chemical_formula_sum   'Mn2 H24 C32 N20'
_cell_volume   771.89498340
_cell_formula_units_Z   2
loop_
 _symmetry_equiv_pos_site_id
 _symmetry_equiv_pos_as_xyz
  1  'x, y, z'
loop_
 _atom_site_type_symbol
 _atom_site_label
 _atom_site_symmetry_multiplicity
 _atom_site_fract_x
 _atom_site_fract_y
 _atom_site_fract_z
 _atom_site_occupancy
  Mn  Mn0  1  0.93579000  0.00001000  0.75004000  1.0
  Mn  Mn1  1  0.06421000  0.99999000  0.24996000  1.0
  H  H2  1  0.62413000  0.73427000  0.83606000  1.0
  H  H3  1  0.88991000  0.26580000  0.66413000  1.0
  H  H4  1  0.37587000  0.26573000  0.16394000  1.0
  H  H5  1  0.11008000  0.73420000  0.33587000  1.0
  H  H6  1  0.37308000  0.24076000  0.68055000  1.0
  H  H7  1  0.13284000  0.75925000  0.81959000  1.0
  H  H8  1  0.62692000  0.75925000  0.31945000  1.0
  H  H9  1  0.86716000  0.24075000  0.18041000  1.0
  H  H10  1  0.43882000  0.10167000  0.50856000  1.0
  H  H11  1  0.33764000  0.89836000  0.99154000  1.0
  H  H12  1  0.56118000  0.89833000  0.49144000  1.0
  H  H13  1  0.66236000  0.10164000  0.00846000  1.0
  H  H14  1  0.68111000  0.23259000  0.37847000  1.0
  H  H15  1  0.44868000  0.76739000  0.12167000  1.0
  H  H16  1  0.31889000  0.76741000  0.62153000  1.0
  H  H17  1  0.55131000  0.23261000  0.87833000  1.0
  H  H18  1  0.85770000  0.50204000  0.41600000  1.0
  H  H19  1  0.35558000  0.49794000  0.08420000  1.0
  H  H20  1  0.14231000  0.49796000  0.58400000  1.0
  H  H21  1  0.64442000  0.50206000  0.91580000  1.0
  H  H22  1  0.93205000  0.74330000  0.54932000  1.0
  H  H23  1  0.18834000  0.25660000  0.95088000  1.0
  H  H24  1  0.06796000  0.25671000  0.45068000  1.0
  H  H25  1  0.81166000  0.74339000  0.04912000  1.0
  C  C26  1  0.64936000  0.67133000  0.76085000  1.0
  C  C27  1  0.97811000  0.32871000  0.73933000  1.0
  C  C28  1  0.35064000  0.32867000  0.23915000  1.0
  C  C29  1  0.02188000  0.67129000  0.26067000  1.0
  C  C30  1  0.58204000  0.45171000  0.64753000  1.0
  C  C31  1  0.13066000  0.54830000  0.85264000  1.0
  C  C32  1  0.41796000  0.54830000  0.35247000  1.0
  C  C33  1  0.86934000  0.45170000  0.14735000  1.0
  C  C34  1  0.48007000  0.29721000  0.62338000  1.0
  C  C35  1  0.18333000  0.70281000  0.87679000  1.0
  C  C36  1  0.51993000  0.70279000  0.37662000  1.0
  C  C37  1  0.81667000  0.29718000  0.12321000  1.0
  C  C38  1  0.51810000  0.22062000  0.52809000  1.0
  C  C39  1  0.29792000  0.77941000  0.97206000  1.0
  C  C40  1  0.48190000  0.77939000  0.47191000  1.0
  C  C41  1  0.70208000  0.22059000  0.02794000  1.0
  C  C42  1  0.65538000  0.29491000  0.45353000  1.0
  C  C43  1  0.36068000  0.70510000  0.04663000  1.0
  C  C44  1  0.34462000  0.70510000  0.54647000  1.0
  C  C45  1  0.63931000  0.29489000  0.95337000  1.0
  C  C46  1  0.75417000  0.44568000  0.47444000  1.0
  C  C47  1  0.30859000  0.55429000  0.02574000  1.0
  C  C48  1  0.24583000  0.55432000  0.52556000  1.0
  C  C49  1  0.69141000  0.44570000  0.97426000  1.0
  C  C50  1  0.72094000  0.52637000  0.57232000  1.0
  C  C51  1  0.19475000  0.47360000  0.92786000  1.0
  C  C52  1  0.27906000  0.47363000  0.42768000  1.0
  C  C53  1  0.80525000  0.52639000  0.07214000  1.0
  C  C54  1  0.82150000  0.67996000  0.60244000  1.0
  C  C55  1  0.14145000  0.31999000  0.89774000  1.0
  C  C56  1  0.17850000  0.32004000  0.39756000  1.0
  C  C57  1  0.85854000  0.68001000  0.10226000  1.0
  N  N58  1  0.78852000  0.75241000  0.69539000  1.0
  N  N59  1  0.03602000  0.24757000  0.80479000  1.0
  N  N60  1  0.21148000  0.24759000  0.30461000  1.0
  N  N61  1  0.96398000  0.75242000  0.19521000  1.0
  N  N62  1  0.54776000  0.52832000  0.74215000  1.0
  N  N63  1  0.01969000  0.47174000  0.75802000  1.0
  N  N64  1  0.45224000  0.47168000  0.25785000  1.0
  N  N65  1  0.98031000  0.52826000  0.24198000  1.0
  N  N66  1  0.89987000  0.95790000  0.91613000  1.0
  N  N67  1  0.94208000  0.04209000  0.58392000  1.0
  N  N68  1  0.10013000  0.04210000  0.08387000  1.0
  N  N69  1  0.05792000  0.95790000  0.41607000  1.0
  N  N70  1  0.00000000  0.00000000  0.00000000  1.0
  N  N71  1  0.00000000  0.00000000  0.50000000  1.0
  N  N72  1  0.59843000  0.99995000  0.75001000  1.0
  N  N73  1  0.40157000  0.00005000  0.24999000  1.0
  N  N74  1  0.42564000  0.99998000  0.75001000  1.0
  N  N75  1  0.57436000  0.00002000  0.24999000  1.0
  N  N76  1  0.25141000  0.00001000  0.75002000  1.0
  N  N77  1  0.74860000  0.99999000  0.24998000  1.0
