# generated using pymatgen
data_SbAsH16(C7S)2
_symmetry_space_group_name_H-M   'P 1'
_cell_length_a   9.54553000
_cell_length_b   9.74002000
_cell_length_c   17.28700000
_cell_angle_alpha   90.00000000
_cell_angle_beta   94.60810000
_cell_angle_gamma   89.99990000
_symmetry_Int_Tables_number   1
_chemical_formula_structural   SbAsH16(C7S)2
_chemical_formula_sum   'Sb4 As4 H64 C56 S8'
_cell_volume   1602.04020168
_cell_formula_units_Z   4
loop_
 _symmetry_equiv_pos_site_id
 _symmetry_equiv_pos_as_xyz
  1  'x, y, z'
loop_
 _atom_site_type_symbol
 _atom_site_label
 _atom_site_symmetry_multiplicity
 _atom_site_fract_x
 _atom_site_fract_y
 _atom_site_fract_z
 _atom_site_occupancy
  Sb  Sb0  1  0.21110000  0.64368000  0.32918000  1.0
  Sb  Sb1  1  0.28889000  0.14368000  0.17082000  1.0
  Sb  Sb2  1  0.78890000  0.35632000  0.67082000  1.0
  Sb  Sb3  1  0.71111000  0.85632000  0.82918000  1.0
  As  As4  1  0.44696000  0.33669000  0.35275000  1.0
  As  As5  1  0.05304000  0.83669000  0.14725000  1.0
  As  As6  1  0.55305000  0.66331000  0.64725000  1.0
  As  As7  1  0.94696000  0.16330000  0.85275000  1.0
  H  H8  1  0.70531000  0.30467000  0.34792000  1.0
  H  H9  1  0.79469000  0.80467000  0.15208000  1.0
  H  H10  1  0.29469000  0.69533000  0.65208000  1.0
  H  H11  1  0.20531000  0.19533000  0.84792000  1.0
  H  H12  1  0.66529000  0.35926000  0.44329000  1.0
  H  H13  1  0.83471000  0.85927000  0.05671000  1.0
  H  H14  1  0.33471000  0.64073000  0.55672000  1.0
  H  H15  1  0.16529000  0.14073000  0.94328000  1.0
  H  H16  1  0.66267000  0.48233000  0.36539000  1.0
  H  H17  1  0.83733000  0.98233000  0.13461000  1.0
  H  H18  1  0.33733000  0.51767000  0.63461000  1.0
  H  H19  1  0.16268000  0.01766000  0.86539000  1.0
  H  H20  1  0.48916000  0.08018000  0.34107000  1.0
  H  H21  1  0.01084000  0.58018000  0.15893000  1.0
  H  H22  1  0.51084000  0.91982000  0.65893000  1.0
  H  H23  1  0.98916000  0.41982000  0.84107000  1.0
  H  H24  1  0.45074000  0.13048000  0.43783000  1.0
  H  H25  1  0.04926000  0.63048000  0.06217000  1.0
  H  H26  1  0.54926000  0.86952000  0.56218000  1.0
  H  H27  1  0.95075000  0.36952000  0.93783000  1.0
  H  H28  1  0.31091000  0.11546000  0.36191000  1.0
  H  H29  1  0.18909000  0.61546000  0.13809000  1.0
  H  H30  1  0.68909000  0.88454000  0.63809000  1.0
  H  H31  1  0.81092000  0.38454000  0.86191000  1.0
  H  H32  1  0.50306000  0.66410000  0.43881000  1.0
  H  H33  1  0.99693000  0.16410000  0.06118000  1.0
  H  H34  1  0.49694000  0.33591000  0.56119000  1.0
  H  H35  1  0.00307000  0.83590000  0.93881000  1.0
  H  H36  1  0.74118000  0.75500000  0.42665000  1.0
  H  H37  1  0.75881000  0.25500000  0.07335000  1.0
  H  H38  1  0.25881000  0.24501000  0.57335000  1.0
  H  H39  1  0.24120000  0.74500000  0.92665000  1.0
  H  H40  1  0.79809000  0.87701000  0.30584000  1.0
  H  H41  1  0.70190000  0.37702000  0.19416000  1.0
  H  H42  1  0.20191000  0.12298000  0.69416000  1.0
  H  H43  1  0.29809000  0.62297000  0.80584000  1.0
  H  H44  1  0.60832000  0.91206000  0.19893000  1.0
  H  H45  1  0.89168000  0.41206000  0.30107000  1.0
  H  H46  1  0.39169000  0.08794000  0.80107000  1.0
  H  H47  1  0.10832000  0.58794000  0.69893000  1.0
  H  H48  1  0.37059000  0.82249000  0.21109000  1.0
  H  H49  1  0.12940000  0.32248000  0.28891000  1.0
  H  H50  1  0.62941000  0.17752000  0.78891000  1.0
  H  H51  1  0.87059000  0.67752000  0.71108000  1.0
  H  H52  1  0.31511000  0.89998000  0.43667000  1.0
  H  H53  1  0.18489000  0.40000000  0.06333000  1.0
  H  H54  1  0.68488000  0.10001000  0.56333000  1.0
  H  H55  1  0.81511000  0.60001000  0.93667000  1.0
  H  H56  1  0.24291000  0.01151000  0.55608000  1.0
  H  H57  1  0.25709000  0.51152000  0.94391000  1.0
  H  H58  1  0.75709000  0.98848000  0.44391000  1.0
  H  H59  1  0.74291000  0.48848000  0.05609000  1.0
  H  H60  1  0.04491000  0.91560000  0.62469000  1.0
  H  H61  1  0.45509000  0.41559000  0.87531000  1.0
  H  H62  1  0.95509000  0.08441000  0.37531000  1.0
  H  H63  1  0.54491000  0.58440000  0.12469000  1.0
  H  H64  1  0.91783000  0.70737000  0.57139000  1.0
  H  H65  1  0.58217000  0.20737000  0.92861000  1.0
  H  H66  1  0.08216000  0.29264000  0.42861000  1.0
  H  H67  1  0.41784000  0.79263000  0.07139000  1.0
  H  H68  1  0.98749000  0.59783000  0.45189000  1.0
  H  H69  1  0.51250000  0.09783000  0.04811000  1.0
  H  H70  1  0.01250000  0.40218000  0.54811000  1.0
  H  H71  1  0.48750000  0.90217000  0.95189000  1.0
  C  C72  1  0.41903000  0.73649000  0.32587000  1.0
  C  C73  1  0.08097000  0.23649000  0.17412000  1.0
  C  C74  1  0.58097000  0.26352000  0.67413000  1.0
  C  C75  1  0.91903000  0.76352000  0.82587000  1.0
  C  C76  1  0.52457000  0.72011000  0.38633000  1.0
  C  C77  1  0.97542000  0.22011000  0.11367000  1.0
  C  C78  1  0.47543000  0.27989000  0.61367000  1.0
  C  C79  1  0.02458000  0.77989000  0.88633000  1.0
  C  C80  1  0.66004000  0.77059000  0.37922000  1.0
  C  C81  1  0.83995000  0.27059000  0.12077000  1.0
  C  C82  1  0.33995000  0.22941000  0.62078000  1.0
  C  C83  1  0.16006000  0.72941000  0.87922000  1.0
  C  C84  1  0.69169000  0.83917000  0.31166000  1.0
  C  C85  1  0.80830000  0.33918000  0.18834000  1.0
  C  C86  1  0.30831000  0.16082000  0.68834000  1.0
  C  C87  1  0.19170000  0.66082000  0.81166000  1.0
  C  C88  1  0.58618000  0.85769000  0.25174000  1.0
  C  C89  1  0.91382000  0.35769000  0.24826000  1.0
  C  C90  1  0.41382000  0.14231000  0.74826000  1.0
  C  C91  1  0.08618000  0.64231000  0.75174000  1.0
  C  C92  1  0.45118000  0.80590000  0.25864000  1.0
  C  C93  1  0.04882000  0.30589000  0.24136000  1.0
  C  C94  1  0.54882000  0.19410000  0.74136000  1.0
  C  C95  1  0.95118000  0.69412000  0.75864000  1.0
  C  C96  1  0.15682000  0.74136000  0.43601000  1.0
  C  C97  1  0.34317000  0.24136000  0.06399000  1.0
  C  C98  1  0.84317000  0.25864000  0.56399000  1.0
  C  C99  1  0.65683000  0.75864000  0.93601000  1.0
  C  C100  1  0.22766000  0.85796000  0.46605000  1.0
  C  C101  1  0.27234000  0.35797000  0.03394000  1.0
  C  C102  1  0.77234000  0.14204000  0.53394000  1.0
  C  C103  1  0.72766000  0.64203000  0.96605000  1.0
  C  C104  1  0.18726000  0.92061000  0.53350000  1.0
  C  C105  1  0.31274000  0.42061000  0.96650000  1.0
  C  C106  1  0.81274000  0.07939000  0.46650000  1.0
  C  C107  1  0.68725000  0.57939000  0.03350000  1.0
  C  C108  1  0.07637000  0.86685000  0.57193000  1.0
  C  C109  1  0.42362000  0.36685000  0.92807000  1.0
  C  C110  1  0.92362000  0.13316000  0.42807000  1.0
  C  C111  1  0.57638000  0.63315000  0.07193000  1.0
  C  C112  1  0.00536000  0.75038000  0.54241000  1.0
  C  C113  1  0.49465000  0.25037000  0.95760000  1.0
  C  C114  1  0.99464000  0.24963000  0.45759000  1.0
  C  C115  1  0.50536000  0.74963000  0.04241000  1.0
  C  C116  1  0.04482000  0.68835000  0.47452000  1.0
  C  C117  1  0.45517000  0.18835000  0.02548000  1.0
  C  C118  1  0.95517000  0.31165000  0.52548000  1.0
  C  C119  1  0.54483000  0.81165000  0.97451000  1.0
  C  C120  1  0.64367000  0.37537000  0.38080000  1.0
  C  C121  1  0.85633000  0.87537000  0.11920000  1.0
  C  C122  1  0.35633000  0.62463000  0.61920000  1.0
  C  C123  1  0.14368000  0.12463000  0.88080000  1.0
  C  C124  1  0.42152000  0.14253000  0.37549000  1.0
  C  C125  1  0.07848000  0.64253000  0.12452000  1.0
  C  C126  1  0.57848000  0.85747000  0.62452000  1.0
  C  C127  1  0.92152000  0.35747000  0.87549000  1.0
  S  S128  1  0.31671000  0.44774000  0.42896000  1.0
  S  S129  1  0.18329000  0.94774000  0.07104000  1.0
  S  S130  1  0.68328000  0.55226000  0.57104000  1.0
  S  S131  1  0.81671000  0.05226000  0.92896000  1.0
  S  S132  1  0.09498000  0.88484000  0.26908000  1.0
  S  S133  1  0.40502000  0.38483000  0.23092000  1.0
  S  S134  1  0.90502000  0.11516000  0.73092000  1.0
  S  S135  1  0.59499000  0.61516000  0.76908000  1.0
