# generated using pymatgen
data_CoH6C8(N2Cl)2
_symmetry_space_group_name_H-M   'P 1'
_cell_length_a   7.87753000
_cell_length_b   9.05682000
_cell_length_c   11.32551424
_cell_angle_alpha   79.55857198
_cell_angle_beta   88.73796841
_cell_angle_gamma   110.66110000
_symmetry_Int_Tables_number   1
_chemical_formula_structural   CoH6C8(N2Cl)2
_chemical_formula_sum   'Co2 H12 C16 N8 Cl4'
_cell_volume   740.28223119
_cell_formula_units_Z   2
loop_
 _symmetry_equiv_pos_site_id
 _symmetry_equiv_pos_as_xyz
  1  'x, y, z'
loop_
 _atom_site_type_symbol
 _atom_site_label
 _atom_site_symmetry_multiplicity
 _atom_site_fract_x
 _atom_site_fract_y
 _atom_site_fract_z
 _atom_site_occupancy
  Co  Co0  1  0.95834000  0.62145000  0.22436000  1.0
  Co  Co1  1  0.04165000  0.37855000  0.77563000  1.0
  H  H2  1  0.93749000  0.33190000  0.43081000  1.0
  H  H3  1  0.06250000  0.66811000  0.56918000  1.0
  H  H4  1  0.41418000  0.31258000  0.70789000  1.0
  H  H5  1  0.58584000  0.68747000  0.29213000  1.0
  H  H6  1  0.01816000  0.88739000  0.99029000  1.0
  H  H7  1  0.98182000  0.11261000  0.00971000  1.0
  H  H8  1  0.57503000  0.34360000  0.19082000  1.0
  H  H9  1  0.42498000  0.65635000  0.80918000  1.0
  H  H10  1  0.78417000  0.88833000  0.84383000  1.0
  H  H11  1  0.21582000  0.11164000  0.15615000  1.0
  H  H12  1  0.73072000  0.24353000  0.62211000  1.0
  H  H13  1  0.26929000  0.75649000  0.37789000  1.0
  C  C14  1  0.82770000  0.37424000  0.44650000  1.0
  C  C15  1  0.17228000  0.62577000  0.55349000  1.0
  C  C16  1  0.64260000  0.50681000  0.42387000  1.0
  C  C17  1  0.35737000  0.49319000  0.57614000  1.0
  C  C18  1  0.59219000  0.40078000  0.53952000  1.0
  C  C19  1  0.40782000  0.59924000  0.46050000  1.0
  C  C20  1  0.44967000  0.39111000  0.61905000  1.0
  C  C21  1  0.55031000  0.60891000  0.38094000  1.0
  C  C22  1  0.88685000  0.79120000  0.99591000  1.0
  C  C23  1  0.11314000  0.20880000  0.00409000  1.0
  C  C24  1  0.61574000  0.65009000  0.94587000  1.0
  C  C25  1  0.38428000  0.34989000  0.05414000  1.0
  C  C26  1  0.65888000  0.56330000  0.05222000  1.0
  C  C27  1  0.34112000  0.43669000  0.94778000  1.0
  C  C28  1  0.54319000  0.40957000  0.10948000  1.0
  C  C29  1  0.45682000  0.59041000  0.89053000  1.0
  N  N30  1  0.82896000  0.65756000  0.08123000  1.0
  N  N31  1  0.17105000  0.34243000  0.91877000  1.0
  N  N32  1  0.76423000  0.79326000  0.91483000  1.0
  N  N33  1  0.23578000  0.20673000  0.08516000  1.0
  N  N34  1  0.79130000  0.48649000  0.36902000  1.0
  N  N35  1  0.20870000  0.51353000  0.63099000  1.0
  N  N36  1  0.71263000  0.31944000  0.54832000  1.0
  N  N37  1  0.28737000  0.68056000  0.45168000  1.0
  Cl  Cl38  1  0.15338000  0.50371000  0.20421000  1.0
  Cl  Cl39  1  0.84659000  0.49627000  0.79580000  1.0
  Cl  Cl40  1  0.09542000  0.86966000  0.26956000  1.0
  Cl  Cl41  1  0.90458000  0.13034000  0.73043000  1.0
