# generated using pymatgen
data_CuH5(C2O)5
_symmetry_space_group_name_H-M   'P 1'
_cell_length_a   17.63280000
_cell_length_b   17.63320000
_cell_length_c   17.63350000
_cell_angle_alpha   63.96750000
_cell_angle_beta   63.98300000
_cell_angle_gamma   63.98730000
_symmetry_Int_Tables_number   1
_chemical_formula_structural   CuH5(C2O)5
_chemical_formula_sum   'Cu6 H30 C60 O30'
_cell_volume   4216.63816068
_cell_formula_units_Z   6
loop_
 _symmetry_equiv_pos_site_id
 _symmetry_equiv_pos_as_xyz
  1  'x, y, z'
loop_
 _atom_site_type_symbol
 _atom_site_label
 _atom_site_symmetry_multiplicity
 _atom_site_fract_x
 _atom_site_fract_y
 _atom_site_fract_z
 _atom_site_occupancy
  Cu  Cu0  1  0.50051000  0.07009000  0.50247000  1.0
  Cu  Cu1  1  0.07018000  0.50231000  0.50067000  1.0
  Cu  Cu2  1  0.50266000  0.50050000  0.07013000  1.0
  Cu  Cu3  1  0.92990000  0.49729000  0.49958000  1.0
  Cu  Cu4  1  0.49934000  0.92980000  0.49757000  1.0
  Cu  Cu5  1  0.49756000  0.49950000  0.92987000  1.0
  H  H6  1  0.51805000  0.99559000  0.22779000  1.0
  H  H7  1  0.99552000  0.22778000  0.51804000  1.0
  H  H8  1  0.22788000  0.51806000  0.99564000  1.0
  H  H9  1  0.00556000  0.48144000  0.77454000  1.0
  H  H10  1  0.77442000  0.00531000  0.48145000  1.0
  H  H11  1  0.48145000  0.77450000  0.00549000  1.0
  H  H12  1  0.48183000  0.00452000  0.77216000  1.0
  H  H13  1  0.00432000  0.77199000  0.48205000  1.0
  H  H14  1  0.77225000  0.48200000  0.00444000  1.0
  H  H15  1  0.99464000  0.51851000  0.22562000  1.0
  H  H16  1  0.22553000  0.99458000  0.51818000  1.0
  H  H17  1  0.51862000  0.22559000  0.99448000  1.0
  H  H18  1  0.51480000  0.23267000  0.42492000  1.0
  H  H19  1  0.55822000  0.19410000  0.49896000  1.0
  H  H20  1  0.23328000  0.42592000  0.51416000  1.0
  H  H21  1  0.19405000  0.49987000  0.55781000  1.0
  H  H22  1  0.42395000  0.51569000  0.23179000  1.0
  H  H23  1  0.49780000  0.55914000  0.19400000  1.0
  H  H24  1  0.76807000  0.57571000  0.48447000  1.0
  H  H25  1  0.80601000  0.50179000  0.44110000  1.0
  H  H26  1  0.48541000  0.76700000  0.57475000  1.0
  H  H27  1  0.44178000  0.80585000  0.50083000  1.0
  H  H28  1  0.57534000  0.48516000  0.76752000  1.0
  H  H29  1  0.50147000  0.44156000  0.80592000  1.0
  H  H30  1  0.52823000  0.23391000  0.22989000  1.0
  H  H31  1  0.23388000  0.22975000  0.52830000  1.0
  H  H32  1  0.23017000  0.52768000  0.23416000  1.0
  H  H33  1  0.77019000  0.47178000  0.76612000  1.0
  H  H34  1  0.76578000  0.76977000  0.47237000  1.0
  H  H35  1  0.47176000  0.76611000  0.77014000  1.0
  C  C36  1  0.52088000  0.06743000  0.33348000  1.0
  C  C37  1  0.52432000  0.10980000  0.23792000  1.0
  C  C38  1  0.52065000  0.06330000  0.19334000  1.0
  C  C39  1  0.06744000  0.33333333  0.52102000  1.0
  C  C40  1  0.10977000  0.23784000  0.52433000  1.0
  C  C41  1  0.06324000  0.19332000  0.52059000  1.0
  C  C42  1  0.33361000  0.52072000  0.06755000  1.0
  C  C43  1  0.23811000  0.52404000  0.10995000  1.0
  C  C44  1  0.19347000  0.52054000  0.06339000  1.0
  C  C45  1  0.93633000  0.47830000  0.66625000  1.0
  C  C46  1  0.89282000  0.47524000  0.76160000  1.0
  C  C47  1  0.93774000  0.47899000  0.80760000  1.0
  C  C48  1  0.66602000  0.93603000  0.47866000  1.0
  C  C49  1  0.76136000  0.89248000  0.47559000  1.0
  C  C50  1  0.80744000  0.93746000  0.47911000  1.0
  C  C51  1  0.47846000  0.66617000  0.93625000  1.0
  C  C52  1  0.47525000  0.76156000  0.89277000  1.0
  C  C53  1  0.47895000  0.80760000  0.93768000  1.0
  C  C54  1  0.47899000  0.93260000  0.66655000  1.0
  C  C55  1  0.47561000  0.89026000  0.76209000  1.0
  C  C56  1  0.47928000  0.93679000  0.80664000  1.0
  C  C57  1  0.93239000  0.66631000  0.47935000  1.0
  C  C58  1  0.88999000  0.76180000  0.47607000  1.0
  C  C59  1  0.93658000  0.80642000  0.47957000  1.0
  C  C60  1  0.66660000  0.47917000  0.93256000  1.0
  C  C61  1  0.76214000  0.47573000  0.89023000  1.0
  C  C62  1  0.80671000  0.47939000  0.93675000  1.0
  C  C63  1  0.06393000  0.52133000  0.33398000  1.0
  C  C64  1  0.10746000  0.52443000  0.23864000  1.0
  C  C65  1  0.06248000  0.52089000  0.19257000  1.0
  C  C66  1  0.33381000  0.06372000  0.52145000  1.0
  C  C67  1  0.23844000  0.10722000  0.52458000  1.0
  C  C68  1  0.19243000  0.06235000  0.52075000  1.0
  C  C69  1  0.52168000  0.33385000  0.06375000  1.0
  C  C70  1  0.52478000  0.23848000  0.10723000  1.0
  C  C71  1  0.52108000  0.19248000  0.06230000  1.0
  C  C72  1  0.52662000  0.19720000  0.19494000  1.0
  C  C73  1  0.51876000  0.10427000  0.10498000  1.0
  C  C74  1  0.51190000  0.05888000  0.06039000  1.0
  C  C75  1  0.50426000  0.02091000  0.02136000  1.0
  C  C76  1  0.19718000  0.19485000  0.52658000  1.0
  C  C77  1  0.10421000  0.10505000  0.51852000  1.0
  C  C78  1  0.05880000  0.06045000  0.51164000  1.0
  C  C79  1  0.02082000  0.02142000  0.50402000  1.0
  C  C80  1  0.19518000  0.52619000  0.19740000  1.0
  C  C81  1  0.10512000  0.51868000  0.10434000  1.0
  C  C82  1  0.06046000  0.51197000  0.05891000  1.0
  C  C83  1  0.02141000  0.50440000  0.02090000  1.0
  C  C84  1  0.80512000  0.47341000  0.80284000  1.0
  C  C85  1  0.89505000  0.48132000  0.89580000  1.0
  C  C86  1  0.93960000  0.48822000  0.94121000  1.0
  C  C87  1  0.97862000  0.49585000  0.97921000  1.0
  C  C88  1  0.80256000  0.80475000  0.47386000  1.0
  C  C89  1  0.89566000  0.89478000  0.48137000  1.0
  C  C90  1  0.94111000  0.93946000  0.48807000  1.0
  C  C91  1  0.97911000  0.97855000  0.49558000  1.0
  C  C92  1  0.47336000  0.80284000  0.80508000  1.0
  C  C93  1  0.48121000  0.89583000  0.89498000  1.0
  C  C94  1  0.48807000  0.94123000  0.93956000  1.0
  C  C95  1  0.49571000  0.97923000  0.97857000  1.0
  O  O96  1  0.51712000  0.98815000  0.36903000  1.0
  O  O97  1  0.51988000  0.11474000  0.37201000  1.0
  O  O98  1  0.98820000  0.36889000  0.51717000  1.0
  O  O99  1  0.11474000  0.37180000  0.52015000  1.0
  O  O100  1  0.36911000  0.51703000  0.98827000  1.0
  O  O101  1  0.37215000  0.51979000  0.11482000  1.0
  O  O102  1  0.01551000  0.48261000  0.63062000  1.0
  O  O103  1  0.88920000  0.47856000  0.62813000  1.0
  O  O104  1  0.63050000  0.01530000  0.48270000  1.0
  O  O105  1  0.62782000  0.88887000  0.47912000  1.0
  O  O106  1  0.48277000  0.63053000  0.01544000  1.0
  O  O107  1  0.47883000  0.62802000  0.88909000  1.0
  O  O108  1  0.48287000  0.01183000  0.63094000  1.0
  O  O109  1  0.47981000  0.88532000  0.62809000  1.0
  O  O110  1  0.01169000  0.63083000  0.48299000  1.0
  O  O111  1  0.88510000  0.62777000  0.48030000  1.0
  O  O112  1  0.63108000  0.48290000  0.01184000  1.0
  O  O113  1  0.62805000  0.48019000  0.88525000  1.0
  O  O114  1  0.98468000  0.51722000  0.36953000  1.0
  O  O115  1  0.11109000  0.52086000  0.37218000  1.0
  O  O116  1  0.36941000  0.98453000  0.51718000  1.0
  O  O117  1  0.37196000  0.11085000  0.52112000  1.0
  O  O118  1  0.51739000  0.36950000  0.98454000  1.0
  O  O119  1  0.52136000  0.37196000  0.11090000  1.0
  O  O120  1  0.50369000  0.20551000  0.48876000  1.0
  O  O121  1  0.20537000  0.48965000  0.50331000  1.0
  O  O122  1  0.48789000  0.50436000  0.20569000  1.0
  O  O123  1  0.79440000  0.51178000  0.49581000  1.0
  O  O124  1  0.49635000  0.79446000  0.51096000  1.0
  O  O125  1  0.51149000  0.49621000  0.79444000  1.0
