# generated using pymatgen
data_Zn2H11C23O11
_symmetry_space_group_name_H-M   'P 1'
_cell_length_a   12.57560000
_cell_length_b   16.32650000
_cell_length_c   19.70330000
_cell_angle_alpha   93.52260000
_cell_angle_beta   89.99310000
_cell_angle_gamma   89.97740000
_symmetry_Int_Tables_number   1
_chemical_formula_structural   Zn2H11C23O11
_chemical_formula_sum   'Zn8 H44 C92 O44'
_cell_volume   4037.74999006
_cell_formula_units_Z   4
loop_
 _symmetry_equiv_pos_site_id
 _symmetry_equiv_pos_as_xyz
  1  'x, y, z'
loop_
 _atom_site_type_symbol
 _atom_site_label
 _atom_site_symmetry_multiplicity
 _atom_site_fract_x
 _atom_site_fract_y
 _atom_site_fract_z
 _atom_site_occupancy
  Zn  Zn0  1  0.42970000  0.85590000  0.78627000  1.0
  Zn  Zn1  1  0.92922000  0.14433000  0.71398000  1.0
  Zn  Zn2  1  0.57101000  0.14458000  0.21421000  1.0
  Zn  Zn3  1  0.07087000  0.85541000  0.28584000  1.0
  Zn  Zn4  1  0.87156000  0.33517000  0.65188000  1.0
  Zn  Zn5  1  0.37145000  0.66454000  0.84795000  1.0
  Zn  Zn6  1  0.12845000  0.66500000  0.34814000  1.0
  Zn  Zn7  1  0.62838000  0.33515000  0.15185000  1.0
  H  H8  1  0.42554000  0.91553000  0.90722000  1.0
  H  H9  1  0.92498000  0.08558000  0.59290000  1.0
  H  H10  1  0.57533000  0.08606000  0.09307000  1.0
  H  H11  1  0.07492000  0.91420000  0.40688000  1.0
  H  H12  1  0.41720000  0.99307000  0.86676000  1.0
  H  H13  1  0.91726000  0.00802000  0.63338000  1.0
  H  H14  1  0.58325000  0.00855000  0.13359000  1.0
  H  H15  1  0.08303000  0.99164000  0.36630000  1.0
  H  H16  1  0.22072000  0.16359000  0.64524000  1.0
  H  H17  1  0.72047000  0.83658000  0.85495000  1.0
  H  H18  1  0.77937000  0.83615000  0.35439000  1.0
  H  H19  1  0.27936000  0.16399000  0.14578000  1.0
  H  H20  1  0.45086000  0.25424000  0.50522000  1.0
  H  H21  1  0.95085000  0.74563000  0.99472000  1.0
  H  H22  1  0.54887000  0.74597000  0.49443000  1.0
  H  H23  1  0.04892000  0.25386000  0.00555000  1.0
  H  H24  1  0.12041000  0.32443000  0.49398000  1.0
  H  H25  1  0.62044000  0.67546000  0.00607000  1.0
  H  H26  1  0.87915000  0.67532000  0.50580000  1.0
  H  H27  1  0.37916000  0.32452000  0.99420000  1.0
  H  H28  1  0.65916000  0.07152000  0.72458000  1.0
  H  H29  1  0.15883000  0.92898000  0.77572000  1.0
  H  H30  1  0.34102000  0.92878000  0.27513000  1.0
  H  H31  1  0.84092000  0.07133000  0.22482000  1.0
  H  H32  1  0.55253000  0.26002000  0.59800000  1.0
  H  H33  1  0.05251000  0.73988000  0.90176000  1.0
  H  H34  1  0.44753000  0.73970000  0.40120000  1.0
  H  H35  1  0.94755000  0.26029000  0.09872000  1.0
  H  H36  1  0.33875000  0.06420000  0.64863000  1.0
  H  H37  1  0.83833000  0.93579000  0.85155000  1.0
  H  H38  1  0.66136000  0.93575000  0.35119000  1.0
  H  H39  1  0.16138000  0.06420000  0.14890000  1.0
  H  H40  1  0.39059000  0.45285000  0.26962000  1.0
  H  H41  1  0.89076000  0.54696000  0.23034000  1.0
  H  H42  1  0.60982000  0.54694000  0.73010000  1.0
  H  H43  1  0.10956000  0.45258000  0.76971000  1.0
  H  H44  1  0.20181000  0.43712000  0.45010000  1.0
  H  H45  1  0.70204000  0.56281000  0.04987000  1.0
  H  H46  1  0.79748000  0.56279000  0.54916000  1.0
  H  H47  1  0.29770000  0.43690000  0.95042000  1.0
  H  H48  1  0.42725000  0.24485000  0.39080000  1.0
  H  H49  1  0.92724000  0.75506000  0.10927000  1.0
  H  H50  1  0.57278000  0.75526000  0.60926000  1.0
  H  H51  1  0.07257000  0.24465000  0.89092000  1.0
  C  C52  1  0.04979000  0.24017000  0.59943000  1.0
  C  C53  1  0.54956000  0.75992000  0.90072000  1.0
  C  C54  1  0.95022000  0.75959000  0.40049000  1.0
  C  C55  1  0.45019000  0.24046000  0.09962000  1.0
  C  C56  1  0.16066000  0.24257000  0.57130000  1.0
  C  C57  1  0.66048000  0.75745000  0.92881000  1.0
  C  C58  1  0.83924000  0.75722000  0.42844000  1.0
  C  C59  1  0.33922000  0.24280000  0.07164000  1.0
  C  C60  1  0.24130000  0.19939000  0.60223000  1.0
  C  C61  1  0.74110000  0.80065000  0.89788000  1.0
  C  C62  1  0.75870000  0.80041000  0.39743000  1.0
  C  C63  1  0.25870000  0.19964000  0.10268000  1.0
  C  C64  1  0.34790000  0.20554000  0.58043000  1.0
  C  C65  1  0.84778000  0.79441000  0.91960000  1.0
  C  C66  1  0.65203000  0.79435000  0.41919000  1.0
  C  C67  1  0.15209000  0.20562000  0.08085000  1.0
  C  C68  1  0.36948000  0.25073000  0.52390000  1.0
  C  C69  1  0.86945000  0.74918000  0.97610000  1.0
  C  C70  1  0.63027000  0.74931000  0.47578000  1.0
  C  C71  1  0.13033000  0.25059000  0.02422000  1.0
  C  C72  1  0.28881000  0.29236000  0.49089000  1.0
  C  C73  1  0.78882000  0.70757000  0.00914000  1.0
  C  C74  1  0.71081000  0.70761000  0.50882000  1.0
  C  C75  1  0.21085000  0.29227000  0.99116000  1.0
  C  C76  1  0.18427000  0.29036000  0.51687000  1.0
  C  C77  1  0.68423000  0.70959000  0.98319000  1.0
  C  C78  1  0.81541000  0.70947000  0.48287000  1.0
  C  C79  1  0.31540000  0.29043000  0.01714000  1.0
  C  C80  1  0.47405000  0.98528000  0.72641000  1.0
  C  C81  1  0.97326000  0.01486000  0.77381000  1.0
  C  C82  1  0.52641000  0.01486000  0.27352000  1.0
  C  C83  1  0.02620000  0.98514000  0.22651000  1.0
  C  C84  1  0.72215000  0.20964000  0.66809000  1.0
  C  C85  1  0.22214000  0.79061000  0.83174000  1.0
  C  C86  1  0.27799000  0.79040000  0.33131000  1.0
  C  C87  1  0.77791000  0.20970000  0.16863000  1.0
  C  C88  1  0.49620000  0.06039000  0.68955000  1.0
  C  C89  1  0.99576000  0.93979000  0.81064000  1.0
  C  C90  1  0.50398000  0.93970000  0.31021000  1.0
  C  C91  1  0.00392000  0.06032000  0.18980000  1.0
  C  C92  1  0.59640000  0.09767000  0.69451000  1.0
  C  C93  1  0.09610000  0.90264000  0.80567000  1.0
  C  C94  1  0.40375000  0.90249000  0.30514000  1.0
  C  C95  1  0.90367000  0.09759000  0.19482000  1.0
  C  C96  1  0.61571000  0.16928000  0.66065000  1.0
  C  C97  1  0.11558000  0.83089000  0.83933000  1.0
  C  C98  1  0.38440000  0.83073000  0.33881000  1.0
  C  C99  1  0.88436000  0.16933000  0.16113000  1.0
  C  C100  1  0.53551000  0.20339000  0.62250000  1.0
  C  C101  1  0.03543000  0.79660000  0.87741000  1.0
  C  C102  1  0.46455000  0.79645000  0.37689000  1.0
  C  C103  1  0.96455000  0.20356000  0.12307000  1.0
  C  C104  1  0.43378000  0.16738000  0.61822000  1.0
  C  C105  1  0.93361000  0.83260000  0.88181000  1.0
  C  C106  1  0.56625000  0.83248000  0.38133000  1.0
  C  C107  1  0.06628000  0.16749000  0.11869000  1.0
  C  C108  1  0.41553000  0.09514000  0.65199000  1.0
  C  C109  1  0.91518000  0.90491000  0.84815000  1.0
  C  C110  1  0.58458000  0.90483000  0.34773000  1.0
  C  C111  1  0.08458000  0.09515000  0.15232000  1.0
  C  C112  1  0.49264000  0.30414000  0.27547000  1.0
  C  C113  1  0.99259000  0.69574000  0.22458000  1.0
  C  C114  1  0.50776000  0.69580000  0.72469000  1.0
  C  C115  1  0.00746000  0.30392000  0.77548000  1.0
  C  C116  1  0.23500000  0.52973000  0.34507000  1.0
  C  C117  1  0.73510000  0.47018000  0.15486000  1.0
  C  C118  1  0.76530000  0.47022000  0.65423000  1.0
  C  C119  1  0.26503000  0.52938000  0.84518000  1.0
  C  C120  1  0.41662000  0.34466000  0.32580000  1.0
  C  C121  1  0.91669000  0.65520000  0.17421000  1.0
  C  C122  1  0.58353000  0.65528000  0.67413000  1.0
  C  C123  1  0.08333000  0.34443000  0.82590000  1.0
  C  C124  1  0.36853000  0.41974000  0.31386000  1.0
  C  C125  1  0.86869000  0.58008000  0.18611000  1.0
  C  C126  1  0.63163000  0.58011000  0.68585000  1.0
  C  C127  1  0.13146000  0.41950000  0.81399000  1.0
  C  C128  1  0.28984000  0.45136000  0.35852000  1.0
  C  C129  1  0.79003000  0.54848000  0.14144000  1.0
  C  C130  1  0.71008000  0.54849000  0.64097000  1.0
  C  C131  1  0.21003000  0.45112000  0.85871000  1.0
  C  C132  1  0.26173000  0.40978000  0.41574000  1.0
  C  C133  1  0.76191000  0.59012000  0.08425000  1.0
  C  C134  1  0.73782000  0.59011000  0.58372000  1.0
  C  C135  1  0.23791000  0.40958000  0.91599000  1.0
  C  C136  1  0.31336000  0.33619000  0.42983000  1.0
  C  C137  1  0.81345000  0.66372000  0.07019000  1.0
  C  C138  1  0.68623000  0.66379000  0.56987000  1.0
  C  C139  1  0.18626000  0.33602000  0.93005000  1.0
  C  C140  1  0.38994000  0.30394000  0.38357000  1.0
  C  C141  1  0.89000000  0.69596000  0.11645000  1.0
  C  C142  1  0.60996000  0.69609000  0.61634000  1.0
  C  C143  1  0.10984000  0.30374000  0.88373000  1.0
  O  O144  1  0.99021000  0.30062000  0.58788000  1.0
  O  O145  1  0.49019000  0.69928000  0.91189000  1.0
  O  O146  1  0.00992000  0.69930000  0.41232000  1.0
  O  O147  1  0.50982000  0.30074000  0.08776000  1.0
  O  O148  1  0.02561000  0.17856000  0.63301000  1.0
  O  O149  1  0.52519000  0.82185000  0.86754000  1.0
  O  O150  1  0.97444000  0.82108000  0.36676000  1.0
  O  O151  1  0.47442000  0.17901000  0.13339000  1.0
  O  O152  1  0.38795000  0.94519000  0.71538000  1.0
  O  O153  1  0.88693000  0.05475000  0.78475000  1.0
  O  O154  1  0.61279000  0.05464000  0.28451000  1.0
  O  O155  1  0.11252000  0.94524000  0.21553000  1.0
  O  O156  1  0.53995000  0.96120000  0.77048000  1.0
  O  O157  1  0.03918000  0.03913000  0.72977000  1.0
  O  O158  1  0.46047000  0.03931000  0.22960000  1.0
  O  O159  1  0.96020000  0.96083000  0.27042000  1.0
  O  O160  1  0.74710000  0.26380000  0.62689000  1.0
  O  O161  1  0.24685000  0.73583000  0.87246000  1.0
  O  O162  1  0.25293000  0.73635000  0.37261000  1.0
  O  O163  1  0.75277000  0.26366000  0.12727000  1.0
  O  O164  1  0.78043000  0.18776000  0.71645000  1.0
  O  O165  1  0.28064000  0.81320000  0.78376000  1.0
  O  O166  1  0.21982000  0.81222000  0.28289000  1.0
  O  O167  1  0.71981000  0.18798000  0.21711000  1.0
  O  O168  1  0.53490000  0.34979000  0.23279000  1.0
  O  O169  1  0.03496000  0.65008000  0.26722000  1.0
  O  O170  1  0.46478000  0.64989000  0.76692000  1.0
  O  O171  1  0.96501000  0.34967000  0.73293000  1.0
  O  O172  1  0.50524000  0.22758000  0.28008000  1.0
  O  O173  1  0.00498000  0.77234000  0.22007000  1.0
  O  O174  1  0.49601000  0.77254000  0.72070000  1.0
  O  O175  1  0.99515000  0.22730000  0.77989000  1.0
  O  O176  1  0.16437000  0.55775000  0.38803000  1.0
  O  O177  1  0.66430000  0.44236000  0.11197000  1.0
  O  O178  1  0.83616000  0.44244000  0.61133000  1.0
  O  O179  1  0.33554000  0.55746000  0.88814000  1.0
  O  O180  1  0.25709000  0.56826000  0.29321000  1.0
  O  O181  1  0.75720000  0.43151000  0.20664000  1.0
  O  O182  1  0.74345000  0.43137000  0.70600000  1.0
  O  O183  1  0.24317000  0.56772000  0.79320000  1.0
  O  O184  1  0.37730000  0.94446000  0.87790000  1.0
  O  O185  1  0.87699000  0.05650000  0.62227000  1.0
  O  O186  1  0.62337000  0.05707000  0.12248000  1.0
  O  O187  1  0.12310000  0.94312000  0.37752000  1.0
