# generated using pymatgen
data_ZnH23C27NClO4
_symmetry_space_group_name_H-M   'P 1'
_cell_length_a   10.90870000
_cell_length_b   14.57450000
_cell_length_c   15.85780000
_cell_angle_alpha   78.45960000
_cell_angle_beta   87.87120000
_cell_angle_gamma   69.89560000
_symmetry_Int_Tables_number   1
_chemical_formula_structural   ZnH23C27NClO4
_chemical_formula_sum   'Zn2 H46 C54 N2 Cl2 O8'
_cell_volume   2318.35663042
_cell_formula_units_Z   2
loop_
 _symmetry_equiv_pos_site_id
 _symmetry_equiv_pos_as_xyz
  1  'x, y, z'
loop_
 _atom_site_type_symbol
 _atom_site_label
 _atom_site_symmetry_multiplicity
 _atom_site_fract_x
 _atom_site_fract_y
 _atom_site_fract_z
 _atom_site_occupancy
  Zn  Zn0  1  0.44840000  0.59632000  0.50995000  1.0
  Zn  Zn1  1  0.54409000  0.39920000  0.48735000  1.0
  H  H2  1  0.85740000  0.56077000  0.61139000  1.0
  H  H3  1  0.13768000  0.42237000  0.40601000  1.0
  H  H4  1  0.96843000  0.33854000  0.51119000  1.0
  H  H5  1  0.17628000  0.33631000  0.54274000  1.0
  H  H6  1  0.30869000  0.76351000  0.93882000  1.0
  H  H7  1  0.45693000  0.53959000  0.77757000  1.0
  H  H8  1  0.62822000  0.23380000  0.75898000  1.0
  H  H9  1  0.59806000  0.22681000  0.06278000  1.0
  H  H10  1  0.29730000  0.80984000  0.08022000  1.0
  H  H11  1  0.34226000  0.76110000  0.23969000  1.0
  H  H12  1  0.49870000  0.45411000  0.22277000  1.0
  H  H13  1  0.80561000  0.65141000  0.51658000  1.0
  H  H14  1  0.37748000  0.63773000  0.84878000  1.0
  H  H15  1  0.52841000  0.35296000  0.15251000  1.0
  H  H16  1  0.63825000  0.18243000  0.91965000  1.0
  H  H17  1  0.72003000  0.97185000  0.32108000  1.0
  H  H18  1  0.52862000  0.76665000  0.45602000  1.0
  H  H19  1  0.26483000  0.70599000  0.63116000  1.0
  H  H20  1  0.71135000  0.29883000  0.35662000  1.0
  H  H21  1  0.46402000  0.22909000  0.53944000  1.0
  H  H22  1  0.01876000  0.65284000  0.48745000  1.0
  H  H23  1  0.61338000  0.85875000  0.39389000  1.0
  H  H24  1  0.35512000  0.14992000  0.58208000  1.0
  H  H25  1  0.20924000  0.87022000  0.67541000  1.0
  H  H26  1  0.91780000  0.37704000  0.60890000  1.0
  H  H27  1  0.92391000  0.45264000  0.37659000  1.0
  H  H28  1  0.05301000  0.14468000  0.57135000  1.0
  H  H29  1  0.05297000  0.02136000  0.60731000  1.0
  H  H30  1  0.99381000  0.11047000  0.67443000  1.0
  H  H31  1  0.21876000  0.99684000  0.72733000  1.0
  H  H32  1  0.21853000  0.11867000  0.68781000  1.0
  H  H33  1  0.75663000  0.28642000  0.21168000  1.0
  H  H34  1  0.89463000  0.23139000  0.28418000  1.0
  H  H35  1  0.89708000  0.19339000  0.18453000  1.0
  H  H36  1  0.86311000  0.06431000  0.30135000  1.0
  H  H37  1  0.72724000  0.11851000  0.22974000  1.0
  H  H38  1  0.33899000  0.31161000  0.67113000  1.0
  H  H39  1  0.27714000  0.43776000  0.68209000  1.0
  H  H40  1  0.26847000  0.34336000  0.76888000  1.0
  H  H41  1  0.04979000  0.43329000  0.69304000  1.0
  H  H42  1  0.10717000  0.30583000  0.69053000  1.0
  H  H43  1  0.93968000  0.58480000  0.22677000  1.0
  H  H44  1  0.79800000  0.55012000  0.24579000  1.0
  H  H45  1  0.78162000  0.67765000  0.21437000  1.0
  H  H46  1  0.74643000  0.63313000  0.37153000  1.0
  H  H47  1  0.88304000  0.67238000  0.35467000  1.0
  C  C48  1  0.45267000  0.57323000  0.33380000  1.0
  C  C49  1  0.11610000  0.49467000  0.51407000  1.0
  C  C50  1  0.10193000  0.39685000  0.56745000  1.0
  C  C51  1  0.07827000  0.49562000  0.41875000  1.0
  C  C52  1  0.42482000  0.60391000  0.23860000  1.0
  C  C53  1  0.54126000  0.39081000  0.76064000  1.0
  C  C54  1  0.34220000  0.73165000  0.11141000  1.0
  C  C55  1  0.36681000  0.70545000  0.19923000  1.0
  C  C56  1  0.45562000  0.53115000  0.18905000  1.0
  C  C57  1  0.43343000  0.55546000  0.09903000  1.0
  C  C58  1  0.37573000  0.65848000  0.05950000  1.0
  C  C59  1  0.73699000  0.49632000  0.49207000  1.0
  C  C60  1  0.46942000  0.48075000  0.04587000  1.0
  C  C61  1  0.45383000  0.51082000  0.95503000  1.0
  C  C62  1  0.39372000  0.61428000  0.91831000  1.0
  C  C63  1  0.35494000  0.68494000  0.96842000  1.0
  C  C64  1  0.52100000  0.37671000  0.08271000  1.0
  C  C65  1  0.55980000  0.30585000  0.03273000  1.0
  C  C66  1  0.55269000  0.33316000  0.94116000  1.0
  C  C67  1  0.49916000  0.43651000  0.90172000  1.0
  C  C68  1  0.59804000  0.26101000  0.88850000  1.0
  C  C69  1  0.59302000  0.28877000  0.79987000  1.0
  C  C70  1  0.53223000  0.42462000  0.66469000  1.0
  C  C71  1  0.49526000  0.46224000  0.81118000  1.0
  C  C72  1  0.69259000  0.15613000  0.35373000  1.0
  C  C73  1  0.66814000  0.24291000  0.38429000  1.0
  C  C74  1  0.52767000  0.20419000  0.48792000  1.0
  C  C75  1  0.54325000  0.11379000  0.46251000  1.0
  C  C76  1  0.63069000  0.08777000  0.39496000  1.0
  C  C77  1  0.47464000  0.04861000  0.50324000  1.0
  C  C78  1  0.50142000  0.95547000  0.47915000  1.0
  C  C79  1  0.59206000  0.93016000  0.41312000  1.0
  C  C80  1  0.65283000  0.99392000  0.37181000  1.0
  C  C81  1  0.25771000  0.49357000  0.51204000  1.0
  C  C82  1  0.37891000  0.07661000  0.56592000  1.0
  C  C83  1  0.31199000  0.01668000  0.60642000  1.0
  C  C84  1  0.34127000  0.91978000  0.58590000  1.0
  C  C85  1  0.43463000  0.88997000  0.52213000  1.0
  C  C86  1  0.28041000  0.85149000  0.62605000  1.0
  C  C87  1  0.31037000  0.76035000  0.60277000  1.0
  C  C88  1  0.45821000  0.79506000  0.50332000  1.0
  C  C89  1  0.88060000  0.57995000  0.54360000  1.0
  C  C90  1  0.01659000  0.58937000  0.53723000  1.0
  C  C91  1  0.96417000  0.39568000  0.54817000  1.0
  C  C92  1  0.92988000  0.51338000  0.40609000  1.0
  C  C93  1  0.87622000  0.49745000  0.49778000  1.0
  C  C94  1  0.20666000  0.05397000  0.66806000  1.0
  C  C95  1  0.06861000  0.08416000  0.62810000  1.0
  C  C96  1  0.78113000  0.13439000  0.27932000  1.0
  C  C97  1  0.83499000  0.21615000  0.23803000  1.0
  C  C98  1  0.12560000  0.37613000  0.66564000  1.0
  C  C99  1  0.25985000  0.36654000  0.69839000  1.0
  C  C100  1  0.84666000  0.61237000  0.34823000  1.0
  C  C101  1  0.84179000  0.60582000  0.25342000  1.0
  N  N102  1  0.58873000  0.26540000  0.45076000  1.0
  N  N103  1  0.39824000  0.73322000  0.54156000  1.0
  Cl  Cl104  1  0.05444000  0.62225000  0.63555000  1.0
  Cl  Cl105  1  0.13346000  0.58069000  0.34095000  1.0
  O  O106  1  0.43184000  0.64166000  0.37709000  1.0
  O  O107  1  0.49513000  0.47980000  0.36443000  1.0
  O  O108  1  0.64453000  0.57353000  0.50461000  1.0
  O  O109  1  0.72418000  0.41816000  0.47564000  1.0
  O  O110  1  0.48231000  0.51804000  0.63618000  1.0
  O  O111  1  0.57351000  0.35805000  0.61883000  1.0
  O  O112  1  0.27376000  0.57548000  0.51281000  1.0
  O  O113  1  0.34660000  0.41199000  0.50549000  1.0
