# generated using pymatgen
data_ZnMoH18C14(NO)4
_symmetry_space_group_name_H-M   'P 1'
_cell_length_a   7.00571000
_cell_length_b   9.41337000
_cell_length_c   9.41337000
_cell_angle_alpha   84.14220000
_cell_angle_beta   88.60960000
_cell_angle_gamma   88.60950000
_symmetry_Int_Tables_number   1
_chemical_formula_structural   ZnMoH18C14(NO)4
_chemical_formula_sum   'Zn1 Mo1 H18 C14 N4 O4'
_cell_volume   617.21509162
_cell_formula_units_Z   1
loop_
 _symmetry_equiv_pos_site_id
 _symmetry_equiv_pos_as_xyz
  1  'x, y, z'
loop_
 _atom_site_type_symbol
 _atom_site_label
 _atom_site_symmetry_multiplicity
 _atom_site_fract_x
 _atom_site_fract_y
 _atom_site_fract_z
 _atom_site_occupancy
  Zn  Zn0  1  0.50000000  0.08222000  0.91778000  1.0
  Mo  Mo1  1  0.00000000  0.00010000  0.99990000  1.0
  H  H2  1  0.27579000  0.16373000  0.19866000  1.0
  H  H3  1  0.72421000  0.80135000  0.83627000  1.0
  H  H4  1  0.48785000  0.26387000  0.18720000  1.0
  H  H5  1  0.51215000  0.81280000  0.73613000  1.0
  H  H6  1  0.30480000  0.90567000  0.20249000  1.0
  H  H7  1  0.69520000  0.79751000  0.09433000  1.0
  H  H8  1  0.50965000  0.86678000  0.30769000  1.0
  H  H9  1  0.49036000  0.69231000  0.13322000  1.0
  H  H10  1  0.75428000  0.12576000  0.38764000  1.0
  H  H11  1  0.24572000  0.61236000  0.87424000  1.0
  H  H12  1  0.13956000  0.13678000  0.43113000  1.0
  H  H13  1  0.86044000  0.56888000  0.86321000  1.0
  H  H14  1  0.17931000  0.10371000  0.69844000  1.0
  H  H15  1  0.82069000  0.30156000  0.89629000  1.0
  H  H16  1  0.76591000  0.09163000  0.65679000  1.0
  H  H17  1  0.23409000  0.34321000  0.90837000  1.0
  H  H18  1  0.67205000  0.05203000  0.16927000  1.0
  H  H19  1  0.32795000  0.83073000  0.94797000  1.0
  C  C20  1  0.42692000  0.16046000  0.22764000  1.0
  C  C21  1  0.57308000  0.77236000  0.83954000  1.0
  C  C22  1  0.44401000  0.13848000  0.38791000  1.0
  C  C23  1  0.55599000  0.61209000  0.86152000  1.0
  C  C24  1  0.46206000  0.90422000  0.19909000  1.0
  C  C25  1  0.53795000  0.80091000  0.09578000  1.0
  C  C26  1  0.62269000  0.12386000  0.45247000  1.0
  C  C27  1  0.37731000  0.54753000  0.87614000  1.0
  C  C28  1  0.28136000  0.12956000  0.47709000  1.0
  C  C29  1  0.71864000  0.52292000  0.87044000  1.0
  C  C30  1  0.30184000  0.10961000  0.62456000  1.0
  C  C31  1  0.69816000  0.37544000  0.89038000  1.0
  C  C32  1  0.63119000  0.10362000  0.60055000  1.0
  C  C33  1  0.36881000  0.39945000  0.89638000  1.0
  N  N34  1  0.52635000  0.04977000  0.15263000  1.0
  N  N35  1  0.47365000  0.84737000  0.95023000  1.0
  N  N36  1  0.47357000  0.09708000  0.68590000  1.0
  N  N37  1  0.52643000  0.31410000  0.90291000  1.0
  O  O38  1  0.20054000  0.10873000  0.94433000  1.0
  O  O39  1  0.79946000  0.05567000  0.89127000  1.0
  O  O40  1  0.06215000  0.82010000  0.97856000  1.0
  O  O41  1  0.93785000  0.02144000  0.17990000  1.0
