# generated using pymatgen
data_CdH16C20N4O5
_symmetry_space_group_name_H-M   'P 1'
_cell_length_a   7.44421000
_cell_length_b   11.34370000
_cell_length_c   11.68449249
_cell_angle_alpha   78.17503733
_cell_angle_beta   74.17688839
_cell_angle_gamma   81.35190000
_symmetry_Int_Tables_number   1
_chemical_formula_structural   CdH16C20N4O5
_chemical_formula_sum   'Cd2 H32 C40 N8 O10'
_cell_volume   924.47250443
_cell_formula_units_Z   2
loop_
 _symmetry_equiv_pos_site_id
 _symmetry_equiv_pos_as_xyz
  1  'x, y, z'
loop_
 _atom_site_type_symbol
 _atom_site_label
 _atom_site_symmetry_multiplicity
 _atom_site_fract_x
 _atom_site_fract_y
 _atom_site_fract_z
 _atom_site_occupancy
  Cd  Cd0  1  0.94776000  0.79176000  0.14015000  1.0
  Cd  Cd1  1  0.05224000  0.20824000  0.85985000  1.0
  H  H2  1  0.95401000  0.89934000  0.50511000  1.0
  H  H3  1  0.04601000  0.10066000  0.49488000  1.0
  H  H4  1  0.83061000  0.01901000  0.67342000  1.0
  H  H5  1  0.16939000  0.98099000  0.32658000  1.0
  H  H6  1  0.27908000  0.91661000  0.72087000  1.0
  H  H7  1  0.72092000  0.08339000  0.27912000  1.0
  H  H8  1  0.40730000  0.78875000  0.55807000  1.0
  H  H9  1  0.59270000  0.21124000  0.44193000  1.0
  H  H10  1  0.96070000  0.85744000  0.84305000  1.0
  H  H11  1  0.03930000  0.14256000  0.15694000  1.0
  H  H12  1  0.04252000  0.74614000  0.66711000  1.0
  H  H13  1  0.95748000  0.25385000  0.33289000  1.0
  H  H14  1  0.20013000  0.53712000  0.68850000  1.0
  H  H15  1  0.79987000  0.46288000  0.31151000  1.0
  H  H16  1  0.42448000  0.30278000  0.22792000  1.0
  H  H17  1  0.57553000  0.69722000  0.77207000  1.0
  H  H18  1  0.33585000  0.43058000  0.38548000  1.0
  H  H19  1  0.66417000  0.56942000  0.61451000  1.0
  H  H20  1  0.15723000  0.63692000  0.34270000  1.0
  H  H21  1  0.84277000  0.36307000  0.65731000  1.0
  H  H22  1  0.42853000  0.26864000  0.80927000  1.0
  H  H23  1  0.57147000  0.73137000  0.19073000  1.0
  H  H24  1  0.31003000  0.36894000  0.72475000  1.0
  H  H25  1  0.68997000  0.63106000  0.27525000  1.0
  H  H26  1  0.47267000  0.19546000  0.95671000  1.0
  H  H27  1  0.52732000  0.80454000  0.04329000  1.0
  H  H28  1  0.47815000  0.21638000  0.09724000  1.0
  H  H29  1  0.52184000  0.78362000  0.90275000  1.0
  H  H30  1  0.23416000  0.92710000  0.13363000  1.0
  H  H31  1  0.76583000  0.07289000  0.86638000  1.0
  H  H32  1  0.19192000  0.97799000  0.00629000  1.0
  H  H33  1  0.80809000  0.02201000  0.99371000  1.0
  C  C34  1  0.68876000  0.83563000  0.52320000  1.0
  C  C35  1  0.31124000  0.16437000  0.47680000  1.0
  C  C36  1  0.80724000  0.90122000  0.55547000  1.0
  C  C37  1  0.19277000  0.09878000  0.44453000  1.0
  C  C38  1  0.73830000  0.96804000  0.64847000  1.0
  C  C39  1  0.26170000  0.03196000  0.35154000  1.0
  C  C40  1  0.54711000  0.97237000  0.70897000  1.0
  C  C41  1  0.45289000  0.02763000  0.29103000  1.0
  C  C42  1  0.42772000  0.90874000  0.67514000  1.0
  C  C43  1  0.57228000  0.09126000  0.32486000  1.0
  C  C44  1  0.49839000  0.83957000  0.58412000  1.0
  C  C45  1  0.50161000  0.16043000  0.41588000  1.0
  C  C46  1  0.76360000  0.76488000  0.42086000  1.0
  C  C47  1  0.23641000  0.23511000  0.57914000  1.0
  C  C48  1  0.46646000  0.04822000  0.80500000  1.0
  C  C49  1  0.53355000  0.95177000  0.19499000  1.0
  C  C50  1  0.03363000  0.76625000  0.84853000  1.0
  C  C51  1  0.96637000  0.23375000  0.15146000  1.0
  C  C52  1  0.07994000  0.70309000  0.75088000  1.0
  C  C53  1  0.92007000  0.29691000  0.24911000  1.0
  C  C54  1  0.16740000  0.58670000  0.76362000  1.0
  C  C55  1  0.83260000  0.41330000  0.23638000  1.0
  C  C56  1  0.21246000  0.53212000  0.87431000  1.0
  C  C57  1  0.78753000  0.46789000  0.12569000  1.0
  C  C58  1  0.29680000  0.41059000  0.89544000  1.0
  C  C59  1  0.70319000  0.58941000  0.10456000  1.0
  C  C60  1  0.34804000  0.36266000  0.00358000  1.0
  C  C61  1  0.65195000  0.63734000  0.99643000  1.0
  C  C62  1  0.30839000  0.43580000  0.09649000  1.0
  C  C63  1  0.69161000  0.56421000  0.90351000  1.0
  C  C64  1  0.35226000  0.39268000  0.20897000  1.0
  C  C65  1  0.64774000  0.60732000  0.79103000  1.0
  C  C66  1  0.30321000  0.46344000  0.29811000  1.0
  C  C67  1  0.69680000  0.53656000  0.70189000  1.0
  C  C68  1  0.20538000  0.57798000  0.27500000  1.0
  C  C69  1  0.79462000  0.42202000  0.72500000  1.0
  C  C70  1  0.21352000  0.55423000  0.08016000  1.0
  C  C71  1  0.78647000  0.44577000  0.91985000  1.0
  C  C72  1  0.16595000  0.60445000  0.96707000  1.0
  C  C73  1  0.83405000  0.39555000  0.03293000  1.0
  N  N74  1  0.07590000  0.71780000  0.95301000  1.0
  N  N75  1  0.92410000  0.28221000  0.04699000  1.0
  N  N76  1  0.16274000  0.62091000  0.16977000  1.0
  N  N77  1  0.83725000  0.37910000  0.83024000  1.0
  N  N78  1  0.31491000  0.33303000  0.81256000  1.0
  N  N79  1  0.68508000  0.66697000  0.18744000  1.0
  N  N80  1  0.42243000  0.24486000  0.02525000  1.0
  N  N81  1  0.57755000  0.75515000  0.97476000  1.0
  O  O82  1  0.90348000  0.80683000  0.33856000  1.0
  O  O83  1  0.09654000  0.19317000  0.66144000  1.0
  O  O84  1  0.68399000  0.67328000  0.42327000  1.0
  O  O85  1  0.31600000  0.32671000  0.57673000  1.0
  O  O86  1  0.57103000  0.11827000  0.82356000  1.0
  O  O87  1  0.42896000  0.88173000  0.17643000  1.0
  O  O88  1  0.29420000  0.04163000  0.86183000  1.0
  O  O89  1  0.70581000  0.95836000  0.13816000  1.0
  O  O90  1  0.12921000  0.95172000  0.09268000  1.0
  O  O91  1  0.87079000  0.04828000  0.90732000  1.0
