# generated using pymatgen
data_CuH18C18N2O3
_symmetry_space_group_name_H-M   'P 1'
_cell_length_a   5.42718000
_cell_length_b   9.09433000
_cell_length_c   15.82470000
_cell_angle_alpha   89.99980000
_cell_angle_beta   95.85770000
_cell_angle_gamma   89.99890000
_symmetry_Int_Tables_number   1
_chemical_formula_structural   CuH18C18N2O3
_chemical_formula_sum   'Cu2 H36 C36 N4 O6'
_cell_volume   776.97452995
_cell_formula_units_Z   2
loop_
 _symmetry_equiv_pos_site_id
 _symmetry_equiv_pos_as_xyz
  1  'x, y, z'
loop_
 _atom_site_type_symbol
 _atom_site_label
 _atom_site_symmetry_multiplicity
 _atom_site_fract_x
 _atom_site_fract_y
 _atom_site_fract_z
 _atom_site_occupancy
  Cu  Cu0  1  0.08229000  0.37377000  0.08229000  1.0
  Cu  Cu1  1  0.91774000  0.87378000  0.91771000  1.0
  H  H2  1  0.14941000  0.62101000  0.16645000  1.0
  H  H3  1  0.85063000  0.12101000  0.83354000  1.0
  H  H4  1  0.11146000  0.47083000  0.22398000  1.0
  H  H5  1  0.88857000  0.97081000  0.77602000  1.0
  H  H6  1  0.58501000  0.17606000  0.02347000  1.0
  H  H7  1  0.41499000  0.67606000  0.97652000  1.0
  H  H8  1  0.58454000  0.92845000  0.07551000  1.0
  H  H9  1  0.41549000  0.42846000  0.92449000  1.0
  H  H10  1  0.74041000  0.05243000  0.14984000  1.0
  H  H11  1  0.25961000  0.55244000  0.85016000  1.0
  H  H12  1  0.12606000  0.85871000  0.10187000  1.0
  H  H13  1  0.87394000  0.35868000  0.89812000  1.0
  H  H14  1  0.85775000  0.78960000  0.21292000  1.0
  H  H15  1  0.14225000  0.28956000  0.78707000  1.0
  H  H16  1  0.98544000  0.84931000  0.36443000  1.0
  H  H17  1  0.01454000  0.34928000  0.63557000  1.0
  H  H18  1  0.38816000  0.97400000  0.40411000  1.0
  H  H19  1  0.61182000  0.47399000  0.59588000  1.0
  H  H20  1  0.64679000  0.05537000  0.29144000  1.0
  H  H21  1  0.35321000  0.55537000  0.70856000  1.0
  H  H22  1  0.55333000  0.57994000  0.15065000  1.0
  H  H23  1  0.44671000  0.07994000  0.84935000  1.0
  H  H24  1  0.77211000  0.52788000  0.29137000  1.0
  H  H25  1  0.22788000  0.02788000  0.70866000  1.0
  H  H26  1  0.53856000  0.66477000  0.29276000  1.0
  H  H27  1  0.46142000  0.16477000  0.70725000  1.0
  H  H28  1  0.73186000  0.28988000  0.36116000  1.0
  H  H29  1  0.26814000  0.78986000  0.63885000  1.0
  H  H30  1  0.55395000  0.15647000  0.47799000  1.0
  H  H31  1  0.44603000  0.65649000  0.52200000  1.0
  H  H32  1  0.17236000  0.24789000  0.53405000  1.0
  H  H33  1  0.82759000  0.74792000  0.46593000  1.0
  H  H34  1  0.97712000  0.48150000  0.47745000  1.0
  H  H35  1  0.02282000  0.98152000  0.52255000  1.0
  H  H36  1  0.16689000  0.61936000  0.36463000  1.0
  H  H37  1  0.83305000  0.11936000  0.63537000  1.0
  C  C38  1  0.20829000  0.10654000  0.01227000  1.0
  C  C39  1  0.79172000  0.60655000  0.98773000  1.0
  C  C40  1  0.44670000  0.14846000  0.06792000  1.0
  C  C41  1  0.55334000  0.64846000  0.93208000  1.0
  C  C42  1  0.55812000  0.01736000  0.12092000  1.0
  C  C43  1  0.44190000  0.51736000  0.87908000  1.0
  C  C44  1  0.40330000  0.96504000  0.18869000  1.0
  C  C45  1  0.59671000  0.46504000  0.81130000  1.0
  C  C46  1  0.18251000  0.88669000  0.16788000  1.0
  C  C47  1  0.81751000  0.38668000  0.83212000  1.0
  C  C48  1  0.03315000  0.84580000  0.23063000  1.0
  C  C49  1  0.96685000  0.34576000  0.76936000  1.0
  C  C50  1  0.10470000  0.87884000  0.31572000  1.0
  C  C51  1  0.89530000  0.37884000  0.68428000  1.0
  C  C52  1  0.32831000  0.95147000  0.33766000  1.0
  C  C53  1  0.67168000  0.45146000  0.66234000  1.0
  C  C54  1  0.47455000  0.99569000  0.27454000  1.0
  C  C55  1  0.52545000  0.49569000  0.72545000  1.0
  C  C56  1  0.56295000  0.35109000  0.16573000  1.0
  C  C57  1  0.43707000  0.85108000  0.83427000  1.0
  C  C58  1  0.47315000  0.50240000  0.19397000  1.0
  C  C59  1  0.52688000  0.00239000  0.80604000  1.0
  C  C60  1  0.57089000  0.54621000  0.28529000  1.0
  C  C61  1  0.42910000  0.04620000  0.71472000  1.0
  C  C62  1  0.45890000  0.46249000  0.35407000  1.0
  C  C63  1  0.54108000  0.96249000  0.64594000  1.0
  C  C64  1  0.56615000  0.33134000  0.38664000  1.0
  C  C65  1  0.43383000  0.83135000  0.61337000  1.0
  C  C66  1  0.46490000  0.25604000  0.45162000  1.0
  C  C67  1  0.53506000  0.75604000  0.54838000  1.0
  C  C68  1  0.25158000  0.30848000  0.48389000  1.0
  C  C69  1  0.74835000  0.80850000  0.51611000  1.0
  C  C70  1  0.14217000  0.43864000  0.45204000  1.0
  C  C71  1  0.85778000  0.93865000  0.54796000  1.0
  C  C72  1  0.24647000  0.51504000  0.38782000  1.0
  C  C73  1  0.75350000  0.01505000  0.61218000  1.0
  N  N74  1  0.39260000  0.27851000  0.11568000  1.0
  N  N75  1  0.60745000  0.77850000  0.88432000  1.0
  N  N76  1  0.20245000  0.51385000  0.17578000  1.0
  N  N77  1  0.79759000  0.01385000  0.82422000  1.0
  O  O78  1  0.20466000  0.98262000  0.97512000  1.0
  O  O79  1  0.79538000  0.48263000  0.02489000  1.0
  O  O80  1  0.02779000  0.19776000  0.00476000  1.0
  O  O81  1  0.97221000  0.69777000  0.99526000  1.0
  O  O82  1  0.78511000  0.31335000  0.18612000  1.0
  O  O83  1  0.21492000  0.81336000  0.81389000  1.0
