# generated using pymatgen
data_CdPH13C15N2O5
_symmetry_space_group_name_H-M   'P 1'
_cell_length_a   8.20650000
_cell_length_b   9.33363000
_cell_length_c   21.85320000
_cell_angle_alpha   89.99810000
_cell_angle_beta   89.99990000
_cell_angle_gamma   90.99410000
_symmetry_Int_Tables_number   1
_chemical_formula_structural   CdPH13C15N2O5
_chemical_formula_sum   'Cd4 P4 H52 C60 N8 O20'
_cell_volume   1673.62526330
_cell_formula_units_Z   4
loop_
 _symmetry_equiv_pos_site_id
 _symmetry_equiv_pos_as_xyz
  1  'x, y, z'
loop_
 _atom_site_type_symbol
 _atom_site_label
 _atom_site_symmetry_multiplicity
 _atom_site_fract_x
 _atom_site_fract_y
 _atom_site_fract_z
 _atom_site_occupancy
  Cd  Cd0  1  0.71584000  0.62662000  0.83040000  1.0
  Cd  Cd1  1  0.28418000  0.87336000  0.33039000  1.0
  Cd  Cd2  1  0.28419000  0.37337000  0.16961000  1.0
  Cd  Cd3  1  0.71582000  0.12663000  0.66959000  1.0
  P  P4  1  0.48173000  0.86909000  0.75811000  1.0
  P  P5  1  0.51825000  0.63091000  0.25811000  1.0
  P  P6  1  0.51825000  0.13090000  0.24188000  1.0
  P  P7  1  0.48174000  0.36908000  0.74188000  1.0
  H  H8  1  0.52959000  0.65890000  0.72025000  1.0
  H  H9  1  0.47045000  0.84106000  0.22025000  1.0
  H  H10  1  0.47041000  0.34106000  0.27974000  1.0
  H  H11  1  0.52957000  0.15890000  0.77974000  1.0
  H  H12  1  0.22780000  0.91883000  0.80645000  1.0
  H  H13  1  0.77224000  0.58115000  0.30646000  1.0
  H  H14  1  0.77225000  0.08114000  0.19355000  1.0
  H  H15  1  0.22775000  0.41886000  0.69355000  1.0
  H  H16  1  0.20810000  0.92474000  0.72613000  1.0
  H  H17  1  0.79195000  0.57526000  0.22613000  1.0
  H  H18  1  0.79191000  0.07525000  0.27388000  1.0
  H  H19  1  0.20809000  0.42472000  0.77388000  1.0
  H  H20  1  0.27287000  0.64429000  0.79299000  1.0
  H  H21  1  0.72713000  0.85571000  0.29300000  1.0
  H  H22  1  0.72713000  0.35568000  0.20699000  1.0
  H  H23  1  0.27287000  0.14430000  0.70701000  1.0
  H  H24  1  0.19964000  0.66391000  0.71823000  1.0
  H  H25  1  0.80036000  0.83609000  0.21823000  1.0
  H  H26  1  0.80032000  0.33608000  0.28176000  1.0
  H  H27  1  0.19964000  0.16391000  0.78177000  1.0
  H  H28  1  0.87237000  0.30106000  0.80910000  1.0
  H  H29  1  0.12762000  0.19889000  0.30910000  1.0
  H  H30  1  0.12763000  0.69894000  0.19090000  1.0
  H  H31  1  0.87236000  0.80107000  0.69089000  1.0
  H  H32  1  0.98541000  0.09984000  0.86978000  1.0
  H  H33  1  0.01458000  0.40016000  0.36977000  1.0
  H  H34  1  0.01460000  0.90016000  0.13023000  1.0
  H  H35  1  0.98539000  0.59985000  0.63023000  1.0
  H  H36  1  0.98594000  0.11951000  0.98542000  1.0
  H  H37  1  0.01403000  0.38050000  0.48541000  1.0
  H  H38  1  0.01407000  0.88052000  0.01459000  1.0
  H  H39  1  0.98594000  0.61948000  0.51459000  1.0
  H  H40  1  0.90477000  0.25786000  0.08008000  1.0
  H  H41  1  0.09524000  0.24215000  0.58007000  1.0
  H  H42  1  0.09526000  0.74217000  0.91993000  1.0
  H  H43  1  0.90477000  0.75786000  0.41991000  1.0
  H  H44  1  0.76178000  0.46194000  0.12459000  1.0
  H  H45  1  0.23822000  0.03807000  0.62459000  1.0
  H  H46  1  0.23820000  0.53808000  0.87542000  1.0
  H  H47  1  0.76178000  0.96193000  0.37540000  1.0
  H  H48  1  0.60080000  0.68842000  0.11128000  1.0
  H  H49  1  0.39921000  0.81163000  0.61129000  1.0
  H  H50  1  0.39919000  0.31160000  0.88873000  1.0
  H  H51  1  0.60077000  0.18839000  0.38872000  1.0
  H  H52  1  0.48904000  0.87078000  0.04004000  1.0
  H  H53  1  0.51099000  0.62923000  0.54005000  1.0
  H  H54  1  0.51095000  0.12922000  0.95997000  1.0
  H  H55  1  0.48905000  0.37079000  0.45995000  1.0
  H  H56  1  0.53405000  0.84047000  0.92568000  1.0
  H  H57  1  0.46601000  0.65954000  0.42569000  1.0
  H  H58  1  0.46591000  0.15951000  0.07431000  1.0
  H  H59  1  0.53404000  0.34049000  0.57430000  1.0
  C  C60  1  0.26151000  0.86415000  0.76391000  1.0
  C  C61  1  0.73847000  0.63586000  0.26391000  1.0
  C  C62  1  0.73848000  0.13587000  0.23609000  1.0
  C  C63  1  0.26151000  0.36413000  0.73610000  1.0
  C  C64  1  0.19458000  0.71103000  0.76413000  1.0
  C  C65  1  0.80545000  0.78900000  0.26414000  1.0
  C  C66  1  0.80545000  0.28899000  0.23586000  1.0
  C  C67  1  0.19455000  0.21102000  0.73586000  1.0
  C  C68  1  0.02208000  0.69438000  0.78856000  1.0
  C  C69  1  0.97792000  0.80564000  0.28856000  1.0
  C  C70  1  0.97792000  0.30561000  0.21145000  1.0
  C  C71  1  0.02205000  0.19438000  0.71145000  1.0
  C  C72  1  0.87256000  0.30563000  0.85888000  1.0
  C  C73  1  0.12744000  0.19436000  0.35888000  1.0
  C  C74  1  0.12741000  0.69438000  0.14113000  1.0
  C  C75  1  0.87256000  0.80565000  0.64113000  1.0
  C  C76  1  0.93749000  0.19286000  0.89353000  1.0
  C  C77  1  0.06252000  0.30714000  0.39352000  1.0
  C  C78  1  0.06253000  0.80715000  0.10648000  1.0
  C  C79  1  0.93744000  0.69288000  0.60648000  1.0
  C  C80  1  0.93512000  0.20328000  0.95664000  1.0
  C  C81  1  0.06487000  0.29673000  0.45663000  1.0
  C  C82  1  0.06489000  0.79674000  0.04337000  1.0
  C  C83  1  0.93510000  0.70327000  0.54337000  1.0
  C  C84  1  0.86395000  0.32314000  0.98505000  1.0
  C  C85  1  0.13602000  0.17687000  0.48505000  1.0
  C  C86  1  0.13604000  0.67687000  0.01495000  1.0
  C  C87  1  0.86396000  0.82313000  0.51495000  1.0
  C  C88  1  0.79959000  0.43031000  0.94614000  1.0
  C  C89  1  0.20041000  0.06968000  0.44614000  1.0
  C  C90  1  0.20041000  0.56967000  0.05388000  1.0
  C  C91  1  0.79960000  0.93032000  0.55386000  1.0
  C  C92  1  0.85120000  0.33793000  0.05006000  1.0
  C  C93  1  0.14880000  0.16209000  0.55005000  1.0
  C  C94  1  0.14881000  0.66209000  0.94995000  1.0
  C  C95  1  0.85119000  0.83790000  0.44994000  1.0
  C  C96  1  0.77342000  0.45214000  0.07512000  1.0
  C  C97  1  0.22659000  0.04788000  0.57512000  1.0
  C  C98  1  0.22657000  0.54787000  0.92489000  1.0
  C  C99  1  0.77342000  0.95212000  0.42488000  1.0
  C  C100  1  0.70458000  0.56125000  0.03771000  1.0
  C  C101  1  0.29542000  0.93875000  0.53771000  1.0
  C  C102  1  0.29540000  0.43876000  0.96229000  1.0
  C  C103  1  0.70457000  0.06125000  0.46229000  1.0
  C  C104  1  0.71986000  0.55238000  0.97303000  1.0
  C  C105  1  0.28015000  0.94762000  0.47303000  1.0
  C  C106  1  0.28012000  0.44762000  0.02698000  1.0
  C  C107  1  0.71986000  0.05238000  0.52697000  1.0
  C  C108  1  0.61959000  0.67896000  0.06194000  1.0
  C  C109  1  0.38040000  0.82103000  0.56195000  1.0
  C  C110  1  0.38037000  0.32104000  0.93806000  1.0
  C  C111  1  0.61962000  0.17898000  0.43805000  1.0
  C  C112  1  0.55711000  0.78025000  0.02253000  1.0
  C  C113  1  0.44290000  0.71974000  0.52256000  1.0
  C  C114  1  0.44289000  0.21976000  0.97747000  1.0
  C  C115  1  0.55713000  0.28027000  0.47744000  1.0
  C  C116  1  0.58028000  0.76431000  0.95912000  1.0
  C  C117  1  0.41974000  0.73569000  0.45914000  1.0
  C  C118  1  0.41971000  0.23570000  0.04088000  1.0
  C  C119  1  0.58030000  0.26433000  0.54086000  1.0
  N  N120  1  0.80704000  0.42039000  0.88443000  1.0
  N  N121  1  0.19294000  0.07961000  0.38443000  1.0
  N  N122  1  0.19296000  0.57962000  0.11558000  1.0
  N  N123  1  0.80705000  0.92040000  0.61556000  1.0
  N  N124  1  0.65893000  0.65377000  0.93550000  1.0
  N  N125  1  0.34108000  0.84623000  0.43551000  1.0
  N  N126  1  0.34108000  0.34624000  0.06450000  1.0
  N  N127  1  0.65895000  0.15378000  0.56450000  1.0
  O  O128  1  0.55238000  0.81815000  0.81842000  1.0
  O  O129  1  0.44764000  0.68183000  0.31842000  1.0
  O  O130  1  0.44763000  0.18183000  0.18157000  1.0
  O  O131  1  0.55236000  0.31815000  0.68157000  1.0
  O  O132  1  0.52591000  0.76081000  0.70370000  1.0
  O  O133  1  0.47413000  0.73917000  0.20371000  1.0
  O  O134  1  0.47406000  0.23916000  0.29629000  1.0
  O  O135  1  0.52588000  0.26080000  0.79629000  1.0
  O  O136  1  0.53499000  0.01900000  0.73697000  1.0
  O  O137  1  0.46508000  0.48099000  0.23699000  1.0
  O  O138  1  0.46505000  0.98097000  0.26300000  1.0
  O  O139  1  0.53498000  0.51900000  0.76301000  1.0
  O  O140  1  0.97662000  0.76811000  0.83409000  1.0
  O  O141  1  0.02338000  0.73189000  0.33409000  1.0
  O  O142  1  0.02339000  0.23189000  0.16591000  1.0
  O  O143  1  0.97659000  0.26810000  0.66591000  1.0
  O  O144  1  0.92964000  0.60047000  0.76245000  1.0
  O  O145  1  0.07036000  0.89954000  0.26245000  1.0
  O  O146  1  0.07037000  0.39953000  0.23754000  1.0
  O  O147  1  0.92962000  0.10045000  0.73754000  1.0
