# generated using pymatgen
data_CdH4C8S2N5
_symmetry_space_group_name_H-M   'P 1'
_cell_length_a   9.72520000
_cell_length_b   9.73780000
_cell_length_c   13.96230000
_cell_angle_alpha   82.94110000
_cell_angle_beta   82.94640000
_cell_angle_gamma   84.10360000
_symmetry_Int_Tables_number   1
_chemical_formula_structural   CdH4C8S2N5
_chemical_formula_sum   'Cd4 H16 C32 S8 N20'
_cell_volume   1297.13885294
_cell_formula_units_Z   4
loop_
 _symmetry_equiv_pos_site_id
 _symmetry_equiv_pos_as_xyz
  1  'x, y, z'
loop_
 _atom_site_type_symbol
 _atom_site_label
 _atom_site_symmetry_multiplicity
 _atom_site_fract_x
 _atom_site_fract_y
 _atom_site_fract_z
 _atom_site_occupancy
  Cd  Cd0  1  0.26241000  0.85799000  0.51633000  1.0
  Cd  Cd1  1  0.14195000  0.73749000  0.98363000  1.0
  Cd  Cd2  1  0.73754000  0.14201000  0.48367000  1.0
  Cd  Cd3  1  0.85809000  0.26244000  0.01636000  1.0
  H  H4  1  0.17510000  0.76399000  0.33423000  1.0
  H  H5  1  0.23564000  0.82495000  0.16581000  1.0
  H  H6  1  0.82496000  0.23600000  0.66573000  1.0
  H  H7  1  0.76440000  0.17512000  0.83416000  1.0
  H  H8  1  0.12085000  0.57259000  0.24472000  1.0
  H  H9  1  0.42729000  0.87920000  0.25530000  1.0
  H  H10  1  0.87932000  0.42737000  0.75522000  1.0
  H  H11  1  0.57273000  0.12094000  0.74466000  1.0
  H  H12  1  0.12363000  0.33119000  0.32869000  1.0
  H  H13  1  0.66901000  0.87618000  0.17142000  1.0
  H  H14  1  0.87646000  0.66880000  0.67128000  1.0
  H  H15  1  0.33102000  0.12390000  0.82856000  1.0
  H  H16  1  0.18817000  0.28873000  0.50045000  1.0
  H  H17  1  0.71162000  0.81137000  0.99972000  1.0
  H  H18  1  0.81173000  0.71129000  0.49956000  1.0
  H  H19  1  0.28843000  0.18863000  0.00027000  1.0
  C  C20  1  0.18006000  0.65660000  0.36797000  1.0
  C  C21  1  0.34319000  0.81990000  0.13210000  1.0
  C  C22  1  0.81996000  0.34341000  0.63200000  1.0
  C  C23  1  0.65685000  0.18013000  0.86789000  1.0
  C  C24  1  0.14758000  0.55011000  0.31872000  1.0
  C  C25  1  0.44980000  0.85241000  0.18133000  1.0
  C  C26  1  0.85249000  0.44988000  0.68125000  1.0
  C  C27  1  0.55023000  0.14767000  0.81865000  1.0
  C  C28  1  0.14952000  0.41567000  0.36549000  1.0
  C  C29  1  0.58444000  0.85035000  0.13460000  1.0
  C  C30  1  0.85051000  0.58433000  0.63449000  1.0
  C  C31  1  0.41560000  0.14970000  0.86539000  1.0
  C  C32  1  0.18575000  0.39186000  0.45990000  1.0
  C  C33  1  0.60835000  0.81393000  0.04025000  1.0
  C  C34  1  0.81418000  0.60816000  0.54011000  1.0
  C  C35  1  0.39171000  0.18606000  0.95975000  1.0
  C  C36  1  0.22186000  0.50382000  0.50281000  1.0
  C  C37  1  0.49627000  0.77772000  0.99738000  1.0
  C  C38  1  0.77800000  0.49621000  0.49721000  1.0
  C  C39  1  0.50379000  0.22226000  0.00263000  1.0
  C  C40  1  0.26642000  0.47486000  0.59794000  1.0
  C  C41  1  0.52531000  0.73288000  0.90234000  1.0
  C  C42  1  0.73330000  0.52520000  0.40211000  1.0
  C  C43  1  0.47476000  0.26704000  0.09768000  1.0
  C  C44  1  0.93354000  0.91418000  0.61198000  1.0
  C  C45  1  0.08590000  0.06633000  0.88809000  1.0
  C  C46  1  0.06641000  0.08584000  0.38803000  1.0
  C  C47  1  0.91415000  0.93359000  0.11192000  1.0
  C  C48  1  0.58510000  0.86793000  0.43434000  1.0
  C  C49  1  0.13201000  0.41489000  0.06575000  1.0
  C  C50  1  0.41485000  0.13208000  0.56566000  1.0
  C  C51  1  0.86802000  0.58505000  0.93426000  1.0
  S  S52  1  0.22466000  0.02556000  0.35290000  1.0
  S  S53  1  0.97425000  0.77542000  0.14704000  1.0
  S  S54  1  0.77527000  0.97443000  0.64710000  1.0
  S  S55  1  0.02579000  0.22449000  0.85297000  1.0
  S  S56  1  0.27814000  0.06974000  0.62788000  1.0
  S  S57  1  0.93024000  0.72176000  0.87211000  1.0
  S  S58  1  0.72180000  0.93027000  0.37213000  1.0
  S  S59  1  0.06980000  0.27817000  0.12789000  1.0
  N  N60  1  0.21831000  0.63587000  0.45821000  1.0
  N  N61  1  0.36404000  0.78143000  0.04194000  1.0
  N  N62  1  0.78161000  0.36415000  0.54179000  1.0
  N  N63  1  0.63601000  0.21855000  0.95807000  1.0
  N  N64  1  0.28852000  0.73307000  0.70991000  1.0
  N  N65  1  0.26702000  0.71164000  0.79011000  1.0
  N  N66  1  0.71155000  0.26697000  0.29008000  1.0
  N  N67  1  0.73304000  0.28837000  0.20987000  1.0
  N  N68  1  0.30288000  0.44037000  0.67455000  1.0
  N  N69  1  0.55979000  0.69634000  0.82577000  1.0
  N  N70  1  0.69678000  0.55968000  0.32553000  1.0
  N  N71  1  0.44026000  0.30355000  0.17426000  1.0
  N  N72  1  0.04580000  0.86178000  0.58896000  1.0
  N  N73  1  0.13823000  0.95414000  0.91112000  1.0
  N  N74  1  0.95415000  0.13826000  0.41106000  1.0
  N  N75  1  0.86183000  0.04579000  0.08888000  1.0
  N  N76  1  0.48859000  0.81801000  0.48083000  1.0
  N  N77  1  0.18182000  0.51141000  0.01932000  1.0
  N  N78  1  0.51136000  0.18200000  0.51918000  1.0
  N  N79  1  0.81821000  0.48853000  0.98070000  1.0
