# generated using pymatgen
data_H13PbC10N2ClO4
_symmetry_space_group_name_H-M   'P 1'
_cell_length_a   7.31784000
_cell_length_b   7.43324000
_cell_length_c   13.15490000
_cell_angle_alpha   89.35040000
_cell_angle_beta   76.50420000
_cell_angle_gamma   67.09440000
_symmetry_Int_Tables_number   1
_chemical_formula_structural   H13PbC10N2ClO4
_chemical_formula_sum   'H26 Pb2 C20 N4 Cl2 O8'
_cell_volume   638.41005285
_cell_formula_units_Z   2
loop_
 _symmetry_equiv_pos_site_id
 _symmetry_equiv_pos_as_xyz
  1  'x, y, z'
loop_
 _atom_site_type_symbol
 _atom_site_label
 _atom_site_symmetry_multiplicity
 _atom_site_fract_x
 _atom_site_fract_y
 _atom_site_fract_z
 _atom_site_occupancy
  H  H0  1  0.63967000  0.82695000  0.66913000  1.0
  H  H1  1  0.36033000  0.17305000  0.33086000  1.0
  H  H2  1  0.85159000  0.84681000  0.68542000  1.0
  H  H3  1  0.14841000  0.15319000  0.31458000  1.0
  H  H4  1  0.97787000  0.97872000  0.75782000  1.0
  H  H5  1  0.02211000  0.02128000  0.24219000  1.0
  H  H6  1  0.93366000  0.14828000  0.85749000  1.0
  H  H7  1  0.06635000  0.85167000  0.14252000  1.0
  H  H8  1  0.62352000  0.29524000  0.98726000  1.0
  H  H9  1  0.37648000  0.70474000  0.01274000  1.0
  H  H10  1  0.09811000  0.20017000  0.95187000  1.0
  H  H11  1  0.90188000  0.79986000  0.04812000  1.0
  H  H12  1  0.30898000  0.99701000  0.78143000  1.0
  H  H13  1  0.69102000  0.00299000  0.21857000  1.0
  H  H14  1  0.53770000  0.40351000  0.18097000  1.0
  H  H15  1  0.46231000  0.59650000  0.81903000  1.0
  H  H16  1  0.81211000  0.32272000  0.15588000  1.0
  H  H17  1  0.18789000  0.67729000  0.84413000  1.0
  H  H18  1  0.64538000  0.56033000  0.21712000  1.0
  H  H19  1  0.35462000  0.43967000  0.78288000  1.0
  H  H20  1  0.92478000  0.47541000  0.40966000  1.0
  H  H21  1  0.07523000  0.52459000  0.59035000  1.0
  H  H22  1  0.13946000  0.52611000  0.34365000  1.0
  H  H23  1  0.86056000  0.47388000  0.65636000  1.0
  H  H24  1  0.92378000  0.57680000  0.28731000  1.0
  H  H25  1  0.07624000  0.42318000  0.71270000  1.0
  Pb  Pb26  1  0.67003000  0.17701000  0.53525000  1.0
  Pb  Pb27  1  0.32995000  0.82300000  0.46475000  1.0
  C  C28  1  0.58387000  0.02749000  0.79016000  1.0
  C  C29  1  0.41612000  0.97251000  0.20984000  1.0
  C  C30  1  0.67481000  0.11525000  0.84734000  1.0
  C  C31  1  0.32519000  0.88475000  0.15266000  1.0
  C  C32  1  0.55507000  0.22844000  0.94227000  1.0
  C  C33  1  0.44492000  0.77156000  0.05772000  1.0
  C  C34  1  0.35052000  0.25748000  0.97798000  1.0
  C  C35  1  0.64948000  0.74253000  0.02202000  1.0
  C  C36  1  0.25862000  0.17476000  0.92190000  1.0
  C  C37  1  0.74137000  0.82525000  0.07810000  1.0
  C  C38  1  0.37749000  0.06067000  0.82807000  1.0
  C  C39  1  0.62251000  0.93933000  0.17193000  1.0
  C  C40  1  0.65425000  0.33251000  0.31862000  1.0
  C  C41  1  0.34575000  0.66750000  0.68138000  1.0
  C  C42  1  0.66449000  0.40615000  0.21091000  1.0
  C  C43  1  0.33551000  0.59387000  0.78908000  1.0
  C  C44  1  0.86852000  0.77766000  0.41723000  1.0
  C  C45  1  0.13150000  0.22234000  0.58277000  1.0
  C  C46  1  0.97262000  0.57706000  0.35989000  1.0
  C  C47  1  0.02739000  0.42294000  0.64012000  1.0
  N  N48  1  0.69786000  0.91993000  0.69242000  1.0
  N  N49  1  0.30214000  0.08007000  0.30758000  1.0
  N  N50  1  0.87372000  0.09754000  0.80804000  1.0
  N  N51  1  0.12628000  0.90245000  0.19195000  1.0
  Cl  Cl52  1  0.20643000  0.40203000  0.09489000  1.0
  Cl  Cl53  1  0.79356000  0.59797000  0.90511000  1.0
  O  O54  1  0.82110000  0.22040000  0.34152000  1.0
  O  O55  1  0.17891000  0.77961000  0.65848000  1.0
  O  O56  1  0.48036000  0.38609000  0.38466000  1.0
  O  O57  1  0.51963000  0.61392000  0.61535000  1.0
  O  O58  1  0.68256000  0.88400000  0.41835000  1.0
  O  O59  1  0.31746000  0.11600000  0.58165000  1.0
  O  O60  1  0.96512000  0.84064000  0.46748000  1.0
  O  O61  1  0.03490000  0.15936000  0.53252000  1.0
