# generated using pymatgen
data_Zn4H38C59O16
_symmetry_space_group_name_H-M   'P 1'
_cell_length_a   15.45160000
_cell_length_b   15.72910000
_cell_length_c   17.61580000
_cell_angle_alpha   70.90590000
_cell_angle_beta   89.24490000
_cell_angle_gamma   69.05310000
_symmetry_Int_Tables_number   1
_chemical_formula_structural   Zn4H38C59O16
_chemical_formula_sum   'Zn4 H38 C59 O16'
_cell_volume   3752.20474332
_cell_formula_units_Z   1
loop_
 _symmetry_equiv_pos_site_id
 _symmetry_equiv_pos_as_xyz
  1  'x, y, z'
loop_
 _atom_site_type_symbol
 _atom_site_label
 _atom_site_symmetry_multiplicity
 _atom_site_fract_x
 _atom_site_fract_y
 _atom_site_fract_z
 _atom_site_occupancy
  Zn  Zn0  1  0.42999000  0.55996000  0.56936000  1.0
  Zn  Zn1  1  0.54471000  0.58384000  0.42042000  1.0
  Zn  Zn2  1  0.42662000  0.44748000  0.45503000  1.0
  Zn  Zn3  1  0.61719000  0.37852000  0.56997000  1.0
  H  H4  1  0.74502000  0.34572000  0.06727000  1.0
  H  H5  1  0.29224000  0.84585000  0.48738000  1.0
  H  H6  1  0.54414000  0.51024000  0.19642000  1.0
  H  H7  1  0.27005000  0.15044000  0.49610000  1.0
  H  H8  1  0.23737000  0.01210000  0.49575000  1.0
  H  H9  1  0.57457000  0.83183000  0.48927000  1.0
  H  H10  1  0.71564000  0.11468000  0.55972000  1.0
  H  H11  1  0.65965000  0.87402000  0.54057000  1.0
  H  H12  1  0.77178000  0.94193000  0.56848000  1.0
  H  H13  1  0.26172000  0.69544000  0.19652000  1.0
  H  H14  1  0.29272000  0.73201000  0.91847000  1.0
  H  H15  1  0.23279000  0.73876000  0.04718000  1.0
  H  H16  1  0.78366000  0.30322000  0.94525000  1.0
  H  H17  1  0.73772000  0.32203000  0.80340000  1.0
  H  H18  1  0.47373000  0.53899000  0.80069000  1.0
  H  H19  1  0.63273000  0.43465000  0.13972000  1.0
  H  H20  1  0.19292000  0.62399000  0.76348000  1.0
  H  H21  1  0.08220000  0.66137000  0.70759000  1.0
  H  H22  1  0.25337000  0.70239000  0.64101000  1.0
  H  H23  1  0.15065000  0.73023000  0.57981000  1.0
  H  H24  1  0.05741000  0.84248000  0.65205000  1.0
  H  H25  1  0.15170000  0.87527000  0.61182000  1.0
  H  H26  1  0.80265000  0.46975000  0.32085000  1.0
  H  H27  1  0.16070000  0.81092000  0.71634000  1.0
  H  H28  1  0.27685000  0.38691000  0.43384000  1.0
  H  H29  1  0.23285000  0.29638000  0.43940000  1.0
  H  H30  1  0.39274000  0.32544000  0.34209000  1.0
  H  H31  1  0.34027000  0.24210000  0.34257000  1.0
  H  H32  1  0.18543000  0.38448000  0.28170000  1.0
  H  H33  1  0.27548000  0.38772000  0.21848000  1.0
  H  H34  1  0.24394000  0.46507000  0.27663000  1.0
  H  H35  1  0.47388000  0.67847000  0.79127000  1.0
  H  H36  1  0.08163000  0.53510000  0.30805000  1.0
  H  H37  1  0.94774000  0.49890000  0.27927000  1.0
  H  H38  1  0.86950000  0.45606000  0.56107000  1.0
  H  H39  1  0.93321000  0.50773000  0.62495000  1.0
  H  H40  1  0.03102000  0.54038000  0.71223000  1.0
  H  H41  1  0.18739000  0.54706000  0.40280000  1.0
  C  C42  1  0.73964000  0.44979000  0.46559000  1.0
  C  C43  1  0.42282000  0.62942000  0.90901000  1.0
  C  C44  1  0.35609000  0.67169000  0.95209000  1.0
  C  C45  1  0.26667000  0.52135000  0.54351000  1.0
  C  C46  1  0.37052000  0.64380000  0.03736000  1.0
  C  C47  1  0.45961000  0.57504000  0.07930000  1.0
  C  C48  1  0.30014000  0.68676000  0.08057000  1.0
  C  C49  1  0.31620000  0.66360000  0.16295000  1.0
  C  C50  1  0.47598000  0.55793000  0.16262000  1.0
  C  C51  1  0.92965000  0.49093000  0.34068000  1.0
  C  C52  1  0.82972000  0.46050000  0.44407000  1.0
  C  C53  1  0.69168000  0.36705000  0.83438000  1.0
  C  C54  1  0.13887000  0.54038000  0.63329000  1.0
  C  C55  1  0.05232000  0.53390000  0.65447000  1.0
  C  C56  1  0.99818000  0.51504000  0.60540000  1.0
  C  C57  1  0.46261000  0.73597000  0.47575000  1.0
  C  C58  1  0.02423000  0.50750000  0.52992000  1.0
  C  C59  1  0.10892000  0.51956000  0.50567000  1.0
  C  C60  1  0.96611000  0.49148000  0.47610000  1.0
  C  C61  1  0.98816000  0.50122000  0.39543000  1.0
  C  C62  1  0.06794000  0.52371000  0.37077000  1.0
  C  C63  1  0.12687000  0.53038000  0.42367000  1.0
  C  C64  1  0.54302000  0.49254000  0.83251000  1.0
  C  C65  1  0.88756000  0.46755000  0.49948000  1.0
  C  C66  1  0.85024000  0.47361000  0.36354000  1.0
  C  C67  1  0.16966000  0.52883000  0.56067000  1.0
  C  C68  1  0.31136000  0.97154000  0.49580000  1.0
  C  C69  1  0.55466000  0.24845000  0.51783000  1.0
  C  C70  1  0.43673000  0.83155000  0.48591000  1.0
  C  C71  1  0.66642000  0.08434000  0.54735000  1.0
  C  C72  1  0.69785000  0.98743000  0.55203000  1.0
  C  C73  1  0.63474000  0.94978000  0.53613000  1.0
  C  C74  1  0.53831000  0.00616000  0.51734000  1.0
  C  C75  1  0.56824000  0.48779000  0.91087000  1.0
  C  C76  1  0.50509000  0.10564000  0.51393000  1.0
  C  C77  1  0.47367000  0.96259000  0.50396000  1.0
  C  C78  1  0.37620000  0.01479000  0.50086000  1.0
  C  C79  1  0.34493000  0.11094000  0.50056000  1.0
  C  C80  1  0.40478000  0.15722000  0.50209000  1.0
  C  C81  1  0.42630000  0.57781000  0.29254000  1.0
  C  C82  1  0.50171000  0.87200000  0.49291000  1.0
  C  C83  1  0.34101000  0.88064000  0.49033000  1.0
  C  C84  1  0.57240000  0.14468000  0.52662000  1.0
  C  C85  1  0.57212000  0.44532000  0.71065000  1.0
  C  C86  1  0.65611000  0.41561000  0.95274000  1.0
  C  C87  1  0.60320000  0.43487000  0.79413000  1.0
  C  C88  1  0.40577000  0.60041000  0.20368000  1.0
  C  C89  1  0.71676000  0.35746000  0.91251000  1.0
  C  C90  1  0.15793000  0.64057000  0.70361000  1.0
  C  C91  1  0.17755000  0.72238000  0.64032000  1.0
  C  C92  1  0.13400000  0.81798000  0.65619000  1.0
  C  C93  1  0.29520000  0.31531000  0.42877000  1.0
  C  C94  1  0.32634000  0.31412000  0.34657000  1.0
  C  C95  1  0.25355000  0.39219000  0.27707000  1.0
  C  C96  1  0.40877000  0.68184000  0.82028000  1.0
  C  C97  1  0.50675000  0.54838000  0.95112000  1.0
  C  C98  1  0.52771000  0.52546000  0.03536000  1.0
  C  C99  1  0.61531000  0.45168000  0.07542000  1.0
  C  C100  1  0.67822000  0.40098000  0.03535000  1.0
  O  O101  1  0.50818000  0.48942000  0.50501000  1.0
  O  O102  1  0.48405000  0.60955000  0.31268000  1.0
  O  O103  1  0.62247000  0.38260000  0.68126000  1.0
  O  O104  1  0.38434000  0.52843000  0.33930000  1.0
  O  O105  1  0.49680000  0.51788000  0.67572000  1.0
  O  O106  1  0.19397000  0.54992000  0.68771000  1.0
  O  O107  1  0.36967000  0.25265000  0.49443000  1.0
  O  O108  1  0.33219000  0.73186000  0.78041000  1.0
  O  O109  1  0.40421000  0.69419000  0.49638000  1.0
  O  O110  1  0.59851000  0.25930000  0.57319000  1.0
  O  O111  1  0.67125000  0.49951000  0.40958000  1.0
  O  O112  1  0.30990000  0.46283000  0.50687000  1.0
  O  O113  1  0.73565000  0.39475000  0.53635000  1.0
  O  O114  1  0.30096000  0.57120000  0.56824000  1.0
  O  O115  1  0.53796000  0.70013000  0.44594000  1.0
  O  O116  1  0.50517000  0.31695000  0.45492000  1.0
