# generated using pymatgen
data_Cu2H14C20I2N4Cl
_symmetry_space_group_name_H-M   'P 1'
_cell_length_a   8.96252000
_cell_length_b   9.24582000
_cell_length_c   13.43640000
_cell_angle_alpha   72.74220000
_cell_angle_beta   77.90640000
_cell_angle_gamma   85.39660000
_symmetry_Int_Tables_number   1
_chemical_formula_structural   Cu2H14C20I2N4Cl
_chemical_formula_sum   'Cu4 H28 C40 I4 N8 Cl2'
_cell_volume   1039.49866140
_cell_formula_units_Z   2
loop_
 _symmetry_equiv_pos_site_id
 _symmetry_equiv_pos_as_xyz
  1  'x, y, z'
loop_
 _atom_site_type_symbol
 _atom_site_label
 _atom_site_symmetry_multiplicity
 _atom_site_fract_x
 _atom_site_fract_y
 _atom_site_fract_z
 _atom_site_occupancy
  Cu  Cu0  1  0.33322000  0.37775000  0.11366000  1.0
  Cu  Cu1  1  0.66675000  0.62223000  0.88635000  1.0
  Cu  Cu2  1  0.04600000  0.14090000  0.44089000  1.0
  Cu  Cu3  1  0.95400000  0.85907000  0.55911000  1.0
  H  H4  1  0.42808000  0.07652000  0.05857000  1.0
  H  H5  1  0.57192000  0.92343000  0.94146000  1.0
  H  H6  1  0.61974000  0.86463000  0.11137000  1.0
  H  H7  1  0.38030000  0.13535000  0.88866000  1.0
  H  H8  1  0.77465000  0.88055000  0.24291000  1.0
  H  H9  1  0.22538000  0.11947000  0.75711000  1.0
  H  H10  1  0.73995000  0.10520000  0.31338000  1.0
  H  H11  1  0.26005000  0.89483000  0.68663000  1.0
  H  H12  1  0.73941000  0.33843000  0.32677000  1.0
  H  H13  1  0.26060000  0.66159000  0.67320000  1.0
  H  H14  1  0.43862000  0.73185000  0.30939000  1.0
  H  H15  1  0.56138000  0.26814000  0.69060000  1.0
  H  H16  1  0.23936000  0.84449000  0.24251000  1.0
  H  H17  1  0.76066000  0.15552000  0.75748000  1.0
  H  H18  1  0.04190000  0.96655000  0.13942000  1.0
  H  H19  1  0.95814000  0.03349000  0.86058000  1.0
  H  H20  1  0.96752000  0.83817000  0.01310000  1.0
  H  H21  1  0.03247000  0.16186000  0.98692000  1.0
  H  H22  1  0.10439000  0.59919000  0.99438000  1.0
  H  H23  1  0.89554000  0.40082000  0.00565000  1.0
  H  H24  1  0.91144000  0.52011000  0.32338000  1.0
  H  H25  1  0.08858000  0.47990000  0.67660000  1.0
  H  H26  1  0.04575000  0.64750000  0.41882000  1.0
  H  H27  1  0.95426000  0.35249000  0.58117000  1.0
  H  H28  1  0.63937000  0.81014000  0.56190000  1.0
  H  H29  1  0.36063000  0.18984000  0.43809000  1.0
  H  H30  1  0.48812000  0.69628000  0.47136000  1.0
  H  H31  1  0.51189000  0.30372000  0.52862000  1.0
  C  C32  1  0.50301000  0.07851000  0.11241000  1.0
  C  C33  1  0.49699000  0.92147000  0.88761000  1.0
  C  C34  1  0.60709000  0.96159000  0.14334000  1.0
  C  C35  1  0.39293000  0.03839000  0.85668000  1.0
  C  C36  1  0.69393000  0.97099000  0.21602000  1.0
  C  C37  1  0.30609000  0.02901000  0.78399000  1.0
  C  C38  1  0.67615000  0.09664000  0.25471000  1.0
  C  C39  1  0.32385000  0.90337000  0.74530000  1.0
  C  C40  1  0.57471000  0.21243000  0.21634000  1.0
  C  C41  1  0.42528000  0.78757000  0.78366000  1.0
  C  C42  1  0.55113000  0.35428000  0.24602000  1.0
  C  C43  1  0.44886000  0.64572000  0.75397000  1.0
  C  C44  1  0.64047000  0.40473000  0.30202000  1.0
  C  C45  1  0.35954000  0.59528000  0.69795000  1.0
  C  C46  1  0.59900000  0.54118000  0.32707000  1.0
  C  C47  1  0.40101000  0.45883000  0.67291000  1.0
  C  C48  1  0.47260000  0.62491000  0.29180000  1.0
  C  C49  1  0.52739000  0.37509000  0.70819000  1.0
  C  C50  1  0.39599000  0.57372000  0.22894000  1.0
  C  C51  1  0.60399000  0.42628000  0.77106000  1.0
  C  C52  1  0.27738000  0.65774000  0.17260000  1.0
  C  C53  1  0.72260000  0.34226000  0.82740000  1.0
  C  C54  1  0.20891000  0.79351000  0.18603000  1.0
  C  C55  1  0.79110000  0.20650000  0.81397000  1.0
  C  C56  1  0.09682000  0.86129000  0.12813000  1.0
  C  C57  1  0.90319000  0.13874000  0.87187000  1.0
  C  C58  1  0.05687000  0.79258000  0.05824000  1.0
  C  C59  1  0.94312000  0.20744000  0.94177000  1.0
  C  C60  1  0.13098000  0.65765000  0.04796000  1.0
  C  C61  1  0.86898000  0.34235000  0.95206000  1.0
  C  C62  1  0.68670000  0.59958000  0.38763000  1.0
  C  C63  1  0.31331000  0.40043000  0.61234000  1.0
  C  C64  1  0.84603000  0.58297000  0.37581000  1.0
  C  C65  1  0.15398000  0.41704000  0.62416000  1.0
  C  C66  1  0.92162000  0.65312000  0.42901000  1.0
  C  C67  1  0.07838000  0.34688000  0.57098000  1.0
  C  C68  1  0.69528000  0.74436000  0.50885000  1.0
  C  C69  1  0.30473000  0.25563000  0.49114000  1.0
  C  C70  1  0.61175000  0.68073000  0.45734000  1.0
  C  C71  1  0.38825000  0.31927000  0.54264000  1.0
  I  I72  1  0.05613000  0.23632000  0.23854000  1.0
  I  I73  1  0.94387000  0.76366000  0.76146000  1.0
  I  I74  1  0.23516000  0.89401000  0.45583000  1.0
  I  I75  1  0.76484000  0.10598000  0.54417000  1.0
  N  N76  1  0.48861000  0.20160000  0.14682000  1.0
  N  N77  1  0.51139000  0.79838000  0.85319000  1.0
  N  N78  1  0.43351000  0.43901000  0.21074000  1.0
  N  N79  1  0.56647000  0.56098000  0.78926000  1.0
  N  N80  1  0.23830000  0.59222000  0.10362000  1.0
  N  N81  1  0.76166000  0.40778000  0.89639000  1.0
  N  N82  1  0.84900000  0.73454000  0.49399000  1.0
  N  N83  1  0.15101000  0.26544000  0.50601000  1.0
  Cl  Cl84  1  0.28363000  0.34843000  0.96468000  1.0
  Cl  Cl85  1  0.71636000  0.65156000  0.03532000  1.0
