# generated using pymatgen
data_AlH16C24NO8
_symmetry_space_group_name_H-M   'P 1'
_cell_length_a   6.61529000
_cell_length_b   16.91890000
_cell_length_c   26.80600000
_cell_angle_alpha   86.56630000
_cell_angle_beta   87.96100000
_cell_angle_gamma   89.50880000
_symmetry_Int_Tables_number   1
_chemical_formula_structural   AlH16C24NO8
_chemical_formula_sum   'Al4 H64 C96 N4 O32'
_cell_volume   2992.87477501
_cell_formula_units_Z   4
loop_
 _symmetry_equiv_pos_site_id
 _symmetry_equiv_pos_as_xyz
  1  'x, y, z'
loop_
 _atom_site_type_symbol
 _atom_site_label
 _atom_site_symmetry_multiplicity
 _atom_site_fract_x
 _atom_site_fract_y
 _atom_site_fract_z
 _atom_site_occupancy
  Al  Al0  1  0.17435000  0.25409000  0.00069000  1.0
  Al  Al1  1  0.82561000  0.74594000  0.99931000  1.0
  Al  Al2  1  0.67422000  0.25059000  0.00028000  1.0
  Al  Al3  1  0.32576000  0.74944000  0.99973000  1.0
  H  H4  1  0.76814000  0.51050000  0.99696000  1.0
  H  H5  1  0.23179000  0.48952000  0.00303000  1.0
  H  H6  1  0.27576000  0.99690000  0.98597000  1.0
  H  H7  1  0.72423000  0.00310000  0.01403000  1.0
  H  H8  1  0.36918000  0.87951000  0.85988000  1.0
  H  H9  1  0.63080000  0.12049000  0.14012000  1.0
  H  H10  1  0.83626000  0.60757000  0.13543000  1.0
  H  H11  1  0.16370000  0.39244000  0.86456000  1.0
  H  H12  1  0.35934000  0.93242000  0.77028000  1.0
  H  H13  1  0.64067000  0.06755000  0.22971000  1.0
  H  H14  1  0.80437000  0.55511000  0.22522000  1.0
  H  H15  1  0.19560000  0.44488000  0.77478000  1.0
  H  H16  1  0.85658000  0.11438000  0.65765000  1.0
  H  H17  1  0.14342000  0.88561000  0.34234000  1.0
  H  H18  1  0.36125000  0.37319000  0.34822000  1.0
  H  H19  1  0.63875000  0.62680000  0.65178000  1.0
  H  H20  1  0.19441000  0.23930000  0.15620000  1.0
  H  H21  1  0.80557000  0.76069000  0.84380000  1.0
  H  H22  1  0.73589000  0.27351000  0.84862000  1.0
  H  H23  1  0.26405000  0.72651000  0.15138000  1.0
  H  H24  1  0.66124000  0.21108000  0.40793000  1.0
  H  H25  1  0.33882000  0.78893000  0.59206000  1.0
  H  H26  1  0.40981000  0.25868000  0.60244000  1.0
  H  H27  1  0.59021000  0.74131000  0.39756000  1.0
  H  H28  1  0.69022000  0.16950000  0.49727000  1.0
  H  H29  1  0.30990000  0.83051000  0.50272000  1.0
  H  H30  1  0.42713000  0.29355000  0.51305000  1.0
  H  H31  1  0.57293000  0.70644000  0.48696000  1.0
  H  H32  1  0.29678000  0.30928000  0.22902000  1.0
  H  H33  1  0.45527000  0.23190000  0.20490000  1.0
  H  H34  1  0.47330000  0.25565000  0.26840000  1.0
  H  H35  1  0.54472000  0.76811000  0.79510000  1.0
  H  H36  1  0.70317000  0.69070000  0.77099000  1.0
  H  H37  1  0.52669000  0.74433000  0.73160000  1.0
  H  H38  1  0.86199000  0.20532000  0.77471000  1.0
  H  H39  1  0.01311000  0.28078000  0.79972000  1.0
  H  H40  1  0.04988000  0.25856000  0.73587000  1.0
  H  H41  1  0.98687000  0.71922000  0.20029000  1.0
  H  H42  1  0.13796000  0.79467000  0.22531000  1.0
  H  H43  1  0.95012000  0.74143000  0.26414000  1.0
  H  H44  1  0.81557000  0.23911000  0.64354000  1.0
  H  H45  1  0.07222000  0.23038000  0.62277000  1.0
  H  H46  1  0.91745000  0.30779000  0.59733000  1.0
  H  H47  1  0.93636000  0.21451000  0.53349000  1.0
  H  H48  1  0.69466000  0.20654000  0.56186000  1.0
  H  H49  1  0.92781000  0.76961000  0.37723000  1.0
  H  H50  1  0.18449000  0.76088000  0.35646000  1.0
  H  H51  1  0.08254000  0.69221000  0.40268000  1.0
  H  H52  1  0.30541000  0.79346000  0.43814000  1.0
  H  H53  1  0.06371000  0.78549000  0.46651000  1.0
  H  H54  1  0.09832000  0.29433000  0.37879000  1.0
  H  H55  1  0.33945000  0.25184000  0.36496000  1.0
  H  H56  1  0.17216000  0.20354000  0.40945000  1.0
  H  H57  1  0.43975000  0.26528000  0.45254000  1.0
  H  H58  1  0.20170000  0.30403000  0.46923000  1.0
  H  H59  1  0.66052000  0.74816000  0.63504000  1.0
  H  H60  1  0.90166000  0.70568000  0.62122000  1.0
  H  H61  1  0.82784000  0.79645000  0.59056000  1.0
  H  H62  1  0.79832000  0.69597000  0.53078000  1.0
  H  H63  1  0.56025000  0.73471000  0.54746000  1.0
  H  H64  1  0.41797000  0.27544000  0.06295000  1.0
  H  H65  1  0.58195000  0.72459000  0.93705000  1.0
  H  H66  1  0.93798000  0.17240000  0.96241000  1.0
  H  H67  1  0.06196000  0.82762000  0.03759000  1.0
  C  C68  1  0.43152000  0.29666000  0.91366000  1.0
  C  C69  1  0.56845000  0.70336000  0.08635000  1.0
  C  C70  1  0.91847000  0.21127000  0.08970000  1.0
  C  C71  1  0.08149000  0.78875000  0.91030000  1.0
  C  C72  1  0.43077000  0.11023000  0.99279000  1.0
  C  C73  1  0.56917000  0.88980000  0.00722000  1.0
  C  C74  1  0.91162000  0.39254000  0.00516000  1.0
  C  C75  1  0.08835000  0.60750000  0.99484000  1.0
  C  C76  1  0.91306000  0.47991000  0.00055000  1.0
  C  C77  1  0.08690000  0.52013000  0.99943000  1.0
  C  C78  1  0.42027000  0.02291000  0.99404000  1.0
  C  C79  1  0.57969000  0.97711000  0.00597000  1.0
  C  C80  1  0.97350000  0.97449000  0.69442000  1.0
  C  C81  1  0.02652000  0.02548000  0.30557000  1.0
  C  C82  1  0.45624000  0.51062000  0.30551000  1.0
  C  C83  1  0.54378000  0.48937000  0.69449000  1.0
  C  C84  1  0.16769000  0.85468000  0.67014000  1.0
  C  C85  1  0.83239000  0.14531000  0.32985000  1.0
  C  C86  1  0.55589000  0.64727000  0.32359000  1.0
  C  C87  1  0.44410000  0.35273000  0.67641000  1.0
  C  C88  1  0.92411000  0.82425000  0.77661000  1.0
  C  C89  1  0.07589000  0.17574000  0.22339000  1.0
  C  C90  1  0.36390000  0.66164000  0.21864000  1.0
  C  C91  1  0.63605000  0.33836000  0.78136000  1.0
  C  C92  1  0.92668000  0.79739000  0.82690000  1.0
  C  C93  1  0.07330000  0.20261000  0.17310000  1.0
  C  C94  1  0.38070000  0.68943000  0.16854000  1.0
  C  C95  1  0.61926000  0.31058000  0.83147000  1.0
  C  C96  1  0.24506000  0.86505000  0.83647000  1.0
  C  C97  1  0.75492000  0.13495000  0.16353000  1.0
  C  C98  1  0.70452000  0.62141000  0.15888000  1.0
  C  C99  1  0.29543000  0.37858000  0.84112000  1.0
  C  C100  1  0.23917000  0.89443000  0.78677000  1.0
  C  C101  1  0.76081000  0.10557000  0.21323000  1.0
  C  C102  1  0.68640000  0.59242000  0.20857000  1.0
  C  C103  1  0.31357000  0.40757000  0.79142000  1.0
  C  C104  1  0.08133000  0.87421000  0.75725000  1.0
  C  C105  1  0.91867000  0.12577000  0.24275000  1.0
  C  C106  1  0.51994000  0.61310000  0.23826000  1.0
  C  C107  1  0.48005000  0.38691000  0.76174000  1.0
  C  C108  1  0.04646000  0.95315000  0.60322000  1.0
  C  C109  1  0.95361000  0.04684000  0.39678000  1.0
  C  C110  1  0.50157000  0.54436000  0.39511000  1.0
  C  C111  1  0.49844000  0.45562000  0.60489000  1.0
  C  C112  1  0.96909000  0.00127000  0.64083000  1.0
  C  C113  1  0.03096000  0.99872000  0.35916000  1.0
  C  C114  1  0.45670000  0.48887000  0.35995000  1.0
  C  C115  1  0.54335000  0.51111000  0.64005000  1.0
  C  C116  1  0.89997000  0.07663000  0.62749000  1.0
  C  C117  1  0.10006000  0.92335000  0.37250000  1.0
  C  C118  1  0.40171000  0.41305000  0.37655000  1.0
  C  C119  1  0.59831000  0.58693000  0.62346000  1.0
  C  C120  1  0.15245000  0.88285000  0.61721000  1.0
  C  C121  1  0.84763000  0.11716000  0.38278000  1.0
  C  C122  1  0.54296000  0.62320000  0.37739000  1.0
  C  C123  1  0.45705000  0.37679000  0.62261000  1.0
  C  C124  1  0.08664000  0.81749000  0.85648000  1.0
  C  C125  1  0.91334000  0.18251000  0.14352000  1.0
  C  C126  1  0.55155000  0.67023000  0.13917000  1.0
  C  C127  1  0.44842000  0.32978000  0.86083000  1.0
  C  C128  1  0.89737000  0.07261000  0.48577000  1.0
  C  C129  1  0.10276000  0.92738000  0.51422000  1.0
  C  C130  1  0.46111000  0.41955000  0.51773000  1.0
  C  C131  1  0.53896000  0.58045000  0.48226000  1.0
  C  C132  1  0.06833000  0.94688000  0.46125000  1.0
  C  C133  1  0.93179000  0.05311000  0.53875000  1.0
  C  C134  1  0.54788000  0.55975000  0.53618000  1.0
  C  C135  1  0.45217000  0.44024000  0.46382000  1.0
  C  C136  1  0.97784000  0.02249000  0.44830000  1.0
  C  C137  1  0.02227000  0.97750000  0.55170000  1.0
  C  C138  1  0.50036000  0.47919000  0.55248000  1.0
  C  C139  1  0.49969000  0.52081000  0.44752000  1.0
  C  C140  1  0.77443000  0.13680000  0.46980000  1.0
  C  C141  1  0.22565000  0.86319000  0.53019000  1.0
  C  C142  1  0.43852000  0.34119000  0.53762000  1.0
  C  C143  1  0.56152000  0.65881000  0.46238000  1.0
  C  C144  1  0.75176000  0.15954000  0.41947000  1.0
  C  C145  1  0.24829000  0.84046000  0.58053000  1.0
  C  C146  1  0.43248000  0.31994000  0.58859000  1.0
  C  C147  1  0.56756000  0.68004000  0.41141000  1.0
  C  C148  1  0.89196000  0.10595000  0.57737000  1.0
  C  C149  1  0.10811000  0.89404000  0.42263000  1.0
  C  C150  1  0.39403000  0.38712000  0.42729000  1.0
  C  C151  1  0.60598000  0.61287000  0.57271000  1.0
  C  C152  1  0.36933000  0.25161000  0.23784000  1.0
  C  C153  1  0.63065000  0.74839000  0.76216000  1.0
  C  C154  1  0.93692000  0.26272000  0.76646000  1.0
  C  C155  1  0.06304000  0.73728000  0.23355000  1.0
  C  C156  1  0.85566000  0.19428000  0.56849000  1.0
  C  C157  1  0.91892000  0.24509000  0.61060000  1.0
  C  C158  1  0.14438000  0.80571000  0.43150000  1.0
  C  C159  1  0.08110000  0.75490000  0.38940000  1.0
  C  C160  1  0.31603000  0.30340000  0.43829000  1.0
  C  C161  1  0.22702000  0.26189000  0.39510000  1.0
  C  C162  1  0.68398000  0.69659000  0.56171000  1.0
  C  C163  1  0.77296000  0.73811000  0.60490000  1.0
  N  N164  1  0.07790000  0.90287000  0.70563000  1.0
  N  N165  1  0.92212000  0.09711000  0.29437000  1.0
  N  N166  1  0.51167000  0.58899000  0.29064000  1.0
  N  N167  1  0.48829000  0.41101000  0.70935000  1.0
  O  O168  1  0.60303000  0.14096000  0.99822000  1.0
  O  O169  1  0.39693000  0.85906000  0.00178000  1.0
  O  O170  1  0.07802000  0.35670000  0.01337000  1.0
  O  O171  1  0.92193000  0.64333000  0.98662000  1.0
  O  O172  1  0.25755000  0.29663000  0.93549000  1.0
  O  O173  1  0.74240000  0.70337000  0.06450000  1.0
  O  O174  1  0.75034000  0.22725000  0.06943000  1.0
  O  O175  1  0.24961000  0.77278000  0.93057000  1.0
  O  O176  1  0.26401000  0.14748000  0.98669000  1.0
  O  O177  1  0.73595000  0.85255000  0.01333000  1.0
  O  O178  1  0.74168000  0.35965000  0.00035000  1.0
  O  O179  1  0.25826000  0.64039000  0.99966000  1.0
  O  O180  1  0.09321000  0.21755000  0.06829000  1.0
  O  O181  1  0.90675000  0.78247000  0.93171000  1.0
  O  O182  1  0.59271000  0.26955000  0.93308000  1.0
  O  O183  1  0.40726000  0.73047000  0.06693000  1.0
  O  O184  1  0.42127000  0.27607000  0.02676000  1.0
  O  O185  1  0.57868000  0.72395000  0.97324000  1.0
  O  O186  1  0.92995000  0.22413000  0.97610000  1.0
  O  O187  1  0.07001000  0.77589000  0.02391000  1.0
  O  O188  1  0.89252000  0.01153000  0.72787000  1.0
  O  O189  1  0.10746000  0.98844000  0.27212000  1.0
  O  O190  1  0.41098000  0.46381000  0.27442000  1.0
  O  O191  1  0.58902000  0.53618000  0.72558000  1.0
  O  O192  1  0.74731000  0.20807000  0.31704000  1.0
  O  O193  1  0.25274000  0.79192000  0.68295000  1.0
  O  O194  1  0.39560000  0.28522000  0.69201000  1.0
  O  O195  1  0.60438000  0.71478000  0.30798000  1.0
  O  O196  1  0.22054000  0.19376000  0.25552000  1.0
  O  O197  1  0.77946000  0.80623000  0.74448000  1.0
  O  O198  1  0.79281000  0.32165000  0.74935000  1.0
  O  O199  1  0.20716000  0.67835000  0.25066000  1.0
