# generated using pymatgen
data_CuH6C7N5
_symmetry_space_group_name_H-M   'P 1'
_cell_length_a   5.69237000
_cell_length_b   8.22927000
_cell_length_c   8.94081000
_cell_angle_alpha   68.25700000
_cell_angle_beta   89.99990000
_cell_angle_gamma   89.99860000
_symmetry_Int_Tables_number   1
_chemical_formula_structural   CuH6C7N5
_chemical_formula_sum   'Cu2 H12 C14 N10'
_cell_volume   389.02645587
_cell_formula_units_Z   2
loop_
 _symmetry_equiv_pos_site_id
 _symmetry_equiv_pos_as_xyz
  1  'x, y, z'
loop_
 _atom_site_type_symbol
 _atom_site_label
 _atom_site_symmetry_multiplicity
 _atom_site_fract_x
 _atom_site_fract_y
 _atom_site_fract_z
 _atom_site_occupancy
  Cu  Cu0  1  0.37616000  0.89996000  0.62279000  1.0
  Cu  Cu1  1  0.87616000  0.10005000  0.37720000  1.0
  H  H2  1  0.97128000  0.28672000  0.01547000  1.0
  H  H3  1  0.47129000  0.71329000  0.98452000  1.0
  H  H4  1  0.04965000  0.11137000  0.95707000  1.0
  H  H5  1  0.54966000  0.88864000  0.04293000  1.0
  H  H6  1  0.43198000  0.13176000  0.79474000  1.0
  H  H7  1  0.93199000  0.86823000  0.20526000  1.0
  H  H8  1  0.69616000  0.33594000  0.58711000  1.0
  H  H9  1  0.19615000  0.66404000  0.41290000  1.0
  H  H10  1  0.66608000  0.65848000  0.52876000  1.0
  H  H11  1  0.16608000  0.34151000  0.47125000  1.0
  H  H12  1  0.13050000  0.58072000  0.86224000  1.0
  H  H13  1  0.63052000  0.41929000  0.13776000  1.0
  C  C14  1  0.27129000  0.14240000  0.13637000  1.0
  C  C15  1  0.77129000  0.85761000  0.86362000  1.0
  C  C16  1  0.12218000  0.21888000  0.98846000  1.0
  C  C17  1  0.62218000  0.78113000  0.01153000  1.0
  C  C18  1  0.42341000  0.27185000  0.76802000  1.0
  C  C19  1  0.92342000  0.72814000  0.23198000  1.0
  C  C20  1  0.26493000  0.33915000  0.84989000  1.0
  C  C21  1  0.76494000  0.66084000  0.15011000  1.0
  C  C22  1  0.57025000  0.38551000  0.65149000  1.0
  C  C23  1  0.07025000  0.61448000  0.34852000  1.0
  C  C24  1  0.55290000  0.56438000  0.61778000  1.0
  C  C25  1  0.05290000  0.43562000  0.38223000  1.0
  C  C26  1  0.25394000  0.52044000  0.80456000  1.0
  C  C27  1  0.75395000  0.47957000  0.19544000  1.0
  N  N28  1  0.18646000  0.06675000  0.28753000  1.0
  N  N29  1  0.68646000  0.93325000  0.71247000  1.0
  N  N30  1  0.50717000  0.13991000  0.13611000  1.0
  N  N31  1  0.00718000  0.86009000  0.86388000  1.0
  N  N32  1  0.37737000  0.01544000  0.38347000  1.0
  N  N33  1  0.87737000  0.98456000  0.61652000  1.0
  N  N34  1  0.56922000  0.06078000  0.29173000  1.0
  N  N35  1  0.06922000  0.93923000  0.70826000  1.0
  N  N36  1  0.39337000  0.63202000  0.69031000  1.0
  N  N37  1  0.89338000  0.36798000  0.30969000  1.0
