# generated using pymatgen
data_CdH14C18(N2O3)2
_symmetry_space_group_name_H-M   'P 1'
_cell_length_a   7.80116000
_cell_length_b   8.46769000
_cell_length_c   13.69860000
_cell_angle_alpha   94.03500000
_cell_angle_beta   95.50470000
_cell_angle_gamma   98.82630000
_symmetry_Int_Tables_number   1
_chemical_formula_structural   CdH14C18(N2O3)2
_chemical_formula_sum   'Cd2 H28 C36 N8 O12'
_cell_volume   886.72364793
_cell_formula_units_Z   2
loop_
 _symmetry_equiv_pos_site_id
 _symmetry_equiv_pos_as_xyz
  1  'x, y, z'
loop_
 _atom_site_type_symbol
 _atom_site_label
 _atom_site_symmetry_multiplicity
 _atom_site_fract_x
 _atom_site_fract_y
 _atom_site_fract_z
 _atom_site_occupancy
  Cd  Cd0  1  0.83146000  0.11454000  0.23488000  1.0
  Cd  Cd1  1  0.16855000  0.88545000  0.76512000  1.0
  H  H2  1  0.30196000  0.17224000  0.20303000  1.0
  H  H3  1  0.69803000  0.82775000  0.79698000  1.0
  H  H4  1  0.41209000  0.37373000  0.21528000  1.0
  H  H5  1  0.58791000  0.62627000  0.78472000  1.0
  H  H6  1  0.89196000  0.06180000  0.48812000  1.0
  H  H7  1  0.10804000  0.93820000  0.51188000  1.0
  H  H8  1  0.59044000  0.17276000  0.72615000  1.0
  H  H9  1  0.40956000  0.82724000  0.27384000  1.0
  H  H10  1  0.37255000  0.27222000  0.61090000  1.0
  H  H11  1  0.62745000  0.72778000  0.38910000  1.0
  H  H12  1  0.80068000  0.44147000  0.32791000  1.0
  H  H13  1  0.19932000  0.55853000  0.67209000  1.0
  H  H14  1  0.00680000  0.52674000  0.39003000  1.0
  H  H15  1  0.99320000  0.47326000  0.60998000  1.0
  H  H16  1  0.06948000  0.11503000  0.04795000  1.0
  H  H17  1  0.93052000  0.88497000  0.95205000  1.0
  H  H18  1  0.36546000  0.49025000  0.90621000  1.0
  H  H19  1  0.63454000  0.50975000  0.09379000  1.0
  H  H20  1  0.30097000  0.70089000  0.02720000  1.0
  H  H21  1  0.69903000  0.29911000  0.97279000  1.0
  H  H22  1  0.29031000  0.27634000  0.39981000  1.0
  H  H23  1  0.70969000  0.72366000  0.60019000  1.0
  H  H24  1  0.11080000  0.73068000  0.20038000  1.0
  H  H25  1  0.88921000  0.26932000  0.79962000  1.0
  H  H26  1  0.49572000  0.11535000  0.10952000  1.0
  H  H27  1  0.50428000  0.88466000  0.89048000  1.0
  H  H28  1  0.80148000  0.71205000  0.27163000  1.0
  H  H29  1  0.19853000  0.28795000  0.72837000  1.0
  C  C30  1  0.43063000  0.24793000  0.22044000  1.0
  C  C31  1  0.56936000  0.75207000  0.77956000  1.0
  C  C32  1  0.50126000  0.22699000  0.32332000  1.0
  C  C33  1  0.49875000  0.77301000  0.67668000  1.0
  C  C34  1  0.51634000  0.22681000  0.48631000  1.0
  C  C35  1  0.48366000  0.77319000  0.51368000  1.0
  C  C36  1  0.66249000  0.16975000  0.45119000  1.0
  C  C37  1  0.33751000  0.83024000  0.54880000  1.0
  C  C38  1  0.78232000  0.11029000  0.51508000  1.0
  C  C39  1  0.21769000  0.88971000  0.48492000  1.0
  C  C40  1  0.75374000  0.11167000  0.61444000  1.0
  C  C41  1  0.24627000  0.88834000  0.38556000  1.0
  C  C42  1  0.61061000  0.17513000  0.64866000  1.0
  C  C43  1  0.38939000  0.82487000  0.35135000  1.0
  C  C44  1  0.48855000  0.23260000  0.58538000  1.0
  C  C45  1  0.51146000  0.76740000  0.41462000  1.0
  C  C46  1  0.87104000  0.03772000  0.68481000  1.0
  C  C47  1  0.12897000  0.96228000  0.31519000  1.0
  C  C48  1  0.91446000  0.53555000  0.32500000  1.0
  C  C49  1  0.08554000  0.46445000  0.67500000  1.0
  C  C50  1  0.99676000  0.49523000  0.23384000  1.0
  C  C51  1  0.00324000  0.50477000  0.76616000  1.0
  C  C52  1  0.15068000  0.52354000  0.10671000  1.0
  C  C53  1  0.84932000  0.47647000  0.89328000  1.0
  C  C54  1  0.08405000  0.35923000  0.11219000  1.0
  C  C55  1  0.91595000  0.64078000  0.88781000  1.0
  C  C56  1  0.12002000  0.24147000  0.04444000  1.0
  C  C57  1  0.87997000  0.75853000  0.95556000  1.0
  C  C58  1  0.22351000  0.29160000  0.97087000  1.0
  C  C59  1  0.77648000  0.70840000  0.02913000  1.0
  C  C60  1  0.28684000  0.45616000  0.96507000  1.0
  C  C61  1  0.71316000  0.54383000  0.03493000  1.0
  C  C62  1  0.25238000  0.57453000  0.03264000  1.0
  C  C63  1  0.74761000  0.42547000  0.96736000  1.0
  C  C64  1  0.25807000  0.16746000  0.89559000  1.0
  C  C65  1  0.74192000  0.83254000  0.10440000  1.0
  N  N66  1  0.41847000  0.26355000  0.40335000  1.0
  N  N67  1  0.58153000  0.73645000  0.59665000  1.0
  N  N68  1  0.64924000  0.17403000  0.34886000  1.0
  N  N69  1  0.35076000  0.82597000  0.65114000  1.0
  N  N70  1  0.98775000  0.34600000  0.19242000  1.0
  N  N71  1  0.01225000  0.65400000  0.80757000  1.0
  N  N72  1  0.09303000  0.60498000  0.18485000  1.0
  N  N73  1  0.90697000  0.39502000  0.81515000  1.0
  O  O74  1  0.54869000  0.21041000  0.15241000  1.0
  O  O75  1  0.45130000  0.78959000  0.84758000  1.0
  O  O76  1  0.95637000  0.93336000  0.64824000  1.0
  O  O77  1  0.04363000  0.06664000  0.35176000  1.0
  O  O78  1  0.87759000  0.07461000  0.77681000  1.0
  O  O79  1  0.12242000  0.92539000  0.22320000  1.0
  O  O80  1  0.87204000  0.69126000  0.33319000  1.0
  O  O81  1  0.12795000  0.30874000  0.66681000  1.0
  O  O82  1  0.23014000  0.02036000  0.91631000  1.0
  O  O83  1  0.76986000  0.97964000  0.08369000  1.0
  O  O84  1  0.30774000  0.20659000  0.81348000  1.0
  O  O85  1  0.69226000  0.79341000  0.18652000  1.0
