# generated using pymatgen
data_CuH7C5IN3
_symmetry_space_group_name_H-M   'P 1'
_cell_length_a   4.19923000
_cell_length_b   11.88060000
_cell_length_c   14.94451547
_cell_angle_alpha   89.99926809
_cell_angle_beta   83.04531151
_cell_angle_gamma   89.99990000
_symmetry_Int_Tables_number   1
_chemical_formula_structural   CuH7C5IN3
_chemical_formula_sum   'Cu4 H28 C20 I4 N12'
_cell_volume   740.08673201
_cell_formula_units_Z   4
loop_
 _symmetry_equiv_pos_site_id
 _symmetry_equiv_pos_as_xyz
  1  'x, y, z'
loop_
 _atom_site_type_symbol
 _atom_site_label
 _atom_site_symmetry_multiplicity
 _atom_site_fract_x
 _atom_site_fract_y
 _atom_site_fract_z
 _atom_site_occupancy
  Cu  Cu0  1  0.36270000  0.03681000  0.92109000  1.0
  Cu  Cu1  1  0.13730000  0.53682000  0.57891000  1.0
  Cu  Cu2  1  0.63730000  0.96318000  0.07891000  1.0
  Cu  Cu3  1  0.86270000  0.46319000  0.42109000  1.0
  H  H4  1  0.93348000  0.84303000  0.64210000  1.0
  H  H5  1  0.56654000  0.34302000  0.85790000  1.0
  H  H6  1  0.06653000  0.15698000  0.35790000  1.0
  H  H7  1  0.43350000  0.65697000  0.14210000  1.0
  H  H8  1  0.75531000  0.97895000  0.52969000  1.0
  H  H9  1  0.74471000  0.47894000  0.97031000  1.0
  H  H10  1  0.24470000  0.02105000  0.47031000  1.0
  H  H11  1  0.25533000  0.52105000  0.02969000  1.0
  H  H12  1  0.40440000  0.14143000  0.58515000  1.0
  H  H13  1  0.09558000  0.64143000  0.91485000  1.0
  H  H14  1  0.59559000  0.85857000  0.41484000  1.0
  H  H15  1  0.90441000  0.35857000  0.08516000  1.0
  H  H16  1  0.10727000  0.17925000  0.82091000  1.0
  H  H17  1  0.39273000  0.67925000  0.67908000  1.0
  H  H18  1  0.89272000  0.82075000  0.17908000  1.0
  H  H19  1  0.60727000  0.32075000  0.32092000  1.0
  H  H20  1  0.07052000  0.22070000  0.71284000  1.0
  H  H21  1  0.42948000  0.72070000  0.78715000  1.0
  H  H22  1  0.92947000  0.77930000  0.28715000  1.0
  H  H23  1  0.57052000  0.27930000  0.21285000  1.0
  H  H24  1  0.74476000  0.87847000  0.88146000  1.0
  H  H25  1  0.75524000  0.37847000  0.61854000  1.0
  H  H26  1  0.25523000  0.12153000  0.11854000  1.0
  H  H27  1  0.24475000  0.62153000  0.38147000  1.0
  H  H28  1  0.95117000  0.80445000  0.79410000  1.0
  H  H29  1  0.54884000  0.30445000  0.70590000  1.0
  H  H30  1  0.04883000  0.19555000  0.20590000  1.0
  H  H31  1  0.45117000  0.69556000  0.29410000  1.0
  C  C32  1  0.67242000  0.92963000  0.75484000  1.0
  C  C33  1  0.82757000  0.42963000  0.74517000  1.0
  C  C34  1  0.32757000  0.07037000  0.24517000  1.0
  C  C35  1  0.17244000  0.57037000  0.25483000  1.0
  C  C36  1  0.38847000  0.09118000  0.72424000  1.0
  C  C37  1  0.11153000  0.59118000  0.77576000  1.0
  C  C38  1  0.61154000  0.90882000  0.27575000  1.0
  C  C39  1  0.88846000  0.40882000  0.22425000  1.0
  C  C40  1  0.77670000  0.91356000  0.66299000  1.0
  C  C41  1  0.72331000  0.41356000  0.83701000  1.0
  C  C42  1  0.22331000  0.08644000  0.33701000  1.0
  C  C43  1  0.27671000  0.58644000  0.16299000  1.0
  C  C44  1  0.67850000  0.98953000  0.60143000  1.0
  C  C45  1  0.82151000  0.48953000  0.89857000  1.0
  C  C46  1  0.32149000  0.01047000  0.39857000  1.0
  C  C47  1  0.17851000  0.51047000  0.10143000  1.0
  C  C48  1  0.48356000  0.07948000  0.63140000  1.0
  C  C49  1  0.01644000  0.57948000  0.86860000  1.0
  C  C50  1  0.51643000  0.92052000  0.36860000  1.0
  C  C51  1  0.98357000  0.42052000  0.13140000  1.0
  I  I52  1  0.82568000  0.15085000  0.98371000  1.0
  I  I53  1  0.67431000  0.65085000  0.51629000  1.0
  I  I54  1  0.17431000  0.84914000  0.01629000  1.0
  I  I55  1  0.32569000  0.34915000  0.48371000  1.0
  N  N56  1  0.47979000  0.01713000  0.78605000  1.0
  N  N57  1  0.02020000  0.51713000  0.71395000  1.0
  N  N58  1  0.52019000  0.98287000  0.21395000  1.0
  N  N59  1  0.97980000  0.48287000  0.28605000  1.0
  N  N60  1  0.21275000  0.18371000  0.75564000  1.0
  N  N61  1  0.28725000  0.68371000  0.74436000  1.0
  N  N62  1  0.78724000  0.81629000  0.24436000  1.0
  N  N63  1  0.71275000  0.31629000  0.25564000  1.0
  N  N64  1  0.75386000  0.85200000  0.81624000  1.0
  N  N65  1  0.74614000  0.35200000  0.68376000  1.0
  N  N66  1  0.24613000  0.14800000  0.18376000  1.0
  N  N67  1  0.25386000  0.64800000  0.31624000  1.0
