# generated using pymatgen
data_AlH12C21S3(NO5)3
_symmetry_space_group_name_H-M   'P 1'
_cell_length_a   4.29834000
_cell_length_b   27.60640000
_cell_length_c   27.60640000
_cell_angle_alpha   60.00000000
_cell_angle_beta   90.00000000
_cell_angle_gamma   89.99910000
_symmetry_Int_Tables_number   1
_chemical_formula_structural   AlH12C21S3(NO5)3
_chemical_formula_sum   'Al2 H24 C42 S6 N6 O30'
_cell_volume   2836.94521878
_cell_formula_units_Z   2
loop_
 _symmetry_equiv_pos_site_id
 _symmetry_equiv_pos_as_xyz
  1  'x, y, z'
loop_
 _atom_site_type_symbol
 _atom_site_label
 _atom_site_symmetry_multiplicity
 _atom_site_fract_x
 _atom_site_fract_y
 _atom_site_fract_z
 _atom_site_occupancy
  Al  Al0  1  0.96533000  0.00000000  0.50000000  1.0
  Al  Al1  1  0.96542000  0.66667000  0.16667000  1.0
  H  H2  1  0.52315000  0.51536000  0.30505000  1.0
  H  H3  1  0.58352000  0.41117000  0.35688000  1.0
  H  H4  1  0.52638000  0.41082000  0.20140000  1.0
  H  H5  1  0.52639000  0.25584000  0.46526000  1.0
  H  H6  1  0.58354000  0.25549000  0.30978000  1.0
  H  H7  1  0.52315000  0.15131000  0.36161000  1.0
  H  H8  1  0.52313000  0.80506000  0.17959000  1.0
  H  H9  1  0.58354000  0.85689000  0.23194000  1.0
  H  H10  1  0.52643000  0.70139000  0.38778000  1.0
  H  H11  1  0.52639000  0.96527000  0.27889000  1.0
  H  H12  1  0.58352000  0.80979000  0.43472000  1.0
  H  H13  1  0.52313000  0.86162000  0.48707000  1.0
  H  H14  1  0.52313000  0.67959000  0.01536000  1.0
  H  H15  1  0.58353000  0.73194000  0.91118000  1.0
  H  H16  1  0.52642000  0.88777000  0.91083000  1.0
  H  H17  1  0.52641000  0.77889000  0.75584000  1.0
  H  H18  1  0.58356000  0.93473000  0.75549000  1.0
  H  H19  1  0.52314000  0.98708000  0.65131000  1.0
  H  H20  1  0.96898000  0.56441000  0.10486000  1.0
  H  H21  1  0.96890000  0.10227000  0.56181000  1.0
  H  H22  1  0.96900000  0.60485000  0.33074000  1.0
  H  H23  1  0.96896000  0.06182000  0.33593000  1.0
  H  H24  1  0.96895000  0.83074000  0.06441000  1.0
  H  H25  1  0.96896000  0.83594000  0.60225000  1.0
  C  C26  1  0.46806000  0.94636000  0.58259000  1.0
  C  C27  1  0.46806000  0.08259000  0.47105000  1.0
  C  C28  1  0.46809000  0.97104000  0.44636000  1.0
  C  C29  1  0.46814000  0.58407000  0.19562000  1.0
  C  C30  1  0.46815000  0.69562000  0.22031000  1.0
  C  C31  1  0.46811000  0.72031000  0.08407000  1.0
  C  C32  1  0.50087000  0.52177000  0.22404000  1.0
  C  C33  1  0.53062000  0.49219000  0.28259000  1.0
  C  C34  1  0.56501000  0.43449000  0.31145000  1.0
  C  C35  1  0.56712000  0.40519000  0.28189000  1.0
  C  C36  1  0.53709000  0.43420000  0.22354000  1.0
  C  C37  1  0.50417000  0.49219000  0.19489000  1.0
  C  C38  1  0.53705000  0.23248000  0.44311000  1.0
  C  C39  1  0.56710000  0.26148000  0.38477000  1.0
  C  C40  1  0.56497000  0.23218000  0.35521000  1.0
  C  C41  1  0.53057000  0.17448000  0.38408000  1.0
  C  C42  1  0.50077000  0.14490000  0.44262000  1.0
  C  C43  1  0.50406000  0.17448000  0.47177000  1.0
  C  C44  1  0.50085000  0.72404000  0.25419000  1.0
  C  C45  1  0.53061000  0.78258000  0.22523000  1.0
  C  C46  1  0.56500000  0.81144000  0.25406000  1.0
  C  C47  1  0.56712000  0.78189000  0.31292000  1.0
  C  C48  1  0.53711000  0.72355000  0.34226000  1.0
  C  C49  1  0.50420000  0.69489000  0.31292000  1.0
  C  C50  1  0.53706000  0.94312000  0.32441000  1.0
  C  C51  1  0.56709000  0.88477000  0.35375000  1.0
  C  C52  1  0.56498000  0.85522000  0.41261000  1.0
  C  C53  1  0.53058000  0.88407000  0.44145000  1.0
  C  C54  1  0.50080000  0.94263000  0.41248000  1.0
  C  C55  1  0.50411000  0.97178000  0.35374000  1.0
  C  C56  1  0.50085000  0.75419000  0.02177000  1.0
  C  C57  1  0.53060000  0.72522000  0.99219000  1.0
  C  C58  1  0.56499000  0.75405000  0.93450000  1.0
  C  C59  1  0.56711000  0.81292000  0.90519000  1.0
  C  C60  1  0.53709000  0.84226000  0.93419000  1.0
  C  C61  1  0.50418000  0.81292000  0.99219000  1.0
  C  C62  1  0.53706000  0.82441000  0.73247000  1.0
  C  C63  1  0.56712000  0.85375000  0.76148000  1.0
  C  C64  1  0.56501000  0.91261000  0.73217000  1.0
  C  C65  1  0.53059000  0.94144000  0.67448000  1.0
  C  C66  1  0.50080000  0.91248000  0.64489000  1.0
  C  C67  1  0.50410000  0.85375000  0.67448000  1.0
  S  S68  1  0.41730000  0.52435000  0.12186000  1.0
  S  S69  1  0.41723000  0.14233000  0.54480000  1.0
  S  S70  1  0.41738000  0.62186000  0.35380000  1.0
  S  S71  1  0.41728000  0.04480000  0.31287000  1.0
  S  S72  1  0.41734000  0.85380000  0.02434000  1.0
  S  S73  1  0.41724000  0.81287000  0.64233000  1.0
  N  N74  1  0.57760000  0.34631000  0.30686000  1.0
  N  N75  1  0.57768000  0.32036000  0.35980000  1.0
  N  N76  1  0.57763000  0.80686000  0.34683000  1.0
  N  N77  1  0.57761000  0.85981000  0.31983000  1.0
  N  N78  1  0.57765000  0.84683000  0.84631000  1.0
  N  N79  1  0.57762000  0.81984000  0.82036000  1.0
  O  O80  1  0.69343000  0.00255000  0.44319000  1.0
  O  O81  1  0.69336000  0.94320000  0.55426000  1.0
  O  O82  1  0.69336000  0.05427000  0.50254000  1.0
  O  O83  1  0.22518000  0.95929000  0.47627000  1.0
  O  O84  1  0.22516000  0.06445000  0.45929000  1.0
  O  O85  1  0.22513000  0.97627000  0.56444000  1.0
  O  O86  1  0.69343000  0.72347000  0.11241000  1.0
  O  O87  1  0.69347000  0.61241000  0.16412000  1.0
  O  O88  1  0.69344000  0.66413000  0.22347000  1.0
  O  O89  1  0.22522000  0.69040000  0.10223000  1.0
  O  O90  1  0.22523000  0.70738000  0.19040000  1.0
  O  O91  1  0.22522000  0.60223000  0.20737000  1.0
  O  O92  1  0.69077000  0.55204000  0.08765000  1.0
  O  O93  1  0.26901000  0.48326000  0.11247000  1.0
  O  O94  1  0.19755000  0.57261000  0.11285000  1.0
  O  O95  1  0.69067000  0.11465000  0.57901000  1.0
  O  O96  1  0.26888000  0.18343000  0.55417000  1.0
  O  O97  1  0.19748000  0.09407000  0.55382000  1.0
  O  O98  1  0.69082000  0.58765000  0.36030000  1.0
  O  O99  1  0.26914000  0.61246000  0.40428000  1.0
  O  O100  1  0.19759000  0.61286000  0.31454000  1.0
  O  O101  1  0.69074000  0.07902000  0.30635000  1.0
  O  O102  1  0.26895000  0.05419000  0.26239000  1.0
  O  O103  1  0.19752000  0.05383000  0.35212000  1.0
  O  O104  1  0.69076000  0.86030000  0.05205000  1.0
  O  O105  1  0.26912000  0.90429000  0.98325000  1.0
  O  O106  1  0.19755000  0.81454000  0.07260000  1.0
  O  O107  1  0.69073000  0.80634000  0.61465000  1.0
  O  O108  1  0.26889000  0.76240000  0.68342000  1.0
  O  O109  1  0.19751000  0.85212000  0.59406000  1.0
