# generated using pymatgen
data_CuH16C18(NO2)6
_symmetry_space_group_name_H-M   'P 1'
_cell_length_a   5.73885000
_cell_length_b   8.65482000
_cell_length_c   10.75440000
_cell_angle_alpha   86.01270000
_cell_angle_beta   78.48160000
_cell_angle_gamma   85.65600000
_symmetry_Int_Tables_number   1
_chemical_formula_structural   CuH16C18(NO2)6
_chemical_formula_sum   'Cu1 H16 C18 N6 O12'
_cell_volume   521.08614257
_cell_formula_units_Z   1
loop_
 _symmetry_equiv_pos_site_id
 _symmetry_equiv_pos_as_xyz
  1  'x, y, z'
loop_
 _atom_site_type_symbol
 _atom_site_label
 _atom_site_symmetry_multiplicity
 _atom_site_fract_x
 _atom_site_fract_y
 _atom_site_fract_z
 _atom_site_occupancy
  Cu  Cu0  1  0.99999000  0.00000000  0.00000000  1.0
  H  H1  1  0.73418000  0.71835000  0.14170000  1.0
  H  H2  1  0.26581000  0.28165000  0.85829000  1.0
  H  H3  1  0.34371000  0.85152000  0.27143000  1.0
  H  H4  1  0.65629000  0.14848000  0.72857000  1.0
  H  H5  1  0.81992000  0.40273000  0.49325000  1.0
  H  H6  1  0.18009000  0.59727000  0.50675000  1.0
  H  H7  1  0.34442000  0.01950000  0.42309000  1.0
  H  H8  1  0.65559000  0.98050000  0.57691000  1.0
  H  H9  1  0.19395000  0.67544000  0.01997000  1.0
  H  H10  1  0.80603000  0.32456000  0.98004000  1.0
  H  H11  1  0.30389000  0.65137000  0.16498000  1.0
  H  H12  1  0.69611000  0.34863000  0.83502000  1.0
  H  H13  1  0.62185000  0.62736000  0.96684000  1.0
  H  H14  1  0.37814000  0.37264000  0.03315000  1.0
  H  H15  1  0.54996000  0.82479000  0.92169000  1.0
  H  H16  1  0.45002000  0.17522000  0.07831000  1.0
  C  C17  1  0.22753000  0.92618000  0.21963000  1.0
  C  C18  1  0.77246000  0.07383000  0.78037000  1.0
  C  C19  1  0.12595000  0.06517000  0.28220000  1.0
  C  C20  1  0.87406000  0.93483000  0.71780000  1.0
  C  C21  1  0.94026000  0.16421000  0.23863000  1.0
  C  C22  1  0.05975000  0.83579000  0.76137000  1.0
  C  C23  1  0.83972000  0.28849000  0.32012000  1.0
  C  C24  1  0.16029000  0.71151000  0.67988000  1.0
  C  C25  1  0.90615000  0.31012000  0.43377000  1.0
  C  C26  1  0.09385000  0.68988000  0.56623000  1.0
  C  C27  1  0.09444000  0.21526000  0.46761000  1.0
  C  C28  1  0.90555000  0.78473000  0.53239000  1.0
  C  C29  1  0.20209000  0.09407000  0.39301000  1.0
  C  C30  1  0.79793000  0.90593000  0.60699000  1.0
  C  C31  1  0.29940000  0.72707000  0.07874000  1.0
  C  C32  1  0.70059000  0.27293000  0.92126000  1.0
  C  C33  1  0.55266000  0.74124000  0.00285000  1.0
  C  C34  1  0.44732000  0.25876000  0.99715000  1.0
  N  N35  1  0.18761000  0.87955000  0.11460000  1.0
  N  N36  1  0.81238000  0.12046000  0.88540000  1.0
  N  N37  1  0.66584000  0.40280000  0.28052000  1.0
  N  N38  1  0.33417000  0.59720000  0.71948000  1.0
  N  N39  1  0.17910000  0.24358000  0.58038000  1.0
  N  N40  1  0.82089000  0.75642000  0.41963000  1.0
  O  O41  1  0.86015000  0.14166000  0.13939000  1.0
  O  O42  1  0.13985000  0.85834000  0.86061000  1.0
  O  O43  1  0.70530000  0.79844000  0.07671000  1.0
  O  O44  1  0.29469000  0.20156000  0.92328000  1.0
  O  O45  1  0.48862000  0.44413000  0.36051000  1.0
  O  O46  1  0.51137000  0.55585000  0.63948000  1.0
  O  O47  1  0.71028000  0.45701000  0.16870000  1.0
  O  O48  1  0.28975000  0.54301000  0.83130000  1.0
  O  O49  1  0.07096000  0.34637000  0.65020000  1.0
  O  O50  1  0.92903000  0.65364000  0.34981000  1.0
  O  O51  1  0.35663000  0.16364000  0.60500000  1.0
  O  O52  1  0.64337000  0.83637000  0.39502000  1.0
