# generated using pymatgen
data_Cu3H8C10N13O8
_symmetry_space_group_name_H-M   'P 1'
_cell_length_a   9.31930000
_cell_length_b   9.31930000
_cell_length_c   16.71550000
_cell_angle_alpha   95.98210000
_cell_angle_beta   95.98260000
_cell_angle_gamma   105.62700000
_symmetry_Int_Tables_number   1
_chemical_formula_structural   Cu3H8C10N13O8
_chemical_formula_sum   'Cu6 H16 C20 N26 O16'
_cell_volume   1377.12623303
_cell_formula_units_Z   2
loop_
 _symmetry_equiv_pos_site_id
 _symmetry_equiv_pos_as_xyz
  1  'x, y, z'
loop_
 _atom_site_type_symbol
 _atom_site_label
 _atom_site_symmetry_multiplicity
 _atom_site_fract_x
 _atom_site_fract_y
 _atom_site_fract_z
 _atom_site_occupancy
  Cu  Cu0  1  0.54563000  0.45386000  0.25005000  1.0
  Cu  Cu1  1  0.45384000  0.54565000  0.75005000  1.0
  Cu  Cu2  1  0.93641000  0.02006000  0.15021000  1.0
  Cu  Cu3  1  0.97972000  0.06439000  0.35018000  1.0
  Cu  Cu4  1  0.06442000  0.97973000  0.85022000  1.0
  Cu  Cu5  1  0.02002000  0.93635000  0.65016000  1.0
  H  H6  1  0.28369000  0.28527000  0.45585000  1.0
  H  H7  1  0.71626000  0.71593000  0.04483000  1.0
  H  H8  1  0.71591000  0.71626000  0.54483000  1.0
  H  H9  1  0.28527000  0.28372000  0.95585000  1.0
  H  H10  1  0.43765000  0.40341000  0.42032000  1.0
  H  H11  1  0.59605000  0.56363000  0.08005000  1.0
  H  H12  1  0.56361000  0.59603000  0.58005000  1.0
  H  H13  1  0.40342000  0.43768000  0.92032000  1.0
  H  H14  1  0.74773000  0.19658000  0.06402000  1.0
  H  H15  1  0.80350000  0.25219000  0.43495000  1.0
  H  H16  1  0.25221000  0.80349000  0.93495000  1.0
  H  H17  1  0.19658000  0.74771000  0.56401000  1.0
  H  H18  1  0.61717000  0.29716000  0.09569000  1.0
  H  H19  1  0.70617000  0.38550000  0.40328000  1.0
  H  H20  1  0.38551000  0.70616000  0.90328000  1.0
  H  H21  1  0.29717000  0.61717000  0.59569000  1.0
  C  C22  1  0.27136000  0.24153000  0.19902000  1.0
  C  C23  1  0.75900000  0.72731000  0.30138000  1.0
  C  C24  1  0.72730000  0.75899000  0.80138000  1.0
  C  C25  1  0.24154000  0.27136000  0.69901000  1.0
  C  C26  1  0.28850000  0.26751000  0.33010000  1.0
  C  C27  1  0.73429000  0.71023000  0.17041000  1.0
  C  C28  1  0.71022000  0.73428000  0.67041000  1.0
  C  C29  1  0.26752000  0.28850000  0.83010000  1.0
  C  C30  1  0.32478000  0.27387000  0.12029000  1.0
  C  C31  1  0.72628000  0.67422000  0.38007000  1.0
  C  C32  1  0.67420000  0.72627000  0.88007000  1.0
  C  C33  1  0.27388000  0.32480000  0.62029000  1.0
  C  C34  1  0.73983000  0.23434000  0.18496000  1.0
  C  C35  1  0.76620000  0.26022000  0.31403000  1.0
  C  C36  1  0.26021000  0.76620000  0.81402000  1.0
  C  C37  1  0.23434000  0.73983000  0.68496000  1.0
  C  C38  1  0.03723000  0.93876000  0.00993000  1.0
  C  C39  1  0.06096000  0.96338000  0.49016000  1.0
  C  C40  1  0.96337000  0.06097000  0.99020000  1.0
  C  C41  1  0.93875000  0.03723000  0.50989000  1.0
  N  N42  1  0.14511000  0.15027000  0.21581000  1.0
  N  N43  1  0.85259000  0.85231000  0.28475000  1.0
  N  N44  1  0.85231000  0.85257000  0.78475000  1.0
  N  N45  1  0.15028000  0.14510000  0.71580000  1.0
  N  N46  1  0.15504000  0.16590000  0.29881000  1.0
  N  N47  1  0.83805000  0.84234000  0.20176000  1.0
  N  N48  1  0.84234000  0.83803000  0.70176000  1.0
  N  N49  1  0.16592000  0.15504000  0.79881000  1.0
  N  N50  1  0.36303000  0.31565000  0.26817000  1.0
  N  N51  1  0.68391000  0.63653000  0.23216000  1.0
  N  N52  1  0.63652000  0.68390000  0.73216000  1.0
  N  N53  1  0.31565000  0.36304000  0.76816000  1.0
  N  N54  1  0.34355000  0.31451000  0.40884000  1.0
  N  N55  1  0.68762000  0.65514000  0.09155000  1.0
  N  N56  1  0.65512000  0.68760000  0.59155000  1.0
  N  N57  1  0.31452000  0.34357000  0.90884000  1.0
  N  N58  1  0.69874000  0.30476000  0.24953000  1.0
  N  N59  1  0.30476000  0.69874000  0.74953000  1.0
  N  N60  1  0.83150000  0.14650000  0.20902000  1.0
  N  N61  1  0.84632000  0.16136000  0.28983000  1.0
  N  N62  1  0.16134000  0.84631000  0.78983000  1.0
  N  N63  1  0.14649000  0.83150000  0.70902000  1.0
  N  N64  1  0.69647000  0.24163000  0.10780000  1.0
  N  N65  1  0.75981000  0.30446000  0.39120000  1.0
  N  N66  1  0.30446000  0.75981000  0.89119000  1.0
  N  N67  1  0.24163000  0.69647000  0.60779000  1.0
  O  O68  1  0.25292000  0.20946000  0.05333000  1.0
  O  O69  1  0.79074000  0.74601000  0.44705000  1.0
  O  O70  1  0.74598000  0.79072000  0.94706000  1.0
  O  O71  1  0.20946000  0.25293000  0.55332000  1.0
  O  O72  1  0.45570000  0.37584000  0.12927000  1.0
  O  O73  1  0.62398000  0.54332000  0.37119000  1.0
  O  O74  1  0.54331000  0.62396000  0.87119000  1.0
  O  O75  1  0.37585000  0.45571000  0.62926000  1.0
  O  O76  1  0.03110000  0.89676000  0.07928000  1.0
  O  O77  1  0.10381000  0.97069000  0.42103000  1.0
  O  O78  1  0.97068000  0.10379000  0.92106000  1.0
  O  O79  1  0.89676000  0.03110000  0.57924000  1.0
  O  O80  1  0.10021000  0.88637000  0.95465000  1.0
  O  O81  1  0.11279000  0.89958000  0.54524000  1.0
  O  O82  1  0.89959000  0.11282000  0.04528000  1.0
  O  O83  1  0.88635000  0.10020000  0.45461000  1.0
