# generated using pymatgen
data_CdH12C12(NO3)2
_symmetry_space_group_name_H-M   'P 1'
_cell_length_a   7.23507000
_cell_length_b   8.63167000
_cell_length_c   10.22330000
_cell_angle_alpha   89.99980000
_cell_angle_beta   90.00000000
_cell_angle_gamma   98.49280000
_symmetry_Int_Tables_number   1
_chemical_formula_structural   CdH12C12(NO3)2
_chemical_formula_sum   'Cd2 H24 C24 N4 O12'
_cell_volume   631.45161920
_cell_formula_units_Z   2
loop_
 _symmetry_equiv_pos_site_id
 _symmetry_equiv_pos_as_xyz
  1  'x, y, z'
loop_
 _atom_site_type_symbol
 _atom_site_label
 _atom_site_symmetry_multiplicity
 _atom_site_fract_x
 _atom_site_fract_y
 _atom_site_fract_z
 _atom_site_occupancy
  Cd  Cd0  1  0.00000000  0.49999000  0.50000000  1.0
  Cd  Cd1  1  0.50000000  0.50000000  0.00000000  1.0
  H  H2  1  0.20065000  0.27607000  0.62545000  1.0
  H  H3  1  0.29934000  0.72392000  0.12544000  1.0
  H  H4  1  0.79935000  0.72391000  0.37456000  1.0
  H  H5  1  0.70065000  0.27608000  0.87455000  1.0
  H  H6  1  0.02368000  0.28595000  0.71898000  1.0
  H  H7  1  0.47632000  0.71404000  0.21897000  1.0
  H  H8  1  0.97632000  0.71405000  0.28103000  1.0
  H  H9  1  0.52368000  0.28595000  0.78102000  1.0
  H  H10  1  0.86566000  0.14392000  0.45054000  1.0
  H  H11  1  0.63435000  0.85608000  0.95053000  1.0
  H  H12  1  0.13434000  0.85607000  0.54946000  1.0
  H  H13  1  0.36567000  0.14392000  0.04946000  1.0
  H  H14  1  0.75447000  0.95609000  0.26888000  1.0
  H  H15  1  0.74553000  0.04391000  0.76887000  1.0
  H  H16  1  0.24553000  0.04392000  0.73112000  1.0
  H  H17  1  0.25447000  0.95609000  0.23112000  1.0
  H  H18  1  0.83204000  0.04216000  0.03635000  1.0
  H  H19  1  0.66795000  0.95784000  0.53633000  1.0
  H  H20  1  0.16795000  0.95783000  0.96366000  1.0
  H  H21  1  0.33205000  0.04216000  0.46366000  1.0
  H  H22  1  0.12082000  0.47490000  0.19149000  1.0
  H  H23  1  0.37918000  0.52511000  0.69148000  1.0
  H  H24  1  0.87918000  0.52510000  0.80852000  1.0
  H  H25  1  0.62083000  0.47489000  0.30852000  1.0
  C  C26  1  0.89432000  0.17341000  0.34821000  1.0
  C  C27  1  0.60567000  0.82659000  0.84820000  1.0
  C  C28  1  0.10568000  0.82659000  0.65179000  1.0
  C  C29  1  0.39433000  0.17341000  0.15179000  1.0
  C  C30  1  0.83544000  0.06970000  0.24722000  1.0
  C  C31  1  0.66455000  0.93030000  0.74721000  1.0
  C  C32  1  0.16456000  0.93030000  0.75278000  1.0
  C  C33  1  0.33545000  0.06970000  0.25278000  1.0
  C  C34  1  0.87889000  0.11701000  0.11929000  1.0
  C  C35  1  0.62110000  0.88299000  0.61928000  1.0
  C  C36  1  0.12111000  0.88299000  0.88072000  1.0
  C  C37  1  0.37890000  0.11701000  0.38072000  1.0
  C  C38  1  0.98682000  0.26251000  0.09666000  1.0
  C  C39  1  0.51318000  0.73749000  0.59665000  1.0
  C  C40  1  0.01318000  0.73749000  0.90335000  1.0
  C  C41  1  0.48682000  0.26251000  0.40335000  1.0
  C  C42  1  0.03946000  0.35934000  0.20423000  1.0
  C  C43  1  0.46054000  0.64066000  0.70422000  1.0
  C  C44  1  0.96054000  0.64066000  0.79578000  1.0
  C  C45  1  0.53946000  0.35934000  0.29578000  1.0
  C  C46  1  0.04185000  0.31468000  0.96012000  1.0
  C  C47  1  0.45814000  0.68532000  0.46011000  1.0
  C  C48  1  0.95815000  0.68532000  0.03989000  1.0
  C  C49  1  0.54186000  0.31468000  0.53989000  1.0
  N  N50  1  0.99031000  0.31741000  0.32708000  1.0
  N  N51  1  0.50970000  0.68260000  0.82707000  1.0
  N  N52  1  0.00970000  0.68259000  0.67293000  1.0
  N  N53  1  0.49031000  0.31741000  0.17293000  1.0
  O  O54  1  0.93309000  0.25681000  0.86787000  1.0
  O  O55  1  0.56691000  0.74319000  0.36786000  1.0
  O  O56  1  0.06691000  0.74319000  0.13213000  1.0
  O  O57  1  0.43309000  0.25681000  0.63213000  1.0
  O  O58  1  0.18863000  0.41123000  0.94187000  1.0
  O  O59  1  0.31137000  0.58876000  0.44186000  1.0
  O  O60  1  0.81136000  0.58877000  0.05815000  1.0
  O  O61  1  0.68863000  0.41123000  0.55814000  1.0
  O  O62  1  0.06688000  0.29114000  0.62536000  1.0
  O  O63  1  0.43312000  0.70885000  0.12535000  1.0
  O  O64  1  0.93312000  0.70885000  0.37465000  1.0
  O  O65  1  0.56688000  0.29115000  0.87464000  1.0
