# generated using pymatgen
data_CuH9C11SN3Cl2O
_symmetry_space_group_name_H-M   'P 1'
_cell_length_a   6.49136000
_cell_length_b   12.64580000
_cell_length_c   15.23930000
_cell_angle_alpha   89.99970000
_cell_angle_beta   91.08550000
_cell_angle_gamma   89.99990000
_symmetry_Int_Tables_number   1
_chemical_formula_structural   CuH9C11SN3Cl2O
_chemical_formula_sum   'Cu4 H36 C44 S4 N12 Cl8 O4'
_cell_volume   1250.74586699
_cell_formula_units_Z   4
loop_
 _symmetry_equiv_pos_site_id
 _symmetry_equiv_pos_as_xyz
  1  'x, y, z'
loop_
 _atom_site_type_symbol
 _atom_site_label
 _atom_site_symmetry_multiplicity
 _atom_site_fract_x
 _atom_site_fract_y
 _atom_site_fract_z
 _atom_site_occupancy
  Cu  Cu0  1  0.25844000  0.93878000  0.99849000  1.0
  Cu  Cu1  1  0.24155000  0.43878000  0.50151000  1.0
  Cu  Cu2  1  0.74153000  0.06123000  0.00150000  1.0
  Cu  Cu3  1  0.75845000  0.56123000  0.49850000  1.0
  H  H4  1  0.10447000  0.76057000  0.64349000  1.0
  H  H5  1  0.39555000  0.26056000  0.85651000  1.0
  H  H6  1  0.89554000  0.23945000  0.35652000  1.0
  H  H7  1  0.60447000  0.73944000  0.14349000  1.0
  H  H8  1  0.36708000  0.75640000  0.68413000  1.0
  H  H9  1  0.13293000  0.25639000  0.81588000  1.0
  H  H10  1  0.63293000  0.24361000  0.31588000  1.0
  H  H11  1  0.86709000  0.74360000  0.18412000  1.0
  H  H12  1  0.99737000  0.62032000  0.73568000  1.0
  H  H13  1  0.50265000  0.12032000  0.76431000  1.0
  H  H14  1  0.00264000  0.37969000  0.26432000  1.0
  H  H15  1  0.49737000  0.87968000  0.23568000  1.0
  H  H16  1  0.26001000  0.58177000  0.72498000  1.0
  H  H17  1  0.24000000  0.08176000  0.77501000  1.0
  H  H18  1  0.73999000  0.41824000  0.27502000  1.0
  H  H19  1  0.76002000  0.91824000  0.22498000  1.0
  H  H20  1  0.22360000  0.40184000  0.92836000  1.0
  H  H21  1  0.27638000  0.90185000  0.57164000  1.0
  H  H22  1  0.77638000  0.59815000  0.07164000  1.0
  H  H23  1  0.72361000  0.09815000  0.42836000  1.0
  H  H24  1  0.26407000  0.23913000  0.01907000  1.0
  H  H25  1  0.23592000  0.73913000  0.48093000  1.0
  H  H26  1  0.73592000  0.76087000  0.98093000  1.0
  H  H27  1  0.76408000  0.26087000  0.51907000  1.0
  H  H28  1  0.32425000  0.25395000  0.18008000  1.0
  H  H29  1  0.17575000  0.75396000  0.31992000  1.0
  H  H30  1  0.67573000  0.74604000  0.81992000  1.0
  H  H31  1  0.82428000  0.24604000  0.68008000  1.0
  H  H32  1  0.34054000  0.43304000  0.25026000  1.0
  H  H33  1  0.15946000  0.93305000  0.24973000  1.0
  H  H34  1  0.65943000  0.56695000  0.74974000  1.0
  H  H35  1  0.84058000  0.06694000  0.75026000  1.0
  H  H36  1  0.29514000  0.59374000  0.15956000  1.0
  H  H37  1  0.20486000  0.09375000  0.34044000  1.0
  H  H38  1  0.70483000  0.40625000  0.84045000  1.0
  H  H39  1  0.79517000  0.90625000  0.65955000  1.0
  C  C40  1  0.20435000  0.74938000  0.70138000  1.0
  C  C41  1  0.29566000  0.24938000  0.79862000  1.0
  C  C42  1  0.79566000  0.25062000  0.29862000  1.0
  C  C43  1  0.70435000  0.75062000  0.20138000  1.0
  C  C44  1  0.15786000  0.64515000  0.74645000  1.0
  C  C45  1  0.34215000  0.14514000  0.75354000  1.0
  C  C46  1  0.84214000  0.35486000  0.25355000  1.0
  C  C47  1  0.65787000  0.85486000  0.24645000  1.0
  C  C48  1  0.18689000  0.76658000  0.86673000  1.0
  C  C49  1  0.31311000  0.26659000  0.63327000  1.0
  C  C50  1  0.81309000  0.23341000  0.13328000  1.0
  C  C51  1  0.68690000  0.73341000  0.36672000  1.0
  C  C52  1  0.25046000  0.71300000  0.01236000  1.0
  C  C53  1  0.24954000  0.21300000  0.48764000  1.0
  C  C54  1  0.74952000  0.28700000  0.98765000  1.0
  C  C55  1  0.75047000  0.78700000  0.51235000  1.0
  C  C56  1  0.23776000  0.60251000  0.97961000  1.0
  C  C57  1  0.26223000  0.10252000  0.52038000  1.0
  C  C58  1  0.76222000  0.39748000  0.02039000  1.0
  C  C59  1  0.73777000  0.89748000  0.47961000  1.0
  C  C60  1  0.25911000  0.50919000  0.03717000  1.0
  C  C61  1  0.24088000  0.00920000  0.46283000  1.0
  C  C62  1  0.74087000  0.49081000  0.96284000  1.0
  C  C63  1  0.75912000  0.99080000  0.53716000  1.0
  C  C64  1  0.24967000  0.40774000  0.99890000  1.0
  C  C65  1  0.25032000  0.90775000  0.50109000  1.0
  C  C66  1  0.75032000  0.59225000  0.00110000  1.0
  C  C67  1  0.74968000  0.09225000  0.49890000  1.0
  C  C68  1  0.27268000  0.31702000  0.04974000  1.0
  C  C69  1  0.22732000  0.81703000  0.45025000  1.0
  C  C70  1  0.72730000  0.68297000  0.95026000  1.0
  C  C71  1  0.77269000  0.18296000  0.54975000  1.0
  C  C72  1  0.30618000  0.32544000  0.14056000  1.0
  C  C73  1  0.19382000  0.82545000  0.35943000  1.0
  C  C74  1  0.69380000  0.67455000  0.85944000  1.0
  C  C75  1  0.80620000  0.17454000  0.64056000  1.0
  C  C76  1  0.31400000  0.42526000  0.17955000  1.0
  C  C77  1  0.18599000  0.92528000  0.32045000  1.0
  C  C78  1  0.68597000  0.57472000  0.82046000  1.0
  C  C79  1  0.81404000  0.07472000  0.67955000  1.0
  C  C80  1  0.28958000  0.51643000  0.12866000  1.0
  C  C81  1  0.21042000  0.01644000  0.37134000  1.0
  C  C82  1  0.71040000  0.48356000  0.87134000  1.0
  C  C83  1  0.78960000  0.98355000  0.62866000  1.0
  S  S84  1  0.14346000  0.85341000  0.78068000  1.0
  S  S85  1  0.35654000  0.35341000  0.71932000  1.0
  S  S86  1  0.85654000  0.14659000  0.21933000  1.0
  S  S87  1  0.64346000  0.64659000  0.28067000  1.0
  N  N88  1  0.21358000  0.58281000  0.89515000  1.0
  N  N89  1  0.28642000  0.08281000  0.60485000  1.0
  N  N90  1  0.78640000  0.41719000  0.10486000  1.0
  N  N91  1  0.71359000  0.91719000  0.39514000  1.0
  N  N92  1  0.19330000  0.66407000  0.84042000  1.0
  N  N93  1  0.30670000  0.16408000  0.65958000  1.0
  N  N94  1  0.80668000  0.33593000  0.15959000  1.0
  N  N95  1  0.69331000  0.83593000  0.34041000  1.0
  N  N96  1  0.21326000  0.79235000  0.95023000  1.0
  N  N97  1  0.28673000  0.29235000  0.54977000  1.0
  N  N98  1  0.78671000  0.20765000  0.04978000  1.0
  N  N99  1  0.71328000  0.70765000  0.45022000  1.0
  Cl  Cl100  1  0.55329000  0.95248000  0.90954000  1.0
  Cl  Cl101  1  0.94670000  0.45248000  0.59046000  1.0
  Cl  Cl102  1  0.44671000  0.04752000  0.09046000  1.0
  Cl  Cl103  1  0.05329000  0.54753000  0.40954000  1.0
  Cl  Cl104  1  0.97829000  0.93395000  0.08948000  1.0
  Cl  Cl105  1  0.52172000  0.43396000  0.41053000  1.0
  Cl  Cl106  1  0.02174000  0.06606000  0.91055000  1.0
  Cl  Cl107  1  0.47827000  0.56606000  0.58946000  1.0
  O  O108  1  0.29566000  0.73815000  0.08886000  1.0
  O  O109  1  0.20435000  0.23816000  0.41114000  1.0
  O  O110  1  0.70434000  0.26184000  0.91115000  1.0
  O  O111  1  0.79567000  0.76184000  0.58885000  1.0
