# generated using pymatgen
data_KH7(CO)4
_symmetry_space_group_name_H-M   'P 1'
_cell_length_a   3.99848000
_cell_length_b   7.15750000
_cell_length_c   23.95340000
_cell_angle_alpha   90.00010000
_cell_angle_beta   90.00060000
_cell_angle_gamma   81.66920000
_symmetry_Int_Tables_number   1
_chemical_formula_structural   KH7(CO)4
_chemical_formula_sum   'K4 H28 C16 O16'
_cell_volume   678.29161236
_cell_formula_units_Z   4
loop_
 _symmetry_equiv_pos_site_id
 _symmetry_equiv_pos_as_xyz
  1  'x, y, z'
loop_
 _atom_site_type_symbol
 _atom_site_label
 _atom_site_symmetry_multiplicity
 _atom_site_fract_x
 _atom_site_fract_y
 _atom_site_fract_z
 _atom_site_occupancy
  K  K0  1  0.47740000  0.74893000  0.21685000  1.0
  K  K1  1  0.02261000  0.75107000  0.71685000  1.0
  K  K2  1  0.52263000  0.25109000  0.78315000  1.0
  K  K3  1  0.97740000  0.24893000  0.28316000  1.0
  H  H4  1  0.74473000  0.46360000  0.12483000  1.0
  H  H5  1  0.75528000  0.03639000  0.62483000  1.0
  H  H6  1  0.25527000  0.53639000  0.87517000  1.0
  H  H7  1  0.24472000  0.96360000  0.37517000  1.0
  H  H8  1  0.82313000  0.53795000  0.38436000  1.0
  H  H9  1  0.67687000  0.96205000  0.88436000  1.0
  H  H10  1  0.17689000  0.46205000  0.61564000  1.0
  H  H11  1  0.32312000  0.03795000  0.11564000  1.0
  H  H12  1  0.80173000  0.77586000  0.40939000  1.0
  H  H13  1  0.69826000  0.72414000  0.90939000  1.0
  H  H14  1  0.19828000  0.22413000  0.59061000  1.0
  H  H15  1  0.30173000  0.27586000  0.09061000  1.0
  H  H16  1  0.19075000  0.62169000  0.41166000  1.0
  H  H17  1  0.30924000  0.87831000  0.91165000  1.0
  H  H18  1  0.80926000  0.37831000  0.58834000  1.0
  H  H19  1  0.69075000  0.12169000  0.08834000  1.0
  H  H20  1  0.81378000  0.79917000  0.00901000  1.0
  H  H21  1  0.68621000  0.70082000  0.50902000  1.0
  H  H22  1  0.18621000  0.20083000  0.99098000  1.0
  H  H23  1  0.31379000  0.29918000  0.49099000  1.0
  H  H24  1  0.20036000  0.64596000  0.00952000  1.0
  H  H25  1  0.29964000  0.85404000  0.50952000  1.0
  H  H26  1  0.79964000  0.35404000  0.99048000  1.0
  H  H27  1  0.70036000  0.14596000  0.49048000  1.0
  H  H28  1  0.17695000  0.87690000  0.04020000  1.0
  H  H29  1  0.32304000  0.62310000  0.54020000  1.0
  H  H30  1  0.82304000  0.12310000  0.95980000  1.0
  H  H31  1  0.67695000  0.37689000  0.45980000  1.0
  C  C32  1  0.04779000  0.72487000  0.32980000  1.0
  C  C33  1  0.45221000  0.77513000  0.82980000  1.0
  C  C34  1  0.95222000  0.27513000  0.67020000  1.0
  C  C35  1  0.54779000  0.22488000  0.17020000  1.0
  C  C36  1  0.95791000  0.66019000  0.38740000  1.0
  C  C37  1  0.54209000  0.83982000  0.88740000  1.0
  C  C38  1  0.04210000  0.33981000  0.61260000  1.0
  C  C39  1  0.45791000  0.16018000  0.11260000  1.0
  C  C40  1  0.94895000  0.67693000  0.08887000  1.0
  C  C41  1  0.55105000  0.82306000  0.58888000  1.0
  C  C42  1  0.05103000  0.32307000  0.91112000  1.0
  C  C43  1  0.44895000  0.17694000  0.41112000  1.0
  C  C44  1  0.04343000  0.75572000  0.03372000  1.0
  C  C45  1  0.45657000  0.74427000  0.53372000  1.0
  C  C46  1  0.95656000  0.24428000  0.96627000  1.0
  C  C47  1  0.54343000  0.25572000  0.46628000  1.0
  O  O48  1  0.99901000  0.62774000  0.28745000  1.0
  O  O49  1  0.50099000  0.87227000  0.78745000  1.0
  O  O50  1  0.00100000  0.37227000  0.71255000  1.0
  O  O51  1  0.49901000  0.12773000  0.21255000  1.0
  O  O52  1  0.17720000  0.88007000  0.32599000  1.0
  O  O53  1  0.32281000  0.61994000  0.82599000  1.0
  O  O54  1  0.82281000  0.11993000  0.67401000  1.0
  O  O55  1  0.67719000  0.38006000  0.17401000  1.0
  O  O56  1  0.00483000  0.75012000  0.13443000  1.0
  O  O57  1  0.49517000  0.74988000  0.63443000  1.0
  O  O58  1  0.99517000  0.24988000  0.86557000  1.0
  O  O59  1  0.50483000  0.25011000  0.36557000  1.0
  O  O60  1  0.80025000  0.52508000  0.08403000  1.0
  O  O61  1  0.69975000  0.97492000  0.58403000  1.0
  O  O62  1  0.19974000  0.47493000  0.91597000  1.0
  O  O63  1  0.30024000  0.02508000  0.41597000  1.0
