# generated using pymatgen
data_MgH6(C2O3)2
_symmetry_space_group_name_H-M   'P 1'
_cell_length_a   7.49996000
_cell_length_b   8.97087000
_cell_length_c   9.32932000
_cell_angle_alpha   90.00010000
_cell_angle_beta   89.99920000
_cell_angle_gamma   89.99990000
_symmetry_Int_Tables_number   1
_chemical_formula_structural   MgH6(C2O3)2
_chemical_formula_sum   'Mg4 H24 C16 O24'
_cell_volume   627.68752907
_cell_formula_units_Z   4
loop_
 _symmetry_equiv_pos_site_id
 _symmetry_equiv_pos_as_xyz
  1  'x, y, z'
loop_
 _atom_site_type_symbol
 _atom_site_label
 _atom_site_symmetry_multiplicity
 _atom_site_fract_x
 _atom_site_fract_y
 _atom_site_fract_z
 _atom_site_occupancy
  Mg  Mg0  1  0.15711000  0.74660000  0.22510000  1.0
  Mg  Mg1  1  0.34289000  0.24660000  0.77490000  1.0
  Mg  Mg2  1  0.84289000  0.75341000  0.72510000  1.0
  Mg  Mg3  1  0.65711000  0.25340000  0.27490000  1.0
  H  H4  1  0.43682000  0.68917000  0.87615000  1.0
  H  H5  1  0.06317000  0.18917000  0.12385000  1.0
  H  H6  1  0.56317000  0.81083000  0.37615000  1.0
  H  H7  1  0.93683000  0.31083000  0.62385000  1.0
  H  H8  1  0.31681000  0.54046000  0.95639000  1.0
  H  H9  1  0.18319000  0.04046000  0.04361000  1.0
  H  H10  1  0.68319000  0.95954000  0.45639000  1.0
  H  H11  1  0.81681000  0.45954000  0.54361000  1.0
  H  H12  1  0.54551000  0.51768000  0.08890000  1.0
  H  H13  1  0.95449000  0.01768000  0.91110000  1.0
  H  H14  1  0.45447000  0.98232000  0.58890000  1.0
  H  H15  1  0.04553000  0.48232000  0.41110000  1.0
  H  H16  1  0.19542000  0.98425000  0.41138000  1.0
  H  H17  1  0.30459000  0.48425000  0.58862000  1.0
  H  H18  1  0.80459000  0.51575000  0.91138000  1.0
  H  H19  1  0.69541000  0.01575000  0.08862000  1.0
  H  H20  1  0.64758000  0.67406000  0.17123000  1.0
  H  H21  1  0.85242000  0.17407000  0.82877000  1.0
  H  H22  1  0.35242000  0.82592000  0.67124000  1.0
  H  H23  1  0.14758000  0.32592000  0.32876000  1.0
  H  H24  1  0.31040000  0.03757000  0.27959000  1.0
  H  H25  1  0.18960000  0.53758000  0.72041000  1.0
  H  H26  1  0.68960000  0.46242000  0.77958000  1.0
  H  H27  1  0.81040000  0.96242000  0.22041000  1.0
  C  C28  1  0.15792000  0.73310000  0.92239000  1.0
  C  C29  1  0.34208000  0.23310000  0.07761000  1.0
  C  C30  1  0.84208000  0.76690000  0.42239000  1.0
  C  C31  1  0.65792000  0.26690000  0.57761000  1.0
  C  C32  1  0.45626000  0.55826000  0.30415000  1.0
  C  C33  1  0.04375000  0.05826000  0.69585000  1.0
  C  C34  1  0.54373000  0.94175000  0.80415000  1.0
  C  C35  1  0.95627000  0.44174000  0.19585000  1.0
  C  C36  1  0.33488000  0.66198000  0.95641000  1.0
  C  C37  1  0.16512000  0.16198000  0.04359000  1.0
  C  C38  1  0.66511000  0.83802000  0.45641000  1.0
  C  C39  1  0.83488000  0.33802000  0.54359000  1.0
  C  C40  1  0.52083000  0.61365000  0.15877000  1.0
  C  C41  1  0.97917000  0.11365000  0.84122000  1.0
  C  C42  1  0.47916000  0.88635000  0.65878000  1.0
  C  C43  1  0.02084000  0.38634000  0.34122000  1.0
  O  O44  1  0.39013000  0.71109000  0.09573000  1.0
  O  O45  1  0.10987000  0.21110000  0.90428000  1.0
  O  O46  1  0.60987000  0.78890000  0.59572000  1.0
  O  O47  1  0.89013000  0.28890000  0.40428000  1.0
  O  O48  1  0.09048000  0.69977000  0.80055000  1.0
  O  O49  1  0.40952000  0.19977000  0.19946000  1.0
  O  O50  1  0.90951000  0.80023000  0.30054000  1.0
  O  O51  1  0.59048000  0.30023000  0.69945000  1.0
  O  O52  1  0.54512000  0.45463000  0.36150000  1.0
  O  O53  1  0.95488000  0.95463000  0.63850000  1.0
  O  O54  1  0.45487000  0.04536000  0.86150000  1.0
  O  O55  1  0.04513000  0.54537000  0.13850000  1.0
  O  O56  1  0.32001000  0.62038000  0.36002000  1.0
  O  O57  1  0.18000000  0.12039000  0.63997000  1.0
  O  O58  1  0.67999000  0.87962000  0.86003000  1.0
  O  O59  1  0.82002000  0.37961000  0.13997000  1.0
  O  O60  1  0.08622000  0.81668000  0.01488000  1.0
  O  O61  1  0.41377000  0.31668000  0.98513000  1.0
  O  O62  1  0.91378000  0.68332000  0.51487000  1.0
  O  O63  1  0.58622000  0.18332000  0.48513000  1.0
  O  O64  1  0.24458000  0.95062000  0.31957000  1.0
  O  O65  1  0.25541000  0.45062000  0.68042000  1.0
  O  O66  1  0.75541000  0.54939000  0.81957000  1.0
  O  O67  1  0.74459000  0.04938000  0.18042000  1.0
