# generated using pymatgen
data_Zn2H14C22N4O9
_symmetry_space_group_name_H-M   'P 1'
_cell_length_a   8.10725000
_cell_length_b   10.43770000
_cell_length_c   14.29340000
_cell_angle_alpha   99.98200000
_cell_angle_beta   93.67820000
_cell_angle_gamma   105.54700000
_symmetry_Int_Tables_number   1
_chemical_formula_structural   Zn2H14C22N4O9
_chemical_formula_sum   'Zn4 H28 C44 N8 O18'
_cell_volume   1139.80252688
_cell_formula_units_Z   2
loop_
 _symmetry_equiv_pos_site_id
 _symmetry_equiv_pos_as_xyz
  1  'x, y, z'
loop_
 _atom_site_type_symbol
 _atom_site_label
 _atom_site_symmetry_multiplicity
 _atom_site_fract_x
 _atom_site_fract_y
 _atom_site_fract_z
 _atom_site_occupancy
  Zn  Zn0  1  0.77607000  0.87426000  0.96868000  1.0
  Zn  Zn1  1  0.22393000  0.12574000  0.03132000  1.0
  Zn  Zn2  1  0.13887000  0.20469000  0.52479000  1.0
  Zn  Zn3  1  0.86113000  0.79531000  0.47521000  1.0
  H  H4  1  0.55070000  0.63921000  0.26955000  1.0
  H  H5  1  0.44930000  0.36079000  0.73045000  1.0
  H  H6  1  0.19410000  0.69088000  0.47545000  1.0
  H  H7  1  0.80589000  0.30912000  0.52455000  1.0
  H  H8  1  0.44728000  0.02551000  0.35074000  1.0
  H  H9  1  0.55271000  0.97449000  0.64926000  1.0
  H  H10  1  0.74141000  0.09597000  0.31881000  1.0
  H  H11  1  0.25859000  0.90403000  0.68119000  1.0
  H  H12  1  0.89668000  0.12101000  0.15287000  1.0
  H  H13  1  0.10332000  0.87900000  0.84713000  1.0
  H  H14  1  0.57361000  0.72048000  0.11998000  1.0
  H  H15  1  0.42639000  0.27952000  0.88002000  1.0
  H  H16  1  0.38645000  0.41613000  0.24252000  1.0
  H  H17  1  0.61354000  0.58387000  0.75748000  1.0
  H  H18  1  0.25902000  0.18393000  0.31382000  1.0
  H  H19  1  0.74097000  0.81607000  0.68618000  1.0
  H  H20  1  0.24557000  0.51885000  0.52251000  1.0
  H  H21  1  0.75443000  0.48115000  0.47749000  1.0
  H  H22  1  0.00382000  0.57946000  0.78852000  1.0
  H  H23  1  0.99618000  0.42054000  0.21148000  1.0
  H  H24  1  0.97944000  0.16250000  0.78886000  1.0
  H  H25  1  0.02056000  0.83750000  0.21114000  1.0
  H  H26  1  0.72691000  0.37509000  0.99223000  1.0
  H  H27  1  0.27309000  0.62491000  0.00777000  1.0
  H  H28  1  0.53480000  0.68284000  0.93396000  1.0
  H  H29  1  0.46520000  0.31717000  0.06604000  1.0
  H  H30  1  0.44064000  0.80196000  0.94522000  1.0
  H  H31  1  0.55937000  0.19805000  0.05478000  1.0
  C  C32  1  0.50948000  0.83735000  0.30261000  1.0
  C  C33  1  0.49052000  0.16265000  0.69739000  1.0
  C  C34  1  0.48136000  0.70154000  0.31005000  1.0
  C  C35  1  0.51864000  0.29846000  0.68995000  1.0
  C  C36  1  0.36827000  0.64985000  0.37283000  1.0
  C  C37  1  0.63173000  0.35015000  0.62718000  1.0
  C  C38  1  0.28637000  0.73177000  0.42860000  1.0
  C  C39  1  0.71362000  0.26822000  0.57140000  1.0
  C  C40  1  0.31736000  0.86706000  0.42106000  1.0
  C  C41  1  0.68263000  0.13293000  0.57894000  1.0
  C  C42  1  0.42804000  0.92048000  0.35756000  1.0
  C  C43  1  0.57195000  0.07952000  0.64243000  1.0
  C  C44  1  0.72698000  0.02468000  0.25207000  1.0
  C  C45  1  0.27302000  0.97532000  0.74793000  1.0
  C  C46  1  0.80582000  0.03434000  0.17089000  1.0
  C  C47  1  0.19418000  0.96567000  0.82912000  1.0
  C  C48  1  0.64095000  0.82560000  0.15079000  1.0
  C  C49  1  0.35905000  0.17440000  0.84921000  1.0
  C  C50  1  0.34056000  0.40346000  0.31064000  1.0
  C  C51  1  0.65943000  0.59653000  0.68936000  1.0
  C  C52  1  0.27709000  0.28912000  0.34654000  1.0
  C  C53  1  0.72291000  0.71088000  0.65346000  1.0
  C  C54  1  0.26599000  0.46085000  0.45579000  1.0
  C  C55  1  0.73401000  0.53915000  0.54421000  1.0
  C  C56  1  0.22512000  0.95320000  0.47858000  1.0
  C  C57  1  0.77488000  0.04679000  0.52142000  1.0
  C  C58  1  0.86099000  0.49040000  0.89551000  1.0
  C  C59  1  0.13901000  0.50960000  0.10449000  1.0
  C  C60  1  0.96109000  0.48943000  0.81942000  1.0
  C  C61  1  0.03892000  0.51057000  0.18058000  1.0
  C  C62  1  0.00082000  0.37035000  0.77965000  1.0
  C  C63  1  0.99918000  0.62966000  0.22035000  1.0
  C  C64  1  0.94772000  0.25459000  0.81939000  1.0
  C  C65  1  0.05229000  0.74541000  0.18060000  1.0
  C  C66  1  0.85022000  0.25525000  0.89670000  1.0
  C  C67  1  0.14979000  0.74475000  0.10329000  1.0
  C  C68  1  0.80484000  0.37270000  0.93311000  1.0
  C  C69  1  0.19516000  0.62731000  0.06689000  1.0
  C  C70  1  0.80037000  0.61116000  0.93393000  1.0
  C  C71  1  0.19964000  0.38884000  0.06607000  1.0
  C  C72  1  0.08600000  0.36343000  0.68948000  1.0
  C  C73  1  0.91401000  0.63657000  0.31052000  1.0
  C  C74  1  0.79102000  0.13025000  0.93817000  1.0
  C  C75  1  0.20899000  0.86976000  0.06183000  1.0
  N  N76  1  0.75005000  0.90990000  0.10839000  1.0
  N  N77  1  0.24995000  0.09010000  0.89161000  1.0
  N  N78  1  0.62220000  0.89177000  0.23866000  1.0
  N  N79  1  0.37780000  0.10823000  0.76134000  1.0
  N  N80  1  0.33223000  0.51172000  0.38030000  1.0
  N  N81  1  0.66777000  0.48828000  0.61970000  1.0
  N  N82  1  0.23152000  0.32680000  0.43693000  1.0
  N  N83  1  0.76848000  0.67320000  0.56307000  1.0
  O  O84  1  0.10824000  0.89951000  0.52700000  1.0
  O  O85  1  0.89176000  0.10049000  0.47300000  1.0
  O  O86  1  0.27312000  0.07913000  0.47671000  1.0
  O  O87  1  0.72688000  0.92087000  0.52329000  1.0
  O  O88  1  0.88148000  0.72751000  0.91547000  1.0
  O  O89  1  0.11852000  0.27250000  0.08454000  1.0
  O  O90  1  0.66974000  0.59161000  0.97873000  1.0
  O  O91  1  0.33026000  0.40839000  0.02127000  1.0
  O  O92  1  0.11680000  0.46053000  0.64682000  1.0
  O  O93  1  0.88321000  0.53948000  0.35317000  1.0
  O  O94  1  0.11610000  0.24686000  0.65899000  1.0
  O  O95  1  0.88390000  0.75315000  0.34100000  1.0
  O  O96  1  0.67764000  0.12016000  0.99427000  1.0
  O  O97  1  0.32237000  0.87984000  0.00573000  1.0
  O  O98  1  0.86266000  0.03426000  0.91166000  1.0
  O  O99  1  0.13735000  0.96574000  0.08834000  1.0
  O  O100  1  0.52633000  0.76467000  0.90938000  1.0
  O  O101  1  0.47367000  0.23534000  0.09062000  1.0
