# generated using pymatgen
data_ZnH16C28(N2O3)2
_symmetry_space_group_name_H-M   'P 1'
_cell_length_a   16.48890000
_cell_length_b   17.79250000
_cell_length_c   23.78790000
_cell_angle_alpha   90.23900000
_cell_angle_beta   90.02850000
_cell_angle_gamma   89.91020000
_symmetry_Int_Tables_number   1
_chemical_formula_structural   ZnH16C28(N2O3)2
_chemical_formula_sum   'Zn2 H32 C56 N8 O12'
_cell_volume   6978.79431586
_cell_formula_units_Z   2
loop_
 _symmetry_equiv_pos_site_id
 _symmetry_equiv_pos_as_xyz
  1  'x, y, z'
loop_
 _atom_site_type_symbol
 _atom_site_label
 _atom_site_symmetry_multiplicity
 _atom_site_fract_x
 _atom_site_fract_y
 _atom_site_fract_z
 _atom_site_occupancy
  Zn  Zn0  1  0.41552000  0.50145000  0.50186000  1.0
  Zn  Zn1  1  0.58261000  0.50077000  0.50193000  1.0
  H  H2  1  0.56142000  0.68007000  0.05563000  1.0
  H  H3  1  0.43879000  0.31944000  0.94799000  1.0
  H  H4  1  0.28582000  0.58316000  0.56311000  1.0
  H  H5  1  0.71029000  0.41742000  0.44104000  1.0
  H  H6  1  0.28824000  0.41890000  0.43984000  1.0
  H  H7  1  0.71246000  0.58490000  0.56194000  1.0
  H  H8  1  0.56143000  0.68009000  0.94931000  1.0
  H  H9  1  0.43872000  0.31941000  0.05432000  1.0
  H  H10  1  0.63005000  0.49715000  0.78712000  1.0
  H  H11  1  0.63025000  0.49652000  0.21607000  1.0
  H  H12  1  0.62947000  0.50000000  0.68132000  1.0
  H  H13  1  0.62993000  0.49471000  0.32201000  1.0
  H  H14  1  0.36979000  0.50665000  0.68150000  1.0
  H  H15  1  0.37031000  0.50070000  0.32221000  1.0
  H  H16  1  0.36943000  0.50373000  0.78734000  1.0
  H  H17  1  0.36967000  0.50251000  0.21626000  1.0
  H  H18  1  0.36742000  0.26419000  0.48375000  1.0
  H  H19  1  0.62911000  0.73600000  0.48466000  1.0
  H  H20  1  0.36912000  0.74067000  0.49213000  1.0
  H  H21  1  0.62761000  0.26450000  0.48894000  1.0
  H  H22  1  0.13313000  0.58681000  0.56497000  1.0
  H  H23  1  0.86293000  0.41322000  0.43692000  1.0
  H  H24  1  0.13557000  0.41482000  0.43567000  1.0
  H  H25  1  0.86510000  0.58871000  0.56353000  1.0
  H  H26  1  0.30263000  0.14616000  0.45718000  1.0
  H  H27  1  0.35575000  0.06631000  0.44516000  1.0
  H  H28  1  0.69748000  0.85512000  0.46315000  1.0
  H  H29  1  0.64621000  0.93829000  0.46099000  1.0
  H  H30  1  0.30559000  0.86433000  0.49823000  1.0
  H  H31  1  0.35947000  0.94529000  0.49477000  1.0
  H  H32  1  0.69513000  0.14569000  0.46381000  1.0
  H  H33  1  0.64255000  0.06428000  0.45603000  1.0
  C  C34  1  0.49816000  0.64808000  0.49527000  1.0
  C  C35  1  0.49726000  0.35402000  0.49765000  1.0
  C  C36  1  0.57333000  0.49926000  0.76362000  1.0
  C  C37  1  0.57363000  0.49703000  0.23970000  1.0
  C  C38  1  0.57307000  0.50108000  0.70512000  1.0
  C  C39  1  0.57353000  0.49605000  0.29818000  1.0
  C  C40  1  0.49962000  0.50407000  0.67558000  1.0
  C  C41  1  0.50014000  0.49709000  0.32779000  1.0
  C  C42  1  0.42625000  0.50493000  0.70524000  1.0
  C  C43  1  0.42663000  0.49951000  0.29832000  1.0
  C  C44  1  0.42609000  0.50331000  0.76376000  1.0
  C  C45  1  0.42634000  0.50072000  0.23983000  1.0
  C  C46  1  0.49977000  0.50060000  0.79250000  1.0
  C  C47  1  0.49993000  0.49926000  0.21101000  1.0
  C  C48  1  0.42369000  0.15472000  0.47304000  1.0
  C  C49  1  0.57540000  0.84693000  0.47785000  1.0
  C  C50  1  0.42614000  0.84976000  0.48288000  1.0
  C  C51  1  0.57293000  0.15499000  0.47626000  1.0
  C  C52  1  0.42396000  0.23247000  0.48153000  1.0
  C  C53  1  0.57330000  0.76883000  0.48356000  1.0
  C  C54  1  0.42582000  0.77156000  0.48809000  1.0
  C  C55  1  0.57151000  0.23275000  0.48438000  1.0
  C  C56  1  0.49746000  0.27082000  0.48787000  1.0
  C  C57  1  0.49902000  0.73172000  0.48855000  1.0
  C  C58  1  0.49856000  0.11474000  0.47213000  1.0
  C  C59  1  0.50136000  0.88826000  0.47684000  1.0
  C  C60  1  0.49966000  0.50544000  0.61246000  1.0
  C  C61  1  0.50036000  0.49641000  0.39087000  1.0
  C  C62  1  0.49951000  0.03581000  0.46927000  1.0
  C  C63  1  0.50176000  0.96688000  0.47158000  1.0
  C  C64  1  0.16520000  0.54891000  0.53663000  1.0
  C  C65  1  0.83185000  0.45190000  0.46520000  1.0
  C  C66  1  0.16659000  0.45279000  0.46447000  1.0
  C  C67  1  0.83305000  0.54992000  0.53590000  1.0
  C  C68  1  0.24936000  0.54717000  0.53583000  1.0
  C  C69  1  0.74775000  0.45388000  0.46729000  1.0
  C  C70  1  0.25070000  0.45480000  0.46651000  1.0
  C  C71  1  0.74890000  0.54808000  0.53523000  1.0
  C  C72  1  0.12192000  0.50073000  0.50026000  1.0
  C  C73  1  0.87644000  0.50076000  0.50026000  1.0
  C  C74  1  0.03616000  0.50055000  0.49981000  1.0
  C  C75  1  0.96222000  0.50057000  0.49979000  1.0
  C  C76  1  0.47705000  0.43230000  0.12303000  1.0
  C  C77  1  0.52287000  0.56729000  0.88058000  1.0
  C  C78  1  0.52286000  0.56699000  0.12358000  1.0
  C  C79  1  0.47724000  0.43258000  0.87999000  1.0
  C  C80  1  0.52259000  0.56580000  0.06123000  1.0
  C  C81  1  0.47762000  0.43371000  0.94238000  1.0
  C  C82  1  0.50005000  0.49975000  0.03177000  1.0
  C  C83  1  0.50012000  0.49977000  0.97185000  1.0
  C  C84  1  0.47745000  0.43363000  0.06069000  1.0
  C  C85  1  0.52267000  0.56588000  0.94292000  1.0
  C  C86  1  0.54444000  0.63001000  0.03183000  1.0
  C  C87  1  0.45577000  0.36950000  0.97177000  1.0
  C  C88  1  0.54448000  0.63003000  0.97279000  1.0
  C  C89  1  0.45571000  0.36945000  0.03082000  1.0
  N  N90  1  0.49980000  0.49964000  0.15033000  1.0
  N  N91  1  0.50003000  0.50000000  0.85322000  1.0
  N  N92  1  0.29106000  0.50106000  0.50147000  1.0
  N  N93  1  0.70723000  0.50093000  0.50166000  1.0
  N  N94  1  0.35155000  0.11468000  0.46793000  1.0
  N  N95  1  0.64852000  0.88507000  0.47594000  1.0
  N  N96  1  0.35447000  0.89090000  0.48186000  1.0
  N  N97  1  0.64555000  0.11555000  0.47476000  1.0
  O  O98  1  0.42919000  0.61587000  0.49775000  1.0
  O  O99  1  0.56602000  0.38658000  0.50117000  1.0
  O  O100  1  0.42856000  0.38666000  0.50163000  1.0
  O  O101  1  0.56667000  0.61480000  0.49799000  1.0
  O  O102  1  0.43088000  0.50656000  0.58804000  1.0
  O  O103  1  0.56929000  0.49627000  0.41504000  1.0
  O  O104  1  0.43159000  0.49630000  0.41523000  1.0
  O  O105  1  0.56853000  0.50499000  0.58820000  1.0
  O  O106  1  0.45840000  0.37628000  0.15012000  1.0
  O  O107  1  0.54144000  0.62337000  0.85355000  1.0
  O  O108  1  0.54176000  0.62284000  0.15114000  1.0
  O  O109  1  0.45844000  0.37671000  0.85245000  1.0
