# generated using pymatgen
data_HgH4C6BrNO2
_symmetry_space_group_name_H-M   'P 1'
_cell_length_a   7.40951000
_cell_length_b   8.01745860
_cell_length_c   14.84070000
_cell_angle_alpha   78.41053603
_cell_angle_beta   90.02470000
_cell_angle_gamma   62.47682470
_symmetry_Int_Tables_number   1
_chemical_formula_structural   HgH4C6BrNO2
_chemical_formula_sum   'Hg4 H16 C24 Br4 N4 O8'
_cell_volume   761.47361256
_cell_formula_units_Z   4
loop_
 _symmetry_equiv_pos_site_id
 _symmetry_equiv_pos_as_xyz
  1  'x, y, z'
loop_
 _atom_site_type_symbol
 _atom_site_label
 _atom_site_symmetry_multiplicity
 _atom_site_fract_x
 _atom_site_fract_y
 _atom_site_fract_z
 _atom_site_occupancy
  Hg  Hg0  1  0.94777000  0.52309000  0.67256000  1.0
  Hg  Hg1  1  0.52918000  0.52268000  0.17283000  1.0
  Hg  Hg2  1  0.05222000  0.47689000  0.32744000  1.0
  Hg  Hg3  1  0.47082000  0.47734000  0.82718000  1.0
  H  H4  1  0.92638000  0.92291000  0.68423000  1.0
  H  H5  1  0.15037000  0.92274000  0.18445000  1.0
  H  H6  1  0.07361000  0.07707000  0.31576000  1.0
  H  H7  1  0.84966000  0.07727000  0.81556000  1.0
  H  H8  1  0.74738000  0.74629000  0.47149000  1.0
  H  H9  1  0.50638000  0.74594000  0.97197000  1.0
  H  H10  1  0.25264000  0.25369000  0.52849000  1.0
  H  H11  1  0.49363000  0.25409000  0.02803000  1.0
  H  H12  1  0.61670000  0.07393000  0.36471000  1.0
  H  H13  1  0.30911000  0.07334000  0.86498000  1.0
  H  H14  1  0.38331000  0.92606000  0.63528000  1.0
  H  H15  1  0.69087000  0.92669000  0.13502000  1.0
  H  H16  1  0.64253000  0.33664000  0.42576000  1.0
  H  H17  1  0.02019000  0.33613000  0.92586000  1.0
  H  H18  1  0.35748000  0.66333000  0.57424000  1.0
  H  H19  1  0.97981000  0.66389000  0.07415000  1.0
  C  C20  1  0.81767000  0.29668000  0.59472000  1.0
  C  C21  1  0.88558000  0.29669000  0.09482000  1.0
  C  C22  1  0.18233000  0.70330000  0.40527000  1.0
  C  C23  1  0.11442000  0.70331000  0.90519000  1.0
  C  C24  1  0.78416000  0.14955000  0.55915000  1.0
  C  C25  1  0.06613000  0.14938000  0.05935000  1.0
  C  C26  1  0.21583000  0.85044000  0.44085000  1.0
  C  C27  1  0.93388000  0.85062000  0.94066000  1.0
  C  C28  1  0.85352000  0.96352000  0.61372000  1.0
  C  C29  1  0.18282000  0.96333000  0.11397000  1.0
  C  C30  1  0.14648000  0.03646000  0.38627000  1.0
  C  C31  1  0.81720000  0.03668000  0.88604000  1.0
  C  C32  1  0.75557000  0.86480000  0.49320000  1.0
  C  C33  1  0.37954000  0.86452000  0.99356000  1.0
  C  C34  1  0.24444000  0.13518000  0.50679000  1.0
  C  C35  1  0.62046000  0.13551000  0.00645000  1.0
  C  C36  1  0.68286000  0.04703000  0.43506000  1.0
  C  C37  1  0.26981000  0.04663000  0.93532000  1.0
  C  C38  1  0.31714000  0.95296000  0.56493000  1.0
  C  C39  1  0.73018000  0.95340000  0.06468000  1.0
  C  C40  1  0.69634000  0.19171000  0.46851000  1.0
  C  C41  1  0.11161000  0.19133000  0.96870000  1.0
  C  C42  1  0.30366000  0.80828000  0.53149000  1.0
  C  C43  1  0.88839000  0.80868000  0.03130000  1.0
  Br  Br44  1  0.67401000  0.67873000  0.79629000  1.0
  Br  Br45  1  0.64751000  0.67830000  0.29646000  1.0
  Br  Br46  1  0.32597000  0.32130000  0.20369000  1.0
  Br  Br47  1  0.35247000  0.32171000  0.70356000  1.0
  N  N48  1  0.83813000  0.82595000  0.58056000  1.0
  N  N49  1  0.33586000  0.82572000  0.08089000  1.0
  N  N50  1  0.16188000  0.17401000  0.41944000  1.0
  N  N51  1  0.66417000  0.17429000  0.91912000  1.0
  O  O52  1  0.88889000  0.25287000  0.68006000  1.0
  O  O53  1  0.85837000  0.25314000  0.18020000  1.0
  O  O54  1  0.11109000  0.74712000  0.31994000  1.0
  O  O55  1  0.14163000  0.74685000  0.81981000  1.0
  O  O56  1  0.78282000  0.45151000  0.53841000  1.0
  O  O57  1  0.76553000  0.45134000  0.03842000  1.0
  O  O58  1  0.21720000  0.54846000  0.46158000  1.0
  O  O59  1  0.23448000  0.54867000  0.96159000  1.0
