# generated using pymatgen
data_AlH12C33(O2F)3
_symmetry_space_group_name_H-M   'P 1'
_cell_length_a   3.96854000
_cell_length_b   20.47640000
_cell_length_c   20.47830000
_cell_angle_alpha   60.02020000
_cell_angle_beta   87.65370000
_cell_angle_gamma   87.82100000
_symmetry_Int_Tables_number   1
_chemical_formula_structural   AlH12C33(O2F)3
_chemical_formula_sum   'Al1 H12 C33 O6 F3'
_cell_volume   1439.93722930
_cell_formula_units_Z   1
loop_
 _symmetry_equiv_pos_site_id
 _symmetry_equiv_pos_as_xyz
  1  'x, y, z'
loop_
 _atom_site_type_symbol
 _atom_site_label
 _atom_site_symmetry_multiplicity
 _atom_site_fract_x
 _atom_site_fract_y
 _atom_site_fract_z
 _atom_site_occupancy
  Al  Al0  1  0.03139000  0.49983000  0.49944000  1.0
  H  H1  1  0.79977000  0.30560000  0.70621000  1.0
  H  H2  1  0.78064000  0.23275000  0.84712000  1.0
  H  H3  1  0.22667000  0.70885000  0.30825000  1.0
  H  H4  1  0.22774000  0.84976000  0.23676000  1.0
  H  H5  1  0.25918000  0.30950000  0.48404000  1.0
  H  H6  1  0.27156000  0.23732000  0.41523000  1.0
  H  H7  1  0.79387000  0.70707000  0.48343000  1.0
  H  H8  1  0.77448000  0.84797000  0.41558000  1.0
  H  H9  1  0.22259000  0.48609000  0.70903000  1.0
  H  H10  1  0.22858000  0.41704000  0.84992000  1.0
  H  H11  1  0.87085000  0.48032000  0.30791000  1.0
  H  H12  1  0.86358000  0.41185000  0.23549000  1.0
  C  C13  1  0.51878000  0.44212000  0.61562000  1.0
  C  C14  1  0.55428000  0.44133000  0.44164000  1.0
  C  C15  1  0.52003000  0.61597000  0.44123000  1.0
  C  C16  1  0.67057000  0.32875000  0.73836000  1.0
  C  C17  1  0.66157000  0.28851000  0.81659000  1.0
  C  C18  1  0.35068000  0.73997000  0.33046000  1.0
  C  C19  1  0.35023000  0.81821000  0.29091000  1.0
  C  C20  1  0.39593000  0.33047000  0.43030000  1.0
  C  C21  1  0.40206000  0.29056000  0.39194000  1.0
  C  C22  1  0.66549000  0.73902000  0.43009000  1.0
  C  C23  1  0.65558000  0.81724000  0.39226000  1.0
  C  C24  1  0.34853000  0.43116000  0.73990000  1.0
  C  C25  1  0.35014000  0.39262000  0.81814000  1.0
  C  C26  1  0.73558000  0.42779000  0.33012000  1.0
  C  C27  1  0.73275000  0.38958000  0.29006000  1.0
  C  C28  1  0.51183000  0.39998000  0.69942000  1.0
  C  C29  1  0.50448000  0.32035000  0.85765000  1.0
  C  C30  1  0.50395000  0.28041000  0.93737000  1.0
  C  C31  1  0.50653000  0.24600000  0.00606000  1.0
  C  C32  1  0.51160000  0.20657000  0.08545000  1.0
  C  C33  1  0.51146000  0.69975000  0.39986000  1.0
  C  C34  1  0.50099000  0.85801000  0.32156000  1.0
  C  C35  1  0.49975000  0.93772000  0.28172000  1.0
  C  C36  1  0.50252000  0.00642000  0.24722000  1.0
  C  C37  1  0.50896000  0.08579000  0.20709000  1.0
  C  C38  1  0.56369000  0.39912000  0.39999000  1.0
  C  C39  1  0.56670000  0.32018000  0.32062000  1.0
  C  C40  1  0.56070000  0.28101000  0.28013000  1.0
  C  C41  1  0.54892000  0.24708000  0.24549000  1.0
  C  C42  1  0.53393000  0.20724000  0.20608000  1.0
  C  C43  1  0.50272000  0.12739000  0.12785000  1.0
  C  C44  1  0.52421000  0.12804000  0.24388000  1.0
  C  C45  1  0.52729000  0.24419000  0.12689000  1.0
  O  O46  1  0.29541000  0.58248000  0.42644000  1.0
  O  O47  1  0.28113000  0.49015000  0.58247000  1.0
  O  O48  1  0.31401000  0.42712000  0.49011000  1.0
  O  O49  1  0.75189000  0.58257000  0.48914000  1.0
  O  O50  1  0.78496000  0.48905000  0.42659000  1.0
  O  O51  1  0.76305000  0.42744000  0.58203000  1.0
  F  F52  1  0.53046000  0.09042000  0.31977000  1.0
  F  F53  1  0.53664000  0.32007000  0.08850000  1.0
  F  F54  1  0.48805000  0.08909000  0.09039000  1.0
