# generated using pymatgen
data_CuH8C9S2BrN4
_symmetry_space_group_name_H-M   'P 1'
_cell_length_a   7.45142000
_cell_length_b   8.39393000
_cell_length_c   19.97830000
_cell_angle_alpha   89.99970000
_cell_angle_beta   89.99980000
_cell_angle_gamma   110.24000000
_symmetry_Int_Tables_number   1
_chemical_formula_structural   CuH8C9S2BrN4
_chemical_formula_sum   'Cu4 H32 C36 S8 Br4 N16'
_cell_volume   1172.41749570
_cell_formula_units_Z   4
loop_
 _symmetry_equiv_pos_site_id
 _symmetry_equiv_pos_as_xyz
  1  'x, y, z'
loop_
 _atom_site_type_symbol
 _atom_site_label
 _atom_site_symmetry_multiplicity
 _atom_site_fract_x
 _atom_site_fract_y
 _atom_site_fract_z
 _atom_site_occupancy
  Cu  Cu0  1  0.95435000  0.41274000  0.42789000  1.0
  Cu  Cu1  1  0.04563000  0.08726000  0.92789000  1.0
  Cu  Cu2  1  0.04565000  0.58726000  0.57211000  1.0
  Cu  Cu3  1  0.95435000  0.91274000  0.07213000  1.0
  H  H4  1  0.96997000  0.80967000  0.32776000  1.0
  H  H5  1  0.03008000  0.69035000  0.82775000  1.0
  H  H6  1  0.03006000  0.19035000  0.67224000  1.0
  H  H7  1  0.96992000  0.30964000  0.17225000  1.0
  H  H8  1  0.72580000  0.80195000  0.32889000  1.0
  H  H9  1  0.27424000  0.69805000  0.82888000  1.0
  H  H10  1  0.27422000  0.19806000  0.67112000  1.0
  H  H11  1  0.72576000  0.30194000  0.17113000  1.0
  H  H12  1  0.26143000  0.82468000  0.40160000  1.0
  H  H13  1  0.73857000  0.67529000  0.90161000  1.0
  H  H14  1  0.73856000  0.17532000  0.59840000  1.0
  H  H15  1  0.26142000  0.32471000  0.09840000  1.0
  H  H16  1  0.24483000  0.08751000  0.46026000  1.0
  H  H17  1  0.75514000  0.41245000  0.96026000  1.0
  H  H18  1  0.75517000  0.91249000  0.53974000  1.0
  H  H19  1  0.24485000  0.58754000  0.03974000  1.0
  H  H20  1  0.55421000  0.33643000  0.47065000  1.0
  H  H21  1  0.44574000  0.16354000  0.97065000  1.0
  H  H22  1  0.44579000  0.66358000  0.52935000  1.0
  H  H23  1  0.55425000  0.83645000  0.02936000  1.0
  H  H24  1  0.51956000  0.96166000  0.27406000  1.0
  H  H25  1  0.48045000  0.53832000  0.77405000  1.0
  H  H26  1  0.48045000  0.03831000  0.72593000  1.0
  H  H27  1  0.51957000  0.46172000  0.22595000  1.0
  H  H28  1  0.62299000  0.01814000  0.15183000  1.0
  H  H29  1  0.37703000  0.48183000  0.65182000  1.0
  H  H30  1  0.37701000  0.98184000  0.84817000  1.0
  H  H31  1  0.62297000  0.51818000  0.34818000  1.0
  H  H32  1  0.36961000  0.02154000  0.06908000  1.0
  H  H33  1  0.63041000  0.47841000  0.56908000  1.0
  H  H34  1  0.63038000  0.97845000  0.93092000  1.0
  H  H35  1  0.36958000  0.52157000  0.43093000  1.0
  C  C36  1  0.87376000  0.87938000  0.31649000  1.0
  C  C37  1  0.12626000  0.62063000  0.81648000  1.0
  C  C38  1  0.12626000  0.12063000  0.68351000  1.0
  C  C39  1  0.87373000  0.37937000  0.18352000  1.0
  C  C40  1  0.71208000  0.06478000  0.39477000  1.0
  C  C41  1  0.28791000  0.43522000  0.89477000  1.0
  C  C42  1  0.28792000  0.93522000  0.60523000  1.0
  C  C43  1  0.71208000  0.56477000  0.10523000  1.0
  C  C44  1  0.38900000  0.93685000  0.40891000  1.0
  C  C45  1  0.61099000  0.56313000  0.90891000  1.0
  C  C46  1  0.61100000  0.06316000  0.59109000  1.0
  C  C47  1  0.38899000  0.43686000  0.09109000  1.0
  C  C48  1  0.37851000  0.08077000  0.44095000  1.0
  C  C49  1  0.62147000  0.41921000  0.94095000  1.0
  C  C50  1  0.62149000  0.91923000  0.55905000  1.0
  C  C51  1  0.37852000  0.58078000  0.05904000  1.0
  C  C52  1  0.54811000  0.21735000  0.44712000  1.0
  C  C53  1  0.45186000  0.28263000  0.94712000  1.0
  C  C54  1  0.45188000  0.78265000  0.55288000  1.0
  C  C55  1  0.54813000  0.71737000  0.05288000  1.0
  C  C56  1  0.11825000  0.95290000  0.20752000  1.0
  C  C57  1  0.88179000  0.54710000  0.70752000  1.0
  C  C58  1  0.88176000  0.04710000  0.79247000  1.0
  C  C59  1  0.11821000  0.45290000  0.29248000  1.0
  C  C60  1  0.42131000  0.96998000  0.23483000  1.0
  C  C61  1  0.57871000  0.53001000  0.73483000  1.0
  C  C62  1  0.57870000  0.03000000  0.76516000  1.0
  C  C63  1  0.42130000  0.47001000  0.26517000  1.0
  C  C64  1  0.47796000  0.99948000  0.16829000  1.0
  C  C65  1  0.52205000  0.50050000  0.66829000  1.0
  C  C66  1  0.52204000  0.00051000  0.83170000  1.0
  C  C67  1  0.47796000  0.49951000  0.33171000  1.0
  C  C68  1  0.33954000  0.00275000  0.12247000  1.0
  C  C69  1  0.66048000  0.49723000  0.62247000  1.0
  C  C70  1  0.66046000  0.99725000  0.87753000  1.0
  C  C71  1  0.33952000  0.50276000  0.37753000  1.0
  S  S72  1  0.93785000  0.06591000  0.36927000  1.0
  S  S73  1  0.06215000  0.43411000  0.86927000  1.0
  S  S74  1  0.06215000  0.93410000  0.63073000  1.0
  S  S75  1  0.93784000  0.56589000  0.13074000  1.0
  S  S76  1  0.87902000  0.91925000  0.22732000  1.0
  S  S77  1  0.12099000  0.58074000  0.72731000  1.0
  S  S78  1  0.12098000  0.08075000  0.77268000  1.0
  S  S79  1  0.87902000  0.41926000  0.27269000  1.0
  Br  Br80  1  0.86680000  0.65521000  0.46889000  1.0
  Br  Br81  1  0.13322000  0.84480000  0.96889000  1.0
  Br  Br82  1  0.13321000  0.34479000  0.53111000  1.0
  Br  Br83  1  0.86676000  0.15519000  0.03112000  1.0
  N  N84  1  0.55518000  0.92821000  0.38635000  1.0
  N  N85  1  0.44483000  0.57178000  0.88635000  1.0
  N  N86  1  0.44483000  0.07180000  0.61365000  1.0
  N  N87  1  0.55516000  0.42820000  0.11365000  1.0
  N  N88  1  0.71604000  0.21283000  0.42373000  1.0
  N  N89  1  0.28395000  0.28716000  0.92373000  1.0
  N  N90  1  0.28396000  0.78716000  0.57627000  1.0
  N  N91  1  0.71605000  0.71284000  0.07627000  1.0
  N  N92  1  0.15737000  0.97547000  0.14077000  1.0
  N  N93  1  0.84265000  0.52452000  0.64077000  1.0
  N  N94  1  0.84263000  0.02452000  0.85923000  1.0
  N  N95  1  0.15735000  0.47548000  0.35923000  1.0
  N  N96  1  0.24261000  0.94964000  0.25489000  1.0
  N  N97  1  0.75740000  0.55037000  0.75488000  1.0
  N  N98  1  0.75739000  0.05035000  0.74511000  1.0
  N  N99  1  0.24261000  0.44965000  0.24512000  1.0
