# generated using pymatgen
data_AlH11C7
_symmetry_space_group_name_H-M   'P 1'
_cell_length_a   6.32199000
_cell_length_b   9.07552000
_cell_length_c   11.92410000
_cell_angle_alpha   89.99760000
_cell_angle_beta   99.10920000
_cell_angle_gamma   89.99980000
_symmetry_Int_Tables_number   1
_chemical_formula_structural   AlH11C7
_chemical_formula_sum   'Al4 H44 C28'
_cell_volume   675.52115156
_cell_formula_units_Z   4
loop_
 _symmetry_equiv_pos_site_id
 _symmetry_equiv_pos_as_xyz
  1  'x, y, z'
loop_
 _atom_site_type_symbol
 _atom_site_label
 _atom_site_symmetry_multiplicity
 _atom_site_fract_x
 _atom_site_fract_y
 _atom_site_fract_z
 _atom_site_occupancy
  Al  Al0  1  0.78027000  0.21751000  0.86566000  1.0
  Al  Al1  1  0.71973000  0.71749000  0.63433000  1.0
  Al  Al2  1  0.21973000  0.78247000  0.13434000  1.0
  Al  Al3  1  0.28028000  0.28251000  0.36566000  1.0
  H  H4  1  0.45206000  0.05657000  0.79385000  1.0
  H  H5  1  0.04795000  0.55654000  0.70614000  1.0
  H  H6  1  0.54794000  0.94344000  0.20613000  1.0
  H  H7  1  0.95207000  0.44345000  0.29387000  1.0
  H  H8  1  0.77331000  0.87827000  0.88329000  1.0
  H  H9  1  0.72667000  0.37826000  0.61670000  1.0
  H  H10  1  0.22666000  0.12174000  0.11670000  1.0
  H  H11  1  0.27333000  0.62173000  0.38331000  1.0
  H  H12  1  0.44837000  0.36221000  0.76744000  1.0
  H  H13  1  0.05166000  0.86220000  0.73257000  1.0
  H  H14  1  0.55165000  0.63780000  0.23259000  1.0
  H  H15  1  0.94835000  0.13780000  0.26743000  1.0
  H  H16  1  0.61812000  0.51868000  0.95444000  1.0
  H  H17  1  0.88188000  0.01869000  0.54556000  1.0
  H  H18  1  0.38189000  0.48134000  0.04558000  1.0
  H  H19  1  0.11812000  0.98131000  0.45444000  1.0
  H  H20  1  0.53336000  0.15543000  0.59116000  1.0
  H  H21  1  0.96667000  0.65540000  0.90883000  1.0
  H  H22  1  0.46665000  0.84458000  0.40883000  1.0
  H  H23  1  0.03333000  0.34460000  0.09116000  1.0
  H  H24  1  0.67348000  0.28354000  0.06361000  1.0
  H  H25  1  0.82651000  0.78352000  0.43638000  1.0
  H  H26  1  0.32650000  0.71647000  0.93638000  1.0
  H  H27  1  0.17349000  0.21646000  0.56362000  1.0
  H  H28  1  0.78523000  0.10455000  0.06365000  1.0
  H  H29  1  0.71475000  0.60453000  0.43635000  1.0
  H  H30  1  0.21477000  0.89546000  0.93635000  1.0
  H  H31  1  0.28525000  0.39545000  0.56365000  1.0
  H  H32  1  0.51680000  0.13594000  0.99983000  1.0
  H  H33  1  0.98318000  0.63595000  0.50016000  1.0
  H  H34  1  0.48320000  0.86405000  0.00017000  1.0
  H  H35  1  0.01682000  0.36404000  0.49983000  1.0
  H  H36  1  0.17355000  0.13815000  0.91123000  1.0
  H  H37  1  0.32645000  0.63813000  0.58876000  1.0
  H  H38  1  0.82644000  0.86185000  0.08878000  1.0
  H  H39  1  0.67356000  0.36186000  0.41123000  1.0
  H  H40  1  0.11773000  0.20329000  0.76903000  1.0
  H  H41  1  0.38229000  0.70328000  0.73096000  1.0
  H  H42  1  0.88227000  0.79671000  0.23098000  1.0
  H  H43  1  0.61771000  0.29671000  0.26903000  1.0
  H  H44  1  0.15823000  0.33026000  0.88388000  1.0
  H  H45  1  0.34179000  0.83024000  0.61612000  1.0
  H  H46  1  0.84177000  0.66974000  0.11613000  1.0
  H  H47  1  0.65822000  0.16974000  0.38387000  1.0
  C  C48  1  0.60121000  0.04024000  0.76025000  1.0
  C  C49  1  0.89878000  0.54024000  0.73974000  1.0
  C  C50  1  0.39879000  0.95977000  0.23974000  1.0
  C  C51  1  0.10123000  0.45977000  0.26026000  1.0
  C  C52  1  0.75944000  0.93393000  0.80191000  1.0
  C  C53  1  0.74054000  0.43393000  0.69809000  1.0
  C  C54  1  0.24054000  0.06606000  0.19809000  1.0
  C  C55  1  0.25945000  0.56607000  0.30191000  1.0
  C  C56  1  0.60897000  0.41001000  0.78298000  1.0
  C  C57  1  0.89105000  0.91001000  0.71701000  1.0
  C  C58  1  0.39103000  0.59001000  0.21703000  1.0
  C  C59  1  0.10895000  0.08998000  0.28298000  1.0
  C  C60  1  0.68754000  0.50679000  0.87734000  1.0
  C  C61  1  0.81247000  0.00678000  0.62265000  1.0
  C  C62  1  0.31245000  0.49323000  0.12268000  1.0
  C  C63  1  0.18752000  0.99322000  0.37734000  1.0
  C  C64  1  0.63420000  0.08068000  0.64721000  1.0
  C  C65  1  0.86581000  0.58068000  0.85277000  1.0
  C  C66  1  0.36582000  0.91933000  0.35278000  1.0
  C  C67  1  0.13417000  0.41932000  0.14723000  1.0
  C  C68  1  0.67866000  0.18349000  0.01219000  1.0
  C  C69  1  0.82138000  0.68352000  0.48782000  1.0
  C  C70  1  0.32133000  0.81651000  0.98781000  1.0
  C  C71  1  0.17862000  0.31647000  0.51218000  1.0
  C  C72  1  0.08768000  0.22310000  0.85606000  1.0
  C  C73  1  0.41234000  0.72313000  0.64395000  1.0
  C  C74  1  0.91232000  0.77690000  0.14394000  1.0
  C  C75  1  0.58767000  0.27686000  0.35603000  1.0
