# generated using pymatgen
data_AgH6C8N(OF)3
_symmetry_space_group_name_H-M   'P 1'
_cell_length_a   5.63482000
_cell_length_b   11.26673142
_cell_length_c   16.24828002
_cell_angle_alpha   107.48802943
_cell_angle_beta   90.05837020
_cell_angle_gamma   104.46170710
_symmetry_Int_Tables_number   1
_chemical_formula_structural   AgH6C8N(OF)3
_chemical_formula_sum   'Ag4 H24 C32 N4 O12 F12'
_cell_volume   949.44987322
_cell_formula_units_Z   4
loop_
 _symmetry_equiv_pos_site_id
 _symmetry_equiv_pos_as_xyz
  1  'x, y, z'
loop_
 _atom_site_type_symbol
 _atom_site_label
 _atom_site_symmetry_multiplicity
 _atom_site_fract_x
 _atom_site_fract_y
 _atom_site_fract_z
 _atom_site_occupancy
  Ag  Ag0  1  0.63307000  0.55948000  0.69784000  1.0
  Ag  Ag1  1  0.07376000  0.44131000  0.80261000  1.0
  Ag  Ag2  1  0.36690000  0.44053000  0.30217000  1.0
  Ag  Ag3  1  0.92624000  0.55868000  0.19738000  1.0
  H  H4  1  0.23693000  0.48691000  0.62452000  1.0
  H  H5  1  0.74976000  0.51357000  0.87568000  1.0
  H  H6  1  0.76308000  0.51310000  0.37550000  1.0
  H  H7  1  0.25023000  0.48642000  0.12431000  1.0
  H  H8  1  0.83134000  0.33772000  0.57445000  1.0
  H  H9  1  0.49393000  0.66302000  0.92611000  1.0
  H  H10  1  0.16864000  0.66230000  0.42558000  1.0
  H  H11  1  0.50607000  0.33698000  0.07388000  1.0
  H  H12  1  0.80601000  0.94315000  0.56775000  1.0
  H  H13  1  0.86339000  0.05670000  0.93173000  1.0
  H  H14  1  0.19399000  0.05685000  0.43226000  1.0
  H  H15  1  0.13663000  0.94330000  0.06828000  1.0
  H  H16  1  0.91415000  0.81527000  0.49654000  1.0
  H  H17  1  0.09883000  0.18458000  0.00324000  1.0
  H  H18  1  0.08580000  0.18472000  0.50346000  1.0
  H  H19  1  0.90118000  0.81543000  0.99677000  1.0
  H  H20  1  0.01857000  0.76513000  0.62405000  1.0
  H  H21  1  0.25360000  0.23497000  0.87591000  1.0
  H  H22  1  0.98143000  0.23488000  0.37596000  1.0
  H  H23  1  0.74639000  0.76501000  0.12409000  1.0
  H  H24  1  0.84902000  0.86557000  0.68974000  1.0
  H  H25  1  0.98339000  0.13487000  0.80999000  1.0
  H  H26  1  0.15101000  0.13445000  0.31027000  1.0
  H  H27  1  0.01661000  0.86511000  0.19001000  1.0
  C  C28  1  0.13474000  0.49363000  0.56975000  1.0
  C  C29  1  0.64089000  0.50658000  0.93033000  1.0
  C  C30  1  0.86524000  0.50639000  0.43027000  1.0
  C  C31  1  0.35911000  0.49340000  0.06965000  1.0
  C  C32  1  0.90412000  0.40834000  0.54142000  1.0
  C  C33  1  0.49584000  0.59200000  0.95883000  1.0
  C  C34  1  0.09584000  0.59167000  0.45860000  1.0
  C  C35  1  0.50415000  0.40800000  0.04116000  1.0
  C  C36  1  0.23408000  0.58642000  0.52903000  1.0
  C  C37  1  0.64742000  0.41346000  0.97080000  1.0
  C  C38  1  0.76591000  0.41359000  0.47099000  1.0
  C  C39  1  0.35257000  0.58653000  0.02919000  1.0
  C  C40  1  0.47769000  0.67723000  0.55777000  1.0
  C  C41  1  0.80031000  0.32271000  0.94202000  1.0
  C  C42  1  0.52231000  0.32278000  0.44224000  1.0
  C  C43  1  0.19968000  0.67728000  0.05797000  1.0
  C  C44  1  0.79807000  0.84058000  0.54983000  1.0
  C  C45  1  0.95760000  0.15930000  0.94981000  1.0
  C  C46  1  0.20190000  0.15942000  0.45018000  1.0
  C  C47  1  0.04240000  0.84069000  0.05019000  1.0
  C  C48  1  0.84594000  0.79377000  0.62635000  1.0
  C  C49  1  0.05235000  0.20643000  0.87349000  1.0
  C  C50  1  0.15404000  0.20623000  0.37366000  1.0
  C  C51  1  0.94767000  0.79357000  0.12652000  1.0
  C  C52  1  0.32740000  0.85735000  0.82790000  1.0
  C  C53  1  0.46836000  0.14320000  0.67264000  1.0
  C  C54  1  0.67259000  0.14264000  0.17209000  1.0
  C  C55  1  0.53172000  0.85682000  0.32734000  1.0
  C  C56  1  0.14839000  0.72086000  0.81156000  1.0
  C  C57  1  0.42794000  0.28009000  0.68868000  1.0
  C  C58  1  0.85160000  0.27914000  0.18844000  1.0
  C  C59  1  0.57207000  0.71992000  0.31131000  1.0
  N  N60  1  0.63499000  0.68123000  0.61726000  1.0
  N  N61  1  0.95401000  0.31909000  0.88276000  1.0
  N  N62  1  0.36498000  0.31877000  0.38275000  1.0
  N  N63  1  0.04600000  0.68089000  0.11723000  1.0
  O  O64  1  0.92641000  0.71436000  0.82090000  1.0
  O  O65  1  0.21293000  0.28729000  0.67924000  1.0
  O  O66  1  0.07358000  0.28565000  0.17909000  1.0
  O  O67  1  0.78706000  0.71269000  0.32076000  1.0
  O  O68  1  0.25726000  0.63091000  0.78934000  1.0
  O  O69  1  0.62749000  0.36951000  0.71074000  1.0
  O  O70  1  0.74270000  0.36908000  0.21066000  1.0
  O  O71  1  0.37249000  0.63050000  0.28925000  1.0
  O  O72  1  0.54351000  0.76818000  0.51724000  1.0
  O  O73  1  0.77504000  0.23141000  0.98227000  1.0
  O  O74  1  0.45647000  0.23183000  0.48277000  1.0
  O  O75  1  0.22497000  0.76859000  0.01773000  1.0
  F  F76  1  0.43431000  0.86806000  0.75402000  1.0
  F  F77  1  0.56426000  0.13243000  0.74658000  1.0
  F  F78  1  0.56569000  0.13192000  0.24597000  1.0
  F  F79  1  0.43559000  0.86757000  0.25343000  1.0
  F  F80  1  0.21211000  0.95357000  0.85411000  1.0
  F  F81  1  0.25564000  0.04769000  0.64665000  1.0
  F  F82  1  0.78790000  0.04643000  0.14589000  1.0
  F  F83  1  0.74451000  0.95228000  0.35323000  1.0
  F  F84  1  0.51212000  0.88184000  0.88979000  1.0
  F  F85  1  0.62771000  0.11762000  0.61073000  1.0
  F  F86  1  0.48788000  0.11815000  0.11020000  1.0
  F  F87  1  0.37260000  0.88250000  0.38934000  1.0
