# generated using pymatgen
data_NiH26C16(NO)4
_symmetry_space_group_name_H-M   'P 1'
_cell_length_a   9.25588000
_cell_length_b   9.97951000
_cell_length_c   10.69900000
_cell_angle_alpha   92.38730000
_cell_angle_beta   99.69160000
_cell_angle_gamma   106.93900000
_symmetry_Int_Tables_number   1
_chemical_formula_structural   NiH26C16(NO)4
_chemical_formula_sum   'Ni2 H52 C32 N8 O8'
_cell_volume   927.56905324
_cell_formula_units_Z   2
loop_
 _symmetry_equiv_pos_site_id
 _symmetry_equiv_pos_as_xyz
  1  'x, y, z'
loop_
 _atom_site_type_symbol
 _atom_site_label
 _atom_site_symmetry_multiplicity
 _atom_site_fract_x
 _atom_site_fract_y
 _atom_site_fract_z
 _atom_site_occupancy
  Ni  Ni0  1  0.57231000  0.24379000  0.23142000  1.0
  Ni  Ni1  1  0.42770000  0.75621000  0.76858000  1.0
  H  H2  1  0.64930000  0.02962000  0.17248000  1.0
  H  H3  1  0.35069000  0.97038000  0.82751000  1.0
  H  H4  1  0.69635000  0.13876000  0.06743000  1.0
  H  H5  1  0.30364000  0.86124000  0.93256000  1.0
  H  H6  1  0.92879000  0.27612000  0.20045000  1.0
  H  H7  1  0.07121000  0.72387000  0.79954000  1.0
  H  H8  1  0.92892000  0.09823000  0.18300000  1.0
  H  H9  1  0.07108000  0.90176000  0.81699000  1.0
  H  H10  1  0.63674000  0.14365000  0.43915000  1.0
  H  H11  1  0.36327000  0.85635000  0.56085000  1.0
  H  H12  1  0.02257000  0.18497000  0.40337000  1.0
  H  H13  1  0.97743000  0.81501000  0.59662000  1.0
  H  H14  1  0.83976000  0.06218000  0.39373000  1.0
  H  H15  1  0.16023000  0.93782000  0.60626000  1.0
  H  H16  1  0.51536000  0.35356000  0.03030000  1.0
  H  H17  1  0.48465000  0.64644000  0.96970000  1.0
  H  H18  1  0.47958000  0.18697000  0.98502000  1.0
  H  H19  1  0.52043000  0.81303000  0.01498000  1.0
  H  H20  1  0.90171000  0.28849000  0.54139000  1.0
  H  H21  1  0.09830000  0.71150000  0.45860000  1.0
  H  H22  1  0.89637000  0.38172000  0.40352000  1.0
  H  H23  1  0.10364000  0.61828000  0.59649000  1.0
  H  H24  1  0.50824000  0.45432000  0.31026000  1.0
  H  H25  1  0.49175000  0.54568000  0.68974000  1.0
  H  H26  1  0.69990000  0.44731000  0.49331000  1.0
  H  H27  1  0.30010000  0.55268000  0.50668000  1.0
  H  H28  1  0.65059000  0.31875000  0.60196000  1.0
  H  H29  1  0.34941000  0.68125000  0.39804000  1.0
  H  H30  1  0.39429000  0.20916000  0.45278000  1.0
  H  H31  1  0.60572000  0.79084000  0.54721000  1.0
  H  H32  1  0.41791000  0.38402000  0.51161000  1.0
  H  H33  1  0.58210000  0.61597000  0.48839000  1.0
  H  H34  1  0.23141000  0.39746000  0.30788000  1.0
  H  H35  1  0.76858000  0.60252000  0.69212000  1.0
  H  H36  1  0.21806000  0.21875000  0.26960000  1.0
  H  H37  1  0.78195000  0.78124000  0.73040000  1.0
  H  H38  1  0.33123000  0.45486000  0.10195000  1.0
  H  H39  1  0.66878000  0.54514000  0.89805000  1.0
  H  H40  1  0.13966000  0.34669000  0.08355000  1.0
  H  H41  1  0.86034000  0.65331000  0.91645000  1.0
  H  H42  1  0.23369000  0.13241000  0.05590000  1.0
  H  H43  1  0.76632000  0.86759000  0.94410000  1.0
  H  H44  1  0.24529000  0.24492000  0.93186000  1.0
  H  H45  1  0.75472000  0.75509000  0.06814000  1.0
  H  H46  1  0.23386000  0.66935000  0.10296000  1.0
  H  H47  1  0.76614000  0.33065000  0.89706000  1.0
  H  H48  1  0.97911000  0.50185000  0.12479000  1.0
  H  H49  1  0.02090000  0.49815000  0.87523000  1.0
  H  H50  1  0.87783000  0.83201000  0.32749000  1.0
  H  H51  1  0.12217000  0.16801000  0.67251000  1.0
  H  H52  1  0.13731000  0.99840000  0.31294000  1.0
  H  H53  1  0.86269000  0.00161000  0.68707000  1.0
  C  C54  1  0.87287000  0.16923000  0.22338000  1.0
  C  C55  1  0.12712000  0.83077000  0.77662000  1.0
  C  C56  1  0.89906000  0.16760000  0.36814000  1.0
  C  C57  1  0.10093000  0.83240000  0.63186000  1.0
  C  C58  1  0.85172000  0.27880000  0.43928000  1.0
  C  C59  1  0.14829000  0.72119000  0.56072000  1.0
  C  C60  1  0.63103000  0.33859000  0.50076000  1.0
  C  C61  1  0.36897000  0.66141000  0.49924000  1.0
  C  C62  1  0.46191000  0.31960000  0.45058000  1.0
  C  C63  1  0.53810000  0.68039000  0.54942000  1.0
  C  C64  1  0.28159000  0.32784000  0.25779000  1.0
  C  C65  1  0.71841000  0.67215000  0.74220000  1.0
  C  C66  1  0.25960000  0.34893000  0.11627000  1.0
  C  C67  1  0.74040000  0.65107000  0.88373000  1.0
  C  C68  1  0.29241000  0.23835000  0.03204000  1.0
  C  C69  1  0.70760000  0.76165000  0.96796000  1.0
  C  C70  1  0.35562000  0.94208000  0.19591000  1.0
  C  C71  1  0.64437000  0.05792000  0.80408000  1.0
  C  C72  1  0.20110000  0.84383000  0.20727000  1.0
  C  C73  1  0.79891000  0.15618000  0.79274000  1.0
  C  C74  1  0.15592000  0.70388000  0.15330000  1.0
  C  C75  1  0.84408000  0.29613000  0.84672000  1.0
  C  C76  1  0.01480000  0.61121000  0.16496000  1.0
  C  C77  1  0.98519000  0.38880000  0.83506000  1.0
  C  C78  1  0.91435000  0.65728000  0.22806000  1.0
  C  C79  1  0.08564000  0.34273000  0.77195000  1.0
  C  C80  1  0.95794000  0.79797000  0.27948000  1.0
  C  C81  1  0.04205000  0.20205000  0.72052000  1.0
  C  C82  1  0.10063000  0.88986000  0.27045000  1.0
  C  C83  1  0.89937000  0.11015000  0.72956000  1.0
  C  C84  1  0.76142000  0.55663000  0.24160000  1.0
  C  C85  1  0.23856000  0.44338000  0.75838000  1.0
  N  N86  1  0.70934000  0.13202000  0.16413000  1.0
  N  N87  1  0.29065000  0.86798000  0.83587000  1.0
  N  N88  1  0.68346000  0.24547000  0.42044000  1.0
  N  N89  1  0.31655000  0.75452000  0.57956000  1.0
  N  N90  1  0.45794000  0.25457000  0.04949000  1.0
  N  N91  1  0.54207000  0.74543000  0.95051000  1.0
  N  N92  1  0.44291000  0.35144000  0.31691000  1.0
  N  N93  1  0.55709000  0.64856000  0.68309000  1.0
  O  O94  1  0.40463000  0.05733000  0.26863000  1.0
  O  O95  1  0.59538000  0.94267000  0.73136000  1.0
  O  O96  1  0.74005000  0.42764000  0.20263000  1.0
  O  O97  1  0.25995000  0.57237000  0.79738000  1.0
  O  O98  1  0.42517000  0.90471000  0.11505000  1.0
  O  O99  1  0.57482000  0.09528000  0.88495000  1.0
  O  O100  1  0.66912000  0.60515000  0.28977000  1.0
  O  O101  1  0.33084000  0.39487000  0.71019000  1.0
