# generated using pymatgen
data_HgH14C18I2(N2O)2
_symmetry_space_group_name_H-M   'P 1'
_cell_length_a   5.49803000
_cell_length_b   16.06721135
_cell_length_c   27.83287108
_cell_angle_alpha   86.37970102
_cell_angle_beta   84.47866618
_cell_angle_gamma   80.32932103
_symmetry_Int_Tables_number   1
_chemical_formula_structural   HgH14C18I2(N2O)2
_chemical_formula_sum   'Hg4 H56 C72 I8 N16 O8'
_cell_volume   2409.74906339
_cell_formula_units_Z   4
loop_
 _symmetry_equiv_pos_site_id
 _symmetry_equiv_pos_as_xyz
  1  'x, y, z'
loop_
 _atom_site_type_symbol
 _atom_site_label
 _atom_site_symmetry_multiplicity
 _atom_site_fract_x
 _atom_site_fract_y
 _atom_site_fract_z
 _atom_site_occupancy
  Hg  Hg0  1  0.35267000  0.75758000  0.97999000  1.0
  Hg  Hg1  1  0.08943000  0.74184000  0.52030000  1.0
  Hg  Hg2  1  0.64733000  0.24243000  0.02002000  1.0
  Hg  Hg3  1  0.91060000  0.25814000  0.47970000  1.0
  H  H4  1  0.53508000  0.50864000  0.11008000  1.0
  H  H5  1  0.15494000  0.99097000  0.39004000  1.0
  H  H6  1  0.46493000  0.49136000  0.88990000  1.0
  H  H7  1  0.84509000  0.00902000  0.60996000  1.0
  H  H8  1  0.73570000  0.46417000  0.31990000  1.0
  H  H9  1  0.51905000  0.03607000  0.17966000  1.0
  H  H10  1  0.26431000  0.53583000  0.68010000  1.0
  H  H11  1  0.48092000  0.96394000  0.82034000  1.0
  H  H12  1  0.21846000  0.56390000  0.01161000  1.0
  H  H13  1  0.79524000  0.93522000  0.48888000  1.0
  H  H14  1  0.78155000  0.43610000  0.98839000  1.0
  H  H15  1  0.20473000  0.06476000  0.51113000  1.0
  H  H16  1  0.90186000  0.49366000  0.06098000  1.0
  H  H17  1  0.45839000  0.00570000  0.43943000  1.0
  H  H18  1  0.09814000  0.50635000  0.93902000  1.0
  H  H19  1  0.54159000  0.99428000  0.56057000  1.0
  H  H20  1  0.55383000  0.74062000  0.10797000  1.0
  H  H21  1  0.40006000  0.75904000  0.39179000  1.0
  H  H22  1  0.44621000  0.25938000  0.89203000  1.0
  H  H23  1  0.59997000  0.24095000  0.60821000  1.0
  H  H24  1  0.88825000  0.80019000  0.05728000  1.0
  H  H25  1  0.74321000  0.69925000  0.44254000  1.0
  H  H26  1  0.11178000  0.19981000  0.94273000  1.0
  H  H27  1  0.25681000  0.30074000  0.55746000  1.0
  H  H28  1  0.90915000  0.64330000  0.19712000  1.0
  H  H29  1  0.74610000  0.85662000  0.30294000  1.0
  H  H30  1  0.09084000  0.35670000  0.80285000  1.0
  H  H31  1  0.25394000  0.14337000  0.69705000  1.0
  H  H32  1  0.66080000  0.54922000  0.24829000  1.0
  H  H33  1  0.45647000  0.95067000  0.25152000  1.0
  H  H34  1  0.33915000  0.45079000  0.75169000  1.0
  H  H35  1  0.54351000  0.04933000  0.74848000  1.0
  H  H36  1  0.24012000  0.33647000  0.22004000  1.0
  H  H37  1  0.80016000  0.16328000  0.27976000  1.0
  H  H38  1  0.75988000  0.66354000  0.77998000  1.0
  H  H39  1  0.19975000  0.83673000  0.72025000  1.0
  H  H40  1  0.48987000  0.43070000  0.17126000  1.0
  H  H41  1  0.09444000  0.06895000  0.32863000  1.0
  H  H42  1  0.51016000  0.56930000  0.82875000  1.0
  H  H43  1  0.90549000  0.93106000  0.67138000  1.0
  H  H44  1  0.14503000  0.22709000  0.36616000  1.0
  H  H45  1  0.73964000  0.27301000  0.13371000  1.0
  H  H46  1  0.85501000  0.77290000  0.63384000  1.0
  H  H47  1  0.26033000  0.72700000  0.86630000  1.0
  H  H48  1  0.42943000  0.27856000  0.30060000  1.0
  H  H49  1  0.00958000  0.22095000  0.19933000  1.0
  H  H50  1  0.57063000  0.72142000  0.69940000  1.0
  H  H51  1  0.99036000  0.77907000  0.80068000  1.0
  H  H52  1  0.57273000  0.45856000  0.40040000  1.0
  H  H53  1  0.42970000  0.04231000  0.09913000  1.0
  H  H54  1  0.42728000  0.54144000  0.59959000  1.0
  H  H55  1  0.57030000  0.95772000  0.90088000  1.0
  H  H56  1  0.27706000  0.40002000  0.46093000  1.0
  H  H57  1  0.13550000  0.10089000  0.03862000  1.0
  H  H58  1  0.72293000  0.59999000  0.53907000  1.0
  H  H59  1  0.86453000  0.89912000  0.96138000  1.0
  C  C60  1  0.06775000  0.60091000  0.03346000  1.0
  C  C61  1  0.70277000  0.89835000  0.46683000  1.0
  C  C62  1  0.93225000  0.39910000  0.96654000  1.0
  C  C63  1  0.29723000  0.10162000  0.53317000  1.0
  C  C64  1  0.89105000  0.56206000  0.06093000  1.0
  C  C65  1  0.51484000  0.93731000  0.43936000  1.0
  C  C66  1  0.10898000  0.43794000  0.93907000  1.0
  C  C67  1  0.48516000  0.06267000  0.56065000  1.0
  C  C68  1  0.70147000  0.61165000  0.08905000  1.0
  C  C69  1  0.40203000  0.88787000  0.41102000  1.0
  C  C70  1  0.29854000  0.38835000  0.91094000  1.0
  C  C71  1  0.59798000  0.11212000  0.58898000  1.0
  C  C72  1  0.69870000  0.69936000  0.08771000  1.0
  C  C73  1  0.48435000  0.80016000  0.41221000  1.0
  C  C74  1  0.30133000  0.30064000  0.91229000  1.0
  C  C75  1  0.51565000  0.19983000  0.58779000  1.0
  C  C76  1  0.88448000  0.73230000  0.05913000  1.0
  C  C77  1  0.67447000  0.76712000  0.44081000  1.0
  C  C78  1  0.11554000  0.26770000  0.94087000  1.0
  C  C79  1  0.32556000  0.23286000  0.55918000  1.0
  C  C80  1  0.35054000  0.60525000  0.15168000  1.0
  C  C81  1  0.10639000  0.89450000  0.34827000  1.0
  C  C82  1  0.64945000  0.39476000  0.84830000  1.0
  C  C83  1  0.89360000  0.10549000  0.65173000  1.0
  C  C84  1  0.21160000  0.54340000  0.18017000  1.0
  C  C85  1  0.93474000  0.95639000  0.31976000  1.0
  C  C86  1  0.78841000  0.45661000  0.81982000  1.0
  C  C87  1  0.06525000  0.04361000  0.68024000  1.0
  C  C88  1  0.97919000  0.57616000  0.20275000  1.0
  C  C89  1  0.75642000  0.92369000  0.29718000  1.0
  C  C90  1  0.02079000  0.42384000  0.79724000  1.0
  C  C91  1  0.24357000  0.07631000  0.70282000  1.0
  C  C92  1  0.84359000  0.52346000  0.23165000  1.0
  C  C93  1  0.59772000  0.97638000  0.26819000  1.0
  C  C94  1  0.15640000  0.47655000  0.76834000  1.0
  C  C95  1  0.40225000  0.02361000  0.73182000  1.0
  C  C96  1  0.93751000  0.43695000  0.23777000  1.0
  C  C97  1  0.61329000  0.06284000  0.26198000  1.0
  C  C98  1  0.06249000  0.56306000  0.76223000  1.0
  C  C99  1  0.38666000  0.93716000  0.73802000  1.0
  C  C100  1  0.16841000  0.40366000  0.21495000  1.0
  C  C101  1  0.78933000  0.09609000  0.28482000  1.0
  C  C102  1  0.83161000  0.59636000  0.78505000  1.0
  C  C103  1  0.21059000  0.90391000  0.71520000  1.0
  C  C104  1  0.30605000  0.45712000  0.18694000  1.0
  C  C105  1  0.95164000  0.04262000  0.31293000  1.0
  C  C106  1  0.69398000  0.54289000  0.81306000  1.0
  C  C107  1  0.04830000  0.95739000  0.68708000  1.0
  C  C108  1  0.79283000  0.37825000  0.26738000  1.0
  C  C109  1  0.43947000  0.12152000  0.23244000  1.0
  C  C110  1  0.20723000  0.62176000  0.73261000  1.0
  C  C111  1  0.56047000  0.87848000  0.76758000  1.0
  C  C112  1  0.24349000  0.27875000  0.37204000  1.0
  C  C113  1  0.89477000  0.22142000  0.12776000  1.0
  C  C114  1  0.75654000  0.72124000  0.62795000  1.0
  C  C115  1  0.10519000  0.77859000  0.87224000  1.0
  C  C116  1  0.40238000  0.30763000  0.33531000  1.0
  C  C117  1  0.04585000  0.19231000  0.16453000  1.0
  C  C118  1  0.59768000  0.69235000  0.66469000  1.0
  C  C119  1  0.95412000  0.80770000  0.83548000  1.0
  C  C120  1  0.52403000  0.37418000  0.34487000  1.0
  C  C121  1  0.24274000  0.12600000  0.15486000  1.0
  C  C122  1  0.47603000  0.62581000  0.65512000  1.0
  C  C123  1  0.75720000  0.87402000  0.84515000  1.0
  C  C124  1  0.48039000  0.40759000  0.39091000  1.0
  C  C125  1  0.27761000  0.09304000  0.10871000  1.0
  C  C126  1  0.51963000  0.59241000  0.60909000  1.0
  C  C127  1  0.72239000  0.90698000  0.89130000  1.0
  C  C128  1  0.31654000  0.37467000  0.42502000  1.0
  C  C129  1  0.11479000  0.12604000  0.07460000  1.0
  C  C130  1  0.68348000  0.62533000  0.57497000  1.0
  C  C131  1  0.88521000  0.87396000  0.92541000  1.0
  I  I132  1  0.31828000  0.90144000  0.02695000  1.0
  I  I133  1  0.24318000  0.59808000  0.47336000  1.0
  I  I134  1  0.68171000  0.09857000  0.97306000  1.0
  I  I135  1  0.75684000  0.40190000  0.52663000  1.0
  I  I136  1  0.62952000  0.62802000  0.93169000  1.0
  I  I137  1  0.18993000  0.87188000  0.56851000  1.0
  I  I138  1  0.37048000  0.37200000  0.06831000  1.0
  I  I139  1  0.81002000  0.12811000  0.43150000  1.0
  N  N140  1  0.06599000  0.68476000  0.03251000  1.0
  N  N141  1  0.78270000  0.81452000  0.46764000  1.0
  N  N142  1  0.93401000  0.31524000  0.96750000  1.0
  N  N143  1  0.21731000  0.18545000  0.53236000  1.0
  N  N144  1  0.52902000  0.57080000  0.11685000  1.0
  N  N145  1  0.21667000  0.92885000  0.38321000  1.0
  N  N146  1  0.47099000  0.42920000  0.88314000  1.0
  N  N147  1  0.78335000  0.07114000  0.61679000  1.0
  N  N148  1  0.68182000  0.41037000  0.31050000  1.0
  N  N149  1  0.40271000  0.08968000  0.18919000  1.0
  N  N150  1  0.31820000  0.58963000  0.68950000  1.0
  N  N151  1  0.59724000  0.91033000  0.81082000  1.0
  N  N152  1  0.19927000  0.31121000  0.41591000  1.0
  N  N153  1  0.92596000  0.18931000  0.08381000  1.0
  N  N154  1  0.80077000  0.68878000  0.58409000  1.0
  N  N155  1  0.07406000  0.81070000  0.91619000  1.0
  O  O156  1  0.30715000  0.68119000  0.15978000  1.0
  O  O157  1  0.14582000  0.81859000  0.34006000  1.0
  O  O158  1  0.69280000  0.31882000  0.84020000  1.0
  O  O159  1  0.85417000  0.18141000  0.65993000  1.0
  O  O160  1  0.77558000  0.30777000  0.25414000  1.0
  O  O161  1  0.33921000  0.19181000  0.24581000  1.0
  O  O162  1  0.22449000  0.69223000  0.74586000  1.0
  O  O163  1  0.66077000  0.80821000  0.75419000  1.0
