# generated using pymatgen
data_ZnH13C16NO6
_symmetry_space_group_name_H-M   'P 1'
_cell_length_a   10.83590000
_cell_length_b   10.83540000
_cell_length_c   16.11800000
_cell_angle_alpha   71.44400000
_cell_angle_beta   71.44500000
_cell_angle_gamma   64.92930000
_symmetry_Int_Tables_number   1
_chemical_formula_structural   ZnH13C16NO6
_chemical_formula_sum   'Zn4 H52 C64 N4 O24'
_cell_volume   1587.54449369
_cell_formula_units_Z   4
loop_
 _symmetry_equiv_pos_site_id
 _symmetry_equiv_pos_as_xyz
  1  'x, y, z'
loop_
 _atom_site_type_symbol
 _atom_site_label
 _atom_site_symmetry_multiplicity
 _atom_site_fract_x
 _atom_site_fract_y
 _atom_site_fract_z
 _atom_site_occupancy
  Zn  Zn0  1  0.56089000  0.90786000  0.84704000  1.0
  Zn  Zn1  1  0.09214000  0.43911000  0.65296000  1.0
  Zn  Zn2  1  0.43911000  0.09214000  0.15296000  1.0
  Zn  Zn3  1  0.90786000  0.56089000  0.34704000  1.0
  H  H4  1  0.67391000  0.83270000  0.60142000  1.0
  H  H5  1  0.16730000  0.32609000  0.89858000  1.0
  H  H6  1  0.32609000  0.16730000  0.39858000  1.0
  H  H7  1  0.83270000  0.67391000  0.10142000  1.0
  H  H8  1  0.74249000  0.00722000  0.31964000  1.0
  H  H9  1  0.99278000  0.25751000  0.18036000  1.0
  H  H10  1  0.25751000  0.99278000  0.68036000  1.0
  H  H11  1  0.00722000  0.74249000  0.81964000  1.0
  H  H12  1  0.54083000  0.27804000  0.50823000  1.0
  H  H13  1  0.72196000  0.45917000  0.99177000  1.0
  H  H14  1  0.45917000  0.72196000  0.49177000  1.0
  H  H15  1  0.27804000  0.54083000  0.00824000  1.0
  H  H16  1  0.41794000  0.40785000  0.38526000  1.0
  H  H17  1  0.59215000  0.58207000  0.11474000  1.0
  H  H18  1  0.58206000  0.59215000  0.61475000  1.0
  H  H19  1  0.40785000  0.41793000  0.88526000  1.0
  H  H20  1  0.39909000  0.60091000  0.25000000  1.0
  H  H21  1  0.60091000  0.39909000  0.75000000  1.0
  H  H22  1  0.82483000  0.17517000  0.25000000  1.0
  H  H23  1  0.17517000  0.82483000  0.75000000  1.0
  H  H24  1  0.29681000  0.07285000  0.78690000  1.0
  H  H25  1  0.92715000  0.70319000  0.71310000  1.0
  H  H26  1  0.70319000  0.92715000  0.21310000  1.0
  H  H27  1  0.07285000  0.29681000  0.28690000  1.0
  H  H28  1  0.04744000  0.11452000  0.84638000  1.0
  H  H29  1  0.88548000  0.95256000  0.65361000  1.0
  H  H30  1  0.95256000  0.88548000  0.15361000  1.0
  H  H31  1  0.11452000  0.04744000  0.34639000  1.0
  H  H32  1  0.15214000  0.85304000  0.10011000  1.0
  H  H33  1  0.14696000  0.84786000  0.39989000  1.0
  H  H34  1  0.84786000  0.14696000  0.89989000  1.0
  H  H35  1  0.85304000  0.15214000  0.60011000  1.0
  H  H36  1  0.39853000  0.82088000  0.02824000  1.0
  H  H37  1  0.17912000  0.60147000  0.47176000  1.0
  H  H38  1  0.60147000  0.17912000  0.97176000  1.0
  H  H39  1  0.82088000  0.39853000  0.52824000  1.0
  H  H40  1  0.66096000  0.61414000  0.84968000  1.0
  H  H41  1  0.38586000  0.33904000  0.65032000  1.0
  H  H42  1  0.33904000  0.38586000  0.15032000  1.0
  H  H43  1  0.61414000  0.66096000  0.34968000  1.0
  H  H44  1  0.45337000  0.15693000  0.89722000  1.0
  H  H45  1  0.84307000  0.54664000  0.60278000  1.0
  H  H46  1  0.54663000  0.84307000  0.10278000  1.0
  H  H47  1  0.15693000  0.45336000  0.39722000  1.0
  H  H48  1  0.51289000  0.16658000  0.79040000  1.0
  H  H49  1  0.83342000  0.48711000  0.70960000  1.0
  H  H50  1  0.48711000  0.83341000  0.20960000  1.0
  H  H51  1  0.16658000  0.51289000  0.29040000  1.0
  H  H52  1  0.51282000  0.68249000  0.82720000  1.0
  H  H53  1  0.31752000  0.48718000  0.67280000  1.0
  H  H54  1  0.48718000  0.31751000  0.17280000  1.0
  H  H55  1  0.68249000  0.51282000  0.32720000  1.0
  C  C56  1  0.55519000  0.06944000  0.65974000  1.0
  C  C57  1  0.93056000  0.44482000  0.84026000  1.0
  C  C58  1  0.44481000  0.93056000  0.34026000  1.0
  C  C59  1  0.06944000  0.55518000  0.15974000  1.0
  C  C60  1  0.60296000  0.05701000  0.56383000  1.0
  C  C61  1  0.94299000  0.39704000  0.93617000  1.0
  C  C62  1  0.39704000  0.94299000  0.43617000  1.0
  C  C63  1  0.05701000  0.60296000  0.06382000  1.0
  C  C64  1  0.66596000  0.92295000  0.54606000  1.0
  C  C65  1  0.07705000  0.33404000  0.95394000  1.0
  C  C66  1  0.33404000  0.07705000  0.45394000  1.0
  C  C67  1  0.92295000  0.66596000  0.04606000  1.0
  C  C68  1  0.71822000  0.90550000  0.45808000  1.0
  C  C69  1  0.09450000  0.28178000  0.04192000  1.0
  C  C70  1  0.28178000  0.09450000  0.54192000  1.0
  C  C71  1  0.90550000  0.71822000  0.95808000  1.0
  C  C72  1  0.70448000  0.02303000  0.38797000  1.0
  C  C73  1  0.97697000  0.29552000  0.11203000  1.0
  C  C74  1  0.29552000  0.97697000  0.61203000  1.0
  C  C75  1  0.02303000  0.70448000  0.88797000  1.0
  C  C76  1  0.63884000  0.15825000  0.40422000  1.0
  C  C77  1  0.84175000  0.36116000  0.09579000  1.0
  C  C78  1  0.36116000  0.84175000  0.59578000  1.0
  C  C79  1  0.15825000  0.63884000  0.90421000  1.0
  C  C80  1  0.58925000  0.17432000  0.49325000  1.0
  C  C81  1  0.82568000  0.41075000  0.00675000  1.0
  C  C82  1  0.41075000  0.82568000  0.50675000  1.0
  C  C83  1  0.17432000  0.58925000  0.99325000  1.0
  C  C84  1  0.62393000  0.27814000  0.32703000  1.0
  C  C85  1  0.72186000  0.37607000  0.17297000  1.0
  C  C86  1  0.37607000  0.72186000  0.67297000  1.0
  C  C87  1  0.27814000  0.62393000  0.82703000  1.0
  C  C88  1  0.50369000  0.39966000  0.32658000  1.0
  C  C89  1  0.60034000  0.49631000  0.17342000  1.0
  C  C90  1  0.49631000  0.60034000  0.67342000  1.0
  C  C91  1  0.39966000  0.50369000  0.82658000  1.0
  C  C92  1  0.49277000  0.50723000  0.25000000  1.0
  C  C93  1  0.50723000  0.49277000  0.75000000  1.0
  C  C94  1  0.73110000  0.26889000  0.25000000  1.0
  C  C95  1  0.26890000  0.73111000  0.75000000  1.0
  C  C96  1  0.78489000  0.76299000  0.43812000  1.0
  C  C97  1  0.23701000  0.21511000  0.06188000  1.0
  C  C98  1  0.21511000  0.23701000  0.56188000  1.0
  C  C99  1  0.76299000  0.78489000  0.93812000  1.0
  C  C100  1  0.26010000  0.02493000  0.85588000  1.0
  C  C101  1  0.97507000  0.73989000  0.64412000  1.0
  C  C102  1  0.73990000  0.97507000  0.14412000  1.0
  C  C103  1  0.02493000  0.26011000  0.35588000  1.0
  C  C104  1  0.11953000  0.04797000  0.89042000  1.0
  C  C105  1  0.95203000  0.88048000  0.60958000  1.0
  C  C106  1  0.88047000  0.95203000  0.10958000  1.0
  C  C107  1  0.04797000  0.11952000  0.39042000  1.0
  C  C108  1  0.07461000  0.98769000  0.98007000  1.0
  C  C109  1  0.01231000  0.92539000  0.51993000  1.0
  C  C110  1  0.92539000  0.01231000  0.01993000  1.0
  C  C111  1  0.98769000  0.07461000  0.48007000  1.0
  C  C112  1  0.17749000  0.90419000  0.03033000  1.0
  C  C113  1  0.09581000  0.82251000  0.46967000  1.0
  C  C114  1  0.82251000  0.09581000  0.96967000  1.0
  C  C115  1  0.90419000  0.17749000  0.53033000  1.0
  C  C116  1  0.31643000  0.88451000  0.99098000  1.0
  C  C117  1  0.11549000  0.68357000  0.50902000  1.0
  C  C118  1  0.68357000  0.11549000  0.00902000  1.0
  C  C119  1  0.88451000  0.31644000  0.49098000  1.0
  N  N120  1  0.35695000  0.94420000  0.90527000  1.0
  N  N121  1  0.05580000  0.64305000  0.59473000  1.0
  N  N122  1  0.64305000  0.05580000  0.09473000  1.0
  N  N123  1  0.94420000  0.35695000  0.40527000  1.0
  O  O124  1  0.56433000  0.95413000  0.71672000  1.0
  O  O125  1  0.04587000  0.43567000  0.78328000  1.0
  O  O126  1  0.43567000  0.04587000  0.28328000  1.0
  O  O127  1  0.95413000  0.56433000  0.21672000  1.0
  O  O128  1  0.51305000  0.18738000  0.67970000  1.0
  O  O129  1  0.81262000  0.48695000  0.82030000  1.0
  O  O130  1  0.48695000  0.81262000  0.32030000  1.0
  O  O131  1  0.18738000  0.51305000  0.17970000  1.0
  O  O132  1  0.82496000  0.75889000  0.35419000  1.0
  O  O133  1  0.24111000  0.17504000  0.14581000  1.0
  O  O134  1  0.17504000  0.24111000  0.64581000  1.0
  O  O135  1  0.75889000  0.82496000  0.85419000  1.0
  O  O136  1  0.79883000  0.65470000  0.49993000  1.0
  O  O137  1  0.34530000  0.20117000  0.00007000  1.0
  O  O138  1  0.20116000  0.34530000  0.50007000  1.0
  O  O139  1  0.65470000  0.79884000  0.99993000  1.0
  O  O140  1  0.56798000  0.68935000  0.86178000  1.0
  O  O141  1  0.31065000  0.43202000  0.63822000  1.0
  O  O142  1  0.43202000  0.31065000  0.13822000  1.0
  O  O143  1  0.68935000  0.56797000  0.36178000  1.0
  O  O144  1  0.53552000  0.11932000  0.85082000  1.0
  O  O145  1  0.88068000  0.46448000  0.64918000  1.0
  O  O146  1  0.46448000  0.88067000  0.14918000  1.0
  O  O147  1  0.11932000  0.53552000  0.35082000  1.0
