# generated using pymatgen
data_Co5H16C36(N5O12)2
_symmetry_space_group_name_H-M   'P 1'
_cell_length_a   9.18754000
_cell_length_b   10.86340000
_cell_length_c   12.16280000
_cell_angle_alpha   109.03500000
_cell_angle_beta   90.35380000
_cell_angle_gamma   106.63900000
_symmetry_Int_Tables_number   1
_chemical_formula_structural   Co5H16C36(N5O12)2
_chemical_formula_sum   'Co5 H16 C36 N10 O24'
_cell_volume   1092.85055432
_cell_formula_units_Z   1
loop_
 _symmetry_equiv_pos_site_id
 _symmetry_equiv_pos_as_xyz
  1  'x, y, z'
loop_
 _atom_site_type_symbol
 _atom_site_label
 _atom_site_symmetry_multiplicity
 _atom_site_fract_x
 _atom_site_fract_y
 _atom_site_fract_z
 _atom_site_occupancy
  Co  Co0  1  0.16741000  0.25874000  0.37254000  1.0
  Co  Co1  1  0.08239000  0.68583000  0.82533000  1.0
  Co  Co2  1  0.83258000  0.74125000  0.62746000  1.0
  Co  Co3  1  0.91761000  0.31416000  0.17467000  1.0
  Co  Co4  1  0.50000000  0.50000000  0.50000000  1.0
  H  H5  1  0.82373000  0.95691000  0.42715000  1.0
  H  H6  1  0.54380000  0.05614000  0.20288000  1.0
  H  H7  1  0.33238000  0.78403000  0.38616000  1.0
  H  H8  1  0.85957000  0.49812000  0.90024000  1.0
  H  H9  1  0.44251000  0.25009000  0.97491000  1.0
  H  H10  1  0.42159000  0.48106000  0.75070000  1.0
  H  H11  1  0.61470000  0.31150000  0.28369000  1.0
  H  H12  1  0.04483000  0.60304000  0.41936000  1.0
  H  H13  1  0.17625000  0.04309000  0.57286000  1.0
  H  H14  1  0.45619000  0.94386000  0.79711000  1.0
  H  H15  1  0.66760000  0.21598000  0.61385000  1.0
  H  H16  1  0.14044000  0.50189000  0.09976000  1.0
  H  H17  1  0.55750000  0.74993000  0.02511000  1.0
  H  H18  1  0.57842000  0.51894000  0.24931000  1.0
  H  H19  1  0.38530000  0.68849000  0.71631000  1.0
  H  H20  1  0.95517000  0.39695000  0.58065000  1.0
  C  C21  1  0.60136000  0.77547000  0.48404000  1.0
  C  C22  1  0.58047000  0.85934000  0.41288000  1.0
  C  C23  1  0.71147000  0.94622000  0.38871000  1.0
  C  C24  1  0.69925000  0.01516000  0.31172000  1.0
  C  C25  1  0.55497000  0.00393000  0.26373000  1.0
  C  C26  1  0.42595000  0.92419000  0.29551000  1.0
  C  C27  1  0.43585000  0.84868000  0.36682000  1.0
  C  C28  1  0.83972000  0.10369000  0.28233000  1.0
  C  C29  1  0.72207000  0.59369000  0.75435000  1.0
  C  C30  1  0.64919000  0.49986000  0.81671000  1.0
  C  C31  1  0.73513000  0.45950000  0.88691000  1.0
  C  C32  1  0.66011000  0.37051000  0.94419000  1.0
  C  C33  1  0.50024000  0.31932000  0.93025000  1.0
  C  C34  1  0.41811000  0.35961000  0.85963000  1.0
  C  C35  1  0.48943000  0.44988000  0.80360000  1.0
  C  C36  1  0.74368000  0.33233000  0.02717000  1.0
  C  C37  1  0.70572000  0.39784000  0.33971000  1.0
  C  C38  1  0.92448000  0.54637000  0.40829000  1.0
  C  C39  1  0.39864000  0.22453000  0.51595000  1.0
  C  C40  1  0.41952000  0.14065000  0.58711000  1.0
  C  C41  1  0.28851000  0.05378000  0.61129000  1.0
  C  C42  1  0.30074000  0.98484000  0.68828000  1.0
  C  C43  1  0.44502000  0.99606000  0.73626000  1.0
  C  C44  1  0.57404000  0.07581000  0.70448000  1.0
  C  C45  1  0.56414000  0.15131000  0.63319000  1.0
  C  C46  1  0.16027000  0.89631000  0.71767000  1.0
  C  C47  1  0.27794000  0.40632000  0.24565000  1.0
  C  C48  1  0.35082000  0.50013000  0.18330000  1.0
  C  C49  1  0.26490000  0.54051000  0.11309000  1.0
  C  C50  1  0.33990000  0.62950000  0.05582000  1.0
  C  C51  1  0.49977000  0.68069000  0.06975000  1.0
  C  C52  1  0.58192000  0.64039000  0.14038000  1.0
  C  C53  1  0.51058000  0.55011000  0.19640000  1.0
  C  C54  1  0.25634000  0.66767000  0.97283000  1.0
  C  C55  1  0.29428000  0.60215000  0.66029000  1.0
  C  C56  1  0.07552000  0.45363000  0.59171000  1.0
  N  N57  1  0.82583000  0.58508000  0.48184000  1.0
  N  N58  1  0.68576000  0.49027000  0.43648000  1.0
  N  N59  1  0.85395000  0.42975000  0.31843000  1.0
  N  N60  1  0.27254000  0.91852000  0.25187000  1.0
  N  N61  1  0.24945000  0.30646000  0.84450000  1.0
  N  N62  1  0.17416000  0.41492000  0.51815000  1.0
  N  N63  1  0.31424000  0.50973000  0.56352000  1.0
  N  N64  1  0.14605000  0.57025000  0.68157000  1.0
  N  N65  1  0.72745000  0.08148000  0.74813000  1.0
  N  N66  1  0.75056000  0.69354000  0.15549000  1.0
  O  O67  1  0.96061000  0.14347000  0.35337000  1.0
  O  O68  1  0.71843000  0.82744000  0.55937000  1.0
  O  O69  1  0.64275000  0.62660000  0.68772000  1.0
  O  O70  1  0.86793000  0.64539000  0.76263000  1.0
  O  O71  1  0.50213000  0.65806000  0.46068000  1.0
  O  O72  1  0.82636000  0.13562000  0.19217000  1.0
  O  O73  1  0.89164000  0.36746000  0.03743000  1.0
  O  O74  1  0.66955000  0.26979000  0.08991000  1.0
  O  O75  1  0.26609000  0.98600000  0.18810000  1.0
  O  O76  1  0.16063000  0.84779000  0.28292000  1.0
  O  O77  1  0.18809000  0.23482000  0.90246000  1.0
  O  O78  1  0.18074000  0.33736000  0.77444000  1.0
  O  O79  1  0.03938000  0.85653000  0.64663000  1.0
  O  O80  1  0.28157000  0.17255000  0.44062000  1.0
  O  O81  1  0.35724000  0.37340000  0.31229000  1.0
  O  O82  1  0.13208000  0.35462000  0.23737000  1.0
  O  O83  1  0.49788000  0.34194000  0.53931000  1.0
  O  O84  1  0.17363000  0.86437000  0.80783000  1.0
  O  O85  1  0.10838000  0.63255000  0.96258000  1.0
  O  O86  1  0.33046000  0.73020000  0.91009000  1.0
  O  O87  1  0.73391000  0.01400000  0.81190000  1.0
  O  O88  1  0.83936000  0.15221000  0.71708000  1.0
  O  O89  1  0.81192000  0.76518000  0.09754000  1.0
  O  O90  1  0.81929000  0.66265000  0.22555000  1.0
