# generated using pymatgen
data_ZnH7C10N3O5
_symmetry_space_group_name_H-M   'P 1'
_cell_length_a   7.57350000
_cell_length_b   10.79646647
_cell_length_c   14.50743852
_cell_angle_alpha   90.13691124
_cell_angle_beta   105.11372916
_cell_angle_gamma   110.52987401
_symmetry_Int_Tables_number   1
_chemical_formula_structural   ZnH7C10N3O5
_chemical_formula_sum   'Zn4 H28 C40 N12 O20'
_cell_volume   1066.67541711
_cell_formula_units_Z   4
loop_
 _symmetry_equiv_pos_site_id
 _symmetry_equiv_pos_as_xyz
  1  'x, y, z'
loop_
 _atom_site_type_symbol
 _atom_site_label
 _atom_site_symmetry_multiplicity
 _atom_site_fract_x
 _atom_site_fract_y
 _atom_site_fract_z
 _atom_site_occupancy
  Zn  Zn0  1  0.26157000  0.52775000  0.50697000  1.0
  Zn  Zn1  1  0.72679000  0.97225000  0.99323000  1.0
  Zn  Zn2  1  0.73843000  0.47225000  0.49303000  1.0
  Zn  Zn3  1  0.27322000  0.02776000  0.00677000  1.0
  H  H4  1  0.12457000  0.46911000  0.85574000  1.0
  H  H5  1  0.29984000  0.03091000  0.64428000  1.0
  H  H6  1  0.87543000  0.53090000  0.14426000  1.0
  H  H7  1  0.70015000  0.96908000  0.35572000  1.0
  H  H8  1  0.04153000  0.28668000  0.11173000  1.0
  H  H9  1  0.14361000  0.21320000  0.38816000  1.0
  H  H10  1  0.95848000  0.71332000  0.88827000  1.0
  H  H11  1  0.85638000  0.78679000  0.61183000  1.0
  H  H12  1  0.51407000  0.66150000  0.13187000  1.0
  H  H13  1  0.22122000  0.83833000  0.36825000  1.0
  H  H14  1  0.48593000  0.33850000  0.86813000  1.0
  H  H15  1  0.77879000  0.16167000  0.63175000  1.0
  H  H16  1  0.18772000  0.59170000  0.27408000  1.0
  H  H17  1  0.82218000  0.90819000  0.22607000  1.0
  H  H18  1  0.81227000  0.40830000  0.72592000  1.0
  H  H19  1  0.17782000  0.09181000  0.77393000  1.0
  H  H20  1  0.53926000  0.36783000  0.25730000  1.0
  H  H21  1  0.41422000  0.13189000  0.24259000  1.0
  H  H22  1  0.46072000  0.63216000  0.74270000  1.0
  H  H23  1  0.58578000  0.86810000  0.75741000  1.0
  H  H24  1  0.10428000  0.46544000  0.64998000  1.0
  H  H25  1  0.48874000  0.03480000  0.85031000  1.0
  H  H26  1  0.89570000  0.53455000  0.35002000  1.0
  H  H27  1  0.51126000  0.96520000  0.14969000  1.0
  H  H28  1  0.15179000  0.62340000  0.63915000  1.0
  H  H29  1  0.38892000  0.87676000  0.86096000  1.0
  H  H30  1  0.84822000  0.37660000  0.36085000  1.0
  H  H31  1  0.61108000  0.12325000  0.13905000  1.0
  C  C32  1  0.17068000  0.46917000  0.93343000  1.0
  C  C33  1  0.26806000  0.03075000  0.56659000  1.0
  C  C34  1  0.82933000  0.53084000  0.06657000  1.0
  C  C35  1  0.73193000  0.96924000  0.43341000  1.0
  C  C36  1  0.06843000  0.36304000  0.97736000  1.0
  C  C37  1  0.22819000  0.13688000  0.52260000  1.0
  C  C38  1  0.93157000  0.63696000  0.02263000  1.0
  C  C39  1  0.77183000  0.86312000  0.47741000  1.0
  C  C40  1  0.12635000  0.36642000  0.07744000  1.0
  C  C41  1  0.18278000  0.13342000  0.42252000  1.0
  C  C42  1  0.87365000  0.63358000  0.92256000  1.0
  C  C43  1  0.81723000  0.86658000  0.57748000  1.0
  C  C44  1  0.28652000  0.47284000  0.13089000  1.0
  C  C45  1  0.18303000  0.02691000  0.36912000  1.0
  C  C46  1  0.71348000  0.52716000  0.86911000  1.0
  C  C47  1  0.81696000  0.97308000  0.63088000  1.0
  C  C48  1  0.39046000  0.57816000  0.08842000  1.0
  C  C49  1  0.22406000  0.92165000  0.41162000  1.0
  C  C50  1  0.60955000  0.42185000  0.91158000  1.0
  C  C51  1  0.77594000  0.07834000  0.58838000  1.0
  C  C52  1  0.32962000  0.57751000  0.98868000  1.0
  C  C53  1  0.26344000  0.92238000  0.51136000  1.0
  C  C54  1  0.67038000  0.42249000  0.01132000  1.0
  C  C55  1  0.73655000  0.07761000  0.48864000  1.0
  C  C56  1  0.28038000  0.53370000  0.29618000  1.0
  C  C57  1  0.95068000  0.96612000  0.20389000  1.0
  C  C58  1  0.71961000  0.46630000  0.70382000  1.0
  C  C59  1  0.04932000  0.03388000  0.79611000  1.0
  C  C60  1  0.46375000  0.41966000  0.28744000  1.0
  C  C61  1  0.25679000  0.08009000  0.21249000  1.0
  C  C62  1  0.53624000  0.58034000  0.71256000  1.0
  C  C63  1  0.74320000  0.91990000  0.78751000  1.0
  C  C64  1  0.89033000  0.24563000  0.92289000  1.0
  C  C65  1  0.22212000  0.25439000  0.57701000  1.0
  C  C66  1  0.10967000  0.75437000  0.07711000  1.0
  C  C67  1  0.77789000  0.74561000  0.42299000  1.0
  C  C68  1  0.43048000  0.70060000  0.94670000  1.0
  C  C69  1  0.28346000  0.79939000  0.55340000  1.0
  C  C70  1  0.56952000  0.29941000  0.05330000  1.0
  C  C71  1  0.71654000  0.20061000  0.44660000  1.0
  N  N72  1  0.34179000  0.47587000  0.23358000  1.0
  N  N73  1  0.13256000  0.02382000  0.26643000  1.0
  N  N74  1  0.65820000  0.52413000  0.76642000  1.0
  N  N75  1  0.86743000  0.97617000  0.73357000  1.0
  N  N76  1  0.35780000  0.51149000  0.38424000  1.0
  N  N77  1  0.96215000  0.98843000  0.11581000  1.0
  N  N78  1  0.64220000  0.48851000  0.61576000  1.0
  N  N79  1  0.03784000  0.01157000  0.88419000  1.0
  N  N80  1  0.47468000  0.44017000  0.37887000  1.0
  N  N81  1  0.15569000  0.05970000  0.12110000  1.0
  N  N82  1  0.52530000  0.55982000  0.62113000  1.0
  N  N83  1  0.84429000  0.94030000  0.87889000  1.0
  O  O84  1  0.81203000  0.16438000  0.97904000  1.0
  O  O85  1  0.16874000  0.33554000  0.52081000  1.0
  O  O86  1  0.18797000  0.83562000  0.02095000  1.0
  O  O87  1  0.83127000  0.66445000  0.47919000  1.0
  O  O88  1  0.82921000  0.23517000  0.83325000  1.0
  O  O89  1  0.26141667  0.26507000  0.66666667  1.0
  O  O90  1  0.17080000  0.76484000  0.16675000  1.0
  O  O91  1  0.73859333  0.73493000  0.33333333  1.0
  O  O92  1  0.57672000  0.78718000  0.00796000  1.0
  O  O93  1  0.28186000  0.71279000  0.49214000  1.0
  O  O94  1  0.42327000  0.21283000  0.99204000  1.0
  O  O95  1  0.71815000  0.28721000  0.50786000  1.0
  O  O96  1  0.36575000  0.71401000  0.85894000  1.0
  O  O97  1  0.29334000  0.78612000  0.64121000  1.0
  O  O98  1  0.63428000  0.28600000  0.14107000  1.0
  O  O99  1  0.70665000  0.21388000  0.35879000  1.0
  O  O100  1  0.06890000  0.52966000  0.60919000  1.0
  O  O101  1  0.42941000  0.97046000  0.89091000  1.0
  O  O102  1  0.93113000  0.47034000  0.39081000  1.0
  O  O103  1  0.57057000  0.02954000  0.10909000  1.0
