# generated using pymatgen
data_CdH9C11O6
_symmetry_space_group_name_H-M   'P 1'
_cell_length_a   8.33070000
_cell_length_b   9.15983000
_cell_length_c   19.50300000
_cell_angle_alpha   89.99960000
_cell_angle_beta   89.99990000
_cell_angle_gamma   105.24600000
_symmetry_Int_Tables_number   1
_chemical_formula_structural   CdH9C11O6
_chemical_formula_sum   'Cd4 H36 C44 O24'
_cell_volume   1435.85367182
_cell_formula_units_Z   4
loop_
 _symmetry_equiv_pos_site_id
 _symmetry_equiv_pos_as_xyz
  1  'x, y, z'
loop_
 _atom_site_type_symbol
 _atom_site_label
 _atom_site_symmetry_multiplicity
 _atom_site_fract_x
 _atom_site_fract_y
 _atom_site_fract_z
 _atom_site_occupancy
  Cd  Cd0  1  0.74530000  0.43725000  0.27570000  1.0
  Cd  Cd1  1  0.25471000  0.06276000  0.77570000  1.0
  Cd  Cd2  1  0.25471000  0.56276000  0.72430000  1.0
  Cd  Cd3  1  0.74530000  0.93724000  0.22430000  1.0
  H  H4  1  0.25002000  0.44486000  0.95137000  1.0
  H  H5  1  0.42428000  0.38618000  0.23393000  1.0
  H  H6  1  0.25063000  0.51897000  0.16934000  1.0
  H  H7  1  0.22473000  0.20860000  0.00077000  1.0
  H  H8  1  0.40947000  0.08219000  0.06452000  1.0
  H  H9  1  0.92872000  0.37690000  0.37794000  1.0
  H  H10  1  0.82466000  0.20899000  0.35818000  1.0
  H  H11  1  0.10668000  0.59788000  0.29401000  1.0
  H  H12  1  0.98929000  0.68833000  0.32731000  1.0
  H  H13  1  0.74996000  0.05513000  0.45137000  1.0
  H  H14  1  0.57571000  0.11383000  0.73392000  1.0
  H  H15  1  0.74935000  0.98104000  0.66933000  1.0
  H  H16  1  0.77528000  0.29142000  0.50076000  1.0
  H  H17  1  0.59054000  0.41783000  0.56452000  1.0
  H  H18  1  0.07130000  0.12309000  0.87793000  1.0
  H  H19  1  0.17535000  0.29101000  0.85818000  1.0
  H  H20  1  0.89332000  0.90212000  0.79401000  1.0
  H  H21  1  0.01072000  0.81167000  0.82732000  1.0
  H  H22  1  0.74996000  0.55513000  0.04863000  1.0
  H  H23  1  0.57575000  0.61384000  0.76607000  1.0
  H  H24  1  0.74937000  0.48105000  0.83067000  1.0
  H  H25  1  0.77525000  0.79140000  0.99923000  1.0
  H  H26  1  0.59053000  0.91782000  0.93547000  1.0
  H  H27  1  0.07128000  0.62310000  0.62207000  1.0
  H  H28  1  0.17535000  0.79102000  0.64182000  1.0
  H  H29  1  0.89333000  0.40212000  0.70600000  1.0
  H  H30  1  0.01071000  0.31167000  0.67269000  1.0
  H  H31  1  0.25002000  0.94486000  0.54863000  1.0
  H  H32  1  0.42429000  0.88617000  0.26608000  1.0
  H  H33  1  0.25064000  0.01896000  0.33067000  1.0
  H  H34  1  0.22472000  0.70858000  0.49923000  1.0
  H  H35  1  0.40947000  0.58217000  0.43548000  1.0
  H  H36  1  0.92871000  0.87690000  0.12206000  1.0
  H  H37  1  0.82465000  0.70899000  0.14182000  1.0
  H  H38  1  0.10668000  0.09788000  0.20599000  1.0
  H  H39  1  0.98929000  0.18833000  0.17269000  1.0
  C  C40  1  0.96290000  0.47350000  0.07037000  1.0
  C  C41  1  0.10524000  0.43803000  0.04275000  1.0
  C  C42  1  0.13792000  0.46669000  0.97287000  1.0
  C  C43  1  0.90599000  0.44681000  0.14348000  1.0
  C  C44  1  0.42842000  0.22498000  0.15325000  1.0
  C  C45  1  0.38251000  0.34831000  0.18243000  1.0
  C  C46  1  0.28179000  0.42118000  0.14661000  1.0
  C  C47  1  0.22013000  0.36988000  0.08147000  1.0
  C  C48  1  0.26965000  0.24856000  0.05175000  1.0
  C  C49  1  0.37253000  0.17716000  0.08712000  1.0
  C  C50  1  0.53650000  0.14598000  0.19163000  1.0
  C  C51  1  0.03709000  0.02648000  0.57036000  1.0
  C  C52  1  0.89475000  0.06197000  0.54274000  1.0
  C  C53  1  0.86207000  0.03330000  0.47286000  1.0
  C  C54  1  0.09400000  0.05319000  0.64349000  1.0
  C  C55  1  0.57158000  0.27502000  0.65325000  1.0
  C  C56  1  0.61749000  0.15169000  0.68243000  1.0
  C  C57  1  0.71819000  0.07882000  0.64660000  1.0
  C  C58  1  0.77986000  0.13013000  0.58147000  1.0
  C  C59  1  0.73036000  0.25145000  0.55175000  1.0
  C  C60  1  0.62748000  0.32285000  0.58711000  1.0
  C  C61  1  0.46350000  0.35404000  0.69163000  1.0
  C  C62  1  0.03709000  0.52649000  0.92963000  1.0
  C  C63  1  0.89475000  0.56197000  0.95725000  1.0
  C  C64  1  0.86207000  0.53330000  0.02714000  1.0
  C  C65  1  0.09400000  0.55319000  0.85651000  1.0
  C  C66  1  0.57160000  0.77502000  0.84674000  1.0
  C  C67  1  0.61751000  0.65170000  0.81756000  1.0
  C  C68  1  0.71822000  0.57882000  0.85340000  1.0
  C  C69  1  0.77986000  0.63012000  0.91852000  1.0
  C  C70  1  0.73034000  0.75145000  0.94825000  1.0
  C  C71  1  0.62748000  0.82284000  0.91289000  1.0
  C  C72  1  0.46351000  0.85404000  0.80836000  1.0
  C  C73  1  0.96290000  0.97349000  0.42963000  1.0
  C  C74  1  0.10523000  0.93802000  0.45725000  1.0
  C  C75  1  0.13792000  0.96669000  0.52714000  1.0
  C  C76  1  0.90599000  0.94681000  0.35651000  1.0
  C  C77  1  0.42843000  0.72496000  0.34675000  1.0
  C  C78  1  0.38251000  0.84831000  0.31757000  1.0
  C  C79  1  0.28179000  0.92117000  0.35340000  1.0
  C  C80  1  0.22013000  0.86986000  0.41853000  1.0
  C  C81  1  0.26964000  0.74855000  0.44825000  1.0
  C  C82  1  0.37253000  0.67715000  0.41289000  1.0
  C  C83  1  0.53650000  0.64597000  0.30838000  1.0
  O  O84  1  0.82612000  0.53739000  0.16861000  1.0
  O  O85  1  0.93046000  0.33985000  0.17927000  1.0
  O  O86  1  0.55971000  0.02532000  0.16500000  1.0
  O  O87  1  0.59883000  0.19732000  0.24918000  1.0
  O  O88  1  0.81611000  0.31250000  0.37152000  1.0
  O  O89  1  0.00463000  0.58364000  0.32037000  1.0
  O  O90  1  0.17388000  0.96260000  0.66860000  1.0
  O  O91  1  0.06951000  0.16015000  0.67927000  1.0
  O  O92  1  0.44031000  0.47471000  0.66499000  1.0
  O  O93  1  0.40115000  0.30268000  0.74917000  1.0
  O  O94  1  0.18391000  0.18750000  0.87152000  1.0
  O  O95  1  0.99537000  0.91637000  0.82037000  1.0
  O  O96  1  0.17386000  0.46260000  0.83139000  1.0
  O  O97  1  0.06954000  0.66016000  0.82073000  1.0
  O  O98  1  0.44032000  0.97471000  0.83500000  1.0
  O  O99  1  0.40118000  0.80268000  0.75082000  1.0
  O  O100  1  0.18389000  0.68750000  0.62849000  1.0
  O  O101  1  0.99537000  0.41636000  0.67963000  1.0
  O  O102  1  0.82612000  0.03740000  0.33139000  1.0
  O  O103  1  0.93047000  0.83984000  0.32073000  1.0
  O  O104  1  0.55969000  0.52530000  0.33501000  1.0
  O  O105  1  0.59884000  0.69732000  0.25083000  1.0
  O  O106  1  0.81610000  0.81250000  0.12848000  1.0
  O  O107  1  0.00464000  0.08364000  0.17963000  1.0
