# generated using pymatgen
data_NiH16C8S2(N3O)2
_symmetry_space_group_name_H-M   'P 1'
_cell_length_a   7.69077000
_cell_length_b   7.69074000
_cell_length_c   12.36730000
_cell_angle_alpha   104.20400000
_cell_angle_beta   104.20300000
_cell_angle_gamma   100.64300000
_symmetry_Int_Tables_number   1
_chemical_formula_structural   NiH16C8S2(N3O)2
_chemical_formula_sum   'Ni2 H32 C16 S4 N12 O4'
_cell_volume   663.70737020
_cell_formula_units_Z   2
loop_
 _symmetry_equiv_pos_site_id
 _symmetry_equiv_pos_as_xyz
  1  'x, y, z'
loop_
 _atom_site_type_symbol
 _atom_site_label
 _atom_site_symmetry_multiplicity
 _atom_site_fract_x
 _atom_site_fract_y
 _atom_site_fract_z
 _atom_site_occupancy
  Ni  Ni0  1  0.50000000  0.50000000  0.50000000  1.0
  Ni  Ni1  1  0.50000000  0.50000000  0.00000000  1.0
  H  H2  1  0.33570000  0.72507000  0.61796000  1.0
  H  H3  1  0.27494000  0.66430000  0.88204000  1.0
  H  H4  1  0.66431000  0.27493000  0.38203000  1.0
  H  H5  1  0.72506000  0.33569000  0.11795000  1.0
  H  H6  1  0.53763000  0.85792000  0.65127000  1.0
  H  H7  1  0.14210000  0.46237000  0.84873000  1.0
  H  H8  1  0.46237000  0.14209000  0.34873000  1.0
  H  H9  1  0.85790000  0.53762000  0.15127000  1.0
  H  H10  1  0.58579000  0.85691000  0.42460000  1.0
  H  H11  1  0.14310000  0.41423000  0.07541000  1.0
  H  H12  1  0.41422000  0.14310000  0.57540000  1.0
  H  H13  1  0.85690000  0.58577000  0.92459000  1.0
  H  H14  1  0.37109000  0.85763000  0.45839000  1.0
  H  H15  1  0.14237000  0.62891000  0.04161000  1.0
  H  H16  1  0.62891000  0.14238000  0.54161000  1.0
  H  H17  1  0.85763000  0.37109000  0.95839000  1.0
  H  H18  1  0.60644000  0.58924000  0.28454000  1.0
  H  H19  1  0.41078000  0.39360000  0.21547000  1.0
  H  H20  1  0.39357000  0.41076000  0.71546000  1.0
  H  H21  1  0.58922000  0.60641000  0.78453000  1.0
  H  H22  1  0.12463000  0.39749000  0.26499000  1.0
  H  H23  1  0.60252000  0.87538000  0.23502000  1.0
  H  H24  1  0.87538000  0.60251000  0.73501000  1.0
  H  H25  1  0.39748000  0.12462000  0.76498000  1.0
  H  H26  1  0.11277000  0.59843000  0.37034000  1.0
  H  H27  1  0.40156000  0.88723000  0.12968000  1.0
  H  H28  1  0.88723000  0.40157000  0.62966000  1.0
  H  H29  1  0.59844000  0.11277000  0.87032000  1.0
  H  H30  1  0.10710000  0.88231000  0.32070000  1.0
  H  H31  1  0.11768000  0.89289000  0.17930000  1.0
  H  H32  1  0.89290000  0.11769000  0.67930000  1.0
  H  H33  1  0.88232000  0.10711000  0.82070000  1.0
  C  C34  1  0.10422000  0.26602000  0.45512000  1.0
  C  C35  1  0.73396000  0.89574000  0.04487000  1.0
  C  C36  1  0.89575000  0.73397000  0.54487000  1.0
  C  C37  1  0.26604000  0.10424000  0.95513000  1.0
  C  C38  1  0.43367000  0.81299000  0.38934000  1.0
  C  C39  1  0.18700000  0.56629000  0.11068000  1.0
  C  C40  1  0.56633000  0.18701000  0.61067000  1.0
  C  C41  1  0.81300000  0.43371000  0.88932000  1.0
  C  C42  1  0.45485000  0.54509000  0.25000000  1.0
  C  C43  1  0.54514000  0.45491000  0.75001000  1.0
  C  C44  1  0.17039000  0.54958000  0.29909000  1.0
  C  C45  1  0.45040000  0.82961000  0.20091000  1.0
  C  C46  1  0.82962000  0.45043000  0.70091000  1.0
  C  C47  1  0.54960000  0.17039000  0.79909000  1.0
  C  C48  1  0.16622000  0.83377000  0.25001000  1.0
  C  C49  1  0.83378000  0.16623000  0.74999000  1.0
  S  S50  1  0.89462000  0.13572000  0.41535000  1.0
  S  S51  1  0.86427000  0.10536000  0.08463000  1.0
  S  S52  1  0.10537000  0.86429000  0.58464000  1.0
  S  S53  1  0.13573000  0.89463000  0.91536000  1.0
  N  N54  1  0.25941000  0.35807000  0.48440000  1.0
  N  N55  1  0.64193000  0.74059000  0.01560000  1.0
  N  N56  1  0.74060000  0.64193000  0.51560000  1.0
  N  N57  1  0.35807000  0.25941000  0.98440000  1.0
  N  N58  1  0.37578000  0.60792000  0.34574000  1.0
  N  N59  1  0.39209000  0.62424000  0.15428000  1.0
  N  N60  1  0.62422000  0.39209000  0.65426000  1.0
  N  N61  1  0.60791000  0.37576000  0.84572000  1.0
  N  N62  1  0.37139000  0.89648000  0.29612000  1.0
  N  N63  1  0.10352000  0.62862000  0.20389000  1.0
  N  N64  1  0.62862000  0.10352000  0.70388000  1.0
  N  N65  1  0.89648000  0.37138000  0.79611000  1.0
  O  O66  1  0.46729000  0.72378000  0.63005000  1.0
  O  O67  1  0.27624000  0.53274000  0.86996000  1.0
  O  O68  1  0.53272000  0.27622000  0.36996000  1.0
  O  O69  1  0.72376000  0.46725000  0.13003000  1.0
