# generated using pymatgen
data_HgH12C22N6(OF2)2
_symmetry_space_group_name_H-M   'P 1'
_cell_length_a   8.36994000
_cell_length_b   10.45380000
_cell_length_c   12.17620000
_cell_angle_alpha   75.69500000
_cell_angle_beta   89.99980000
_cell_angle_gamma   89.99990000
_symmetry_Int_Tables_number   1
_chemical_formula_structural   HgH12C22N6(OF2)2
_chemical_formula_sum   'Hg2 H24 C44 N12 O4 F8'
_cell_volume   1032.35596190
_cell_formula_units_Z   2
loop_
 _symmetry_equiv_pos_site_id
 _symmetry_equiv_pos_as_xyz
  1  'x, y, z'
loop_
 _atom_site_type_symbol
 _atom_site_label
 _atom_site_symmetry_multiplicity
 _atom_site_fract_x
 _atom_site_fract_y
 _atom_site_fract_z
 _atom_site_occupancy
  Hg  Hg0  1  0.00000000  0.00000000  0.00000000  1.0
  Hg  Hg1  1  0.50000000  0.50000000  0.00000000  1.0
  H  H2  1  0.96634000  0.04717000  0.67395000  1.0
  H  H3  1  0.46635000  0.45283000  0.32605000  1.0
  H  H4  1  0.03367000  0.95282000  0.32604000  1.0
  H  H5  1  0.53366000  0.54717000  0.67396000  1.0
  H  H6  1  0.90035000  0.89211000  0.54997000  1.0
  H  H7  1  0.40035000  0.60789000  0.45002000  1.0
  H  H8  1  0.09965000  0.10789000  0.45002000  1.0
  H  H9  1  0.59965000  0.39211000  0.54998000  1.0
  H  H10  1  0.79925000  0.59477000  0.83731000  1.0
  H  H11  1  0.29925000  0.90523000  0.16269000  1.0
  H  H12  1  0.20074000  0.40523000  0.16269000  1.0
  H  H13  1  0.70074000  0.09477000  0.83731000  1.0
  H  H14  1  0.03335000  0.54430000  0.40063000  1.0
  H  H15  1  0.53335000  0.95570000  0.59937000  1.0
  H  H16  1  0.96665000  0.45571000  0.59937000  1.0
  H  H17  1  0.46665000  0.04429000  0.40063000  1.0
  H  H18  1  0.85222000  0.66449000  0.51078000  1.0
  H  H19  1  0.35222000  0.83551000  0.48922000  1.0
  H  H20  1  0.14778000  0.33551000  0.48922000  1.0
  H  H21  1  0.64778000  0.16449000  0.51078000  1.0
  H  H22  1  0.69704000  0.92134000  0.19402000  1.0
  H  H23  1  0.19704000  0.57866000  0.80599000  1.0
  H  H24  1  0.30295000  0.07866000  0.80598000  1.0
  H  H25  1  0.80295000  0.42134000  0.19402000  1.0
  C  C26  1  0.92934000  0.94530000  0.71029000  1.0
  C  C27  1  0.42934000  0.55470000  0.28971000  1.0
  C  C28  1  0.07067000  0.05469000  0.28971000  1.0
  C  C29  1  0.57067000  0.44531000  0.71029000  1.0
  C  C30  1  0.89303000  0.85947000  0.64228000  1.0
  C  C31  1  0.39303000  0.64053000  0.35773000  1.0
  C  C32  1  0.10697000  0.14053000  0.35772000  1.0
  C  C33  1  0.60697000  0.35947000  0.64228000  1.0
  C  C34  1  0.83599000  0.69596000  0.79942000  1.0
  C  C35  1  0.33599000  0.80404000  0.20058000  1.0
  C  C36  1  0.16401000  0.30404000  0.20057000  1.0
  C  C37  1  0.66401000  0.19596000  0.79943000  1.0
  C  C38  1  0.86976000  0.78176000  0.86873000  1.0
  C  C39  1  0.36976000  0.71824000  0.13127000  1.0
  C  C40  1  0.13025000  0.21824000  0.13126000  1.0
  C  C41  1  0.63024000  0.28176000  0.86874000  1.0
  C  C42  1  0.84473000  0.73326000  0.99486000  1.0
  C  C43  1  0.34472000  0.76674000  0.00514000  1.0
  C  C44  1  0.15528000  0.26674000  0.00514000  1.0
  C  C45  1  0.65527000  0.23326000  0.99486000  1.0
  C  C46  1  0.86707000  0.77071000  0.17882000  1.0
  C  C47  1  0.36707000  0.72929000  0.82117000  1.0
  C  C48  1  0.13293000  0.22929000  0.82117000  1.0
  C  C49  1  0.63293000  0.27071000  0.17883000  1.0
  C  C50  1  0.95722000  0.66394000  0.24076000  1.0
  C  C51  1  0.45722000  0.83606000  0.75924000  1.0
  C  C52  1  0.04278000  0.33606000  0.75924000  1.0
  C  C53  1  0.54278000  0.16394000  0.24076000  1.0
  C  C54  1  0.95620000  0.62498000  0.35798000  1.0
  C  C55  1  0.45620000  0.87502000  0.64202000  1.0
  C  C56  1  0.04379000  0.37502000  0.64202000  1.0
  C  C57  1  0.54380000  0.12498000  0.35798000  1.0
  C  C58  1  0.85687000  0.69037000  0.41832000  1.0
  C  C59  1  0.35687000  0.80962000  0.58168000  1.0
  C  C60  1  0.14312000  0.30963000  0.58167000  1.0
  C  C61  1  0.64313000  0.19037000  0.41833000  1.0
  C  C62  1  0.76392000  0.79352000  0.35671000  1.0
  C  C63  1  0.26392000  0.70648000  0.64329000  1.0
  C  C64  1  0.23608000  0.20648000  0.64329000  1.0
  C  C65  1  0.73608000  0.29352000  0.35671000  1.0
  C  C66  1  0.76707000  0.83670000  0.23928000  1.0
  C  C67  1  0.26707000  0.66331000  0.76072000  1.0
  C  C68  1  0.23293000  0.16330000  0.76071000  1.0
  C  C69  1  0.73293000  0.33669000  0.23928000  1.0
  N  N70  1  0.91795000  0.90582000  0.82314000  1.0
  N  N71  1  0.41795000  0.59418000  0.17686000  1.0
  N  N72  1  0.08206000  0.09418000  0.17685000  1.0
  N  N73  1  0.58205000  0.40582000  0.82315000  1.0
  N  N74  1  0.84727000  0.73445000  0.68645000  1.0
  N  N75  1  0.34727000  0.76556000  0.31355000  1.0
  N  N76  1  0.15272000  0.26555000  0.31355000  1.0
  N  N77  1  0.65272000  0.23445000  0.68645000  1.0
  N  N78  1  0.88413000  0.81561000  0.06012000  1.0
  N  N79  1  0.38414000  0.68439000  0.93988000  1.0
  N  N80  1  0.11587000  0.18439000  0.93988000  1.0
  N  N81  1  0.61586000  0.31561000  0.06012000  1.0
  O  O82  1  0.78532000  0.62086000  0.03250000  1.0
  O  O83  1  0.28531000  0.87913000  0.96751000  1.0
  O  O84  1  0.21468000  0.37914000  0.96750000  1.0
  O  O85  1  0.71468000  0.12086000  0.03250000  1.0
  F  F86  1  0.05475000  0.59869000  0.18310000  1.0
  F  F87  1  0.55475000  0.90131000  0.81690000  1.0
  F  F88  1  0.94525000  0.40131000  0.81690000  1.0
  F  F89  1  0.44525000  0.09869000  0.18311000  1.0
  F  F90  1  0.66632000  0.85738000  0.41627000  1.0
  F  F91  1  0.16632000  0.64262000  0.58373000  1.0
  F  F92  1  0.33368000  0.14262000  0.58373000  1.0
  F  F93  1  0.83368000  0.35738000  0.41627000  1.0
