# generated using pymatgen
data_KPH24C15S2O3
_symmetry_space_group_name_H-M   'P 1'
_cell_length_a   8.20267000
_cell_length_b   11.20251157
_cell_length_c   11.33660000
_cell_angle_alpha   73.68645226
_cell_angle_beta   77.13900000
_cell_angle_gamma   68.58865728
_symmetry_Int_Tables_number   1
_chemical_formula_structural   KPH24C15S2O3
_chemical_formula_sum   'K2 P2 H48 C30 S4 O6'
_cell_volume   922.34456147
_cell_formula_units_Z   2
loop_
 _symmetry_equiv_pos_site_id
 _symmetry_equiv_pos_as_xyz
  1  'x, y, z'
loop_
 _atom_site_type_symbol
 _atom_site_label
 _atom_site_symmetry_multiplicity
 _atom_site_fract_x
 _atom_site_fract_y
 _atom_site_fract_z
 _atom_site_occupancy
  K  K0  1  0.81103000  0.63680000  0.60247000  1.0
  K  K1  1  0.18897000  0.36320000  0.39752000  1.0
  P  P2  1  0.87703000  0.68839000  0.27024000  1.0
  P  P3  1  0.12297000  0.31161000  0.72976000  1.0
  H  H4  1  0.87971000  0.53501000  0.10339000  1.0
  H  H5  1  0.12029000  0.46499000  0.89661000  1.0
  H  H6  1  0.82488000  0.59175000  0.88439000  1.0
  H  H7  1  0.17512000  0.40825000  0.11561000  1.0
  H  H8  1  0.65552000  0.00395000  0.88683000  1.0
  H  H9  1  0.34448000  0.99605000  0.11317000  1.0
  H  H10  1  0.72019000  0.94514000  0.10364000  1.0
  H  H11  1  0.27981000  0.05486000  0.89636000  1.0
  H  H12  1  0.66371000  0.94817000  0.58516000  1.0
  H  H13  1  0.33629000  0.05183000  0.41484000  1.0
  H  H14  1  0.76288000  0.00441000  0.67605000  1.0
  H  H15  1  0.23712000  0.99559000  0.32395000  1.0
  H  H16  1  0.53459000  0.01099000  0.71678000  1.0
  H  H17  1  0.46541000  0.98901000  0.28322000  1.0
  H  H18  1  0.43111000  0.48615000  0.20290000  1.0
  H  H19  1  0.56889000  0.51385000  0.79710000  1.0
  H  H20  1  0.49383000  0.61218000  0.08892000  1.0
  H  H21  1  0.50617000  0.38782000  0.91108000  1.0
  H  H22  1  0.34013000  0.54904000  0.05948000  1.0
  H  H23  1  0.65987000  0.45096000  0.94052000  1.0
  H  H24  1  0.32843000  0.62229000  0.36478000  1.0
  H  H25  1  0.67157000  0.37771000  0.63522000  1.0
  H  H26  1  0.17816000  0.78570000  0.33221000  1.0
  H  H27  1  0.82184000  0.21430000  0.66780000  1.0
  H  H28  1  0.40223000  0.74612000  0.25628000  1.0
  H  H29  1  0.59777000  0.25388000  0.74372000  1.0
  H  H30  1  0.06310000  0.88109000  0.12379000  1.0
  H  H31  1  0.93690000  0.11891000  0.87621000  1.0
  H  H32  1  0.12347000  0.78055000  0.01347000  1.0
  H  H33  1  0.87653000  0.21945000  0.98653000  1.0
  H  H34  1  0.28176000  0.83873000  0.04281000  1.0
  H  H35  1  0.71825000  0.16126000  0.95720000  1.0
  H  H36  1  0.37309000  0.64629000  0.56092000  1.0
  H  H37  1  0.62691000  0.35371000  0.43908000  1.0
  H  H38  1  0.42391000  0.79037000  0.47191000  1.0
  H  H39  1  0.57609000  0.20963000  0.52809000  1.0
  H  H40  1  0.15138000  0.93272000  0.56762000  1.0
  H  H41  1  0.84862000  0.06728000  0.43238000  1.0
  H  H42  1  0.07731000  0.80199000  0.56699000  1.0
  H  H43  1  0.92270000  0.19801000  0.43301000  1.0
  H  H44  1  0.14267000  0.69369000  0.77993000  1.0
  H  H45  1  0.85734000  0.30631000  0.22007000  1.0
  H  H46  1  0.05597000  0.86245000  0.78892000  1.0
  H  H47  1  0.94403000  0.13755000  0.21108000  1.0
  H  H48  1  0.34556000  0.88117000  0.76198000  1.0
  H  H49  1  0.65444000  0.11883000  0.23802000  1.0
  H  H50  1  0.39159000  0.71386000  0.84646000  1.0
  H  H51  1  0.60841000  0.28614000  0.15354000  1.0
  C  C52  1  0.80748000  0.73693000  0.11709000  1.0
  C  C53  1  0.19253000  0.26306000  0.88291000  1.0
  C  C54  1  0.83342000  0.63767000  0.05495000  1.0
  C  C55  1  0.16659000  0.36232000  0.94505000  1.0
  C  C56  1  0.80122000  0.66885000  0.93322000  1.0
  C  C57  1  0.19877000  0.33115000  0.06678000  1.0
  C  C58  1  0.74072000  0.80113000  0.87070000  1.0
  C  C59  1  0.25928000  0.19887000  0.12930000  1.0
  C  C60  1  0.70616000  0.90110000  0.93304000  1.0
  C  C61  1  0.29384000  0.09890000  0.06696000  1.0
  C  C62  1  0.74086000  0.86793000  0.05552000  1.0
  C  C63  1  0.25914000  0.13207000  0.94448000  1.0
  C  C64  1  0.66761000  0.95514000  0.67892000  1.0
  C  C65  1  0.33239000  0.04486000  0.32108000  1.0
  C  C66  1  0.23216000  0.68036000  0.18695000  1.0
  C  C67  1  0.76784000  0.31964000  0.81306000  1.0
  C  C68  1  0.38266000  0.57497000  0.13139000  1.0
  C  C69  1  0.61734000  0.42503000  0.86861000  1.0
  C  C70  1  0.28785000  0.71104000  0.29166000  1.0
  C  C71  1  0.71215000  0.28896000  0.70834000  1.0
  C  C72  1  0.16964000  0.80280000  0.08586000  1.0
  C  C73  1  0.83036000  0.19720000  0.91414000  1.0
  C  C74  1  0.36299000  0.74670000  0.56228000  1.0
  C  C75  1  0.63701000  0.25330000  0.43772000  1.0
  C  C76  1  0.17310000  0.82668000  0.60160000  1.0
  C  C77  1  0.82689000  0.17333000  0.39840000  1.0
  C  C78  1  0.16228000  0.79008000  0.74338000  1.0
  C  C79  1  0.83771000  0.20993000  0.25662000  1.0
  C  C80  1  0.34417000  0.78323000  0.76155000  1.0
  C  C81  1  0.65583000  0.21677000  0.23845000  1.0
  S  S82  1  0.81360000  0.84467000  0.34257000  1.0
  S  S83  1  0.18640000  0.15533000  0.65743000  1.0
  S  S84  1  0.79191000  0.53927000  0.36896000  1.0
  S  S85  1  0.20809000  0.46073000  0.63104000  1.0
  O  O86  1  0.09240000  0.61720000  0.24217000  1.0
  O  O87  1  0.90760000  0.38280000  0.75783000  1.0
  O  O88  1  0.72344000  0.82188000  0.74886000  1.0
  O  O89  1  0.27656000  0.17812000  0.25114000  1.0
  O  O90  1  0.46402000  0.73876000  0.65605000  1.0
  O  O91  1  0.53597000  0.26125000  0.34395000  1.0
