# generated using pymatgen
data_AgH12C9S2O2F7
_symmetry_space_group_name_H-M   'P 1'
_cell_length_a   7.61102000
_cell_length_b   8.06499000
_cell_length_c   12.66240000
_cell_angle_alpha   78.26720000
_cell_angle_beta   74.95850000
_cell_angle_gamma   78.72370000
_symmetry_Int_Tables_number   1
_chemical_formula_structural   AgH12C9S2O2F7
_chemical_formula_sum   'Ag2 H24 C18 S4 O4 F14'
_cell_volume   726.51467387
_cell_formula_units_Z   2
loop_
 _symmetry_equiv_pos_site_id
 _symmetry_equiv_pos_as_xyz
  1  'x, y, z'
loop_
 _atom_site_type_symbol
 _atom_site_label
 _atom_site_symmetry_multiplicity
 _atom_site_fract_x
 _atom_site_fract_y
 _atom_site_fract_z
 _atom_site_occupancy
  Ag  Ag0  1  0.57860000  0.78806000  0.02279000  1.0
  Ag  Ag1  1  0.42140000  0.21194000  0.97721000  1.0
  H  H2  1  0.97228000  0.82317000  0.11980000  1.0
  H  H3  1  0.02772000  0.17683000  0.88020000  1.0
  H  H4  1  0.13522000  0.83851000  0.19586000  1.0
  H  H5  1  0.86478000  0.16149000  0.80414000  1.0
  H  H6  1  0.16007000  0.65143000  0.13386000  1.0
  H  H7  1  0.83993000  0.34857000  0.86614000  1.0
  H  H8  1  0.06097000  0.83165000  0.90633000  1.0
  H  H9  1  0.93903000  0.16835000  0.09367000  1.0
  H  H10  1  0.26544000  0.90010000  0.81686000  1.0
  H  H11  1  0.73456000  0.09990000  0.18314000  1.0
  H  H12  1  0.26720000  0.55274000  0.97251000  1.0
  H  H13  1  0.73281000  0.44726000  0.02749000  1.0
  H  H14  1  0.44965000  0.62132000  0.86414000  1.0
  H  H15  1  0.55035000  0.37868000  0.13586000  1.0
  H  H16  1  0.25177000  0.62261000  0.72658000  1.0
  H  H17  1  0.74823000  0.37739000  0.27342000  1.0
  H  H18  1  0.07988000  0.54740000  0.84036000  1.0
  H  H19  1  0.92012000  0.45261000  0.15964000  1.0
  H  H20  1  0.51658000  0.42217000  0.62061000  1.0
  H  H21  1  0.48341000  0.57783000  0.37939000  1.0
  H  H22  1  0.62209000  0.22917000  0.69322000  1.0
  H  H23  1  0.37791000  0.77083000  0.30679000  1.0
  H  H24  1  0.62830000  0.43255000  0.72755000  1.0
  H  H25  1  0.37170000  0.56745000  0.27245000  1.0
  C  C26  1  0.75314000  0.79619000  0.78614000  1.0
  C  C27  1  0.24686000  0.20381000  0.21386000  1.0
  C  C28  1  0.85350000  0.76359000  0.66608000  1.0
  C  C29  1  0.14650000  0.23641000  0.33392000  1.0
  C  C30  1  0.73470000  0.83930000  0.57922000  1.0
  C  C31  1  0.26530000  0.16070000  0.42078000  1.0
  C  C32  1  0.80427000  0.77195000  0.46542000  1.0
  C  C33  1  0.19573000  0.22806000  0.53457000  1.0
  C  C34  1  0.11673000  0.79043000  0.12518000  1.0
  C  C35  1  0.88327000  0.20957000  0.87482000  1.0
  C  C36  1  0.21171000  0.81533000  0.89339000  1.0
  C  C37  1  0.78830000  0.18467000  0.10661000  1.0
  C  C38  1  0.29918000  0.62894000  0.88925000  1.0
  C  C39  1  0.70082000  0.37107000  0.11075000  1.0
  C  C40  1  0.22862000  0.55049000  0.81128000  1.0
  C  C41  1  0.77138000  0.44951000  0.18872000  1.0
  C  C42  1  0.54709000  0.35847000  0.70034000  1.0
  C  C43  1  0.45291000  0.64152000  0.29966000  1.0
  S  S44  1  0.25711000  0.90149000  0.00396000  1.0
  S  S45  1  0.74290000  0.09851000  0.99605000  1.0
  S  S46  1  0.33312000  0.33021000  0.80003000  1.0
  S  S47  1  0.66688000  0.66979000  0.19998000  1.0
  O  O48  1  0.76411000  0.66807000  0.86230000  1.0
  O  O49  1  0.23589000  0.33194000  0.13770000  1.0
  O  O50  1  0.67609000  0.94647000  0.79396000  1.0
  O  O51  1  0.32391000  0.05353000  0.20605000  1.0
  F  F52  1  0.01248000  0.83695000  0.63434000  1.0
  F  F53  1  0.98752000  0.16306000  0.36566000  1.0
  F  F54  1  0.90546000  0.59125000  0.66096000  1.0
  F  F55  1  0.09454000  0.40876000  0.33904000  1.0
  F  F56  1  0.56039000  0.79805000  0.62398000  1.0
  F  F57  1  0.43962000  0.20195000  0.37602000  1.0
  F  F58  1  0.72304000  0.01288000  0.55702000  1.0
  F  F59  1  0.27695000  0.98711000  0.44298000  1.0
  F  F60  1  0.71764000  0.87641000  0.39018000  1.0
  F  F61  1  0.28235000  0.12359000  0.60982000  1.0
  F  F62  1  0.98776000  0.77020000  0.42699000  1.0
  F  F63  1  0.01225000  0.22981000  0.57301000  1.0
  F  F64  1  0.76640000  0.61161000  0.47487000  1.0
  F  F65  1  0.23361000  0.38839000  0.52513000  1.0
