# generated using pymatgen
data_CuH4C6NO2
_symmetry_space_group_name_H-M   'P 1'
_cell_length_a   7.18244000
_cell_length_b   7.18371000
_cell_length_c   13.86770848
_cell_angle_alpha   82.57471624
_cell_angle_beta   74.99883848
_cell_angle_gamma   60.02030000
_symmetry_Int_Tables_number   1
_chemical_formula_structural   CuH4C6NO2
_chemical_formula_sum   'Cu4 H16 C24 N4 O8'
_cell_volume   598.66842153
_cell_formula_units_Z   4
loop_
 _symmetry_equiv_pos_site_id
 _symmetry_equiv_pos_as_xyz
  1  'x, y, z'
loop_
 _atom_site_type_symbol
 _atom_site_label
 _atom_site_symmetry_multiplicity
 _atom_site_fract_x
 _atom_site_fract_y
 _atom_site_fract_z
 _atom_site_occupancy
  Cu  Cu0  1  0.54509000  0.29202000  0.51580000  1.0
  Cu  Cu1  1  0.35397000  0.70710000  0.48422000  1.0
  Cu  Cu2  1  0.81143000  0.79243000  0.98413000  1.0
  Cu  Cu3  1  0.58765000  0.20748000  0.01593000  1.0
  H  H4  1  0.49331000  0.38891000  0.72087000  1.0
  H  H5  1  0.60364000  0.61112000  0.27911000  1.0
  H  H6  1  0.96468000  0.88892000  0.77904000  1.0
  H  H7  1  0.63224000  0.11033000  0.22104000  1.0
  H  H8  1  0.15014000  0.26410000  0.56047000  1.0
  H  H9  1  0.97586000  0.73468000  0.43955000  1.0
  H  H10  1  0.46075000  0.76500000  0.93961000  1.0
  H  H11  1  0.16435000  0.23619000  0.06042000  1.0
  H  H12  1  0.88700000  0.25894000  0.71481000  1.0
  H  H13  1  0.86161000  0.74047000  0.28515000  1.0
  H  H14  1  0.35177000  0.75956000  0.78529000  1.0
  H  H15  1  0.89574000  0.24150000  0.21467000  1.0
  H  H16  1  0.23823000  0.39007000  0.88258000  1.0
  H  H17  1  0.51124000  0.61047000  0.11736000  1.0
  H  H18  1  0.87118000  0.88990000  0.61735000  1.0
  H  H19  1  0.37787000  0.10965000  0.38267000  1.0
  C  C20  1  0.35705000  0.36049000  0.72309000  1.0
  C  C21  1  0.44119000  0.63955000  0.27689000  1.0
  C  C22  1  0.83059000  0.86050000  0.77685000  1.0
  C  C23  1  0.46741000  0.13920000  0.22320000  1.0
  C  C24  1  0.16503000  0.29303000  0.63263000  1.0
  C  C25  1  0.09166000  0.70622000  0.36739000  1.0
  C  C26  1  0.54781000  0.79365000  0.86743000  1.0
  C  C27  1  0.20812000  0.20705000  0.13258000  1.0
  C  C28  1  0.01879000  0.28860000  0.71937000  1.0
  C  C29  1  0.02760000  0.71095000  0.28063000  1.0
  C  C30  1  0.48831000  0.78901000  0.78071000  1.0
  C  C31  1  0.05729000  0.21153000  0.21928000  1.0
  C  C32  1  0.04366000  0.32004000  0.81162000  1.0
  C  C33  1  0.17596000  0.68002000  0.18836000  1.0
  C  C34  1  0.60560000  0.82004000  0.68842000  1.0
  C  C35  1  0.11343000  0.18003000  0.31158000  1.0
  C  C36  1  0.21545000  0.35969000  0.81258000  1.0
  C  C37  1  0.38823000  0.64061000  0.18738000  1.0
  C  C38  1  0.77840000  0.85965000  0.68737000  1.0
  C  C39  1  0.32484000  0.14015000  0.31264000  1.0
  C  C40  1  0.89019000  0.31314000  0.90710000  1.0
  C  C41  1  0.11080000  0.68719000  0.09288000  1.0
  C  C42  1  0.54751000  0.81302000  0.59295000  1.0
  C  C43  1  0.95279000  0.18718000  0.40703000  1.0
  N  N44  1  0.33477000  0.32519000  0.63401000  1.0
  N  N45  1  0.29480000  0.67432000  0.36600000  1.0
  N  N46  1  0.71912000  0.82553000  0.86597000  1.0
  N  N47  1  0.41005000  0.17460000  0.13406000  1.0
  O  O48  1  0.89459000  0.37162000  0.98739000  1.0
  O  O49  1  0.25374000  0.62888000  0.01253000  1.0
  O  O50  1  0.63232000  0.87123000  0.51262000  1.0
  O  O51  1  0.01525000  0.12941000  0.48741000  1.0
  O  O52  1  0.76027000  0.24405000  0.89709000  1.0
  O  O53  1  0.90183000  0.75599000  0.10296000  1.0
  O  O54  1  0.40739000  0.74410000  0.60306000  1.0
  O  O55  1  0.75399000  0.25568000  0.39688000  1.0
