# generated using pymatgen
data_ZnH4(C2O)3
_symmetry_space_group_name_H-M   'P 1'
_cell_length_a   6.17381000
_cell_length_b   7.87338000
_cell_length_c   11.96020000
_cell_angle_alpha   89.99980000
_cell_angle_beta   91.05600000
_cell_angle_gamma   89.99950000
_symmetry_Int_Tables_number   1
_chemical_formula_structural   ZnH4(C2O)3
_chemical_formula_sum   'Zn4 H16 C24 O12'
_cell_volume   581.27165775
_cell_formula_units_Z   4
loop_
 _symmetry_equiv_pos_site_id
 _symmetry_equiv_pos_as_xyz
  1  'x, y, z'
loop_
 _atom_site_type_symbol
 _atom_site_label
 _atom_site_symmetry_multiplicity
 _atom_site_fract_x
 _atom_site_fract_y
 _atom_site_fract_z
 _atom_site_occupancy
  Zn  Zn0  1  0.24152000  0.66525000  0.47974000  1.0
  Zn  Zn1  1  0.74152000  0.83474000  0.47974000  1.0
  Zn  Zn2  1  0.75847000  0.33474000  0.52026000  1.0
  Zn  Zn3  1  0.25847000  0.16525000  0.52026000  1.0
  H  H4  1  0.71443000  0.36485000  0.15478000  1.0
  H  H5  1  0.21442000  0.13516000  0.15478000  1.0
  H  H6  1  0.28557000  0.63513000  0.84522000  1.0
  H  H7  1  0.78559000  0.86487000  0.84522000  1.0
  H  H8  1  0.32363000  0.59990000  0.24513000  1.0
  H  H9  1  0.82361000  0.90008000  0.24513000  1.0
  H  H10  1  0.67637000  0.40009000  0.75487000  1.0
  H  H11  1  0.17638000  0.09992000  0.75487000  1.0
  H  H12  1  0.39651000  0.65796000  0.04608000  1.0
  H  H13  1  0.89653000  0.84204000  0.04609000  1.0
  H  H14  1  0.60348000  0.34203000  0.95392000  1.0
  H  H15  1  0.10349000  0.15800000  0.95391000  1.0
  H  H16  1  0.08629000  0.91641000  0.38366000  1.0
  H  H17  1  0.58630000  0.58359000  0.38366000  1.0
  H  H18  1  0.91369000  0.08359000  0.61634000  1.0
  H  H19  1  0.41369000  0.41640000  0.61634000  1.0
  C  C20  1  0.86327000  0.42829000  0.13032000  1.0
  C  C21  1  0.36330000  0.07170000  0.13032000  1.0
  C  C22  1  0.13672000  0.57169000  0.86968000  1.0
  C  C23  1  0.63673000  0.92832000  0.86968000  1.0
  C  C24  1  0.01438000  0.47674000  0.21142000  1.0
  C  C25  1  0.51436000  0.02326000  0.21142000  1.0
  C  C26  1  0.98562000  0.52325000  0.78858000  1.0
  C  C27  1  0.48564000  0.97676000  0.78858000  1.0
  C  C28  1  0.20839000  0.55999000  0.18029000  1.0
  C  C29  1  0.70839000  0.94000000  0.18029000  1.0
  C  C30  1  0.79160000  0.44000000  0.81970000  1.0
  C  C31  1  0.29162000  0.06002000  0.81972000  1.0
  C  C32  1  0.24846000  0.59247000  0.06958000  1.0
  C  C33  1  0.74846000  0.90753000  0.06958000  1.0
  C  C34  1  0.75154000  0.40751000  0.93043000  1.0
  C  C35  1  0.25157000  0.09250000  0.93042000  1.0
  C  C36  1  0.90160000  0.45816000  0.01565000  1.0
  C  C37  1  0.40161000  0.04186000  0.01565000  1.0
  C  C38  1  0.09839000  0.54182000  0.98435000  1.0
  C  C39  1  0.59842000  0.95818000  0.98435000  1.0
  C  C40  1  0.97656000  0.43945000  0.33160000  1.0
  C  C41  1  0.47657000  0.06054000  0.33161000  1.0
  C  C42  1  0.02343000  0.56053000  0.66840000  1.0
  C  C43  1  0.52344000  0.93946000  0.66840000  1.0
  O  O44  1  0.13547000  0.44019000  0.40093000  1.0
  O  O45  1  0.63545000  0.05981000  0.40092000  1.0
  O  O46  1  0.86454000  0.55981000  0.59907000  1.0
  O  O47  1  0.36454000  0.94018000  0.59908000  1.0
  O  O48  1  0.78122000  0.40500000  0.36033000  1.0
  O  O49  1  0.28120000  0.09500000  0.36033000  1.0
  O  O50  1  0.21878000  0.59500000  0.63967000  1.0
  O  O51  1  0.71879000  0.90499000  0.63967000  1.0
  O  O52  1  0.02298000  0.81299000  0.41477000  1.0
  O  O53  1  0.52298000  0.68701000  0.41477000  1.0
  O  O54  1  0.97701000  0.18701000  0.58523000  1.0
  O  O55  1  0.47701000  0.31299000  0.58523000  1.0
