# generated using pymatgen
data_MnH20C26S2(N2Cl)2
_symmetry_space_group_name_H-M   'P 1'
_cell_length_a   8.78857000
_cell_length_b   10.88390000
_cell_length_c   14.84240000
_cell_angle_alpha   74.12790000
_cell_angle_beta   82.79230000
_cell_angle_gamma   69.05300000
_symmetry_Int_Tables_number   1
_chemical_formula_structural   MnH20C26S2(N2Cl)2
_chemical_formula_sum   'Mn2 H40 C52 S4 N8 Cl4'
_cell_volume   1274.74883272
_cell_formula_units_Z   2
loop_
 _symmetry_equiv_pos_site_id
 _symmetry_equiv_pos_as_xyz
  1  'x, y, z'
loop_
 _atom_site_type_symbol
 _atom_site_label
 _atom_site_symmetry_multiplicity
 _atom_site_fract_x
 _atom_site_fract_y
 _atom_site_fract_z
 _atom_site_occupancy
  Mn  Mn0  1  0.50000000  0.49999000  0.50000000  1.0
  Mn  Mn1  1  0.00001000  0.99999000  0.50000000  1.0
  H  H2  1  0.85874000  0.45499000  0.41922000  1.0
  H  H3  1  0.14127000  0.54501000  0.58078000  1.0
  H  H4  1  0.02251000  0.57979000  0.30825000  1.0
  H  H5  1  0.97750000  0.42021000  0.69176000  1.0
  H  H6  1  0.61033000  0.94820000  0.29928000  1.0
  H  H7  1  0.38967000  0.05180000  0.70072000  1.0
  H  H8  1  0.46621000  0.80928000  0.41355000  1.0
  H  H9  1  0.53379000  0.19072000  0.58645000  1.0
  H  H10  1  0.04820000  0.78921000  0.21603000  1.0
  H  H11  1  0.95180000  0.21079000  0.78397000  1.0
  H  H12  1  0.93019000  0.93487000  0.25439000  1.0
  H  H13  1  0.06982000  0.06513000  0.74561000  1.0
  H  H14  1  0.77946000  0.75216000  0.12150000  1.0
  H  H15  1  0.22053000  0.24784000  0.87850000  1.0
  H  H16  1  0.66512000  0.85936000  0.96388000  1.0
  H  H17  1  0.33488000  0.14065000  0.03612000  1.0
  H  H18  1  0.78167000  0.21505000  0.95585000  1.0
  H  H19  1  0.21834000  0.78494000  0.04415000  1.0
  H  H20  1  0.89112000  0.10910000  0.11552000  1.0
  H  H21  1  0.10889000  0.89090000  0.88448000  1.0
  H  H22  1  0.83908000  0.78666000  0.49534000  1.0
  H  H23  1  0.16091000  0.21335000  0.50466000  1.0
  H  H24  1  0.68880000  0.64311000  0.59892000  1.0
  H  H25  1  0.31120000  0.35689000  0.40109000  1.0
  H  H26  1  0.71925000  0.81785000  0.82156000  1.0
  H  H27  1  0.28077000  0.18214000  0.17845000  1.0
  H  H28  1  0.86489000  0.95609000  0.70822000  1.0
  H  H29  1  0.13512000  0.04391000  0.29178000  1.0
  H  H30  1  0.60550000  0.54880000  0.75610000  1.0
  H  H31  1  0.39450000  0.45120000  0.24389000  1.0
  H  H32  1  0.46881000  0.69571000  0.78625000  1.0
  H  H33  1  0.53118000  0.30429000  0.21375000  1.0
  H  H34  1  0.45770000  0.72216000  0.94080000  1.0
  H  H35  1  0.54229000  0.27785000  0.05919000  1.0
  H  H36  1  0.55533000  0.63430000  0.10369000  1.0
  H  H37  1  0.44466000  0.36571000  0.89630000  1.0
  H  H38  1  0.97670000  0.33607000  0.01308000  1.0
  H  H39  1  0.02328000  0.66393000  0.98692000  1.0
  H  H40  1  0.87812000  0.42453000  0.85066000  1.0
  H  H41  1  0.12186000  0.57546000  0.14934000  1.0
  C  C42  1  0.82188000  0.24556000  0.60068000  1.0
  C  C43  1  0.17814000  0.75442000  0.39932000  1.0
  C  C44  1  0.32561000  0.74747000  0.59734000  1.0
  C  C45  1  0.67440000  0.25252000  0.40266000  1.0
  C  C46  1  0.80850000  0.56477000  0.39150000  1.0
  C  C47  1  0.19150000  0.43523000  0.60850000  1.0
  C  C48  1  0.89843000  0.63487000  0.32843000  1.0
  C  C49  1  0.10157000  0.36514000  0.67157000  1.0
  C  C50  1  0.82969000  0.77524000  0.29293000  1.0
  C  C51  1  0.17031000  0.22476000  0.70707000  1.0
  C  C52  1  0.67055000  0.83896000  0.32394000  1.0
  C  C53  1  0.32945000  0.16104000  0.67606000  1.0
  C  C54  1  0.58939000  0.76197000  0.38761000  1.0
  C  C55  1  0.41062000  0.23803000  0.61239000  1.0
  C  C56  1  0.92166000  0.85572000  0.22436000  1.0
  C  C57  1  0.07834000  0.14428000  0.77564000  1.0
  C  C58  1  0.84587000  0.92218000  0.12944000  1.0
  C  C59  1  0.15414000  0.07782000  0.87056000  1.0
  C  C60  1  0.78172000  0.85342000  0.08540000  1.0
  C  C61  1  0.21828000  0.14658000  0.91460000  1.0
  C  C62  1  0.71758000  0.91302000  0.99628000  1.0
  C  C63  1  0.28243000  0.08698000  0.00372000  1.0
  C  C64  1  0.71880000  0.04292000  0.95007000  1.0
  C  C65  1  0.28121000  0.95708000  0.04993000  1.0
  C  C66  1  0.78143000  0.11369000  0.99246000  1.0
  C  C67  1  0.21858000  0.88631000  0.00753000  1.0
  C  C68  1  0.84306000  0.05331000  0.08212000  1.0
  C  C69  1  0.15695000  0.94668000  0.91788000  1.0
  C  C70  1  0.80920000  0.79089000  0.56825000  1.0
  C  C71  1  0.19079000  0.20912000  0.43176000  1.0
  C  C72  1  0.72582000  0.71073000  0.62655000  1.0
  C  C73  1  0.27418000  0.28928000  0.37345000  1.0
  C  C74  1  0.69052000  0.71784000  0.72002000  1.0
  C  C75  1  0.30947000  0.28216000  0.27998000  1.0
  C  C76  1  0.74160000  0.80812000  0.74958000  1.0
  C  C77  1  0.25841000  0.19188000  0.25043000  1.0
  C  C78  1  0.82400000  0.88506000  0.68687000  1.0
  C  C79  1  0.17600000  0.11494000  0.31313000  1.0
  C  C80  1  0.59895000  0.63307000  0.78544000  1.0
  C  C81  1  0.40104000  0.36693000  0.21455000  1.0
  C  C82  1  0.65961000  0.57938000  0.88414000  1.0
  C  C83  1  0.34038000  0.42062000  0.11586000  1.0
  C  C84  1  0.57202000  0.63776000  0.95624000  1.0
  C  C85  1  0.42796000  0.36224000  0.04376000  1.0
  C  C86  1  0.62599000  0.58886000  0.04802000  1.0
  C  C87  1  0.37400000  0.41115000  0.95198000  1.0
  C  C88  1  0.77119000  0.47960000  0.06783000  1.0
  C  C89  1  0.22880000  0.52040000  0.93217000  1.0
  C  C90  1  0.86268000  0.42048000  0.99697000  1.0
  C  C91  1  0.13731000  0.57952000  0.00303000  1.0
  C  C92  1  0.80616000  0.47075000  0.90584000  1.0
  C  C93  1  0.19383000  0.52925000  0.09416000  1.0
  S  S94  1  0.70173000  0.37620000  0.63685000  1.0
  S  S95  1  0.29827000  0.62379000  0.36315000  1.0
  S  S96  1  0.23927000  0.89378000  0.62169000  1.0
  S  S97  1  0.76075000  0.10621000  0.37832000  1.0
  N  N98  1  0.90931000  0.14935000  0.57463000  1.0
  N  N99  1  0.09069000  0.85064000  0.42538000  1.0
  N  N100  1  0.38935000  0.64073000  0.57888000  1.0
  N  N101  1  0.61065000  0.35927000  0.42113000  1.0
  N  N102  1  0.65612000  0.62651000  0.42088000  1.0
  N  N103  1  0.34389000  0.37349000  0.57911000  1.0
  N  N104  1  0.85864000  0.87692000  0.59733000  1.0
  N  N105  1  0.14137000  0.12309000  0.40268000  1.0
  Cl  Cl106  1  0.64077000  0.11899000  0.83878000  1.0
  Cl  Cl107  1  0.35923000  0.88101000  0.16122000  1.0
  Cl  Cl108  1  0.83820000  0.41554000  0.18185000  1.0
  Cl  Cl109  1  0.16178000  0.58447000  0.81815000  1.0
