# generated using pymatgen
data_CuH10C4(ClO2)2
_symmetry_space_group_name_H-M   'P 1'
_cell_length_a   7.11904000
_cell_length_b   8.18852000
_cell_length_c   8.48521483
_cell_angle_alpha   83.16265620
_cell_angle_beta   65.19962074
_cell_angle_gamma   64.25590000
_symmetry_Int_Tables_number   1
_chemical_formula_structural   CuH10C4(ClO2)2
_chemical_formula_sum   'Cu2 H20 C8 Cl4 O8'
_cell_volume   403.24584301
_cell_formula_units_Z   2
loop_
 _symmetry_equiv_pos_site_id
 _symmetry_equiv_pos_as_xyz
  1  'x, y, z'
loop_
 _atom_site_type_symbol
 _atom_site_label
 _atom_site_symmetry_multiplicity
 _atom_site_fract_x
 _atom_site_fract_y
 _atom_site_fract_z
 _atom_site_occupancy
  Cu  Cu0  1  0.57970000  0.75006000  0.75001000  1.0
  Cu  Cu1  1  0.42031000  0.24994000  0.24998000  1.0
  H  H2  1  0.98851000  0.16888000  0.07282000  1.0
  H  H3  1  0.26999000  0.66899000  0.57259000  1.0
  H  H4  1  0.01149000  0.83111000  0.92718000  1.0
  H  H5  1  0.73001000  0.33100000  0.42741000  1.0
  H  H6  1  0.03055000  0.17850000  0.76132000  1.0
  H  H7  1  0.53022000  0.67831000  0.26120000  1.0
  H  H8  1  0.96944000  0.82150000  0.23868000  1.0
  H  H9  1  0.46978000  0.32169000  0.73880000  1.0
  H  H10  1  0.27485000  0.16729000  0.78371000  1.0
  H  H11  1  0.27482000  0.66713000  0.28333000  1.0
  H  H12  1  0.72515000  0.83272000  0.21629000  1.0
  H  H13  1  0.72516000  0.33287000  0.71668000  1.0
  H  H14  1  0.27706000  0.96871000  0.11770000  1.0
  H  H15  1  0.13641000  0.46887000  0.61756000  1.0
  H  H16  1  0.72294000  0.03129000  0.88230000  1.0
  H  H17  1  0.86359000  0.53113000  0.38244000  1.0
  H  H18  1  0.33090000  0.95392000  0.56793000  1.0
  H  H19  1  0.64756000  0.45369000  0.06780000  1.0
  H  H20  1  0.66910000  0.04609000  0.43207000  1.0
  H  H21  1  0.35244000  0.54631000  0.93220000  1.0
  C  C22  1  0.08103000  0.04448000  0.98521000  1.0
  C  C23  1  0.38939000  0.54451000  0.48511000  1.0
  C  C24  1  0.91896000  0.95552000  0.01479000  1.0
  C  C25  1  0.61061000  0.45549000  0.51489000  1.0
  C  C26  1  0.17127000  0.09382000  0.79937000  1.0
  C  C27  1  0.43603000  0.59370000  0.29913000  1.0
  C  C28  1  0.82873000  0.90618000  0.20063000  1.0
  C  C29  1  0.56398000  0.40630000  0.70087000  1.0
  Cl  Cl30  1  0.83404000  0.56888000  0.86007000  1.0
  Cl  Cl31  1  0.23686000  0.06882000  0.36018000  1.0
  Cl  Cl32  1  0.16596000  0.43112000  0.13993000  1.0
  Cl  Cl33  1  0.76314000  0.93118000  0.63982000  1.0
  O  O34  1  0.27227000  0.91672000  0.02104000  1.0
  O  O35  1  0.28981000  0.41687000  0.52091000  1.0
  O  O36  1  0.72773000  0.08328000  0.97896000  1.0
  O  O37  1  0.71019000  0.58312000  0.47909000  1.0
  O  O38  1  0.31100000  0.92576000  0.68953000  1.0
  O  O39  1  0.57419000  0.42554000  0.18944000  1.0
  O  O40  1  0.68901000  0.07424000  0.31047000  1.0
  O  O41  1  0.42581000  0.57446000  0.81056000  1.0
