# generated using pymatgen
data_CuH4(C2O)4
_symmetry_space_group_name_H-M   'P 1'
_cell_length_a   5.18321000
_cell_length_b   11.70310000
_cell_length_c   13.13430000
_cell_angle_alpha   111.14000000
_cell_angle_beta   89.99980000
_cell_angle_gamma   89.99990000
_symmetry_Int_Tables_number   1
_chemical_formula_structural   CuH4(C2O)4
_chemical_formula_sum   'Cu4 H16 C32 O16'
_cell_volume   743.10392012
_cell_formula_units_Z   4
loop_
 _symmetry_equiv_pos_site_id
 _symmetry_equiv_pos_as_xyz
  1  'x, y, z'
loop_
 _atom_site_type_symbol
 _atom_site_label
 _atom_site_symmetry_multiplicity
 _atom_site_fract_x
 _atom_site_fract_y
 _atom_site_fract_z
 _atom_site_occupancy
  Cu  Cu0  1  0.20758000  0.55934000  0.53701000  1.0
  Cu  Cu1  1  0.70757000  0.94066000  0.46299000  1.0
  Cu  Cu2  1  0.79243000  0.44066000  0.46299000  1.0
  Cu  Cu3  1  0.29242000  0.05934000  0.53701000  1.0
  H  H4  1  0.19345000  0.93571000  0.99211000  1.0
  H  H5  1  0.69342000  0.56430000  0.00790000  1.0
  H  H6  1  0.80658000  0.06429000  0.00790000  1.0
  H  H7  1  0.30655000  0.43571000  0.99210000  1.0
  H  H8  1  0.20880000  0.00500000  0.83296000  1.0
  H  H9  1  0.70877000  0.49501000  0.16705000  1.0
  H  H10  1  0.79124000  0.99501000  0.16705000  1.0
  H  H11  1  0.29122000  0.50500000  0.83295000  1.0
  H  H12  1  0.71450000  0.64080000  0.82341000  1.0
  H  H13  1  0.21451000  0.85920000  0.17659000  1.0
  H  H14  1  0.28549000  0.35919000  0.17659000  1.0
  H  H15  1  0.78549000  0.14080000  0.82341000  1.0
  H  H16  1  0.44739000  0.75262000  0.98666000  1.0
  H  H17  1  0.94739000  0.74739000  0.01334000  1.0
  H  H18  1  0.55262000  0.24738000  0.01334000  1.0
  H  H19  1  0.05261000  0.25262000  0.98666000  1.0
  C  C20  1  0.61378000  0.76120000  0.73842000  1.0
  C  C21  1  0.11376000  0.73881000  0.26158000  1.0
  C  C22  1  0.38623000  0.23881000  0.26158000  1.0
  C  C23  1  0.88622000  0.26120000  0.73842000  1.0
  C  C24  1  0.47132000  0.86402000  0.74117000  1.0
  C  C25  1  0.97133000  0.63598000  0.25883000  1.0
  C  C26  1  0.52867000  0.13597000  0.25883000  1.0
  C  C27  1  0.02869000  0.36402000  0.74117000  1.0
  C  C28  1  0.31015000  0.88621000  0.92077000  1.0
  C  C29  1  0.81015000  0.61379000  0.07923000  1.0
  C  C30  1  0.68985000  0.11378000  0.07923000  1.0
  C  C31  1  0.18985000  0.38622000  0.92077000  1.0
  C  C32  1  0.31917000  0.92580000  0.83291000  1.0
  C  C33  1  0.81917000  0.57420000  0.16709000  1.0
  C  C34  1  0.68083000  0.07420000  0.16709000  1.0
  C  C35  1  0.18083000  0.42580000  0.83290000  1.0
  C  C36  1  0.60457000  0.72174000  0.82714000  1.0
  C  C37  1  0.10456000  0.77826000  0.17287000  1.0
  C  C38  1  0.39544000  0.27826000  0.17287000  1.0
  C  C39  1  0.89543000  0.22174000  0.82714000  1.0
  C  C40  1  0.45350000  0.78398000  0.91797000  1.0
  C  C41  1  0.95349000  0.71602000  0.08203000  1.0
  C  C42  1  0.54651000  0.21602000  0.08203000  1.0
  C  C43  1  0.04650000  0.28398000  0.91797000  1.0
  C  C44  1  0.76401000  0.68104000  0.64125000  1.0
  C  C45  1  0.26401000  0.81896000  0.35875000  1.0
  C  C46  1  0.23599000  0.31896000  0.35874000  1.0
  C  C47  1  0.73597000  0.18104000  0.64126000  1.0
  C  C48  1  0.47592000  0.90933000  0.64839000  1.0
  C  C49  1  0.97591000  0.59067000  0.35160000  1.0
  C  C50  1  0.52408000  0.09067000  0.35160000  1.0
  C  C51  1  0.02408000  0.40933000  0.64839000  1.0
  O  O52  1  0.29666000  0.98364000  0.64821000  1.0
  O  O53  1  0.79665000  0.51637000  0.35179000  1.0
  O  O54  1  0.70336000  0.01637000  0.35179000  1.0
  O  O55  1  0.20335000  0.48364000  0.64820000  1.0
  O  O56  1  0.65996000  0.87262000  0.57952000  1.0
  O  O57  1  0.15996000  0.62737000  0.42047000  1.0
  O  O58  1  0.34004000  0.12737000  0.42047000  1.0
  O  O59  1  0.84004000  0.37262000  0.57952000  1.0
  O  O60  1  0.63418000  0.59601000  0.57028000  1.0
  O  O61  1  0.13419000  0.90400000  0.42973000  1.0
  O  O62  1  0.36581000  0.40399000  0.42972000  1.0
  O  O63  1  0.86581000  0.09601000  0.57028000  1.0
  O  O64  1  0.00619000  0.69347000  0.64295000  1.0
  O  O65  1  0.50618000  0.80652000  0.35704000  1.0
  O  O66  1  0.99382000  0.30652000  0.35704000  1.0
  O  O67  1  0.49381000  0.19348000  0.64295000  1.0
