# generated using pymatgen
data_Hf3H14(C13O8)2
_symmetry_space_group_name_H-M   'P 1'
_cell_length_a   15.49790000
_cell_length_b   19.28410000
_cell_length_c   19.29320000
_cell_angle_alpha   88.60480000
_cell_angle_beta   89.90260000
_cell_angle_gamma   89.92550000
_symmetry_Int_Tables_number   1
_chemical_formula_structural   Hf3H14(C13O8)2
_chemical_formula_sum   'Hf6 H28 C52 O32'
_cell_volume   5764.30232696
_cell_formula_units_Z   2
loop_
 _symmetry_equiv_pos_site_id
 _symmetry_equiv_pos_as_xyz
  1  'x, y, z'
loop_
 _atom_site_type_symbol
 _atom_site_label
 _atom_site_symmetry_multiplicity
 _atom_site_fract_x
 _atom_site_fract_y
 _atom_site_fract_z
 _atom_site_occupancy
  Hf  Hf0  1  0.00833000  0.98980000  0.90069000  1.0
  Hf  Hf1  1  0.00396000  0.11060000  0.03774000  1.0
  Hf  Hf2  1  0.00591000  0.85134000  0.02521000  1.0
  Hf  Hf3  1  0.00481000  0.97133000  0.15850000  1.0
  Hf  Hf4  1  0.16536000  0.98162000  0.03133000  1.0
  Hf  Hf5  1  0.84607000  0.98125000  0.02993000  1.0
  H  H6  1  0.64464000  0.97542000  0.64548000  1.0
  H  H7  1  0.50426000  0.98314000  0.83850000  1.0
  H  H8  1  0.36628000  0.98964000  0.64435000  1.0
  H  H9  1  0.36562000  0.97560000  0.41947000  1.0
  H  H10  1  0.50226000  0.97804000  0.22421000  1.0
  H  H11  1  0.64396000  0.98580000  0.41635000  1.0
  H  H12  1  0.64436000  0.36918000  0.03275000  1.0
  H  H13  1  0.50693000  0.17495000  0.02681000  1.0
  H  H14  1  0.36575000  0.36813000  0.02514000  1.0
  H  H15  1  0.64452000  0.59446000  0.02779000  1.0
  H  H16  1  0.50782000  0.78964000  0.03036000  1.0
  H  H17  1  0.36586000  0.59719000  0.03356000  1.0
  H  H18  1  0.88821000  0.08936000  0.92331000  1.0
  H  H19  1  0.12466000  0.08228000  0.14126000  1.0
  H  H20  1  0.87952000  0.87573000  0.13419000  1.0
  H  H21  1  0.13229000  0.88186000  0.92633000  1.0
  H  H22  1  0.06222000  0.20829000  0.12262000  1.0
  H  H23  1  0.94847000  0.03711000  0.27110000  1.0
  H  H24  1  0.04972000  0.87223000  0.24869000  1.0
  H  H25  1  0.00538000  0.81969000  0.16693000  1.0
  H  H26  1  0.96172000  0.76234000  0.92979000  1.0
  H  H27  1  0.00448000  0.84941000  0.87288000  1.0
  H  H28  1  0.04132000  0.07882000  0.80029000  1.0
  H  H29  1  0.95876000  0.22856000  0.96864000  1.0
  H  H30  1  0.95745000  0.75460000  0.12948000  1.0
  H  H31  1  0.95099000  0.89434000  0.81484000  1.0
  H  H32  1  0.05937000  0.21719000  0.95813000  1.0
  H  H33  1  0.05024000  0.02895000  0.28440000  1.0
  C  C34  1  0.50553000  0.98249000  0.63643000  1.0
  C  C35  1  0.58370000  0.97852000  0.67342000  1.0
  C  C36  1  0.58349000  0.97861000  0.74626000  1.0
  C  C37  1  0.50464000  0.98293000  0.78207000  1.0
  C  C38  1  0.42626000  0.98705000  0.74556000  1.0
  C  C39  1  0.42688000  0.98668000  0.67276000  1.0
  C  C40  1  0.50491000  0.98098000  0.42645000  1.0
  C  C41  1  0.42603000  0.97754000  0.39058000  1.0
  C  C42  1  0.42483000  0.97634000  0.31779000  1.0
  C  C43  1  0.50303000  0.97888000  0.28062000  1.0
  C  C44  1  0.58216000  0.98233000  0.31600000  1.0
  C  C45  1  0.58281000  0.98331000  0.38882000  1.0
  C  C46  1  0.50497000  0.37718000  0.02911000  1.0
  C  C47  1  0.58380000  0.34075000  0.03075000  1.0
  C  C48  1  0.58472000  0.26794000  0.02991000  1.0
  C  C49  1  0.50636000  0.23140000  0.02735000  1.0
  C  C50  1  0.42735000  0.26733000  0.02552000  1.0
  C  C51  1  0.42684000  0.34017000  0.02644000  1.0
  C  C52  1  0.50511000  0.58726000  0.03071000  1.0
  C  C53  1  0.58408000  0.62325000  0.02904000  1.0
  C  C54  1  0.58532000  0.69612000  0.02879000  1.0
  C  C55  1  0.50702000  0.73316000  0.03056000  1.0
  C  C56  1  0.42772000  0.69764000  0.03245000  1.0
  C  C57  1  0.42715000  0.62475000  0.03239000  1.0
  C  C58  1  0.21591000  0.99353000  0.87136000  1.0
  C  C59  1  0.79564000  0.14224000  0.03427000  1.0
  C  C60  1  0.21711000  0.14139000  0.02503000  1.0
  C  C61  1  0.79415000  0.97469000  0.87183000  1.0
  C  C62  1  0.79988000  0.81745000  0.02537000  1.0
  C  C63  1  0.21222000  0.96963000  0.19495000  1.0
  C  C64  1  0.79413000  0.98260000  0.19128000  1.0
  C  C65  1  0.21400000  0.82076000  0.03421000  1.0
  C  C66  1  0.72955000  0.76853000  0.02527000  1.0
  C  C67  1  0.66436000  0.73328000  0.02685000  1.0
  C  C68  1  0.34959000  0.73611000  0.03417000  1.0
  C  C69  1  0.28489000  0.77196000  0.03540000  1.0
  C  C70  1  0.66281000  0.22952000  0.03173000  1.0
  C  C71  1  0.72551000  0.19146000  0.03329000  1.0
  C  C72  1  0.34992000  0.22836000  0.02330000  1.0
  C  C73  1  0.28754000  0.19008000  0.02208000  1.0
  C  C74  1  0.50443000  0.45061000  0.02999000  1.0
  C  C75  1  0.50436000  0.51381000  0.03050000  1.0
  C  C76  1  0.72375000  0.98527000  0.24012000  1.0
  C  C77  1  0.65996000  0.98427000  0.27710000  1.0
  C  C78  1  0.34622000  0.97266000  0.28043000  1.0
  C  C79  1  0.28213000  0.96968000  0.24417000  1.0
  C  C80  1  0.66099000  0.97498000  0.78517000  1.0
  C  C81  1  0.72347000  0.97281000  0.82333000  1.0
  C  C82  1  0.28589000  0.99404000  0.82209000  1.0
  C  C83  1  0.34843000  0.99115000  0.78401000  1.0
  C  C84  1  0.50580000  0.98221000  0.56300000  1.0
  C  C85  1  0.50565000  0.98181000  0.49983000  1.0
  O  O86  1  0.13925000  0.99628000  0.84823000  1.0
  O  O87  1  0.23888000  0.98910000  0.93502000  1.0
  O  O88  1  0.87232000  0.16582000  0.03264000  1.0
  O  O89  1  0.77332000  0.07861000  0.03601000  1.0
  O  O90  1  0.14061000  0.16467000  0.01816000  1.0
  O  O91  1  0.23853000  0.07818000  0.03662000  1.0
  O  O92  1  0.87034000  0.96834000  0.84918000  1.0
  O  O93  1  0.77180000  0.98429000  0.93496000  1.0
  O  O94  1  0.99300000  0.06528000  0.82952000  1.0
  O  O95  1  0.00668000  0.89201000  0.83850000  1.0
  O  O96  1  0.00227000  0.19640000  0.95155000  1.0
  O  O97  1  0.01088000  0.18387000  0.10862000  1.0
  O  O98  1  0.07476000  0.03905000  0.97961000  1.0
  O  O99  1  0.91832000  0.05907000  0.95624000  1.0
  O  O100  1  0.87736000  0.79395000  0.02572000  1.0
  O  O101  1  0.77697000  0.88082000  0.02614000  1.0
  O  O102  1  0.13471000  0.96637000  0.21830000  1.0
  O  O103  1  0.23471000  0.97424000  0.13172000  1.0
  O  O104  1  0.87131000  0.98500000  0.21457000  1.0
  O  O105  1  0.77211000  0.97622000  0.12821000  1.0
  O  O106  1  0.13731000  0.79788000  0.03431000  1.0
  O  O107  1  0.23745000  0.88451000  0.03185000  1.0
  O  O108  1  0.00640000  0.78582000  0.12469000  1.0
  O  O109  1  0.00727000  0.79659000  0.93357000  1.0
  O  O110  1  0.00126000  0.87768000  0.21709000  1.0
  O  O111  1  0.00637000  0.04450000  0.25129000  1.0
  O  O112  1  0.91550000  0.90417000  0.10376000  1.0
  O  O113  1  0.07330000  0.92430000  0.08369000  1.0
  O  O114  1  0.93912000  0.93016000  0.97750000  1.0
  O  O115  1  0.09079000  0.05308000  0.11148000  1.0
  O  O116  1  0.09619000  0.91080000  0.95497000  1.0
  O  O117  1  0.93545000  0.03378000  0.08815000  1.0
