# generated using pymatgen
data_FeH10Au2(C8N5)2
_symmetry_space_group_name_H-M   'P 1'
_cell_length_a   12.72030000
_cell_length_b   15.40650000
_cell_length_c   16.73030000
_cell_angle_alpha   70.08800000
_cell_angle_beta   67.67800000
_cell_angle_gamma   89.99390000
_symmetry_Int_Tables_number   1
_chemical_formula_structural   FeH10Au2(C8N5)2
_chemical_formula_sum   'Fe4 H40 Au8 C64 N40'
_cell_volume   2820.04426631
_cell_formula_units_Z   4
loop_
 _symmetry_equiv_pos_site_id
 _symmetry_equiv_pos_as_xyz
  1  'x, y, z'
loop_
 _atom_site_type_symbol
 _atom_site_label
 _atom_site_symmetry_multiplicity
 _atom_site_fract_x
 _atom_site_fract_y
 _atom_site_fract_z
 _atom_site_occupancy
  Fe  Fe0  1  0.80336000  0.53385000  0.89406000  1.0
  Fe  Fe1  1  0.69766000  0.96620000  0.10587000  1.0
  Fe  Fe2  1  0.19664000  0.46616000  0.10594000  1.0
  Fe  Fe3  1  0.30234000  0.03380000  0.89413000  1.0
  H  H4  1  0.91301000  0.72544000  0.41121000  1.0
  H  H5  1  0.32420000  0.77467000  0.58864000  1.0
  H  H6  1  0.08698000  0.27456000  0.58879000  1.0
  H  H7  1  0.67580000  0.22533000  0.41136000  1.0
  H  H8  1  0.90916000  0.81895000  0.43883000  1.0
  H  H9  1  0.34798000  0.68111000  0.56111000  1.0
  H  H10  1  0.09084000  0.18105000  0.56117000  1.0
  H  H11  1  0.65202000  0.31889000  0.43889000  1.0
  H  H12  1  0.04307000  0.56683000  0.76825000  1.0
  H  H13  1  0.81149000  0.93311000  0.23190000  1.0
  H  H14  1  0.95694000  0.43318000  0.23175000  1.0
  H  H15  1  0.18852000  0.06689000  0.76810000  1.0
  H  H16  1  0.16066000  0.64801000  0.60031000  1.0
  H  H17  1  0.76091000  0.85203000  0.39995000  1.0
  H  H18  1  0.83934000  0.35200000  0.39969000  1.0
  H  H19  1  0.23910000  0.14796000  0.60005000  1.0
  H  H20  1  0.84300000  0.70998000  0.56761000  1.0
  H  H21  1  0.41083000  0.79009000  0.43219000  1.0
  H  H22  1  0.15700000  0.29002000  0.43239000  1.0
  H  H23  1  0.58918000  0.20991000  0.56781000  1.0
  H  H24  1  0.74198000  0.62673000  0.73226000  1.0
  H  H25  1  0.47461000  0.87327000  0.26750000  1.0
  H  H26  1  0.25803000  0.37327000  0.26774000  1.0
  H  H27  1  0.52540000  0.12673000  0.73250000  1.0
  H  H28  1  0.36605000  0.92103000  0.18849000  1.0
  H  H29  1  0.55439000  0.57919000  0.81162000  1.0
  H  H30  1  0.63395000  0.07897000  0.81151000  1.0
  H  H31  1  0.44561000  0.42082000  0.18838000  1.0
  H  H32  1  0.41301000  0.00621000  0.02208000  1.0
  H  H33  1  0.43513000  0.49381000  0.97803000  1.0
  H  H34  1  0.58699000  0.99379000  0.97792000  1.0
  H  H35  1  0.56487000  0.50620000  0.02197000  1.0
  H  H36  1  0.08086000  0.93574000  0.05500000  1.0
  H  H37  1  0.13575000  0.56397000  0.94511000  1.0
  H  H38  1  0.91914000  0.06426000  0.94500000  1.0
  H  H39  1  0.86425000  0.43603000  0.05489000  1.0
  H  H40  1  0.01909000  0.84670000  0.22321000  1.0
  H  H41  1  0.24198000  0.65318000  0.77691000  1.0
  H  H42  1  0.98090000  0.15330000  0.77679000  1.0
  H  H43  1  0.75802000  0.34682000  0.22309000  1.0
  Au  Au44  1  0.56753000  0.79499000  0.88759000  1.0
  Au  Au45  1  0.45516000  0.70529000  0.11225000  1.0
  Au  Au46  1  0.43245000  0.20500000  0.11242000  1.0
  Au  Au47  1  0.54485000  0.29470000  0.88775000  1.0
  Au  Au48  1  0.04100000  0.27482000  0.89518000  1.0
  Au  Au49  1  0.93651000  0.22535000  0.10444000  1.0
  Au  Au50  1  0.95899000  0.72517000  0.10482000  1.0
  Au  Au51  1  0.06349000  0.77466000  0.89557000  1.0
  C  C52  1  0.65784000  0.69147000  0.88987000  1.0
  C  C53  1  0.54773000  0.80874000  0.11008000  1.0
  C  C54  1  0.34215000  0.30852000  0.11013000  1.0
  C  C55  1  0.45227000  0.19125000  0.88992000  1.0
  C  C56  1  0.95304000  0.37984000  0.89008000  1.0
  C  C57  1  0.84332000  0.12045000  0.10948000  1.0
  C  C58  1  0.04696000  0.62016000  0.10992000  1.0
  C  C59  1  0.15666000  0.87955000  0.89053000  1.0
  C  C60  1  0.00311000  0.59963000  0.72073000  1.0
  C  C61  1  0.72399000  0.90038000  0.27936000  1.0
  C  C62  1  0.99689000  0.40037000  0.27927000  1.0
  C  C63  1  0.27601000  0.09962000  0.72064000  1.0
  C  C64  1  0.06805000  0.64536000  0.62710000  1.0
  C  C65  1  0.69518000  0.85475000  0.37303000  1.0
  C  C66  1  0.93195000  0.35464000  0.37289000  1.0
  C  C67  1  0.30482000  0.14525000  0.62697000  1.0
  C  C68  1  0.01538000  0.68898000  0.56636000  1.0
  C  C69  1  0.58180000  0.81114000  0.43369000  1.0
  C  C70  1  0.98462000  0.31102000  0.43364000  1.0
  C  C71  1  0.41821000  0.18886000  0.56631000  1.0
  C  C72  1  0.89473000  0.68018000  0.60628000  1.0
  C  C73  1  0.50118000  0.81989000  0.39363000  1.0
  C  C74  1  0.10527000  0.31982000  0.39372000  1.0
  C  C75  1  0.49882000  0.18010000  0.60637000  1.0
  C  C76  1  0.83499000  0.63213000  0.70138000  1.0
  C  C77  1  0.53664000  0.86791000  0.29850000  1.0
  C  C78  1  0.16501000  0.36787000  0.29862000  1.0
  C  C79  1  0.46336000  0.13209000  0.70150000  1.0
  C  C80  1  0.09184000  0.74012000  0.46964000  1.0
  C  C81  1  0.56142000  0.75998000  0.53047000  1.0
  C  C82  1  0.90816000  0.25988000  0.53036000  1.0
  C  C83  1  0.43859000  0.24001000  0.46952000  1.0
  C  C84  1  0.16740000  0.82187000  0.31843000  1.0
  C  C85  1  0.48560000  0.67818000  0.68169000  1.0
  C  C86  1  0.83260000  0.17813000  0.68157000  1.0
  C  C87  1  0.51440000  0.32182000  0.31831000  1.0
  C  C88  1  0.18803000  0.87468000  0.22171000  1.0
  C  C89  1  0.40950000  0.62528000  0.77838000  1.0
  C  C90  1  0.81197000  0.12531000  0.77829000  1.0
  C  C91  1  0.59050000  0.37472000  0.22161000  1.0
  C  C92  1  0.29993000  0.92187000  0.16220000  1.0
  C  C93  1  0.46198000  0.57814000  0.83792000  1.0
  C  C94  1  0.70007000  0.07813000  0.83780000  1.0
  C  C95  1  0.53802000  0.42187000  0.16208000  1.0
  C  C96  1  0.32711000  0.96946000  0.06889000  1.0
  C  C97  1  0.39596000  0.53048000  0.93121000  1.0
  C  C98  1  0.67289000  0.03054000  0.93111000  1.0
  C  C99  1  0.60404000  0.46953000  0.06879000  1.0
  C  C100  1  0.14154000  0.93078000  0.08731000  1.0
  C  C101  1  0.22872000  0.56897000  0.91277000  1.0
  C  C102  1  0.85845000  0.06922000  0.91269000  1.0
  C  C103  1  0.77128000  0.43103000  0.08723000  1.0
  C  C104  1  0.10744000  0.88087000  0.18199000  1.0
  C  C105  1  0.28919000  0.61896000  0.81809000  1.0
  C  C106  1  0.89256000  0.11913000  0.81801000  1.0
  C  C107  1  0.71081000  0.38105000  0.18191000  1.0
  C  C108  1  0.47716000  0.89854000  0.88135000  1.0
  C  C109  1  0.35870000  0.60167000  0.11845000  1.0
  C  C110  1  0.52282000  0.10144000  0.11866000  1.0
  C  C111  1  0.64131000  0.39833000  0.88154000  1.0
  C  C112  1  0.13045000  0.17069000  0.90118000  1.0
  C  C113  1  0.03198000  0.32927000  0.09872000  1.0
  C  C114  1  0.86955000  0.82930000  0.09882000  1.0
  C  C115  1  0.96803000  0.67073000  0.90128000  1.0
  N  N116  1  0.71023000  0.62882000  0.89194000  1.0
  N  N117  1  0.60240000  0.87129000  0.10797000  1.0
  N  N118  1  0.28976000  0.37118000  0.10806000  1.0
  N  N119  1  0.39761000  0.12871000  0.89203000  1.0
  N  N120  1  0.89740000  0.44004000  0.89392000  1.0
  N  N121  1  0.79151000  0.06007000  0.10591000  1.0
  N  N122  1  0.10260000  0.55996000  0.10608000  1.0
  N  N123  1  0.20848000  0.93993000  0.89409000  1.0
  N  N124  1  0.88711000  0.59306000  0.75889000  1.0
  N  N125  1  0.64624000  0.90694000  0.24108000  1.0
  N  N126  1  0.11289000  0.40694000  0.24110000  1.0
  N  N127  1  0.35376000  0.09306000  0.75892000  1.0
  N  N128  1  0.20605000  0.75409000  0.44018000  1.0
  N  N129  1  0.64604000  0.74596000  0.56010000  1.0
  N  N130  1  0.79395000  0.24591000  0.55982000  1.0
  N  N131  1  0.35396000  0.25404000  0.43990000  1.0
  N  N132  1  0.25250000  0.80421000  0.34707000  1.0
  N  N133  1  0.59930000  0.69580000  0.65320000  1.0
  N  N134  1  0.74750000  0.19578000  0.65292000  1.0
  N  N135  1  0.40070000  0.30419000  0.34680000  1.0
  N  N136  1  0.06422000  0.78238000  0.39418000  1.0
  N  N137  1  0.45831000  0.71771000  0.60585000  1.0
  N  N138  1  0.93578000  0.21762000  0.60581000  1.0
  N  N139  1  0.54170000  0.28229000  0.39415000  1.0
  N  N140  1  0.95555000  0.79046000  0.39170000  1.0
  N  N141  1  0.34721000  0.70964000  0.60823000  1.0
  N  N142  1  0.04445000  0.20954000  0.60830000  1.0
  N  N143  1  0.65280000  0.29036000  0.39177000  1.0
  N  N144  1  0.25012000  0.97362000  0.03047000  1.0
  N  N145  1  0.28056000  0.52622000  0.96961000  1.0
  N  N146  1  0.74988000  0.02638000  0.96953000  1.0
  N  N147  1  0.71944000  0.47378000  0.03039000  1.0
  N  N148  1  0.41826000  0.95698000  0.88126000  1.0
  N  N149  1  0.29975000  0.54311000  0.11868000  1.0
  N  N150  1  0.58173000  0.04301000  0.11874000  1.0
  N  N151  1  0.70026000  0.45689000  0.88132000  1.0
  N  N152  1  0.18721000  0.11085000  0.90582000  1.0
  N  N153  1  0.09325000  0.38908000  0.09425000  1.0
  N  N154  1  0.81279000  0.88915000  0.09418000  1.0
  N  N155  1  0.90676000  0.61093000  0.90575000  1.0
