# generated using pymatgen
data_MgCu2H18(CO)12
_symmetry_space_group_name_H-M   'P 1'
_cell_length_a   8.30101000
_cell_length_b   11.19780000
_cell_length_c   11.20750000
_cell_angle_alpha   99.39590000
_cell_angle_beta   108.26700000
_cell_angle_gamma   108.32400000
_symmetry_Int_Tables_number   1
_chemical_formula_structural   MgCu2H18(CO)12
_chemical_formula_sum   'Mg2 Cu4 H36 C24 O24'
_cell_volume   898.63429074
_cell_formula_units_Z   2
loop_
 _symmetry_equiv_pos_site_id
 _symmetry_equiv_pos_as_xyz
  1  'x, y, z'
loop_
 _atom_site_type_symbol
 _atom_site_label
 _atom_site_symmetry_multiplicity
 _atom_site_fract_x
 _atom_site_fract_y
 _atom_site_fract_z
 _atom_site_occupancy
  Mg  Mg0  1  0.74976000  0.58124000  0.41896000  1.0
  Mg  Mg1  1  0.25023000  0.41877000  0.58103000  1.0
  Cu  Cu2  1  0.54243000  0.51419000  0.90136000  1.0
  Cu  Cu3  1  0.95758000  0.09867000  0.48546000  1.0
  Cu  Cu4  1  0.45755000  0.48580000  0.09864000  1.0
  Cu  Cu5  1  0.04244000  0.90135000  0.51457000  1.0
  H  H6  1  0.90820000  0.66504000  0.87002000  1.0
  H  H7  1  0.59148000  0.13033000  0.33380000  1.0
  H  H8  1  0.09176000  0.33493000  0.12999000  1.0
  H  H9  1  0.40854000  0.86967000  0.66618000  1.0
  H  H10  1  0.76884000  0.75708000  0.85502000  1.0
  H  H11  1  0.73253000  0.14619000  0.24301000  1.0
  H  H12  1  0.23115000  0.24292000  0.14496000  1.0
  H  H13  1  0.26751000  0.85382000  0.75700000  1.0
  H  H14  1  0.92016000  0.77242000  0.76773000  1.0
  H  H15  1  0.58154000  0.23379000  0.22767000  1.0
  H  H16  1  0.07986000  0.22756000  0.23228000  1.0
  H  H17  1  0.41848000  0.76619000  0.77231000  1.0
  H  H18  1  0.10926000  0.69480000  0.28294000  1.0
  H  H19  1  0.39170000  0.71709000  0.30602000  1.0
  H  H20  1  0.89074000  0.30519000  0.71704000  1.0
  H  H21  1  0.60833000  0.28294000  0.69397000  1.0
  H  H22  1  0.10354000  0.56596000  0.16166000  1.0
  H  H23  1  0.39746000  0.83867000  0.43461000  1.0
  H  H24  1  0.89644000  0.43398000  0.83836000  1.0
  H  H25  1  0.60252000  0.16134000  0.56536000  1.0
  H  H26  1  0.04897000  0.53502000  0.30115000  1.0
  H  H27  1  0.45219000  0.69920000  0.46573000  1.0
  H  H28  1  0.95101000  0.46499000  0.69888000  1.0
  H  H29  1  0.54779000  0.30082000  0.53426000  1.0
  H  H30  1  0.64830000  0.14813000  0.95758000  1.0
  H  H31  1  0.84817000  0.04443000  0.85032000  1.0
  H  H32  1  0.35172000  0.85189000  0.04257000  1.0
  H  H33  1  0.15184000  0.95552000  0.14969000  1.0
  H  H34  1  0.43391000  0.08046000  0.82073000  1.0
  H  H35  1  0.06541000  0.17858000  0.91909000  1.0
  H  H36  1  0.56628000  0.91960000  0.17925000  1.0
  H  H37  1  0.93455000  0.82141000  0.08092000  1.0
  H  H38  1  0.44043000  0.07816000  0.98218000  1.0
  H  H39  1  0.05232000  0.01547000  0.91991000  1.0
  H  H40  1  0.55939000  0.92178000  0.01770000  1.0
  H  H41  1  0.94773000  0.98456000  0.08013000  1.0
  C  C42  1  0.82874000  0.70517000  0.80136000  1.0
  C  C43  1  0.67211000  0.19956000  0.29470000  1.0
  C  C44  1  0.17126000  0.29482000  0.19863000  1.0
  C  C45  1  0.32791000  0.80044000  0.70529000  1.0
  C  C46  1  0.67711000  0.59296000  0.68609000  1.0
  C  C47  1  0.82295000  0.31437000  0.40777000  1.0
  C  C48  1  0.32288000  0.40704000  0.31390000  1.0
  C  C49  1  0.17704000  0.68563000  0.59222000  1.0
  C  C50  1  0.03907000  0.58998000  0.22858000  1.0
  C  C51  1  0.46177000  0.77162000  0.41057000  1.0
  C  C52  1  0.96091000  0.40999000  0.77143000  1.0
  C  C53  1  0.53823000  0.22840000  0.58942000  1.0
  C  C54  1  0.84318000  0.56792000  0.15324000  1.0
  C  C55  1  0.65725000  0.84701000  0.43184000  1.0
  C  C56  1  0.15680000  0.43206000  0.84675000  1.0
  C  C57  1  0.34276000  0.15302000  0.56818000  1.0
  C  C58  1  0.50231000  0.13411000  0.92545000  1.0
  C  C59  1  0.99403000  0.07402000  0.86464000  1.0
  C  C60  1  0.49767000  0.86588000  0.07454000  1.0
  C  C61  1  0.00599000  0.92598000  0.13538000  1.0
  C  C62  1  0.49314000  0.26776000  0.94796000  1.0
  C  C63  1  0.00474000  0.05155000  0.73161000  1.0
  C  C64  1  0.50684000  0.73223000  0.05203000  1.0
  C  C65  1  0.99528000  0.94845000  0.26842000  1.0
  O  O66  1  0.53831000  0.51953000  0.70556000  1.0
  O  O67  1  0.96195000  0.29477000  0.48042000  1.0
  O  O68  1  0.46169000  0.48046000  0.29442000  1.0
  O  O69  1  0.03804000  0.70525000  0.51959000  1.0
  O  O70  1  0.69288000  0.57457000  0.57781000  1.0
  O  O71  1  0.80633000  0.42238000  0.42779000  1.0
  O  O72  1  0.30711000  0.42544000  0.42217000  1.0
  O  O73  1  0.19367000  0.57763000  0.57217000  1.0
  O  O74  1  0.79693000  0.56375000  0.03254000  1.0
  O  O75  1  0.70320000  0.96770000  0.43533000  1.0
  O  O76  1  0.20305000  0.43621000  0.96746000  1.0
  O  O77  1  0.29682000  0.03234000  0.56471000  1.0
  O  O78  1  0.73367000  0.55581000  0.21408000  1.0
  O  O79  1  0.76689000  0.78635000  0.44412000  1.0
  O  O80  1  0.26632000  0.44420000  0.78593000  1.0
  O  O81  1  0.23311000  0.21368000  0.55586000  1.0
  O  O82  1  0.52797000  0.33189000  0.86899000  1.0
  O  O83  1  0.97057000  0.13056000  0.66732000  1.0
  O  O84  1  0.47197000  0.66809000  0.13100000  1.0
  O  O85  1  0.02950000  0.86947000  0.33272000  1.0
  O  O86  1  0.45444000  0.30703000  0.04501000  1.0
  O  O87  1  0.04419000  0.95469000  0.69297000  1.0
  O  O88  1  0.54554000  0.69296000  0.95499000  1.0
  O  O89  1  0.95579000  0.04530000  0.30704000  1.0
