# generated using pymatgen
data_ZnH6C4NO7
_symmetry_space_group_name_H-M   'P 1'
_cell_length_a   7.11026000
_cell_length_b   7.17637000
_cell_length_c   8.19093000
_cell_angle_alpha   84.87840000
_cell_angle_beta   83.02460000
_cell_angle_gamma   62.17040000
_symmetry_Int_Tables_number   1
_chemical_formula_structural   ZnH6C4NO7
_chemical_formula_sum   'Zn2 H12 C8 N2 O14'
_cell_volume   366.62076627
_cell_formula_units_Z   2
loop_
 _symmetry_equiv_pos_site_id
 _symmetry_equiv_pos_as_xyz
  1  'x, y, z'
loop_
 _atom_site_type_symbol
 _atom_site_label
 _atom_site_symmetry_multiplicity
 _atom_site_fract_x
 _atom_site_fract_y
 _atom_site_fract_z
 _atom_site_occupancy
  Zn  Zn0  1  0.00000000  0.00000000  0.00000000  1.0
  Zn  Zn1  1  0.50000000  0.50000000  0.50000000  1.0
  H  H2  1  0.28638000  0.60658000  0.08617000  1.0
  H  H3  1  0.71362000  0.39342000  0.91383000  1.0
  H  H4  1  0.42339000  0.72230000  0.01022000  1.0
  H  H5  1  0.57661000  0.27770000  0.98978000  1.0
  H  H6  1  0.31029000  0.05699000  0.80624000  1.0
  H  H7  1  0.68971000  0.94301000  0.19376000  1.0
  H  H8  1  0.20340000  0.22371000  0.94653000  1.0
  H  H9  1  0.79660000  0.77629000  0.05347000  1.0
  H  H10  1  0.38067000  0.90748000  0.39306000  1.0
  H  H11  1  0.61933000  0.09252000  0.60694000  1.0
  H  H12  1  0.30525000  0.79368000  0.28105000  1.0
  H  H13  1  0.69475000  0.20632000  0.71895000  1.0
  C  C14  1  0.13265000  0.69054000  0.72377000  1.0
  C  C15  1  0.86735000  0.30947000  0.27623000  1.0
  C  C16  1  0.05881000  0.59062000  0.60756000  1.0
  C  C17  1  0.94119000  0.40939000  0.39243000  1.0
  C  C18  1  0.85125000  0.61115000  0.62281000  1.0
  C  C19  1  0.14875000  0.38885000  0.37719000  1.0
  C  C20  1  0.67570000  0.73623000  0.75363000  1.0
  C  C21  1  0.32430000  0.26377000  0.24637000  1.0
  N  N22  1  0.20273000  0.47972000  0.48661000  1.0
  N  N23  1  0.79727000  0.52028000  0.51339000  1.0
  O  O24  1  0.29031000  0.74432000  0.08085000  1.0
  O  O25  1  0.70969000  0.25568000  0.91915000  1.0
  O  O26  1  0.98480000  0.83133000  0.81203000  1.0
  O  O27  1  0.01520000  0.16867000  0.18797000  1.0
  O  O28  1  0.16922000  0.15405000  0.86523000  1.0
  O  O29  1  0.83078000  0.84595000  0.13477000  1.0
  O  O30  1  0.33098000  0.62584000  0.72426000  1.0
  O  O31  1  0.66902000  0.37416000  0.27574000  1.0
  O  O32  1  0.32589000  0.80292000  0.39760000  1.0
  O  O33  1  0.67411000  0.19708000  0.60240000  1.0
  O  O34  1  0.67484000  0.65080000  0.89653000  1.0
  O  O35  1  0.32516000  0.34920000  0.10348000  1.0
  O  O36  1  0.53754000  0.91320000  0.70306000  1.0
  O  O37  1  0.46246000  0.08680000  0.29694000  1.0
