# generated using pymatgen
data_GdH15C20SN4O7
_symmetry_space_group_name_H-M   'P 1'
_cell_length_a   9.60218000
_cell_length_b   9.76740000
_cell_length_c   12.14380000
_cell_angle_alpha   74.13930000
_cell_angle_beta   77.32590000
_cell_angle_gamma   63.98340000
_symmetry_Int_Tables_number   1
_chemical_formula_structural   GdH15C20SN4O7
_chemical_formula_sum   'Gd2 H30 C40 S2 N8 O14'
_cell_volume   978.01958458
_cell_formula_units_Z   2
loop_
 _symmetry_equiv_pos_site_id
 _symmetry_equiv_pos_as_xyz
  1  'x, y, z'
loop_
 _atom_site_type_symbol
 _atom_site_label
 _atom_site_symmetry_multiplicity
 _atom_site_fract_x
 _atom_site_fract_y
 _atom_site_fract_z
 _atom_site_occupancy
  Gd  Gd0  1  0.69632000  0.48962000  0.93513000  1.0
  Gd  Gd1  1  0.30367000  0.51038000  0.06487000  1.0
  H  H2  1  0.81400000  0.67963000  0.06604000  1.0
  H  H3  1  0.18601000  0.32037000  0.93395000  1.0
  H  H4  1  0.80194000  0.93876000  0.07050000  1.0
  H  H5  1  0.19807000  0.06124000  0.92950000  1.0
  H  H6  1  0.65727000  0.17170000  0.92782000  1.0
  H  H7  1  0.34274000  0.82830000  0.07218000  1.0
  H  H8  1  0.30985000  0.51111000  0.63433000  1.0
  H  H9  1  0.69015000  0.48888000  0.36567000  1.0
  H  H10  1  0.30963000  0.04477000  0.54646000  1.0
  H  H11  1  0.69036000  0.95523000  0.45355000  1.0
  H  H12  1  0.36910000  0.76624000  0.55153000  1.0
  H  H13  1  0.63088000  0.23375000  0.44848000  1.0
  H  H14  1  0.53383000  0.55792000  0.69786000  1.0
  H  H15  1  0.46616000  0.44207000  0.30216000  1.0
  H  H16  1  0.98274000  0.32084000  0.28553000  1.0
  H  H17  1  0.01725000  0.67916000  0.71446000  1.0
  H  H18  1  0.13061000  0.12678000  0.44113000  1.0
  H  H19  1  0.86938000  0.87323000  0.55887000  1.0
  H  H20  1  0.19118000  0.84337000  0.46005000  1.0
  H  H21  1  0.80882000  0.15663000  0.53995000  1.0
  H  H22  1  0.95548000  0.96025000  0.16336000  1.0
  H  H23  1  0.04452000  0.03974000  0.83663000  1.0
  H  H24  1  0.00115000  0.42524000  0.77949000  1.0
  H  H25  1  0.99885000  0.57476000  0.22051000  1.0
  H  H26  1  0.02119000  0.52191000  0.86136000  1.0
  H  H27  1  0.97880000  0.47809000  0.13864000  1.0
  H  H28  1  0.51334000  0.60298000  0.14170000  1.0
  H  H29  1  0.48666000  0.39702000  0.85830000  1.0
  H  H30  1  0.25580000  0.31053000  0.58128000  1.0
  H  H31  1  0.74419000  0.68948000  0.41873000  1.0
  C  C32  1  0.75406000  0.78210000  0.00363000  1.0
  C  C33  1  0.24595000  0.21790000  0.99636000  1.0
  C  C34  1  0.74673000  0.92765000  0.00607000  1.0
  C  C35  1  0.25328000  0.07234000  0.99392000  1.0
  C  C36  1  0.66773000  0.05650000  0.92675000  1.0
  C  C37  1  0.33228000  0.94350000  0.07325000  1.0
  C  C38  1  0.59664000  0.03720000  0.84552000  1.0
  C  C39  1  0.40337000  0.96279000  0.15448000  1.0
  C  C40  1  0.50381000  0.16244000  0.76343000  1.0
  C  C41  1  0.49620000  0.83755000  0.23657000  1.0
  C  C42  1  0.36760000  0.38721000  0.66740000  1.0
  C  C43  1  0.63241000  0.61278000  0.33260000  1.0
  C  C44  1  0.42840000  0.13627000  0.68983000  1.0
  C  C45  1  0.57161000  0.86373000  0.31017000  1.0
  C  C46  1  0.44637000  0.98494000  0.68589000  1.0
  C  C47  1  0.55363000  0.01506000  0.31411000  1.0
  C  C48  1  0.38181000  0.95089000  0.60861000  1.0
  C  C49  1  0.61818000  0.04911000  0.39139000  1.0
  C  C50  1  0.41351000  0.79760000  0.61168000  1.0
  C  C51  1  0.58647000  0.20239000  0.38833000  1.0
  C  C52  1  0.50649000  0.67987000  0.69321000  1.0
  C  C53  1  0.49350000  0.32012000  0.30680000  1.0
  C  C54  1  0.54046000  0.85826000  0.76602000  1.0
  C  C55  1  0.45955000  0.14174000  0.23398000  1.0
  C  C56  1  0.61147000  0.88492000  0.84785000  1.0
  C  C57  1  0.38854000  0.11508000  0.15215000  1.0
  C  C58  1  0.87436000  0.27132000  0.11707000  1.0
  C  C59  1  0.12564000  0.72869000  0.88293000  1.0
  C  C60  1  0.95963000  0.15312000  0.21403000  1.0
  C  C61  1  0.04037000  0.84689000  0.78597000  1.0
  C  C62  1  0.00964000  0.19874000  0.29281000  1.0
  C  C63  1  0.99035000  0.80126000  0.70720000  1.0
  C  C64  1  0.09462000  0.08864000  0.38002000  1.0
  C  C65  1  0.90537000  0.91136000  0.61998000  1.0
  C  C66  1  0.12829000  0.93171000  0.39115000  1.0
  C  C67  1  0.87171000  0.06829000  0.60885000  1.0
  C  C68  1  0.07557000  0.88628000  0.31472000  1.0
  C  C69  1  0.92443000  0.11372000  0.68528000  1.0
  C  C70  1  0.99263000  0.99567000  0.22548000  1.0
  C  C71  1  0.00737000  0.00433000  0.77451000  1.0
  S  S72  1  0.11831000  0.68497000  0.33114000  1.0
  S  S73  1  0.88169000  0.31504000  0.66886000  1.0
  N  N74  1  0.68956000  0.75994000  0.92686000  1.0
  N  N75  1  0.31044000  0.24006000  0.07314000  1.0
  N  N76  1  0.46450000  0.31994000  0.74775000  1.0
  N  N77  1  0.53550000  0.68005000  0.25225000  1.0
  N  N78  1  0.34380000  0.28144000  0.62868000  1.0
  N  N79  1  0.65620000  0.71856000  0.37132000  1.0
  N  N80  1  0.56682000  0.70920000  0.76872000  1.0
  N  N81  1  0.43318000  0.29080000  0.23128000  1.0
  O  O82  1  0.81929000  0.23027000  0.05136000  1.0
  O  O83  1  0.18070000  0.76974000  0.94864000  1.0
  O  O84  1  0.85798000  0.41310000  0.10133000  1.0
  O  O85  1  0.14201000  0.58691000  0.89866000  1.0
  O  O86  1  0.96750000  0.67646000  0.33343000  1.0
  O  O87  1  0.03249000  0.32355000  0.66656000  1.0
  O  O88  1  0.19284000  0.60332000  0.43629000  1.0
  O  O89  1  0.80716000  0.39668000  0.56371000  1.0
  O  O90  1  0.22198000  0.64175000  0.22517000  1.0
  O  O91  1  0.77803000  0.35825000  0.77483000  1.0
  O  O92  1  0.95368000  0.47676000  0.84635000  1.0
  O  O93  1  0.04632000  0.52324000  0.15365000  1.0
  O  O94  1  0.50450000  0.56783000  0.07518000  1.0
  O  O95  1  0.49550000  0.43217000  0.92482000  1.0
