# generated using pymatgen
data_AgH7C7SO3
_symmetry_space_group_name_H-M   'P 1'
_cell_length_a   5.70185000
_cell_length_b   8.69237000
_cell_length_c   15.68010000
_cell_angle_alpha   92.81490000
_cell_angle_beta   89.99890000
_cell_angle_gamma   89.99900000
_symmetry_Int_Tables_number   1
_chemical_formula_structural   AgH7C7SO3
_chemical_formula_sum   'Ag4 H28 C28 S4 O12'
_cell_volume   776.20866056
_cell_formula_units_Z   4
loop_
 _symmetry_equiv_pos_site_id
 _symmetry_equiv_pos_as_xyz
  1  'x, y, z'
loop_
 _atom_site_type_symbol
 _atom_site_label
 _atom_site_symmetry_multiplicity
 _atom_site_fract_x
 _atom_site_fract_y
 _atom_site_fract_z
 _atom_site_occupancy
  Ag  Ag0  1  0.11370000  0.79492000  0.03081000  1.0
  Ag  Ag1  1  0.61368000  0.70508000  0.96919000  1.0
  Ag  Ag2  1  0.88627000  0.20508000  0.96920000  1.0
  Ag  Ag3  1  0.38632000  0.29492000  0.03081000  1.0
  H  H4  1  0.82733000  0.41720000  0.69317000  1.0
  H  H5  1  0.32730000  0.08281000  0.30683000  1.0
  H  H6  1  0.17269000  0.58278000  0.30683000  1.0
  H  H7  1  0.67268000  0.91720000  0.69318000  1.0
  H  H8  1  0.58783000  0.38046000  0.82092000  1.0
  H  H9  1  0.08779000  0.11956000  0.17908000  1.0
  H  H10  1  0.41216000  0.61953000  0.17908000  1.0
  H  H11  1  0.91217000  0.88045000  0.82092000  1.0
  H  H12  1  0.06059000  0.68368000  0.72677000  1.0
  H  H13  1  0.56056000  0.81629000  0.27321000  1.0
  H  H14  1  0.93944000  0.31632000  0.27321000  1.0
  H  H15  1  0.43941000  0.18369000  0.72679000  1.0
  H  H16  1  0.30995000  0.73050000  0.60103000  1.0
  H  H17  1  0.80993000  0.76949000  0.39896000  1.0
  H  H18  1  0.69010000  0.26951000  0.39897000  1.0
  H  H19  1  0.19007000  0.23050000  0.60104000  1.0
  H  H20  1  0.73174000  0.49863000  0.51458000  1.0
  H  H21  1  0.23170000  0.00136000  0.48540000  1.0
  H  H22  1  0.26828000  0.50137000  0.48542000  1.0
  H  H23  1  0.76827000  0.99864000  0.51460000  1.0
  H  H24  1  0.67120000  0.69857000  0.52498000  1.0
  H  H25  1  0.17119000  0.80143000  0.47501000  1.0
  H  H26  1  0.32885000  0.30142000  0.47501000  1.0
  H  H27  1  0.82882000  0.19857000  0.52499000  1.0
  H  H28  1  0.91853000  0.62016000  0.57749000  1.0
  H  H29  1  0.41850000  0.87984000  0.42250000  1.0
  H  H30  1  0.08149000  0.37984000  0.42251000  1.0
  H  H31  1  0.58151000  0.12017000  0.57750000  1.0
  C  C32  1  0.65884000  0.47611000  0.69954000  1.0
  C  C33  1  0.15878000  0.02390000  0.30046000  1.0
  C  C34  1  0.34119000  0.52388000  0.30046000  1.0
  C  C35  1  0.84117000  0.97612000  0.69955000  1.0
  C  C36  1  0.52346000  0.45418000  0.77194000  1.0
  C  C37  1  0.02341000  0.04581000  0.22806000  1.0
  C  C38  1  0.47655000  0.54582000  0.22806000  1.0
  C  C39  1  0.97656000  0.95417000  0.77195000  1.0
  C  C40  1  0.30654000  0.52814000  0.78054000  1.0
  C  C41  1  0.80653000  0.97187000  0.21946000  1.0
  C  C42  1  0.69345000  0.47187000  0.21945000  1.0
  C  C43  1  0.19345000  0.02814000  0.78055000  1.0
  C  C44  1  0.22757000  0.62482000  0.71835000  1.0
  C  C45  1  0.72756000  0.87519000  0.28165000  1.0
  C  C46  1  0.77244000  0.37518000  0.28165000  1.0
  C  C47  1  0.27244000  0.12482000  0.71835000  1.0
  C  C48  1  0.36824000  0.64921000  0.64759000  1.0
  C  C49  1  0.86824000  0.85077000  0.35241000  1.0
  C  C50  1  0.63178000  0.35078000  0.35242000  1.0
  C  C51  1  0.13178000  0.14922000  0.64759000  1.0
  C  C52  1  0.58492000  0.57461000  0.63653000  1.0
  C  C53  1  0.08485000  0.92539000  0.36345000  1.0
  C  C54  1  0.41513000  0.42538000  0.36347000  1.0
  C  C55  1  0.91510000  0.07462000  0.63655000  1.0
  C  C56  1  0.73448000  0.59989000  0.55956000  1.0
  C  C57  1  0.23444000  0.90010000  0.44043000  1.0
  C  C58  1  0.26555000  0.40011000  0.44044000  1.0
  C  C59  1  0.76556000  0.09990000  0.55957000  1.0
  S  S60  1  0.13291000  0.50436000  0.87306000  1.0
  S  S61  1  0.63289000  0.99564000  0.12693000  1.0
  S  S62  1  0.86709000  0.49564000  0.12693000  1.0
  S  S63  1  0.36709000  0.00436000  0.87308000  1.0
  O  O64  1  0.97804000  0.63953000  0.88149000  1.0
  O  O65  1  0.47802000  0.86047000  0.11852000  1.0
  O  O66  1  0.02195000  0.36046000  0.11851000  1.0
  O  O67  1  0.52197000  0.13953000  0.88149000  1.0
  O  O68  1  0.00698000  0.35670000  0.86023000  1.0
  O  O69  1  0.50696000  0.14331000  0.13977000  1.0
  O  O70  1  0.99302000  0.64329000  0.13977000  1.0
  O  O71  1  0.49301000  0.85671000  0.86024000  1.0
  O  O72  1  0.30196000  0.50017000  0.94548000  1.0
  O  O73  1  0.80193000  0.99982000  0.05451000  1.0
  O  O74  1  0.69805000  0.49984000  0.05451000  1.0
  O  O75  1  0.19804000  0.00019000  0.94549000  1.0
