# generated using pymatgen
data_CdH20C21N2O5
_symmetry_space_group_name_H-M   'P 1'
_cell_length_a   8.60340000
_cell_length_b   9.70676000
_cell_length_c   12.70930000
_cell_angle_alpha   110.21580000
_cell_angle_beta   100.72800000
_cell_angle_gamma   90.12240000
_symmetry_Int_Tables_number   1
_chemical_formula_structural   CdH20C21N2O5
_chemical_formula_sum   'Cd2 H40 C42 N4 O10'
_cell_volume   976.03192256
_cell_formula_units_Z   2
loop_
 _symmetry_equiv_pos_site_id
 _symmetry_equiv_pos_as_xyz
  1  'x, y, z'
loop_
 _atom_site_type_symbol
 _atom_site_label
 _atom_site_symmetry_multiplicity
 _atom_site_fract_x
 _atom_site_fract_y
 _atom_site_fract_z
 _atom_site_occupancy
  Cd  Cd0  1  0.41525000  0.07535000  0.72247000  1.0
  Cd  Cd1  1  0.58475000  0.92465000  0.27754000  1.0
  H  H2  1  0.28131000  0.87774000  0.49379000  1.0
  H  H3  1  0.71869000  0.12226000  0.50621000  1.0
  H  H4  1  0.18245000  0.01614000  0.53657000  1.0
  H  H5  1  0.81754000  0.98386000  0.46342000  1.0
  H  H6  1  0.93619000  0.16023000  0.88425000  1.0
  H  H7  1  0.06381000  0.83976000  0.11575000  1.0
  H  H8  1  0.24757000  0.86904000  0.99058000  1.0
  H  H9  1  0.75243000  0.13094000  0.00942000  1.0
  H  H10  1  0.25994000  0.44756000  0.56589000  1.0
  H  H11  1  0.74006000  0.55243000  0.43410000  1.0
  H  H12  1  0.73141000  0.34936000  0.51132000  1.0
  H  H13  1  0.26859000  0.65064000  0.48867000  1.0
  H  H14  1  0.70629000  0.31234000  0.80143000  1.0
  H  H15  1  0.29370000  0.68765000  0.19857000  1.0
  H  H16  1  0.88147000  0.48803000  0.97514000  1.0
  H  H17  1  0.11852000  0.51197000  0.02485000  1.0
  H  H18  1  0.56576000  0.40569000  0.17605000  1.0
  H  H19  1  0.43424000  0.59432000  0.82395000  1.0
  H  H20  1  0.40014000  0.23516000  0.99383000  1.0
  H  H21  1  0.59987000  0.76484000  0.00617000  1.0
  H  H22  1  0.79642000  0.58371000  0.27162000  1.0
  H  H23  1  0.20358000  0.41630000  0.72838000  1.0
  H  H24  1  0.88447000  0.65638000  0.18629000  1.0
  H  H25  1  0.11554000  0.34363000  0.81371000  1.0
  H  H26  1  0.04620000  0.42393000  0.13852000  1.0
  H  H27  1  0.95380000  0.57607000  0.86148000  1.0
  H  H28  1  0.10234000  0.56059000  0.27580000  1.0
  H  H29  1  0.89765000  0.43940000  0.72420000  1.0
  H  H30  1  0.88264000  0.28526000  0.22563000  1.0
  H  H31  1  0.11736000  0.71474000  0.77438000  1.0
  H  H32  1  0.96606000  0.41303000  0.36059000  1.0
  H  H33  1  0.03393000  0.58698000  0.63941000  1.0
  H  H34  1  0.27519000  0.36298000  0.19822000  1.0
  H  H35  1  0.72481000  0.63702000  0.80178000  1.0
  H  H36  1  0.49136000  0.19546000  0.20962000  1.0
  H  H37  1  0.50863000  0.80454000  0.79038000  1.0
  H  H38  1  0.24857000  0.98003000  0.36452000  1.0
  H  H39  1  0.75142000  0.01996000  0.63548000  1.0
  H  H40  1  0.02065000  0.13871000  0.36195000  1.0
  H  H41  1  0.97935000  0.86130000  0.63805000  1.0
  C  C42  1  0.20775000  0.02886000  0.85270000  1.0
  C  C43  1  0.79226000  0.97113000  0.14730000  1.0
  C  C44  1  0.10172000  0.01583000  0.93027000  1.0
  C  C45  1  0.89828000  0.98416000  0.06973000  1.0
  C  C46  1  0.96314000  0.09114000  0.93597000  1.0
  C  C47  1  0.03686000  0.90884000  0.06403000  1.0
  C  C48  1  0.13843000  0.92516000  0.99528000  1.0
  C  C49  1  0.86157000  0.07483000  0.00472000  1.0
  C  C50  1  0.49035000  0.26607000  0.59373000  1.0
  C  C51  1  0.50965000  0.73394000  0.40628000  1.0
  C  C52  1  0.49477000  0.38576000  0.54406000  1.0
  C  C53  1  0.50523000  0.61425000  0.45594000  1.0
  C  C54  1  0.36511000  0.47174000  0.53731000  1.0
  C  C55  1  0.63489000  0.52826000  0.46269000  1.0
  C  C56  1  0.62988000  0.41529000  0.50611000  1.0
  C  C57  1  0.37012000  0.58472000  0.49388000  1.0
  C  C58  1  0.67925000  0.33626000  0.88632000  1.0
  C  C59  1  0.32074000  0.66374000  0.11368000  1.0
  C  C60  1  0.77659000  0.43299000  0.98359000  1.0
  C  C61  1  0.22341000  0.56701000  0.01640000  1.0
  C  C62  1  0.74173000  0.45832000  0.09195000  1.0
  C  C63  1  0.25827000  0.54169000  0.90805000  1.0
  C  C64  1  0.60129000  0.38794000  0.09466000  1.0
  C  C65  1  0.39872000  0.61207000  0.90534000  1.0
  C  C66  1  0.50856000  0.29290000  0.99335000  1.0
  C  C67  1  0.49145000  0.70710000  0.00665000  1.0
  C  C68  1  0.85474000  0.55282000  0.19764000  1.0
  C  C69  1  0.14528000  0.44719000  0.80236000  1.0
  C  C70  1  0.00767000  0.47657000  0.22026000  1.0
  C  C71  1  0.99233000  0.52343000  0.77974000  1.0
  C  C72  1  0.98890000  0.36012000  0.27342000  1.0
  C  C73  1  0.01110000  0.63989000  0.72658000  1.0
  C  C74  1  0.12759000  0.26681000  0.27999000  1.0
  C  C75  1  0.87240000  0.73319000  0.72002000  1.0
  C  C76  1  0.26308000  0.28065000  0.23710000  1.0
  C  C77  1  0.73692000  0.71935000  0.76291000  1.0
  C  C78  1  0.38531000  0.18854000  0.24340000  1.0
  C  C79  1  0.61468000  0.81146000  0.75660000  1.0
  C  C80  1  0.24964000  0.06876000  0.33084000  1.0
  C  C81  1  0.75036000  0.93124000  0.66916000  1.0
  C  C82  1  0.12372000  0.15748000  0.32849000  1.0
  C  C83  1  0.87628000  0.84252000  0.67152000  1.0
  N  N84  1  0.54765000  0.26469000  0.89066000  1.0
  N  N85  1  0.45235000  0.73531000  0.10935000  1.0
  N  N86  1  0.37962000  0.08330000  0.28942000  1.0
  N  N87  1  0.62037000  0.91670000  0.71058000  1.0
  O  O88  1  0.18134000  0.12482000  0.80471000  1.0
  O  O89  1  0.81868000  0.87518000  0.19530000  1.0
  O  O90  1  0.32142000  0.94456000  0.83798000  1.0
  O  O91  1  0.67860000  0.05544000  0.16203000  1.0
  O  O92  1  0.36527000  0.24517000  0.62827000  1.0
  O  O93  1  0.63474000  0.75483000  0.37173000  1.0
  O  O94  1  0.61238000  0.19342000  0.60286000  1.0
  O  O95  1  0.38762000  0.80658000  0.39714000  1.0
  O  O96  1  0.22061000  0.93104000  0.55504000  1.0
  O  O97  1  0.77939000  0.06897000  0.44496000  1.0
