# generated using pymatgen
data_SrH30C24O13
_symmetry_space_group_name_H-M   'P 1'
_cell_length_a   8.44748000
_cell_length_b   8.46150000
_cell_length_c   20.90500000
_cell_angle_alpha   90.00000000
_cell_angle_beta   90.00000000
_cell_angle_gamma   114.35400000
_symmetry_Int_Tables_number   1
_chemical_formula_structural   SrH30C24O13
_chemical_formula_sum   'Sr2 H60 C48 O26'
_cell_volume   1361.28871532
_cell_formula_units_Z   2
loop_
 _symmetry_equiv_pos_site_id
 _symmetry_equiv_pos_as_xyz
  1  'x, y, z'
loop_
 _atom_site_type_symbol
 _atom_site_label
 _atom_site_symmetry_multiplicity
 _atom_site_fract_x
 _atom_site_fract_y
 _atom_site_fract_z
 _atom_site_occupancy
  Sr  Sr0  1  0.97496000  0.02438000  0.25008000  1.0
  Sr  Sr1  1  0.02504000  0.97562000  0.75008000  1.0
  H  H2  1  0.50300000  0.45780000  0.30562000  1.0
  H  H3  1  0.49700000  0.54221000  0.80562000  1.0
  H  H4  1  0.45825000  0.50335000  0.69451000  1.0
  H  H5  1  0.54175000  0.49665000  0.19451000  1.0
  H  H6  1  0.57307000  0.97665000  0.31662000  1.0
  H  H7  1  0.42693000  0.02336000  0.81661000  1.0
  H  H8  1  0.97606000  0.57345000  0.68335000  1.0
  H  H9  1  0.02394000  0.42655000  0.18335000  1.0
  H  H10  1  0.55102000  0.70200000  0.36648000  1.0
  H  H11  1  0.44898000  0.29800000  0.86648000  1.0
  H  H12  1  0.70110000  0.55127000  0.63335000  1.0
  H  H13  1  0.29890000  0.44873000  0.13335000  1.0
  H  H14  1  0.51315000  0.66108000  0.48440000  1.0
  H  H15  1  0.48685000  0.33892000  0.98440000  1.0
  H  H16  1  0.66037000  0.51320000  0.51543000  1.0
  H  H17  1  0.33963000  0.48679000  0.01543000  1.0
  H  H18  1  0.51045000  0.89880000  0.55295000  1.0
  H  H19  1  0.48955000  0.10119000  0.05295000  1.0
  H  H20  1  0.89859000  0.51029000  0.44700000  1.0
  H  H21  1  0.10140000  0.48970000  0.94700000  1.0
  H  H22  1  0.53577000  0.17765000  0.50242000  1.0
  H  H23  1  0.46423000  0.82235000  0.00242000  1.0
  H  H24  1  0.17765000  0.53548000  0.49764000  1.0
  H  H25  1  0.82234000  0.46452000  0.99764000  1.0
  H  H26  1  0.26617000  0.88934000  0.23002000  1.0
  H  H27  1  0.73383000  0.11066000  0.73002000  1.0
  H  H28  1  0.88903000  0.26600000  0.76996000  1.0
  H  H29  1  0.11097000  0.73400000  0.26996000  1.0
  H  H30  1  0.61789000  0.06510000  0.19306000  1.0
  H  H31  1  0.38211000  0.93490000  0.69306000  1.0
  H  H32  1  0.06524000  0.61842000  0.80679000  1.0
  H  H33  1  0.93476000  0.38158000  0.30679000  1.0
  H  H34  1  0.53268000  0.88054000  0.11880000  1.0
  H  H35  1  0.46732000  0.11946000  0.61880000  1.0
  H  H36  1  0.88081000  0.53343000  0.88116000  1.0
  H  H37  1  0.11919000  0.46657000  0.38116000  1.0
  H  H38  1  0.61442000  0.75419000  0.16534000  1.0
  H  H39  1  0.38558000  0.24581000  0.66534000  1.0
  H  H40  1  0.75416000  0.61498000  0.83465000  1.0
  H  H41  1  0.24583000  0.38502000  0.33465000  1.0
  H  H42  1  0.74879000  0.80902000  0.05833000  1.0
  H  H43  1  0.25121000  0.19098000  0.55833000  1.0
  H  H44  1  0.80896000  0.74915000  0.94165000  1.0
  H  H45  1  0.19103000  0.25085000  0.44165000  1.0
  H  H46  1  0.82689000  0.03987000  0.07014000  1.0
  H  H47  1  0.17311000  0.96013000  0.57015000  1.0
  H  H48  1  0.04021000  0.82717000  0.92988000  1.0
  H  H49  1  0.95979000  0.17282000  0.42988000  1.0
  H  H50  1  0.18890000  0.94016000  0.11705000  1.0
  H  H51  1  0.81110000  0.05984000  0.61705000  1.0
  H  H52  1  0.94011000  0.18859000  0.88303000  1.0
  H  H53  1  0.05989000  0.81141000  0.38304000  1.0
  H  H54  1  0.12623000  0.06709000  0.06231000  1.0
  H  H55  1  0.87378000  0.93291000  0.56231000  1.0
  H  H56  1  0.06738000  0.12609000  0.93776000  1.0
  H  H57  1  0.93262000  0.87391000  0.43776000  1.0
  H  H58  1  0.04725000  0.83614000  0.05126000  1.0
  H  H59  1  0.95275000  0.16386000  0.55126000  1.0
  H  H60  1  0.83602000  0.04697000  0.94878000  1.0
  H  H61  1  0.16398000  0.95303000  0.44878000  1.0
  C  C62  1  0.78063000  0.58510000  0.29581000  1.0
  C  C63  1  0.21937000  0.41490000  0.79581000  1.0
  C  C64  1  0.58546000  0.78061000  0.70422000  1.0
  C  C65  1  0.41454000  0.21939000  0.20422000  1.0
  C  C66  1  0.60704000  0.42707000  0.28567000  1.0
  C  C67  1  0.39296000  0.57294000  0.78567000  1.0
  C  C68  1  0.42733000  0.60721000  0.71439000  1.0
  C  C69  1  0.57268000  0.39279000  0.21439000  1.0
  C  C70  1  0.56366000  0.25792000  0.37935000  1.0
  C  C71  1  0.43634000  0.74208000  0.87934000  1.0
  C  C72  1  0.25800000  0.56386000  0.62068000  1.0
  C  C73  1  0.74200000  0.43613000  0.12068000  1.0
  C  C74  1  0.55440000  0.09312000  0.40681000  1.0
  C  C75  1  0.44560000  0.90689000  0.90680000  1.0
  C  C76  1  0.09290000  0.55444000  0.59321000  1.0
  C  C77  1  0.90710000  0.44556000  0.09321000  1.0
  C  C78  1  0.55936000  0.95940000  0.36827000  1.0
  C  C79  1  0.44064000  0.04061000  0.86826000  1.0
  C  C80  1  0.95893000  0.55954000  0.63170000  1.0
  C  C81  1  0.04107000  0.44046000  0.13170000  1.0
  C  C82  1  0.54505000  0.80470000  0.39634000  1.0
  C  C83  1  0.45495000  0.19531000  0.89634000  1.0
  C  C84  1  0.80402000  0.54518000  0.60356000  1.0
  C  C85  1  0.19598000  0.45482000  0.10356000  1.0
  C  C86  1  0.52636000  0.78277000  0.46257000  1.0
  C  C87  1  0.47365000  0.21723000  0.96257000  1.0
  C  C88  1  0.78217000  0.52636000  0.53732000  1.0
  C  C89  1  0.21783000  0.47363000  0.03732000  1.0
  C  C90  1  0.52335000  0.91646000  0.50123000  1.0
  C  C91  1  0.47665000  0.08354000  0.00122000  1.0
  C  C92  1  0.91611000  0.52318000  0.49873000  1.0
  C  C93  1  0.08388000  0.47681000  0.99873000  1.0
  C  C94  1  0.53726000  0.07122000  0.47343000  1.0
  C  C95  1  0.46274000  0.92878000  0.97343000  1.0
  C  C96  1  0.07104000  0.53707000  0.52659000  1.0
  C  C97  1  0.92896000  0.46292000  0.02659000  1.0
  C  C98  1  0.11788000  0.35035000  0.35718000  1.0
  C  C99  1  0.88211000  0.64965000  0.85718000  1.0
  C  C100  1  0.35094000  0.11809000  0.64281000  1.0
  C  C101  1  0.64906000  0.88191000  0.14280000  1.0
  C  C102  1  0.08606000  0.20790000  0.40559000  1.0
  C  C103  1  0.91394000  0.79210000  0.90559000  1.0
  C  C104  1  0.20821000  0.08621000  0.59442000  1.0
  C  C105  1  0.79179000  0.91379000  0.09442000  1.0
  C  C106  1  0.08327000  0.94101000  0.08696000  1.0
  C  C107  1  0.91673000  0.05898000  0.58696000  1.0
  C  C108  1  0.94111000  0.08312000  0.91309000  1.0
  C  C109  1  0.05889000  0.91688000  0.41309000  1.0
  O  O110  1  0.77444000  0.72850000  0.28379000  1.0
  O  O111  1  0.22557000  0.27150000  0.78379000  1.0
  O  O112  1  0.72912000  0.77467000  0.71638000  1.0
  O  O113  1  0.27089000  0.22533000  0.21638000  1.0
  O  O114  1  0.91332000  0.56110000  0.31281000  1.0
  O  O115  1  0.08668000  0.43890000  0.81281000  1.0
  O  O116  1  0.56132000  0.91289000  0.68702000  1.0
  O  O117  1  0.43868000  0.08711000  0.18702000  1.0
  O  O118  1  0.60191000  0.27189000  0.31569000  1.0
  O  O119  1  0.39808000  0.72812000  0.81568000  1.0
  O  O120  1  0.27184000  0.60187000  0.68435000  1.0
  O  O121  1  0.72816000  0.39813000  0.18435000  1.0
  O  O122  1  0.53927000  0.37073000  0.40935000  1.0
  O  O123  1  0.46075000  0.62928000  0.90934000  1.0
  O  O124  1  0.37115000  0.53983000  0.59066000  1.0
  O  O125  1  0.62885000  0.46016000  0.09066000  1.0
  O  O126  1  0.15149000  0.84901000  0.25019000  1.0
  O  O127  1  0.84851000  0.15099000  0.75019000  1.0
  O  O128  1  0.98584000  0.29295000  0.30885000  1.0
  O  O129  1  0.01416000  0.70705000  0.80885000  1.0
  O  O130  1  0.29360000  0.98628000  0.69115000  1.0
  O  O131  1  0.70641000  0.01373000  0.19114000  1.0
  O  O132  1  0.08522000  0.06032000  0.37164000  1.0
  O  O133  1  0.91477000  0.93968000  0.87164000  1.0
  O  O134  1  0.06047000  0.08543000  0.62839000  1.0
  O  O135  1  0.93953000  0.91457000  0.12839000  1.0
