# generated using pymatgen
data_FeH24C26(SN3)2
_symmetry_space_group_name_H-M   'P 1'
_cell_length_a   13.04680000
_cell_length_b   13.32800000
_cell_length_c   13.47440000
_cell_angle_alpha   75.91800000
_cell_angle_beta   61.95190000
_cell_angle_gamma   60.71110000
_symmetry_Int_Tables_number   1
_chemical_formula_structural   FeH24C26(SN3)2
_chemical_formula_sum   'Fe2 H48 C52 S4 N12'
_cell_volume   1803.23729668
_cell_formula_units_Z   2
loop_
 _symmetry_equiv_pos_site_id
 _symmetry_equiv_pos_as_xyz
  1  'x, y, z'
loop_
 _atom_site_type_symbol
 _atom_site_label
 _atom_site_symmetry_multiplicity
 _atom_site_fract_x
 _atom_site_fract_y
 _atom_site_fract_z
 _atom_site_occupancy
  Fe  Fe0  1  0.00026000  0.00709000  0.98870000  1.0
  Fe  Fe1  1  0.99123000  0.49736000  0.51155000  1.0
  H  H2  1  0.77694000  0.10063000  0.43013000  1.0
  H  H3  1  0.22071000  0.56742000  0.89966000  1.0
  H  H4  1  0.31167000  0.39585000  0.06981000  1.0
  H  H5  1  0.69010000  0.92863000  0.60377000  1.0
  H  H6  1  0.22058000  0.89806000  0.57865000  1.0
  H  H7  1  0.78279000  0.42364000  0.10161000  1.0
  H  H8  1  0.69529000  0.60400000  0.92257000  1.0
  H  H9  1  0.30603000  0.07789000  0.39617000  1.0
  H  H10  1  0.79209000  0.10873000  0.23739000  1.0
  H  H11  1  0.20441000  0.76290000  0.88915000  1.0
  H  H12  1  0.14047000  0.39177000  0.25912000  1.0
  H  H13  1  0.85871000  0.73400000  0.61366000  1.0
  H  H14  1  0.20454000  0.89438000  0.76947000  1.0
  H  H15  1  0.79950000  0.23048000  0.10291000  1.0
  H  H16  1  0.86463000  0.60745000  0.73442000  1.0
  H  H17  1  0.12901000  0.27047000  0.39666000  1.0
  H  H18  1  0.16931000  0.83547000  0.31543000  1.0
  H  H19  1  0.83580000  0.68794000  0.16502000  1.0
  H  H20  1  0.32117000  0.66268000  0.18833000  1.0
  H  H21  1  0.68747000  0.81037000  0.33458000  1.0
  H  H22  1  0.83119000  0.16755000  0.68716000  1.0
  H  H23  1  0.16480000  0.31205000  0.83245000  1.0
  H  H24  1  0.68505000  0.33597000  0.80717000  1.0
  H  H25  1  0.31272000  0.18818000  0.66756000  1.0
  H  H26  1  0.86997000  0.99278000  0.56733000  1.0
  H  H27  1  0.13126000  0.42849000  0.00903000  1.0
  H  H28  1  0.42783000  0.50642000  0.93388000  1.0
  H  H29  1  0.56970000  0.06922000  0.49330000  1.0
  H  H30  1  0.13041000  0.00495000  0.43801000  1.0
  H  H31  1  0.86858000  0.56681000  0.99500000  1.0
  H  H32  1  0.57702000  0.49470000  0.06070000  1.0
  H  H33  1  0.43029000  0.93400000  0.50316000  1.0
  H  H34  1  0.02363000  0.87242000  0.52680000  1.0
  H  H35  1  0.97871000  0.47243000  0.12591000  1.0
  H  H36  1  0.41967000  0.62694000  0.97600000  1.0
  H  H37  1  0.57656000  0.02625000  0.37490000  1.0
  H  H38  1  0.97726000  0.12567000  0.47684000  1.0
  H  H39  1  0.02049000  0.52545000  0.87765000  1.0
  H  H40  1  0.58478000  0.37392000  0.01955000  1.0
  H  H41  1  0.42485000  0.97448000  0.62201000  1.0
  H  H42  1  0.17136000  0.86094000  0.12383000  1.0
  H  H43  1  0.83167000  0.88217000  0.13786000  1.0
  H  H44  1  0.15598000  0.64068000  0.37673000  1.0
  H  H45  1  0.85092000  0.61671000  0.36091000  1.0
  H  H46  1  0.82794000  0.14968000  0.87675000  1.0
  H  H47  1  0.16876000  0.12042000  0.84733000  1.0
  H  H48  1  0.85060000  0.35464000  0.62015000  1.0
  H  H49  1  0.13869000  0.37962000  0.65328000  1.0
  C  C50  1  0.97226000  0.96625000  0.38952000  1.0
  C  C51  1  0.02911000  0.61053000  0.03414000  1.0
  C  C52  1  0.33106000  0.53085000  0.11198000  1.0
  C  C53  1  0.67312000  0.88724000  0.46776000  1.0
  C  C54  1  0.02684000  0.03413000  0.61524000  1.0
  C  C55  1  0.97261000  0.38567000  0.96560000  1.0
  C  C56  1  0.67407000  0.46886000  0.88292000  1.0
  C  C57  1  0.32509000  0.11508000  0.53304000  1.0
  C  C58  1  0.86607000  0.04416000  0.36543000  1.0
  C  C59  1  0.13283000  0.63394000  0.95575000  1.0
  C  C60  1  0.27912000  0.45328000  0.13467000  1.0
  C  C61  1  0.72354000  0.86276000  0.54680000  1.0
  C  C62  1  0.13136000  0.95660000  0.64161000  1.0
  C  C63  1  0.87033000  0.35964000  0.04249000  1.0
  C  C64  1  0.72691000  0.54596000  0.85865000  1.0
  C  C65  1  0.27152000  0.14151000  0.45597000  1.0
  C  C66  1  0.29818000  0.89693000  0.89752000  1.0
  C  C67  1  0.70222000  0.10459000  0.09927000  1.0
  C  C68  1  0.09095000  0.60394000  0.60574000  1.0
  C  C69  1  0.90610000  0.39526000  0.39706000  1.0
  C  C70  1  0.87451000  0.05085000  0.25753000  1.0
  C  C71  1  0.12367000  0.74357000  0.94765000  1.0
  C  C72  1  0.18504000  0.44894000  0.24087000  1.0
  C  C73  1  0.81631000  0.75316000  0.55463000  1.0
  C  C74  1  0.12276000  0.95229000  0.74893000  1.0
  C  C75  1  0.87932000  0.25111000  0.04529000  1.0
  C  C76  1  0.82050000  0.55027000  0.75252000  1.0
  C  C77  1  0.17358000  0.24978000  0.45425000  1.0
  C  C78  1  0.08365000  0.89800000  0.30139000  1.0
  C  C79  1  0.91960000  0.70118000  0.10202000  1.0
  C  C80  1  0.28492000  0.60012000  0.20075000  1.0
  C  C81  1  0.72185000  0.79691000  0.39870000  1.0
  C  C82  1  0.91631000  0.10500000  0.70196000  1.0
  C  C83  1  0.08139000  0.29753000  0.89414000  1.0
  C  C84  1  0.72105000  0.39875000  0.79459000  1.0
  C  C85  1  0.27523000  0.20289000  0.60542000  1.0
  C  C86  1  0.96997000  0.96130000  0.50273000  1.0
  C  C87  1  0.03122000  0.49617000  0.03923000  1.0
  C  C88  1  0.43387000  0.53731000  0.99872000  1.0
  C  C89  1  0.56654000  0.00223000  0.46211000  1.0
  C  C90  1  0.03012000  0.03708000  0.50209000  1.0
  C  C91  1  0.96905000  0.49993000  0.96389000  1.0
  C  C92  1  0.57088000  0.46342000  0.99619000  1.0
  C  C93  1  0.43363000  0.00026000  0.53528000  1.0
  C  C94  1  0.08576000  0.91091000  0.19503000  1.0
  C  C95  1  0.91631000  0.80926000  0.08805000  1.0
  C  C96  1  0.19247000  0.58930000  0.30552000  1.0
  C  C97  1  0.81334000  0.68878000  0.41211000  1.0
  C  C98  1  0.91312000  0.09623000  0.80789000  1.0
  C  C99  1  0.08482000  0.19048000  0.90133000  1.0
  C  C100  1  0.81383000  0.40781000  0.68980000  1.0
  C  C101  1  0.17784000  0.30979000  0.59874000  1.0
  S  S102  1  0.45466000  0.83401000  0.84071000  1.0
  S  S103  1  0.54632000  0.16050000  0.16632000  1.0
  S  S104  1  0.13162000  0.66535000  0.66181000  1.0
  S  S105  1  0.87447000  0.33609000  0.32998000  1.0
  N  N106  1  0.98296000  0.98653000  0.17319000  1.0
  N  N107  1  0.01647000  0.83094000  0.01123000  1.0
  N  N108  1  0.14286000  0.51497000  0.32561000  1.0
  N  N109  1  0.86000000  0.66550000  0.49003000  1.0
  N  N110  1  0.01451000  0.01977000  0.83330000  1.0
  N  N111  1  0.98561000  0.16555000  0.97675000  1.0
  N  N112  1  0.86380000  0.48359000  0.66666667  1.0
  N  N113  1  0.12679000  0.33477000  0.52365000  1.0
  N  N114  1  0.18304000  0.94158000  0.93767000  1.0
  N  N115  1  0.81703000  0.06481000  0.05177000  1.0
  N  N116  1  0.05824000  0.56017000  0.56599000  1.0
  N  N117  1  0.93251000  0.43733000  0.44482000  1.0
