# generated using pymatgen
data_HgH10C12N4(ClO)2
_symmetry_space_group_name_H-M   'P 1'
_cell_length_a   4.64557000
_cell_length_b   7.24483000
_cell_length_c   21.36380000
_cell_angle_alpha   84.00440000
_cell_angle_beta   89.99990000
_cell_angle_gamma   89.99970000
_symmetry_Int_Tables_number   1
_chemical_formula_structural   HgH10C12N4(ClO)2
_chemical_formula_sum   'Hg2 H20 C24 N8 Cl4 O4'
_cell_volume   715.09470840
_cell_formula_units_Z   2
loop_
 _symmetry_equiv_pos_site_id
 _symmetry_equiv_pos_as_xyz
  1  'x, y, z'
loop_
 _atom_site_type_symbol
 _atom_site_label
 _atom_site_symmetry_multiplicity
 _atom_site_fract_x
 _atom_site_fract_y
 _atom_site_fract_z
 _atom_site_occupancy
  Hg  Hg0  1  0.91710000  0.75000000  0.75000000  1.0
  Hg  Hg1  1  0.08290000  0.25000000  0.25000000  1.0
  H  H2  1  0.23763000  0.91820000  0.97628000  1.0
  H  H3  1  0.23763000  0.58180000  0.52372000  1.0
  H  H4  1  0.76237000  0.08180000  0.02372000  1.0
  H  H5  1  0.76237000  0.41820000  0.47628000  1.0
  H  H6  1  0.24932000  0.86961000  0.86923000  1.0
  H  H7  1  0.24933000  0.63039000  0.63077000  1.0
  H  H8  1  0.75068000  0.13039000  0.13077000  1.0
  H  H9  1  0.75067000  0.36961000  0.36923000  1.0
  H  H10  1  0.27258000  0.35523000  0.80200000  1.0
  H  H11  1  0.27259000  0.14477000  0.69800000  1.0
  H  H12  1  0.72740000  0.64478000  0.19800000  1.0
  H  H13  1  0.72742000  0.85523000  0.30200000  1.0
  H  H14  1  0.64493000  0.23768000  0.88131000  1.0
  H  H15  1  0.64493000  0.26232000  0.61869000  1.0
  H  H16  1  0.35507000  0.76232000  0.11869000  1.0
  H  H17  1  0.35508000  0.73768000  0.38131000  1.0
  H  H18  1  0.82370000  0.45137000  0.95848000  1.0
  H  H19  1  0.82369000  0.04863000  0.54153000  1.0
  H  H20  1  0.17630000  0.54863000  0.04152000  1.0
  H  H21  1  0.17630000  0.95137000  0.45848000  1.0
  C  C22  1  0.33850000  0.72950000  0.87519000  1.0
  C  C23  1  0.33851000  0.77049000  0.62481000  1.0
  C  C24  1  0.66149000  0.27050000  0.12481000  1.0
  C  C25  1  0.66149000  0.22950000  0.37519000  1.0
  C  C26  1  0.35479000  0.44215000  0.83671000  1.0
  C  C27  1  0.35480000  0.05785000  0.66329000  1.0
  C  C28  1  0.64520000  0.55786000  0.16329000  1.0
  C  C29  1  0.64521000  0.94215000  0.33671000  1.0
  C  C30  1  0.56031000  0.37779000  0.88130000  1.0
  C  C31  1  0.56031000  0.12221000  0.61870000  1.0
  C  C32  1  0.43969000  0.62222000  0.11870000  1.0
  C  C33  1  0.43969000  0.87779000  0.38130000  1.0
  C  C34  1  0.65885000  0.49641000  0.92385000  1.0
  C  C35  1  0.65886000  0.00359000  0.57615000  1.0
  C  C36  1  0.34114000  0.50360000  0.07615000  1.0
  C  C37  1  0.34114000  0.99641000  0.42385000  1.0
  C  C38  1  0.54231000  0.67523000  0.92172000  1.0
  C  C39  1  0.54232000  0.82477000  0.57829000  1.0
  C  C40  1  0.45769000  0.32478000  0.07828000  1.0
  C  C41  1  0.45769000  0.17523000  0.42171000  1.0
  C  C42  1  0.65004000  0.80684000  0.96507000  1.0
  C  C43  1  0.65005000  0.69316000  0.53494000  1.0
  C  C44  1  0.34995000  0.19316000  0.03493000  1.0
  C  C45  1  0.34996000  0.30684000  0.46507000  1.0
  N  N46  1  0.24922000  0.61558000  0.83376000  1.0
  N  N47  1  0.24923000  0.88441000  0.66625000  1.0
  N  N48  1  0.75077000  0.38443000  0.16624000  1.0
  N  N49  1  0.75077000  0.11558000  0.33375000  1.0
  N  N50  1  0.45811000  0.93606000  0.98019000  1.0
  N  N51  1  0.45811000  0.56394000  0.51981000  1.0
  N  N52  1  0.54189000  0.06394000  0.01980000  1.0
  N  N53  1  0.54189000  0.43606000  0.48019000  1.0
  Cl  Cl54  1  0.82086000  0.02712000  0.79783000  1.0
  Cl  Cl55  1  0.82087000  0.47288000  0.70217000  1.0
  Cl  Cl56  1  0.17914000  0.97289000  0.20217000  1.0
  Cl  Cl57  1  0.17913000  0.52712000  0.29783000  1.0
  O  O58  1  0.90261000  0.80105000  0.98557000  1.0
  O  O59  1  0.90261000  0.69895000  0.51443000  1.0
  O  O60  1  0.09739000  0.19896000  0.01443000  1.0
  O  O61  1  0.09739000  0.30105000  0.48557000  1.0
