# generated using pymatgen
data_Cu2H2C2N3Cl2
_symmetry_space_group_name_H-M   'P 1'
_cell_length_a   6.82721000
_cell_length_b   7.01361000
_cell_length_c   12.11140000
_cell_angle_alpha   90.00130000
_cell_angle_beta   90.00140000
_cell_angle_gamma   89.99890000
_symmetry_Int_Tables_number   1
_chemical_formula_structural   Cu2H2C2N3Cl2
_chemical_formula_sum   'Cu8 H8 C8 N12 Cl8'
_cell_volume   579.93486897
_cell_formula_units_Z   4
loop_
 _symmetry_equiv_pos_site_id
 _symmetry_equiv_pos_as_xyz
  1  'x, y, z'
loop_
 _atom_site_type_symbol
 _atom_site_label
 _atom_site_symmetry_multiplicity
 _atom_site_fract_x
 _atom_site_fract_y
 _atom_site_fract_z
 _atom_site_occupancy
  Cu  Cu0  1  0.00000000  0.00000000  0.50000000  1.0
  Cu  Cu1  1  0.50001000  0.00000000  0.50000000  1.0
  Cu  Cu2  1  0.50000000  0.50000000  0.99999000  1.0
  Cu  Cu3  1  0.99999000  0.50000000  0.99999000  1.0
  Cu  Cu4  1  0.24998000  0.50002000  0.53068000  1.0
  Cu  Cu5  1  0.25000000  0.99999000  0.96932000  1.0
  Cu  Cu6  1  0.75002000  0.49998000  0.46936000  1.0
  Cu  Cu7  1  0.75000000  0.00002000  0.03066000  1.0
  H  H8  1  0.94282000  0.02410000  0.76743000  1.0
  H  H9  1  0.55712000  0.97592000  0.76742000  1.0
  H  H10  1  0.55711000  0.52411000  0.73258000  1.0
  H  H11  1  0.94280000  0.47592000  0.73258000  1.0
  H  H12  1  0.05717000  0.97591000  0.23258000  1.0
  H  H13  1  0.44287000  0.02407000  0.23258000  1.0
  H  H14  1  0.44289000  0.47588000  0.26742000  1.0
  H  H15  1  0.05718000  0.52408000  0.26742000  1.0
  C  C16  1  0.09370000  0.01213000  0.74077000  1.0
  C  C17  1  0.40626000  0.98786000  0.74076000  1.0
  C  C18  1  0.40625000  0.51214000  0.75922000  1.0
  C  C19  1  0.09367000  0.48788000  0.75923000  1.0
  C  C20  1  0.90631000  0.98787000  0.25923000  1.0
  C  C21  1  0.59374000  0.01214000  0.25923000  1.0
  C  C22  1  0.59375000  0.48786000  0.24078000  1.0
  C  C23  1  0.90633000  0.51212000  0.24077000  1.0
  N  N24  1  0.15015000  0.00742000  0.63565000  1.0
  N  N25  1  0.34986000  0.99260000  0.63565000  1.0
  N  N26  1  0.34982000  0.50741000  0.86434000  1.0
  N  N27  1  0.15012000  0.49260000  0.86434000  1.0
  N  N28  1  0.84986000  0.99258000  0.36435000  1.0
  N  N29  1  0.65015000  0.00741000  0.36434000  1.0
  N  N30  1  0.65018000  0.49259000  0.13566000  1.0
  N  N31  1  0.84988000  0.50740000  0.13566000  1.0
  N  N32  1  0.24999000  0.99999000  0.80960000  1.0
  N  N33  1  0.24995000  0.50002000  0.69040000  1.0
  N  N34  1  0.75002000  0.00001000  0.19039000  1.0
  N  N35  1  0.75005000  0.49999000  0.30962000  1.0
  Cl  Cl36  1  0.20387000  0.25149000  0.42062000  1.0
  Cl  Cl37  1  0.29613000  0.74849000  0.42062000  1.0
  Cl  Cl38  1  0.29614000  0.75150000  0.07938000  1.0
  Cl  Cl39  1  0.20388000  0.24854000  0.07938000  1.0
  Cl  Cl40  1  0.79613000  0.74850000  0.57939000  1.0
  Cl  Cl41  1  0.70387000  0.25151000  0.57939000  1.0
  Cl  Cl42  1  0.70389000  0.24850000  0.92060000  1.0
  Cl  Cl43  1  0.79609000  0.75147000  0.92061000  1.0
