# generated using pymatgen
data_Zn4H6C24S6O19F2
_symmetry_space_group_name_H-M   'P 1'
_cell_length_a   19.61000000
_cell_length_b   19.64780000
_cell_length_c   33.25770000
_cell_angle_alpha   79.31360000
_cell_angle_beta   79.44200000
_cell_angle_gamma   64.07310000
_symmetry_Int_Tables_number   1
_chemical_formula_structural   Zn4H6C24S6O19F2
_chemical_formula_sum   'Zn16 H24 C96 S24 O76 F8'
_cell_volume   11248.50092198
_cell_formula_units_Z   4
loop_
 _symmetry_equiv_pos_site_id
 _symmetry_equiv_pos_as_xyz
  1  'x, y, z'
loop_
 _atom_site_type_symbol
 _atom_site_label
 _atom_site_symmetry_multiplicity
 _atom_site_fract_x
 _atom_site_fract_y
 _atom_site_fract_z
 _atom_site_occupancy
  Zn  Zn0  1  0.05596000  0.39793000  0.47989000  1.0
  Zn  Zn1  1  0.98609000  0.48012000  0.56117000  1.0
  Zn  Zn2  1  0.05667000  0.56215000  0.48181000  1.0
  Zn  Zn3  1  0.90271000  0.55690000  0.47871000  1.0
  Zn  Zn4  1  0.69240000  0.34924000  0.27285000  1.0
  Zn  Zn5  1  0.68551000  0.19244000  0.26720000  1.0
  Zn  Zn6  1  0.77131000  0.26525000  0.19070000  1.0
  Zn  Zn7  1  0.84860000  0.19375000  0.27046000  1.0
  Zn  Zn8  1  0.27013000  0.76461000  0.68906000  1.0
  Zn  Zn9  1  0.35219000  0.69562000  0.77035000  1.0
  Zn  Zn10  1  0.19143000  0.84641000  0.77183000  1.0
  Zn  Zn11  1  0.18968000  0.69138000  0.76821000  1.0
  Zn  Zn12  1  0.55825000  0.06356000  0.98257000  1.0
  Zn  Zn13  1  0.40074000  0.05807000  0.97689000  1.0
  Zn  Zn14  1  0.55596000  0.90105000  0.98005000  1.0
  Zn  Zn15  1  0.48395000  0.97934000  0.05932000  1.0
  H  H16  1  0.75001000  0.44955000  0.34903000  1.0
  H  H17  1  0.00156000  0.29988000  0.40046000  1.0
  H  H18  1  0.20058000  0.70130000  0.60070000  1.0
  H  H19  1  0.04982000  0.54932000  0.64957000  1.0
  H  H20  1  0.46165000  0.24046000  0.34227000  1.0
  H  H21  1  0.48112000  0.69909000  0.59996000  1.0
  H  H22  1  0.20169000  0.97629000  0.60244000  1.0
  H  H23  1  0.94293000  0.97750000  0.35085000  1.0
  H  H24  1  0.65013000  0.14799000  0.04925000  1.0
  H  H25  1  0.60074000  0.10032000  0.20073000  1.0
  H  H26  1  0.54800000  0.76805000  0.14918000  1.0
  H  H27  1  0.16455000  0.13748000  0.03975000  1.0
  H  H28  1  0.29944000  0.00052000  0.90119000  1.0
  H  H29  1  0.44941000  0.75011000  0.84942000  1.0
  H  H30  1  0.29995000  0.28206000  0.89990000  1.0
  H  H31  1  0.78695000  0.00967000  0.91154000  1.0
  H  H32  1  0.84381000  0.57252000  0.39997000  1.0
  H  H33  1  0.96554000  0.23520000  0.29155000  1.0
  H  H34  1  0.07034000  0.68636000  0.51395000  1.0
  H  H35  1  0.06305000  0.67996000  0.73663000  1.0
  H  H36  1  0.79397000  0.17815000  0.12181000  1.0
  H  H37  1  0.57177000  0.95607000  0.12829000  1.0
  H  H38  1  0.17750000  0.90606000  0.84998000  1.0
  H  H39  1  0.51365000  0.78506000  0.95859000  1.0
  C  C40  1  0.06224000  0.31353000  0.56288000  1.0
  C  C41  1  0.06501000  0.57370000  0.56874000  1.0
  C  C42  1  0.18145000  0.43981000  0.43952000  1.0
  C  C43  1  0.93652000  0.68663000  0.43786000  1.0
  C  C44  1  0.93419000  0.43296000  0.42875000  1.0
  C  C45  1  0.81903000  0.56026000  0.56076000  1.0
  C  C46  1  0.56322000  0.31262000  0.31224000  1.0
  C  C47  1  0.68566000  0.17694000  0.18084000  1.0
  C  C48  1  0.69057000  0.43093000  0.18893000  1.0
  C  C49  1  0.93778000  0.18569000  0.18903000  1.0
  C  C50  1  0.82177000  0.32110000  0.31627000  1.0
  C  C51  1  0.80842000  0.06868000  0.31087000  1.0
  C  C52  1  0.43661000  0.68868000  0.68717000  1.0
  C  C53  1  0.31607000  0.81752000  0.82108000  1.0
  C  C54  1  0.18961000  0.93103000  0.68935000  1.0
  C  C55  1  0.06362000  0.81005000  0.81252000  1.0
  C  C56  1  0.17675000  0.68563000  0.68140000  1.0
  C  C57  1  0.31291000  0.56855000  0.81049000  1.0
  C  C58  1  0.43650000  0.18697000  0.93785000  1.0
  C  C59  1  0.42832000  0.92866000  0.93395000  1.0
  C  C60  1  0.68140000  0.94119000  0.93905000  1.0
  C  C61  1  0.56242000  0.81321000  0.06220000  1.0
  C  C62  1  0.57368000  0.06318000  0.06908000  1.0
  C  C63  1  0.31797000  0.06143000  0.06037000  1.0
  C  C64  1  0.90086000  0.40565000  0.40125000  1.0
  C  C65  1  0.85228000  0.34533000  0.34664000  1.0
  C  C66  1  0.82859000  0.44711000  0.38695000  1.0
  C  C67  1  0.92332000  0.30262000  0.36217000  1.0
  C  C68  1  0.80576000  0.41681000  0.35998000  1.0
  C  C69  1  0.94649000  0.33323000  0.38881000  1.0
  C  C70  1  0.09802000  0.60126000  0.59625000  1.0
  C  C71  1  0.14931000  0.65247000  0.65400000  1.0
  C  C72  1  0.14223000  0.64353000  0.58277000  1.0
  C  C73  1  0.10741000  0.60792000  0.66751000  1.0
  C  C74  1  0.16670000  0.66854000  0.61152000  1.0
  C  C75  1  0.08236000  0.58344000  0.63874000  1.0
  C  C76  1  0.30181000  0.45473000  0.40176000  1.0
  C  C77  1  0.44424000  0.29756000  0.35004000  1.0
  C  C78  1  0.25597000  0.41543000  0.41479000  1.0
  C  C79  1  0.48865000  0.33806000  0.33728000  1.0
  C  C80  1  0.37598000  0.34058000  0.37353000  1.0
  C  C81  1  0.37039000  0.41286000  0.37812000  1.0
  C  C82  1  0.72793000  0.57694000  0.62797000  1.0
  C  C83  1  0.52622000  0.67136000  0.61998000  1.0
  C  C84  1  0.74444000  0.58452000  0.58535000  1.0
  C  C85  1  0.51155000  0.66300000  0.66251000  1.0
  C  C86  1  0.60551000  0.63945000  0.60749000  1.0
  C  C87  1  0.64902000  0.60783000  0.64110000  1.0
  C  C88  1  0.07866000  0.22246000  0.63035000  1.0
  C  C89  1  0.17392000  0.02116000  0.62246000  1.0
  C  C90  1  0.08714000  0.23910000  0.58776000  1.0
  C  C91  1  0.16492000  0.00622000  0.66498000  1.0
  C  C92  1  0.14256000  0.10031000  0.61001000  1.0
  C  C93  1  0.11016000  0.14356000  0.64358000  1.0
  C  C94  1  0.84394000  0.80199000  0.39517000  1.0
  C  C95  1  0.90040000  0.95485000  0.35362000  1.0
  C  C96  1  0.91139000  0.76109000  0.41307000  1.0
  C  C97  1  0.83301000  0.99402000  0.33583000  1.0
  C  C98  1  0.90425000  0.88441000  0.37504000  1.0
  C  C99  1  0.83915000  0.87223000  0.37320000  1.0
  C  C100  1  0.65569000  0.15177000  0.15057000  1.0
  C  C101  1  0.59810000  0.09360000  0.09940000  1.0
  C  C102  1  0.66821000  0.16601000  0.10729000  1.0
  C  C103  1  0.58324000  0.08167000  0.14268000  1.0
  C  C104  1  0.63984000  0.13674000  0.08260000  1.0
  C  C105  1  0.61230000  0.11026000  0.16738000  1.0
  C  C106  1  0.67454000  0.52180000  0.12132000  1.0
  C  C107  1  0.57705000  0.72322000  0.12918000  1.0
  C  C108  1  0.66542000  0.50520000  0.16391000  1.0
  C  C109  1  0.58747000  0.73816000  0.08668000  1.0
  C  C110  1  0.60922000  0.64402000  0.14164000  1.0
  C  C111  1  0.64294000  0.60074000  0.10813000  1.0
  C  C112  1  0.08455000  0.12515000  0.17721000  1.0
  C  C113  1  0.17251000  0.12297000  0.07224000  1.0
  C  C114  1  0.01219000  0.16175000  0.16427000  1.0
  C  C115  1  0.24392000  0.08647000  0.08593000  1.0
  C  C116  1  0.11455000  0.13734000  0.10578000  1.0
  C  C117  1  0.14363000  0.11101000  0.14424000  1.0
  C  C118  1  0.34332000  0.85057000  0.84873000  1.0
  C  C119  1  0.40390000  0.89845000  0.90353000  1.0
  C  C120  1  0.30176000  0.92247000  0.86316000  1.0
  C  C121  1  0.44664000  0.82774000  0.88792000  1.0
  C  C122  1  0.33220000  0.94499000  0.89020000  1.0
  C  C123  1  0.41595000  0.80490000  0.86116000  1.0
  C  C124  1  0.40519000  0.45163000  0.85251000  1.0
  C  C125  1  0.34432000  0.30258000  0.89598000  1.0
  C  C126  1  0.33740000  0.49392000  0.83510000  1.0
  C  C127  1  0.41248000  0.26160000  0.91288000  1.0
  C  C128  1  0.34211000  0.37191000  0.87376000  1.0
  C  C129  1  0.40888000  0.38185000  0.87459000  1.0
  C  C130  1  0.94135000  0.79770000  0.84898000  1.0
  C  C131  1  0.80239000  0.95381000  0.90261000  1.0
  C  C132  1  0.98899000  0.83522000  0.83705000  1.0
  C  C133  1  0.75589000  0.91530000  0.91394000  1.0
  C  C134  1  0.86988000  0.91066000  0.87865000  1.0
  C  C135  1  0.87299000  0.84008000  0.87260000  1.0
  S  S136  1  0.29730000  0.32566000  0.39785000  1.0
  S  S137  1  0.44841000  0.42822000  0.35359000  1.0
  S  S138  1  0.66194000  0.62981000  0.56073000  1.0
  S  S139  1  0.59315000  0.61653000  0.68777000  1.0
  S  S140  1  0.13439000  0.15687000  0.56327000  1.0
  S  S141  1  0.11888000  0.08748000  0.69026000  1.0
  S  S142  1  0.97014000  0.80940000  0.40300000  1.0
  S  S143  1  0.77376000  0.94640000  0.34495000  1.0
  S  S144  1  0.61739000  0.58748000  0.18837000  1.0
  S  S145  1  0.63586000  0.65685000  0.06150000  1.0
  S  S146  1  0.01617000  0.17943000  0.11076000  1.0
  S  S147  1  0.24170000  0.06957000  0.13934000  1.0
  S  S148  1  0.27697000  0.44745000  0.84566000  1.0
  S  S149  1  0.47438000  0.30635000  0.90210000  1.0
  S  S150  1  0.94974000  0.92403000  0.85499000  1.0
  S  S151  1  0.79305000  0.82699000  0.89570000  1.0
  S  S152  1  0.75744000  0.53668000  0.40329000  1.0
  S  S153  1  0.98701000  0.20600000  0.35280000  1.0
  S  S154  1  0.17651000  0.66403000  0.52975000  1.0
  S  S155  1  0.08714000  0.57363000  0.72060000  1.0
  S  S156  1  0.71399000  0.22618000  0.07983000  1.0
  S  S157  1  0.52287000  0.03606000  0.17001000  1.0
  S  S158  1  0.21179000  0.99332000  0.84690000  1.0
  S  S159  1  0.54350000  0.76414000  0.89733000  1.0
  O  O160  1  0.00100000  0.49791000  0.50057000  1.0
  O  O161  1  0.08014000  0.31268000  0.52381000  1.0
  O  O162  1  0.04697000  0.51912000  0.58431000  1.0
  O  O163  1  0.15542000  0.50416000  0.45324000  1.0
  O  O164  1  0.02520000  0.37220000  0.58194000  1.0
  O  O165  1  0.14927000  0.39370000  0.44502000  1.0
  O  O166  1  0.05499000  0.60759000  0.53191000  1.0
  O  O167  1  0.00401000  0.65920000  0.44858000  1.0
  O  O168  1  0.90806000  0.50492000  0.43050000  1.0
  O  O169  1  0.88981000  0.65530000  0.44681000  1.0
  O  O170  1  0.98815000  0.38247000  0.44789000  1.0
  O  O171  1  0.87779000  0.53201000  0.58014000  1.0
  O  O172  1  0.81808000  0.57033000  0.52155000  1.0
  O  O173  1  0.74809000  0.25060000  0.25067000  1.0
  O  O174  1  0.59343000  0.36043000  0.30300000  1.0
  O  O175  1  0.65162000  0.17991000  0.21715000  1.0
  O  O176  1  0.72163000  0.37197000  0.16978000  1.0
  O  O177  1  0.59129000  0.24529000  0.30188000  1.0
  O  O178  1  0.67882000  0.43238000  0.22809000  1.0
  O  O179  1  0.74439000  0.19176000  0.16891000  1.0
  O  O180  1  0.87953000  0.22280000  0.16903000  1.0
  O  O181  1  0.86886000  0.27064000  0.29307000  1.0
  O  O182  1  0.93653000  0.16796000  0.22802000  1.0
  O  O183  1  0.75035000  0.35409000  0.31468000  1.0
  O  O184  1  0.74500000  0.09272000  0.29586000  1.0
  O  O185  1  0.85250000  0.10265000  0.30633000  1.0
  O  O186  1  0.25200000  0.74924000  0.74948000  1.0
  O  O187  1  0.37815000  0.72540000  0.66765000  1.0
  O  O188  1  0.36685000  0.76458000  0.80157000  1.0
  O  O189  1  0.17763000  0.93078000  0.72859000  1.0
  O  O190  1  0.43680000  0.67187000  0.72628000  1.0
  O  O191  1  0.22031000  0.87306000  0.66939000  1.0
  O  O192  1  0.24395000  0.84273000  0.81960000  1.0
  O  O193  1  0.09339000  0.85844000  0.80384000  1.0
  O  O194  1  0.14310000  0.69527000  0.71821000  1.0
  O  O195  1  0.09302000  0.74293000  0.80187000  1.0
  O  O196  1  0.23097000  0.70436000  0.66570000  1.0
  O  O197  1  0.35662000  0.60294000  0.80558000  1.0
  O  O198  1  0.24870000  0.59250000  0.79626000  1.0
  O  O199  1  0.49926000  0.00169000  0.99937000  1.0
  O  O200  1  0.50408000  0.15827000  0.94847000  1.0
  O  O201  1  0.39554000  0.99998000  0.93538000  1.0
  O  O202  1  0.64729000  0.89689000  0.94438000  1.0
  O  O203  1  0.38838000  0.15728000  0.94681000  1.0
  O  O204  1  0.65751000  0.00481000  0.95337000  1.0
  O  O205  1  0.47865000  0.88140000  0.95732000  1.0
  O  O206  1  0.58152000  0.81397000  0.02319000  1.0
  O  O207  1  0.55856000  0.00465000  0.08111000  1.0
  O  O208  1  0.52380000  0.87141000  0.08163000  1.0
  O  O209  1  0.57162000  0.09651000  0.03259000  1.0
  O  O210  1  0.31687000  0.07233000  0.02134000  1.0
  O  O211  1  0.37704000  0.03047000  0.07985000  1.0
  O  O212  1  0.79718000  0.59290000  0.38520000  1.0
  O  O213  1  0.69321000  0.56073000  0.38096000  1.0
  O  O214  1  0.74863000  0.52768000  0.44763000  1.0
  O  O215  1  0.01367000  0.21621000  0.30483000  1.0
  O  O216  1  0.05337000  0.18338000  0.37313000  1.0
  O  O217  1  0.94239000  0.16198000  0.36121000  1.0
  O  O218  1  0.09930000  0.71890000  0.51070000  1.0
  O  O219  1  0.21725000  0.70978000  0.52878000  1.0
  O  O220  1  0.21216000  0.59322000  0.51211000  1.0
  O  O221  1  0.03117000  0.65060000  0.73935000  1.0
  O  O222  1  0.04233000  0.53197000  0.72157000  1.0
  O  O223  1  0.15788000  0.53915000  0.73860000  1.0
  O  O224  1  0.79906000  0.17948000  0.09106000  1.0
  O  O225  1  0.71753000  0.22454000  0.03657000  1.0
  O  O226  1  0.67810000  0.29700000  0.09745000  1.0
  O  O227  1  0.56983000  0.95097000  0.15913000  1.0
  O  O228  1  0.52387000  0.03288000  0.21330000  1.0
  O  O229  1  0.45210000  0.07149000  0.15203000  1.0
  O  O230  1  0.15614000  0.95276000  0.86473000  1.0
  O  O231  1  0.18728000  0.05709000  0.86948000  1.0
  O  O232  1  0.22046000  0.00282000  0.80257000  1.0
  O  O233  1  0.53320000  0.73702000  0.94532000  1.0
  O  O234  1  0.56626000  0.69820000  0.87686000  1.0
  O  O235  1  0.58726000  0.80898000  0.88925000  1.0
  F  F236  1  0.28373000  0.52520000  0.41003000  1.0
  F  F237  1  0.78055000  0.54363000  0.65450000  1.0
  F  F238  1  0.04439000  0.27489000  0.65678000  1.0
  F  F239  1  0.78860000  0.77810000  0.39788000  1.0
  F  F240  1  0.70998000  0.46950000  0.09496000  1.0
  F  F241  1  0.09806000  0.10509000  0.21676000  1.0
  F  F242  1  0.46226000  0.47347000  0.84889000  1.0
  F  F243  1  0.95735000  0.72864000  0.83923000  1.0
