# generated using pymatgen
data_CdH13C20SN3O4
_symmetry_space_group_name_H-M   'P 1'
_cell_length_a   9.10049000
_cell_length_b   9.21917000
_cell_length_c   11.87390000
_cell_angle_alpha   95.02300000
_cell_angle_beta   110.33600000
_cell_angle_gamma   106.25000000
_symmetry_Int_Tables_number   1
_chemical_formula_structural   CdH13C20SN3O4
_chemical_formula_sum   'Cd2 H26 C40 S2 N6 O8'
_cell_volume   877.69651664
_cell_formula_units_Z   2
loop_
 _symmetry_equiv_pos_site_id
 _symmetry_equiv_pos_as_xyz
  1  'x, y, z'
loop_
 _atom_site_type_symbol
 _atom_site_label
 _atom_site_symmetry_multiplicity
 _atom_site_fract_x
 _atom_site_fract_y
 _atom_site_fract_z
 _atom_site_occupancy
  Cd  Cd0  1  0.92153000  0.49201000  0.31716000  1.0
  Cd  Cd1  1  0.07848000  0.50799000  0.68284000  1.0
  H  H2  1  0.92956000  0.78044000  0.51157000  1.0
  H  H3  1  0.07043000  0.21955000  0.48843000  1.0
  H  H4  1  0.80336000  0.99154000  0.50731000  1.0
  H  H5  1  0.19662000  0.00845000  0.49270000  1.0
  H  H6  1  0.63222000  0.03299000  0.30441000  1.0
  H  H7  1  0.36778000  0.96701000  0.69559000  1.0
  H  H8  1  0.50716000  0.94842000  0.07631000  1.0
  H  H9  1  0.49284000  0.05158000  0.92369000  1.0
  H  H10  1  0.48459000  0.78761000  0.88673000  1.0
  H  H11  1  0.51542000  0.21240000  0.11327000  1.0
  H  H12  1  0.57338000  0.59524000  0.79054000  1.0
  H  H13  1  0.42662000  0.40477000  0.20947000  1.0
  H  H14  1  0.73060000  0.40801000  0.81774000  1.0
  H  H15  1  0.26940000  0.59199000  0.18226000  1.0
  H  H16  1  0.86831000  0.36568000  0.03133000  1.0
  H  H17  1  0.13169000  0.63432000  0.96867000  1.0
  H  H18  1  0.90192000  0.98546000  0.08880000  1.0
  H  H19  1  0.09808000  0.01454000  0.91120000  1.0
  H  H20  1  0.04061000  0.78805000  0.06504000  1.0
  H  H21  1  0.95939000  0.21194000  0.93497000  1.0
  H  H22  1  0.33653000  0.84460000  0.21024000  1.0
  H  H23  1  0.66347000  0.15540000  0.78976000  1.0
  H  H24  1  0.65469000  0.36136000  0.59164000  1.0
  H  H25  1  0.34531000  0.63865000  0.40835000  1.0
  H  H26  1  0.57421000  0.16906000  0.50261000  1.0
  H  H27  1  0.42579000  0.83095000  0.49739000  1.0
  C  C28  1  0.74950000  0.73667000  0.21288000  1.0
  C  C29  1  0.25050000  0.26333000  0.78713000  1.0
  C  C30  1  0.85626000  0.80354000  0.42508000  1.0
  C  C31  1  0.14373000  0.19646000  0.57492000  1.0
  C  C32  1  0.78449000  0.92094000  0.42179000  1.0
  C  C33  1  0.21551000  0.07906000  0.57821000  1.0
  C  C34  1  0.69069000  0.94398000  0.30993000  1.0
  C  C35  1  0.30931000  0.05602000  0.69008000  1.0
  C  C36  1  0.66926000  0.84949000  0.20106000  1.0
  C  C37  1  0.33075000  0.15051000  0.79894000  1.0
  C  C38  1  0.57206000  0.86481000  0.08186000  1.0
  C  C39  1  0.42794000  0.13519000  0.91814000  1.0
  C  C40  1  0.56002000  0.77743000  0.97795000  1.0
  C  C41  1  0.43998000  0.22258000  0.02205000  1.0
  C  C42  1  0.64549000  0.66740000  0.98634000  1.0
  C  C43  1  0.35451000  0.33260000  0.01366000  1.0
  C  C44  1  0.64310000  0.57964000  0.88155000  1.0
  C  C45  1  0.35690000  0.42036000  0.11845000  1.0
  C  C46  1  0.72738000  0.47457000  0.89664000  1.0
  C  C47  1  0.27262000  0.52543000  0.10336000  1.0
  C  C48  1  0.80876000  0.45363000  0.01534000  1.0
  C  C49  1  0.19125000  0.54637000  0.98466000  1.0
  C  C50  1  0.73715000  0.64365000  0.10341000  1.0
  C  C51  1  0.26285000  0.35636000  0.89659000  1.0
  C  C52  1  0.02884000  0.25121000  0.24476000  1.0
  C  C53  1  0.97116000  0.74879000  0.75524000  1.0
  C  C54  1  0.11730000  0.13827000  0.23669000  1.0
  C  C55  1  0.88270000  0.86172000  0.76331000  1.0
  C  C56  1  0.02996000  0.00198000  0.14775000  1.0
  C  C57  1  0.97004000  0.99801000  0.85225000  1.0
  C  C58  1  0.10608000  0.89337000  0.13538000  1.0
  C  C59  1  0.89391000  0.10662000  0.86463000  1.0
  C  C60  1  0.26992000  0.92521000  0.21572000  1.0
  C  C61  1  0.73007000  0.07478000  0.78429000  1.0
  C  C62  1  0.28461000  0.15977000  0.31410000  1.0
  C  C63  1  0.71539000  0.84023000  0.68590000  1.0
  C  C64  1  0.59639000  0.29139000  0.49805000  1.0
  C  C65  1  0.40360000  0.70861000  0.50195000  1.0
  C  C66  1  0.71750000  0.34137000  0.43548000  1.0
  C  C67  1  0.28250000  0.65863000  0.56452000  1.0
  S  S68  1  0.40203000  0.32608000  0.43047000  1.0
  S  S69  1  0.59796000  0.67392000  0.56952000  1.0
  N  N70  1  0.81441000  0.53620000  0.11536000  1.0
  N  N71  1  0.18559000  0.46380000  0.88464000  1.0
  N  N72  1  0.84000000  0.71513000  0.32400000  1.0
  N  N73  1  0.16001000  0.28488000  0.67601000  1.0
  N  N74  1  0.35722000  0.05380000  0.30275000  1.0
  N  N75  1  0.64278000  0.94619000  0.69725000  1.0
  O  O76  1  0.66730000  0.37233000  0.32949000  1.0
  O  O77  1  0.33270000  0.62767000  0.67051000  1.0
  O  O78  1  0.86818000  0.35059000  0.49381000  1.0
  O  O79  1  0.13182000  0.64941000  0.50619000  1.0
  O  O80  1  0.11696000  0.38309000  0.31916000  1.0
  O  O81  1  0.88304000  0.61691000  0.68083000  1.0
  O  O82  1  0.87590000  0.21495000  0.18121000  1.0
  O  O83  1  0.12410000  0.78505000  0.81878000  1.0
