# generated using pymatgen
data_CuH8C8(N3O2)2
_symmetry_space_group_name_H-M   'P 1'
_cell_length_a   4.76585000
_cell_length_b   9.97352000
_cell_length_c   11.54370000
_cell_angle_alpha   90.00030000
_cell_angle_beta   90.00000000
_cell_angle_gamma   100.52900000
_symmetry_Int_Tables_number   1
_chemical_formula_structural   CuH8C8(N3O2)2
_chemical_formula_sum   'Cu2 H16 C16 N12 O8'
_cell_volume   539.45992605
_cell_formula_units_Z   2
loop_
 _symmetry_equiv_pos_site_id
 _symmetry_equiv_pos_as_xyz
  1  'x, y, z'
loop_
 _atom_site_type_symbol
 _atom_site_label
 _atom_site_symmetry_multiplicity
 _atom_site_fract_x
 _atom_site_fract_y
 _atom_site_fract_z
 _atom_site_occupancy
  Cu  Cu0  1  0.00000000  0.00000000  0.00000000  1.0
  Cu  Cu1  1  0.50000000  0.50000000  0.50000000  1.0
  H  H2  1  0.47534000  0.97932000  0.31874000  1.0
  H  H3  1  0.02465000  0.52068000  0.81875000  1.0
  H  H4  1  0.52465000  0.02068000  0.68126000  1.0
  H  H5  1  0.97535000  0.47932000  0.18125000  1.0
  H  H6  1  0.77591000  0.93645000  0.39488000  1.0
  H  H7  1  0.72409000  0.56355000  0.89488000  1.0
  H  H8  1  0.22409000  0.06355000  0.60512000  1.0
  H  H9  1  0.27591000  0.43645000  0.10512000  1.0
  H  H10  1  0.38935000  0.23054000  0.33896000  1.0
  H  H11  1  0.11065000  0.26947000  0.83896000  1.0
  H  H12  1  0.61065000  0.76947000  0.66104000  1.0
  H  H13  1  0.88935000  0.73053000  0.16104000  1.0
  H  H14  1  0.00478000  0.34443000  0.60247000  1.0
  H  H15  1  0.49522000  0.15557000  0.10247000  1.0
  H  H16  1  0.99522000  0.65557000  0.39753000  1.0
  H  H17  1  0.50478000  0.84443000  0.89753000  1.0
  C  C18  1  0.69977000  0.01394000  0.34158000  1.0
  C  C19  1  0.80022000  0.48606000  0.84158000  1.0
  C  C20  1  0.30023000  0.98606000  0.65842000  1.0
  C  C21  1  0.19978000  0.51394000  0.15842000  1.0
  C  C22  1  0.88128000  0.03639000  0.23059000  1.0
  C  C23  1  0.61872000  0.46360000  0.73059000  1.0
  C  C24  1  0.11872000  0.96361000  0.76941000  1.0
  C  C25  1  0.38128000  0.53640000  0.26941000  1.0
  C  C26  1  0.56718000  0.23589000  0.39885000  1.0
  C  C27  1  0.93282000  0.26411000  0.89885000  1.0
  C  C28  1  0.43282000  0.76411000  0.60115000  1.0
  C  C29  1  0.06718000  0.73588000  0.10115000  1.0
  C  C30  1  0.87723000  0.28897000  0.53387000  1.0
  C  C31  1  0.62277000  0.21103000  0.03387000  1.0
  C  C32  1  0.12277000  0.71103000  0.46613000  1.0
  C  C33  1  0.37723000  0.78897000  0.96613000  1.0
  N  N34  1  0.66091000  0.33391000  0.47628000  1.0
  N  N35  1  0.83909000  0.16609000  0.97628000  1.0
  N  N36  1  0.33909000  0.66609000  0.52372000  1.0
  N  N37  1  0.16091000  0.83391000  0.02372000  1.0
  N  N38  1  0.72145000  0.13692000  0.41071000  1.0
  N  N39  1  0.77854000  0.36308000  0.91072000  1.0
  N  N40  1  0.27854000  0.86308000  0.58928000  1.0
  N  N41  1  0.22145000  0.63692000  0.08928000  1.0
  N  N42  1  0.92091000  0.16909000  0.49593000  1.0
  N  N43  1  0.57909000  0.33091000  0.99593000  1.0
  N  N44  1  0.07909000  0.83091000  0.50407000  1.0
  N  N45  1  0.42091000  0.66909000  0.00407000  1.0
  O  O46  1  0.77244000  0.96005000  0.14576000  1.0
  O  O47  1  0.72756000  0.53995000  0.64576000  1.0
  O  O48  1  0.22756000  0.03995000  0.85424000  1.0
  O  O49  1  0.27244000  0.46005000  0.35424000  1.0
  O  O50  1  0.10969000  0.12048000  0.22783000  1.0
  O  O51  1  0.39031000  0.37952000  0.72783000  1.0
  O  O52  1  0.89031000  0.87952000  0.77217000  1.0
  O  O53  1  0.60969000  0.62049000  0.27217000  1.0
