# generated using pymatgen
data_AgH8C10SNO3
_symmetry_space_group_name_H-M   'P 1'
_cell_length_a   7.13225000
_cell_length_b   11.94064154
_cell_length_c   13.14800000
_cell_angle_alpha   97.89357325
_cell_angle_beta   105.73420000
_cell_angle_gamma   107.25758972
_symmetry_Int_Tables_number   1
_chemical_formula_structural   AgH8C10SNO3
_chemical_formula_sum   'Ag4 H32 C40 S4 N4 O12'
_cell_volume   999.94911675
_cell_formula_units_Z   4
loop_
 _symmetry_equiv_pos_site_id
 _symmetry_equiv_pos_as_xyz
  1  'x, y, z'
loop_
 _atom_site_type_symbol
 _atom_site_label
 _atom_site_symmetry_multiplicity
 _atom_site_fract_x
 _atom_site_fract_y
 _atom_site_fract_z
 _atom_site_occupancy
  Ag  Ag0  1  0.25315000  0.08962000  0.92704000  1.0
  Ag  Ag1  1  0.73634000  0.41054000  0.57323000  1.0
  Ag  Ag2  1  0.74684000  0.91037000  0.07296000  1.0
  Ag  Ag3  1  0.26365000  0.58946000  0.42676000  1.0
  H  H4  1  0.01788000  0.85822000  0.25233000  1.0
  H  H5  1  0.40738000  0.64202000  0.24736000  1.0
  H  H6  1  0.98212000  0.14177000  0.74768000  1.0
  H  H7  1  0.59261000  0.35797000  0.75264000  1.0
  H  H8  1  0.80998000  0.88964000  0.49497000  1.0
  H  H9  1  0.92636000  0.61032000  0.00528000  1.0
  H  H10  1  0.19003000  0.11037000  0.50503000  1.0
  H  H11  1  0.07365000  0.38969000  0.99473000  1.0
  H  H12  1  0.93504000  0.99355000  0.36239000  1.0
  H  H13  1  0.08053000  0.50653000  0.13802000  1.0
  H  H14  1  0.06497000  0.00646000  0.63761000  1.0
  H  H15  1  0.91947000  0.49348000  0.86198000  1.0
  H  H16  1  0.53286000  0.80723000  0.56854000  1.0
  H  H17  1  0.65739000  0.69240000  0.93121000  1.0
  H  H18  1  0.46720000  0.19279000  0.43147000  1.0
  H  H19  1  0.34260000  0.30760000  0.06879000  1.0
  H  H20  1  0.89837000  0.75227000  0.38250000  1.0
  H  H21  1  0.26312000  0.74782000  0.11695000  1.0
  H  H22  1  0.10166000  0.24773000  0.61752000  1.0
  H  H23  1  0.73687000  0.25218000  0.88305000  1.0
  H  H24  1  0.15356000  0.73878000  0.54851000  1.0
  H  H25  1  0.36607000  0.76101000  0.95091000  1.0
  H  H26  1  0.84649000  0.26123000  0.45151000  1.0
  H  H27  1  0.63392000  0.23899000  0.04909000  1.0
  H  H28  1  0.88154000  0.10097000  0.23509000  1.0
  H  H29  1  0.04635000  0.39864000  0.26504000  1.0
  H  H30  1  0.11846000  0.89903000  0.76490000  1.0
  H  H31  1  0.95365000  0.60137000  0.73495000  1.0
  H  H32  1  0.63857000  0.10154000  0.16366000  1.0
  H  H33  1  0.87441000  0.39844000  0.33643000  1.0
  H  H34  1  0.36142000  0.89845000  0.83633000  1.0
  H  H35  1  0.12559000  0.60156000  0.66356000  1.0
  C  C36  1  0.34709000  0.89668000  0.33409000  1.0
  C  C37  1  0.61672000  0.60335000  0.16578000  1.0
  C  C38  1  0.65292000  0.10332000  0.66592000  1.0
  C  C39  1  0.38326000  0.39664000  0.83421000  1.0
  C  C40  1  0.13185000  0.84843000  0.32133000  1.0
  C  C41  1  0.46202000  0.65161000  0.17831000  1.0
  C  C42  1  0.86816000  0.15157000  0.67868000  1.0
  C  C43  1  0.53796000  0.34838000  0.82169000  1.0
  C  C44  1  0.42693000  0.96737000  0.26512000  1.0
  C  C45  1  0.69509000  0.53266000  0.23484000  1.0
  C  C46  1  0.57308000  0.03263000  0.73488000  1.0
  C  C47  1  0.30491000  0.46734000  0.76516000  1.0
  C  C48  1  0.63675000  0.99842000  0.27389000  1.0
  C  C49  1  0.86525000  0.50148000  0.22617000  1.0
  C  C50  1  0.36325000  0.00158000  0.72611000  1.0
  C  C51  1  0.13474000  0.49852000  0.77384000  1.0
  C  C52  1  0.70278000  0.90983000  0.42986000  1.0
  C  C53  1  0.86398000  0.59016000  0.07032000  1.0
  C  C54  1  0.29724000  0.09017000  0.57014000  1.0
  C  C55  1  0.13603000  0.40985000  0.92969000  1.0
  C  C56  1  0.77246000  0.96818000  0.35743000  1.0
  C  C57  1  0.94792000  0.53181000  0.14280000  1.0
  C  C58  1  0.22754000  0.03182000  0.64257000  1.0
  C  C59  1  0.05206000  0.46821000  0.85720000  1.0
  C  C60  1  0.48977000  0.87200000  0.42041000  1.0
  C  C61  1  0.69788000  0.62799000  0.07954000  1.0
  C  C62  1  0.51025000  0.12801000  0.57959000  1.0
  C  C63  1  0.30210000  0.37201000  0.92045000  1.0
  C  C64  1  0.41845000  0.81263000  0.49672000  1.0
  C  C65  1  0.60930000  0.68722000  0.00302000  1.0
  C  C66  1  0.58157000  0.18737000  0.50329000  1.0
  C  C67  1  0.39070000  0.31279000  0.99698000  1.0
  C  C68  1  0.06368000  0.78795000  0.39378000  1.0
  C  C69  1  0.38153000  0.71195000  0.10567000  1.0
  C  C70  1  0.93635000  0.21206000  0.60623000  1.0
  C  C71  1  0.61846000  0.28805000  0.89432000  1.0
  C  C72  1  0.20676000  0.77259000  0.48459000  1.0
  C  C73  1  0.44920000  0.72710000  0.01486000  1.0
  C  C74  1  0.79328000  0.22742000  0.51543000  1.0
  C  C75  1  0.55078000  0.27290000  0.98514000  1.0
  S  S76  1  0.25368000  0.02208000  0.17720000  1.0
  S  S77  1  0.55524000  0.47809000  0.32277000  1.0
  S  S78  1  0.74631000  0.97791000  0.82280000  1.0
  S  S79  1  0.44476000  0.52191000  0.67723000  1.0
  N  N80  1  0.72473000  0.05474000  0.20179000  1.0
  N  N81  1  0.96911000  0.44510000  0.29834000  1.0
  N  N82  1  0.27526000  0.94526000  0.79820000  1.0
  N  N83  1  0.03087000  0.55489000  0.70165000  1.0
  O  O84  1  0.37999000  0.10462000  0.12701000  1.0
  O  O85  1  0.64941000  0.39549000  0.37304000  1.0
  O  O86  1  0.61998000  0.89536000  0.87298000  1.0
  O  O87  1  0.35059000  0.60451000  0.62695000  1.0
  O  O88  1  0.09337000  0.91522000  0.09396000  1.0
  O  O89  1  0.58457000  0.58506000  0.40598000  1.0
  O  O90  1  0.90662000  0.08476000  0.90604000  1.0
  O  O91  1  0.41543000  0.41494000  0.59402000  1.0
  O  O92  1  0.16781000  0.08359000  0.24711000  1.0
  O  O93  1  0.33831000  0.41673000  0.25289000  1.0
  O  O94  1  0.83216000  0.91639000  0.75289000  1.0
  O  O95  1  0.66169000  0.58327000  0.74710000  1.0
