# generated using pymatgen
data_ZnH13C20N5O4
_symmetry_space_group_name_H-M   'P 1'
_cell_length_a   8.68022000
_cell_length_b   10.34000000
_cell_length_c   11.82560000
_cell_angle_alpha   73.93700000
_cell_angle_beta   86.22450000
_cell_angle_gamma   68.94220000
_symmetry_Int_Tables_number   1
_chemical_formula_structural   ZnH13C20N5O4
_chemical_formula_sum   'Zn2 H26 C40 N10 O8'
_cell_volume   951.16893387
_cell_formula_units_Z   2
loop_
 _symmetry_equiv_pos_site_id
 _symmetry_equiv_pos_as_xyz
  1  'x, y, z'
loop_
 _atom_site_type_symbol
 _atom_site_label
 _atom_site_symmetry_multiplicity
 _atom_site_fract_x
 _atom_site_fract_y
 _atom_site_fract_z
 _atom_site_occupancy
  Zn  Zn0  1  0.34442000  0.42523000  0.19511000  1.0
  Zn  Zn1  1  0.65558000  0.57477000  0.80489000  1.0
  H  H2  1  0.60173000  0.53609000  0.09904000  1.0
  H  H3  1  0.39827000  0.46391000  0.90096000  1.0
  H  H4  1  0.90650000  0.44492000  0.08785000  1.0
  H  H5  1  0.09350000  0.55508000  0.91215000  1.0
  H  H6  1  0.06891000  0.19322000  0.21153000  1.0
  H  H7  1  0.93109000  0.80678000  0.78847000  1.0
  H  H8  1  0.60796000  0.15747000  0.34397000  1.0
  H  H9  1  0.39204000  0.84253000  0.65603000  1.0
  H  H10  1  0.26181000  0.52732000  0.53123000  1.0
  H  H11  1  0.73818000  0.47268000  0.46877000  1.0
  H  H12  1  0.23768000  0.31661000  0.68599000  1.0
  H  H13  1  0.76231000  0.68339000  0.31401000  1.0
  H  H14  1  0.96923000  0.34260000  0.78923000  1.0
  H  H15  1  0.03076000  0.65740000  0.21077000  1.0
  H  H16  1  0.76022000  0.77077000  0.59934000  1.0
  H  H17  1  0.23978000  0.22923000  0.40066000  1.0
  H  H18  1  0.23331000  0.25515000  0.91290000  1.0
  H  H19  1  0.76669000  0.74485000  0.08710000  1.0
  H  H20  1  0.16900000  0.08642000  0.82153000  1.0
  H  H21  1  0.83100000  0.91358000  0.17847000  1.0
  H  H22  1  0.21442000  0.83546000  0.94150000  1.0
  H  H23  1  0.78558000  0.16454000  0.05850000  1.0
  H  H24  1  0.40083000  0.91703000  0.23217000  1.0
  H  H25  1  0.59917000  0.08297000  0.76783000  1.0
  H  H26  1  0.24654000  0.73561000  0.37264000  1.0
  H  H27  1  0.75346000  0.26439000  0.62737000  1.0
  C  C28  1  0.67550000  0.43063000  0.15407000  1.0
  C  C29  1  0.32450000  0.56936000  0.84593000  1.0
  C  C30  1  0.84663000  0.37836000  0.14771000  1.0
  C  C31  1  0.15337000  0.62164000  0.85229000  1.0
  C  C32  1  0.93546000  0.24078000  0.21542000  1.0
  C  C33  1  0.06454000  0.75922000  0.78458000  1.0
  C  C34  1  0.85089000  0.15863000  0.28914000  1.0
  C  C35  1  0.14911000  0.84137000  0.71086000  1.0
  C  C36  1  0.67932000  0.21895000  0.29187000  1.0
  C  C37  1  0.32068000  0.78105000  0.70813000  1.0
  C  C38  1  0.94184000  0.00932000  0.35246000  1.0
  C  C39  1  0.05816000  0.99068000  0.64754000  1.0
  C  C40  1  0.00942000  0.79550000  0.46195000  1.0
  C  C41  1  0.99058000  0.20450000  0.53805000  1.0
  C  C42  1  0.00979000  0.66534000  0.54989000  1.0
  C  C43  1  0.99021000  0.33467000  0.45011000  1.0
  C  C44  1  0.14639000  0.53621000  0.57655000  1.0
  C  C45  1  0.85361000  0.46379000  0.42345000  1.0
  C  C46  1  0.13346000  0.41826000  0.66305000  1.0
  C  C47  1  0.86654000  0.58174000  0.33695000  1.0
  C  C48  1  0.98574000  0.43149000  0.72077000  1.0
  C  C49  1  0.01426000  0.56851000  0.27923000  1.0
  C  C50  1  0.86625000  0.67066000  0.61347000  1.0
  C  C51  1  0.13375000  0.32934000  0.38653000  1.0
  C  C52  1  0.34290000  0.19880000  0.13648000  1.0
  C  C53  1  0.65710000  0.80120000  0.86352000  1.0
  C  C54  1  0.32000000  0.09595000  0.07759000  1.0
  C  C55  1  0.68001000  0.90405000  0.92241000  1.0
  C  C56  1  0.25556000  0.14361000  0.96160000  1.0
  C  C57  1  0.74445000  0.85639000  0.03840000  1.0
  C  C58  1  0.21948000  0.04999000  0.91163000  1.0
  C  C59  1  0.78052000  0.95001000  0.08837000  1.0
  C  C60  1  0.24632000  0.90885000  0.97766000  1.0
  C  C61  1  0.75369000  0.09115000  0.02234000  1.0
  C  C62  1  0.31266000  0.85917000  0.09329000  1.0
  C  C63  1  0.68734000  0.14083000  0.90671000  1.0
  C  C64  1  0.35125000  0.95293000  0.14217000  1.0
  C  C65  1  0.64876000  0.04707000  0.85783000  1.0
  C  C66  1  0.33355000  0.70904000  0.16485000  1.0
  C  C67  1  0.66645000  0.29096000  0.83515000  1.0
  N  N68  1  0.59384000  0.35212000  0.22458000  1.0
  N  N69  1  0.40616000  0.64788000  0.77542000  1.0
  N  N70  1  0.88239000  0.92151000  0.43716000  1.0
  N  N71  1  0.11761000  0.07849000  0.56284000  1.0
  N  N72  1  0.09699000  0.94431000  0.32355000  1.0
  N  N73  1  0.90301000  0.05568000  0.67645000  1.0
  N  N74  1  0.13842000  0.80968000  0.39388000  1.0
  N  N75  1  0.86158000  0.19032000  0.60612000  1.0
  N  N76  1  0.85472000  0.55641000  0.69651000  1.0
  N  N77  1  0.14528000  0.44359000  0.30349000  1.0
  O  O78  1  0.38960000  0.15693000  0.24333000  1.0
  O  O79  1  0.61040000  0.84307000  0.75667000  1.0
  O  O80  1  0.29861000  0.63088000  0.10898000  1.0
  O  O81  1  0.70139000  0.36912000  0.89103000  1.0
  O  O82  1  0.38081000  0.66454000  0.27221000  1.0
  O  O83  1  0.61919000  0.33546000  0.72779000  1.0
  O  O84  1  0.30447000  0.33263000  0.07540000  1.0
  O  O85  1  0.69553000  0.66737000  0.92460000  1.0
