# generated using pymatgen
data_H8PbC15SO8
_symmetry_space_group_name_H-M   'P 1'
_cell_length_a   5.89611000
_cell_length_b   12.82540000
_cell_length_c   20.17680000
_cell_angle_alpha   90.00040000
_cell_angle_beta   90.00050000
_cell_angle_gamma   89.99840000
_symmetry_Int_Tables_number   1
_chemical_formula_structural   H8PbC15SO8
_chemical_formula_sum   'H32 Pb4 C60 S4 O32'
_cell_volume   1525.76899374
_cell_formula_units_Z   4
loop_
 _symmetry_equiv_pos_site_id
 _symmetry_equiv_pos_as_xyz
  1  'x, y, z'
loop_
 _atom_site_type_symbol
 _atom_site_label
 _atom_site_symmetry_multiplicity
 _atom_site_fract_x
 _atom_site_fract_y
 _atom_site_fract_z
 _atom_site_occupancy
  H  H0  1  0.94609000  0.48879000  0.55321000  1.0
  H  H1  1  0.55391000  0.51120000  0.05322000  1.0
  H  H2  1  0.05390000  0.98880000  0.44678000  1.0
  H  H3  1  0.44612000  0.01120000  0.94678000  1.0
  H  H4  1  0.05386000  0.51123000  0.44676000  1.0
  H  H5  1  0.44612000  0.48877000  0.94677000  1.0
  H  H6  1  0.94614000  0.01123000  0.55323000  1.0
  H  H7  1  0.55387000  0.98877000  0.05323000  1.0
  H  H8  1  0.36405000  0.50003000  0.68079000  1.0
  H  H9  1  0.13598000  0.50000000  0.18078000  1.0
  H  H10  1  0.63596000  0.99999000  0.31921000  1.0
  H  H11  1  0.86408000  0.99997000  0.81919000  1.0
  H  H12  1  0.63600000  0.50004000  0.31922000  1.0
  H  H13  1  0.86394000  0.49990000  0.81925000  1.0
  H  H14  1  0.36398000  0.00011000  0.68076000  1.0
  H  H15  1  0.13599000  0.99995000  0.18078000  1.0
  H  H16  1  0.78100000  0.63083000  0.48248000  1.0
  H  H17  1  0.71898000  0.36916000  0.98249000  1.0
  H  H18  1  0.21897000  0.13084000  0.51751000  1.0
  H  H19  1  0.28101000  0.86917000  0.01751000  1.0
  H  H20  1  0.21889000  0.36919000  0.51750000  1.0
  H  H21  1  0.28110000  0.63083000  0.01750000  1.0
  H  H22  1  0.78114000  0.86917000  0.48250000  1.0
  H  H23  1  0.71888000  0.13081000  0.98250000  1.0
  H  H24  1  0.19394000  0.63997000  0.61029000  1.0
  H  H25  1  0.30609000  0.36005000  0.11027000  1.0
  H  H26  1  0.80606000  0.13994000  0.38973000  1.0
  H  H27  1  0.69396000  0.86004000  0.88970000  1.0
  H  H28  1  0.80609000  0.36009000  0.38974000  1.0
  H  H29  1  0.69388000  0.63987000  0.88976000  1.0
  H  H30  1  0.19391000  0.86014000  0.61024000  1.0
  H  H31  1  0.30607000  0.13991000  0.11026000  1.0
  Pb  Pb32  1  0.75978000  0.24998000  0.81166000  1.0
  Pb  Pb33  1  0.74019000  0.75002000  0.31166000  1.0
  Pb  Pb34  1  0.24018000  0.74999000  0.18834000  1.0
  Pb  Pb35  1  0.25979000  0.25002000  0.68834000  1.0
  C  C36  1  0.77624000  0.40419000  0.66380000  1.0
  C  C37  1  0.72378000  0.59582000  0.16379000  1.0
  C  C38  1  0.22377000  0.90418000  0.33621000  1.0
  C  C39  1  0.27624000  0.09581000  0.83620000  1.0
  C  C40  1  0.22378000  0.59584000  0.33621000  1.0
  C  C41  1  0.27621000  0.40414000  0.83622000  1.0
  C  C42  1  0.77622000  0.09586000  0.66378000  1.0
  C  C43  1  0.72377000  0.90416000  0.16379000  1.0
  C  C44  1  0.66660000  0.48656000  0.62097000  1.0
  C  C45  1  0.83343000  0.51344000  0.12097000  1.0
  C  C46  1  0.33341000  0.98656000  0.37903000  1.0
  C  C47  1  0.16660000  0.01344000  0.87902000  1.0
  C  C48  1  0.33343000  0.51347000  0.37903000  1.0
  C  C49  1  0.16655000  0.48651000  0.87905000  1.0
  C  C50  1  0.66658000  0.01349000  0.62096000  1.0
  C  C51  1  0.83342000  0.98653000  0.12096000  1.0
  C  C52  1  0.78156000  0.52260000  0.56470000  1.0
  C  C53  1  0.71845000  0.47740000  0.06470000  1.0
  C  C54  1  0.21843000  0.02260000  0.43530000  1.0
  C  C55  1  0.28157000  0.97739000  0.93530000  1.0
  C  C56  1  0.21841000  0.47742000  0.43530000  1.0
  C  C57  1  0.28158000  0.52257000  0.93531000  1.0
  C  C58  1  0.78159000  0.97742000  0.56470000  1.0
  C  C59  1  0.71841000  0.02258000  0.06470000  1.0
  C  C60  1  0.45370000  0.52826000  0.63713000  1.0
  C  C61  1  0.04636000  0.47176000  0.13712000  1.0
  C  C62  1  0.54633000  0.02824000  0.36288000  1.0
  C  C63  1  0.95372000  0.97174000  0.86286000  1.0
  C  C64  1  0.54636000  0.47179000  0.36289000  1.0
  C  C65  1  0.95360000  0.52818000  0.86291000  1.0
  C  C66  1  0.45364000  0.97182000  0.63710000  1.0
  C  C67  1  0.04634000  0.02821000  0.13711000  1.0
  C  C68  1  0.68950000  0.60084000  0.52527000  1.0
  C  C69  1  0.81050000  0.39916000  0.02527000  1.0
  C  C70  1  0.31049000  0.10084000  0.47473000  1.0
  C  C71  1  0.18951000  0.89916000  0.97473000  1.0
  C  C72  1  0.31045000  0.39918000  0.47473000  1.0
  C  C73  1  0.18956000  0.60082000  0.97473000  1.0
  C  C74  1  0.68958000  0.89918000  0.52527000  1.0
  C  C75  1  0.81044000  0.10081000  0.02527000  1.0
  C  C76  1  0.35855000  0.60651000  0.59800000  1.0
  C  C77  1  0.14148000  0.39351000  0.09799000  1.0
  C  C78  1  0.64146000  0.10648000  0.40201000  1.0
  C  C79  1  0.85858000  0.89350000  0.90199000  1.0
  C  C80  1  0.64148000  0.39354000  0.40202000  1.0
  C  C81  1  0.85850000  0.60643000  0.90203000  1.0
  C  C82  1  0.35854000  0.89357000  0.59798000  1.0
  C  C83  1  0.14146000  0.10645000  0.09798000  1.0
  C  C84  1  0.47883000  0.64231000  0.54268000  1.0
  C  C85  1  0.02118000  0.35770000  0.04267000  1.0
  C  C86  1  0.52117000  0.14230000  0.45733000  1.0
  C  C87  1  0.97884000  0.85770000  0.95732000  1.0
  C  C88  1  0.52115000  0.35775000  0.45733000  1.0
  C  C89  1  0.97884000  0.64225000  0.95733000  1.0
  C  C90  1  0.47887000  0.85776000  0.54267000  1.0
  C  C91  1  0.02115000  0.14225000  0.04267000  1.0
  C  C92  1  0.21515000  0.74990000  0.81473000  1.0
  C  C93  1  0.28481000  0.25003000  0.31475000  1.0
  C  C94  1  0.78479000  0.24998000  0.18526000  1.0
  C  C95  1  0.71513000  0.75008000  0.68529000  1.0
  S  S96  1  0.37090000  0.75001000  0.49691000  1.0
  S  S97  1  0.12911000  0.24998000  0.99691000  1.0
  S  S98  1  0.62911000  0.25001000  0.50309000  1.0
  S  S99  1  0.87089000  0.75000000  0.00309000  1.0
  O  O100  1  0.65819000  0.36811000  0.71173000  1.0
  O  O101  1  0.84184000  0.63190000  0.21173000  1.0
  O  O102  1  0.34183000  0.86810000  0.28827000  1.0
  O  O103  1  0.15819000  0.13189000  0.78826000  1.0
  O  O104  1  0.34184000  0.63191000  0.28827000  1.0
  O  O105  1  0.15816000  0.36807000  0.78828000  1.0
  O  O106  1  0.65818000  0.13192000  0.71173000  1.0
  O  O107  1  0.84183000  0.86809000  0.21173000  1.0
  O  O108  1  0.97752000  0.37853000  0.64891000  1.0
  O  O109  1  0.52250000  0.62147000  0.14890000  1.0
  O  O110  1  0.02249000  0.87852000  0.35110000  1.0
  O  O111  1  0.47751000  0.12147000  0.85109000  1.0
  O  O112  1  0.02248000  0.62149000  0.35109000  1.0
  O  O113  1  0.47752000  0.37850000  0.85110000  1.0
  O  O114  1  0.97752000  0.12151000  0.64890000  1.0
  O  O115  1  0.52248000  0.87851000  0.14890000  1.0
  O  O116  1  0.48076000  0.75001000  0.43220000  1.0
  O  O117  1  0.01928000  0.24998000  0.93219000  1.0
  O  O118  1  0.51928000  0.25002000  0.56781000  1.0
  O  O119  1  0.98074000  0.75001000  0.06780000  1.0
  O  O120  1  0.12581000  0.75003000  0.50140000  1.0
  O  O121  1  0.37420000  0.24997000  0.00141000  1.0
  O  O122  1  0.87421000  0.25003000  0.49859000  1.0
  O  O123  1  0.62581000  0.74998000  0.99859000  1.0
  O  O124  1  0.07330000  0.74983000  0.77381000  1.0
  O  O125  1  0.42666000  0.25004000  0.27383000  1.0
  O  O126  1  0.92662000  0.25000000  0.22618000  1.0
  O  O127  1  0.57329000  0.75016000  0.72621000  1.0
  O  O128  1  0.35727000  0.74997000  0.85546000  1.0
  O  O129  1  0.14268000  0.25002000  0.35548000  1.0
  O  O130  1  0.64266000  0.24997000  0.14453000  1.0
  O  O131  1  0.85728000  0.75000000  0.64456000  1.0
