# generated using pymatgen
data_Ag2H18C10N4O3
_symmetry_space_group_name_H-M   'P 1'
_cell_length_a   8.00459000
_cell_length_b   9.48685000
_cell_length_c   10.19330000
_cell_angle_alpha   100.37000000
_cell_angle_beta   97.56530000
_cell_angle_gamma   104.00800000
_symmetry_Int_Tables_number   1
_chemical_formula_structural   Ag2H18C10N4O3
_chemical_formula_sum   'Ag4 H36 C20 N8 O6'
_cell_volume   726.21757425
_cell_formula_units_Z   2
loop_
 _symmetry_equiv_pos_site_id
 _symmetry_equiv_pos_as_xyz
  1  'x, y, z'
loop_
 _atom_site_type_symbol
 _atom_site_label
 _atom_site_symmetry_multiplicity
 _atom_site_fract_x
 _atom_site_fract_y
 _atom_site_fract_z
 _atom_site_occupancy
  Ag  Ag0  1  0.78242000  0.28419000  0.14653000  1.0
  Ag  Ag1  1  0.21515000  0.70333000  0.84748000  1.0
  Ag  Ag2  1  0.50210000  0.49075000  0.49446000  1.0
  Ag  Ag3  1  0.99997000  0.49182000  0.99608000  1.0
  H  H4  1  0.82484000  0.71077000  0.58822000  1.0
  H  H5  1  0.99895000  0.62493000  0.58838000  1.0
  H  H6  1  0.84849000  0.60028000  0.43664000  1.0
  H  H7  1  0.95546000  0.87530000  0.44391000  1.0
  H  H8  1  0.11707000  0.89629000  0.58866000  1.0
  H  H9  1  0.18865000  0.98426000  0.33539000  1.0
  H  H10  1  0.35346000  0.99248000  0.47218000  1.0
  H  H11  1  0.48386000  0.00879000  0.26784000  1.0
  H  H12  1  0.32972000  0.84014000  0.17265000  1.0
  H  H13  1  0.49010000  0.83591000  0.30835000  1.0
  H  H14  1  0.18284000  0.26722000  0.40605000  1.0
  H  H15  1  0.16124000  0.37943000  0.55747000  1.0
  H  H16  1  0.01121000  0.35582000  0.40577000  1.0
  H  H17  1  0.04954000  0.10618000  0.55280000  1.0
  H  H18  1  0.89029000  0.08423000  0.40642000  1.0
  H  H19  1  0.65092000  0.99094000  0.52074000  1.0
  H  H20  1  0.81357000  0.99959000  0.65918000  1.0
  H  H21  1  0.51697000  0.97683000  0.72357000  1.0
  H  H22  1  0.51256000  0.14933000  0.68134000  1.0
  H  H23  1  0.67054000  0.14577000  0.81892000  1.0
  H  H24  1  0.39769000  0.59285000  0.06575000  1.0
  H  H25  1  0.59630000  0.65906000  0.00769000  1.0
  H  H26  1  0.40522000  0.33075000  0.98328000  1.0
  H  H27  1  0.60489000  0.39758000  0.92666000  1.0
  H  H28  1  0.28897000  0.45024000  0.82164000  1.0
  H  H29  1  0.46385000  0.56401000  0.78638000  1.0
  H  H30  1  0.53517000  0.42528000  0.20498000  1.0
  H  H31  1  0.71206000  0.53854000  0.17116000  1.0
  H  H32  1  0.94979000  0.10643000  0.92020000  1.0
  H  H33  1  0.79767000  0.96810000  0.97430000  1.0
  H  H34  1  0.19710000  0.01726000  0.02174000  1.0
  H  H35  1  0.04473000  0.87812000  0.07482000  1.0
  H  H36  1  0.07936000  0.22343000  0.14933000  1.0
  H  H37  1  0.95578000  0.08898000  0.20677000  1.0
  H  H38  1  0.03909000  0.89759000  0.78876000  1.0
  H  H39  1  0.91713000  0.76152000  0.84518000  1.0
  C  C40  1  0.23661000  0.51756000  0.26608000  1.0
  C  C41  1  0.28461000  0.70126000  0.47125000  1.0
  C  C42  1  0.16286000  0.77882000  0.40266000  1.0
  C  C43  1  0.05682000  0.68643000  0.26618000  1.0
  C  C44  1  0.92199000  0.68176000  0.52948000  1.0
  C  C45  1  0.03762000  0.81785000  0.49599000  1.0
  C  C46  1  0.27879000  0.92362000  0.37376000  1.0
  C  C47  1  0.40205000  0.90039000  0.27465000  1.0
  C  C48  1  0.76489000  0.46470000  0.72432000  1.0
  C  C49  1  0.72199000  0.28150000  0.51955000  1.0
  C  C50  1  0.84228000  0.20424000  0.59020000  1.0
  C  C51  1  0.94645000  0.29742000  0.72693000  1.0
  C  C52  1  0.08661000  0.29817000  0.46488000  1.0
  C  C53  1  0.96890000  0.16348000  0.49893000  1.0
  C  C54  1  0.72452000  0.06032000  0.61929000  1.0
  C  C55  1  0.59965000  0.08487000  0.71669000  1.0
  C  C56  1  0.47682000  0.56665000  0.98954000  1.0
  C  C57  1  0.52482000  0.42318000  0.00229000  1.0
  C  C58  1  0.93282000  0.04015000  0.99793000  1.0
  C  C59  1  0.06207000  0.94492000  0.99749000  1.0
  N  N60  1  0.32435000  0.58422000  0.39588000  1.0
  N  N61  1  0.10788000  0.57015000  0.20251000  1.0
  N  N62  1  0.67972000  0.39773000  0.59384000  1.0
  N  N63  1  0.89360000  0.41327000  0.78938000  1.0
  N  N64  1  0.37707000  0.55442000  0.85261000  1.0
  N  N65  1  0.62303000  0.43485000  0.13956000  1.0
  N  N66  1  0.95837000  0.14525000  0.12998000  1.0
  N  N67  1  0.03743000  0.84063000  0.86506000  1.0
  O  O68  1  0.27007000  0.40330000  0.20353000  1.0
  O  O69  1  0.34941000  0.74743000  0.59433000  1.0
  O  O70  1  0.92847000  0.72242000  0.21102000  1.0
  O  O71  1  0.72908000  0.57818000  0.78595000  1.0
  O  O72  1  0.66010000  0.23531000  0.39595000  1.0
  O  O73  1  0.07470000  0.26245000  0.78354000  1.0
