# generated using pymatgen
data_Mg2H15C26N5O6
_symmetry_space_group_name_H-M   'P 1'
_cell_length_a   6.80675000
_cell_length_b   41.57850000
_cell_length_c   41.57750000
_cell_angle_alpha   119.70700000
_cell_angle_beta   93.12730000
_cell_angle_gamma   93.12990000
_symmetry_Int_Tables_number   1
_chemical_formula_structural   Mg2H15C26N5O6
_chemical_formula_sum   'Mg6 H45 C78 N15 O18'
_cell_volume   10159.97274662
_cell_formula_units_Z   3
loop_
 _symmetry_equiv_pos_site_id
 _symmetry_equiv_pos_as_xyz
  1  'x, y, z'
loop_
 _atom_site_type_symbol
 _atom_site_label
 _atom_site_symmetry_multiplicity
 _atom_site_fract_x
 _atom_site_fract_y
 _atom_site_fract_z
 _atom_site_occupancy
  Mg  Mg0  1  0.54164000  0.63892000  0.32858000  1.0
  Mg  Mg1  1  0.21307000  0.67144000  0.31035000  1.0
  Mg  Mg2  1  0.90274000  0.68966000  0.36109000  1.0
  Mg  Mg3  1  0.36446000  0.36067000  0.67075000  1.0
  Mg  Mg4  1  0.69376000  0.32925000  0.68991000  1.0
  Mg  Mg5  1  0.00385000  0.31008000  0.63933000  1.0
  H  H6  1  0.51415000  0.52280000  0.01795000  1.0
  H  H7  1  0.49619000  0.98204000  0.50484000  1.0
  H  H8  1  0.99135000  0.49516000  0.47720000  1.0
  H  H9  1  0.32153000  0.52734000  0.04325000  1.0
  H  H10  1  0.27825000  0.95675000  0.48407000  1.0
  H  H11  1  0.79418000  0.51592000  0.47267000  1.0
  H  H12  1  0.49359000  0.49054000  0.95232000  1.0
  H  H13  1  0.54138000  0.04767000  0.53821000  1.0
  H  H14  1  0.00311000  0.46178000  0.50945000  1.0
  H  H15  1  0.94238000  0.42832000  0.89261000  1.0
  H  H16  1  0.04981000  0.10738000  0.53570000  1.0
  H  H17  1  0.51409000  0.46430000  0.57168000  1.0
  H  H18  1  0.78543000  0.45578000  0.95194000  1.0
  H  H19  1  0.83352000  0.04806000  0.50384000  1.0
  H  H20  1  0.32966000  0.49617000  0.54422000  1.0
  H  H21  1  0.06705000  0.56136000  0.04345000  1.0
  H  H22  1  0.02363000  0.95654000  0.51789000  1.0
  H  H23  1  0.50577000  0.48209000  0.43863000  1.0
  H  H24  1  0.88577000  0.58599000  0.10008000  1.0
  H  H25  1  0.78565000  0.89993000  0.48590000  1.0
  H  H26  1  0.29982000  0.51410000  0.41401000  1.0
  H  H27  1  0.59508000  0.47696000  0.06103000  1.0
  H  H28  1  0.53403000  0.93897000  0.41592000  1.0
  H  H29  1  0.11810000  0.58406000  0.52303000  1.0
  H  H30  1  0.78431000  0.45146000  0.00521000  1.0
  H  H31  1  0.77909000  0.99478000  0.44624000  1.0
  H  H32  1  0.33286000  0.55375000  0.54853000  1.0
  H  H33  1  0.31441000  0.56190000  0.15463000  1.0
  H  H34  1  0.15981000  0.84539000  0.40727000  1.0
  H  H35  1  0.75252000  0.59272000  0.43811000  1.0
  H  H36  1  0.18511000  0.58988000  0.21706000  1.0
  H  H37  1  0.96823000  0.78295000  0.37282000  1.0
  H  H38  1  0.59535000  0.62717000  0.41012000  1.0
  H  H39  1  0.88764000  0.61853000  0.20670000  1.0
  H  H40  1  0.68100000  0.79332000  0.41186000  1.0
  H  H41  1  0.26917000  0.58815000  0.38147000  1.0
  H  H42  1  0.61470000  0.43294000  0.84476000  1.0
  H  H43  1  0.76983000  0.15525000  0.58819000  1.0
  H  H44  1  0.18168000  0.41182000  0.56705000  1.0
  H  H45  1  0.73105000  0.40713000  0.78133000  1.0
  H  H46  1  0.94978000  0.21867000  0.62580000  1.0
  H  H47  1  0.32383000  0.37420000  0.59286000  1.0
  H  H48  1  0.02696000  0.38396000  0.79511000  1.0
  H  H49  1  0.23176000  0.20490000  0.58886000  1.0
  H  H50  1  0.64291000  0.41114000  0.61603000  1.0
  C  C51  1  0.25117000  0.49914000  0.98670000  1.0
  C  C52  1  0.26451000  0.01330000  0.51244000  1.0
  C  C53  1  0.75204000  0.48756000  0.50085000  1.0
  C  C54  1  0.33769000  0.48319000  0.95280000  1.0
  C  C55  1  0.38501000  0.04719000  0.53038000  1.0
  C  C56  1  0.85456000  0.46961000  0.51680000  1.0
  C  C57  1  0.22840000  0.45807000  0.91922000  1.0
  C  C58  1  0.30928000  0.08078000  0.53884000  1.0
  C  C59  1  0.77038000  0.46115000  0.54192000  1.0
  C  C60  1  0.02719000  0.44773000  0.91884000  1.0
  C  C61  1  0.10842000  0.08115000  0.52888000  1.0
  C  C62  1  0.57950000  0.47112000  0.55227000  1.0
  C  C63  1  0.94201000  0.46312000  0.95210000  1.0
  C  C64  1  0.98993000  0.04789000  0.51102000  1.0
  C  C65  1  0.47891000  0.48900000  0.53688000  1.0
  C  C66  1  0.04736000  0.48908000  0.98643000  1.0
  C  C67  1  0.06095000  0.01357000  0.50267000  1.0
  C  C68  1  0.55826000  0.49734000  0.51091000  1.0
  C  C69  1  0.94308000  0.50429000  0.02040000  1.0
  C  C70  1  0.92276000  0.97959000  0.48388000  1.0
  C  C71  1  0.43880000  0.51610000  0.49569000  1.0
  C  C72  1  0.96868000  0.54248000  0.04774000  1.0
  C  C73  1  0.92102000  0.95225000  0.49473000  1.0
  C  C74  1  0.42629000  0.50525000  0.45750000  1.0
  C  C75  1  0.86653000  0.55651000  0.07924000  1.0
  C  C76  1  0.78721000  0.92077000  0.47727000  1.0
  C  C77  1  0.31009000  0.52273000  0.44349000  1.0
  C  C78  1  0.73255000  0.53276000  0.08438000  1.0
  C  C79  1  0.64810000  0.91563000  0.44838000  1.0
  C  C80  1  0.19984000  0.55160000  0.46723000  1.0
  C  C81  1  0.70049000  0.49504000  0.05694000  1.0
  C  C82  1  0.64353000  0.94306000  0.43809000  1.0
  C  C83  1  0.20536000  0.56188000  0.50495000  1.0
  C  C84  1  0.80601000  0.48103000  0.02577000  1.0
  C  C85  1  0.78027000  0.97422000  0.45525000  1.0
  C  C86  1  0.32494000  0.54472000  0.51895000  1.0
  C  C87  1  0.61258000  0.58799000  0.17683000  1.0
  C  C88  1  0.43582000  0.82319000  0.41117000  1.0
  C  C89  1  0.02469000  0.58884000  0.41203000  1.0
  C  C90  1  0.41167000  0.58007000  0.17979000  1.0
  C  C91  1  0.23202000  0.82024000  0.40026000  1.0
  C  C92  1  0.83173000  0.59971000  0.41995000  1.0
  C  C93  1  0.34003000  0.59550000  0.21443000  1.0
  C  C94  1  0.12583000  0.78559000  0.38104000  1.0
  C  C95  1  0.74469000  0.61893000  0.40452000  1.0
  C  C96  1  0.46392000  0.61833000  0.24777000  1.0
  C  C97  1  0.21637000  0.75226000  0.37057000  1.0
  C  C98  1  0.84569000  0.62941000  0.38167000  1.0
  C  C99  1  0.66666667  0.62651000  0.24443000  1.0
  C  C100  1  0.42232000  0.75560000  0.38212000  1.0
  C  C101  1  0.04014000  0.61788000  0.37348000  1.0
  C  C102  1  0.73396000  0.61190000  0.20909000  1.0
  C  C103  1  0.52494000  0.79094000  0.40284000  1.0
  C  C104  1  0.12212000  0.59717000  0.38811000  1.0
  C  C105  1  0.81366000  0.64875000  0.27645000  1.0
  C  C106  1  0.53726000  0.72356000  0.37235000  1.0
  C  C107  1  0.16492000  0.62767000  0.35124000  1.0
  C  C108  1  0.31069000  0.41036000  0.82383000  1.0
  C  C109  1  0.48672000  0.17618000  0.58656000  1.0
  C  C110  1  0.90018000  0.41345000  0.58961000  1.0
  C  C111  1  0.51224000  0.41662000  0.81990000  1.0
  C  C112  1  0.69223000  0.18012000  0.59674000  1.0
  C  C113  1  0.09547000  0.40327000  0.58336000  1.0
  C  C114  1  0.57650000  0.40240000  0.78481000  1.0
  C  C115  1  0.79174000  0.21520000  0.61760000  1.0
  C  C116  1  0.17396000  0.38239000  0.59757000  1.0
  C  C117  1  0.44584000  0.38174000  0.75195000  1.0
  C  C118  1  0.69391000  0.24805000  0.62980000  1.0
  C  C119  1  0.06401000  0.37021000  0.61825000  1.0
  C  C120  1  0.24270000  0.37487000  0.75610000  1.0
  C  C121  1  0.48659000  0.24389000  0.61878000  1.0
  C  C122  1  0.86779000  0.38125000  0.62513000  1.0
  C  C123  1  0.18129000  0.38920000  0.79192000  1.0
  C  C124  1  0.38924000  0.20809000  0.59731000  1.0
  C  C125  1  0.79198000  0.40271000  0.61078000  1.0
  C  C126  1  0.09193000  0.35348000  0.72447000  1.0
  C  C127  1  0.36753000  0.27553000  0.62902000  1.0
  C  C128  1  0.73846000  0.37099000  0.64651000  1.0
  N  N129  1  0.36615000  0.52430000  0.01907000  1.0
  N  N130  1  0.34707000  0.98093000  0.50522000  1.0
  N  N131  1  0.84184000  0.49478000  0.47570000  1.0
  N  N132  1  0.62506000  0.54490000  0.11588000  1.0
  N  N133  1  0.50916000  0.88412000  0.42902000  1.0
  N  N134  1  0.08022000  0.57097000  0.45511000  1.0
  N  N135  1  0.70983000  0.57379000  0.14426000  1.0
  N  N136  1  0.56561000  0.85576000  0.42954000  1.0
  N  N137  1  0.13613000  0.57047000  0.42623000  1.0
  N  N138  1  0.33164000  0.44471000  0.88696000  1.0
  N  N139  1  0.44470000  0.11305000  0.55775000  1.0
  N  N140  1  0.88693000  0.44225000  0.55529000  1.0
  N  N141  1  0.22115000  0.42403000  0.85718000  1.0
  N  N142  1  0.36392000  0.14282000  0.56685000  1.0
  N  N143  1  0.79706000  0.43315000  0.57596000  1.0
  O  O144  1  0.98685000  0.65780000  0.27183000  1.0
  O  O145  1  0.71508000  0.72818000  0.38601000  1.0
  O  O146  1  0.32911000  0.61401000  0.34219000  1.0
  O  O147  1  0.76415000  0.65784000  0.30932000  1.0
  O  O148  1  0.45484000  0.69070000  0.34856000  1.0
  O  O149  1  0.10637000  0.65148000  0.34218000  1.0
  O  O150  1  0.38863000  0.63103000  0.28057000  1.0
  O  O151  1  0.10825000  0.71946000  0.35047000  1.0
  O  O152  1  0.75772000  0.64951000  0.36898000  1.0
  O  O153  1  0.91845000  0.34496000  0.72948000  1.0
  O  O154  1  0.18907000  0.27052000  0.61547000  1.0
  O  O155  1  0.57350000  0.38452000  0.65504000  1.0
  O  O156  1  0.13887000  0.34409000  0.69136000  1.0
  O  O157  1  0.44756000  0.30865000  0.65274000  1.0
  O  O158  1  0.79481000  0.34727000  0.65589000  1.0
  O  O159  1  0.51697000  0.36983000  0.71890000  1.0
  O  O160  1  0.79810000  0.28111000  0.65093000  1.0
  O  O161  1  0.14711000  0.34909000  0.63017000  1.0
