# generated using pymatgen
data_AlH12C24(O2F)3
_symmetry_space_group_name_H-M   'P 1'
_cell_length_a   3.95735000
_cell_length_b   28.56815888
_cell_length_c   28.56520000
_cell_angle_alpha   60.00027895
_cell_angle_beta   89.96550000
_cell_angle_gamma   89.97700303
_symmetry_Int_Tables_number   1
_chemical_formula_structural   AlH12C24(O2F)3
_chemical_formula_sum   'Al2 H24 C48 O12 F6'
_cell_volume   2796.76357470
_cell_formula_units_Z   2
loop_
 _symmetry_equiv_pos_site_id
 _symmetry_equiv_pos_as_xyz
  1  'x, y, z'
loop_
 _atom_site_type_symbol
 _atom_site_label
 _atom_site_symmetry_multiplicity
 _atom_site_fract_x
 _atom_site_fract_y
 _atom_site_fract_z
 _atom_site_occupancy
  Al  Al0  1  0.99101000  0.50001000  0.99999000  1.0
  Al  Al1  1  0.99096000  0.16665000  0.66668000  1.0
  H  H2  1  0.70845000  0.30010000  0.51471000  1.0
  H  H3  1  0.71252000  0.34811000  0.41449000  1.0
  H  H4  1  0.31850000  0.20391000  0.42035000  1.0
  H  H5  1  0.31836000  0.46276000  0.24635000  1.0
  H  H6  1  0.71205000  0.31854000  0.25213000  1.0
  H  H7  1  0.70787000  0.36655000  0.15192000  1.0
  H  H8  1  0.49063000  0.27906000  0.33428000  1.0
  H  H9  1  0.49078000  0.38761000  0.33239000  1.0
  H  H10  1  0.70776000  0.18518000  0.80010000  1.0
  H  H11  1  0.71161000  0.23736000  0.84810000  1.0
  H  H12  1  0.31747000  0.37575000  0.70389000  1.0
  H  H13  1  0.31817000  0.29094000  0.96281000  1.0
  H  H14  1  0.71194000  0.42929000  0.81848000  1.0
  H  H15  1  0.70848000  0.48150000  0.86646000  1.0
  H  H16  1  0.48970000  0.38667000  0.77902000  1.0
  H  H17  1  0.48992000  0.28002000  0.88761000  1.0
  H  H18  1  0.70824000  0.01468000  0.68516000  1.0
  H  H19  1  0.71205000  0.91449000  0.73738000  1.0
  H  H20  1  0.31815000  0.92035000  0.87580000  1.0
  H  H21  1  0.31831000  0.74634000  0.79091000  1.0
  H  H22  1  0.71187000  0.75215000  0.92930000  1.0
  H  H23  1  0.70800000  0.65195000  0.98152000  1.0
  H  H24  1  0.49017000  0.83426000  0.88670000  1.0
  H  H25  1  0.49032000  0.83240000  0.78001000  1.0
  C  C26  1  0.49131000  0.58277000  0.95151000  1.0
  C  C27  1  0.49105000  0.46575000  0.08274000  1.0
  C  C28  1  0.49158000  0.45154000  0.96570000  1.0
  C  C29  1  0.49153000  0.20092000  0.58392000  1.0
  C  C30  1  0.49093000  0.21515000  0.70093000  1.0
  C  C31  1  0.49130000  0.08390000  0.71516000  1.0
  C  C32  1  0.49660000  0.22688000  0.52404000  1.0
  C  C33  1  0.61615000  0.28022000  0.49310000  1.0
  C  C34  1  0.61629000  0.30689000  0.43713000  1.0
  C  C35  1  0.50648000  0.28040000  0.40937000  1.0
  C  C36  1  0.39878000  0.22640000  0.43999000  1.0
  C  C37  1  0.38851000  0.20112000  0.49592000  1.0
  C  C38  1  0.50436000  0.30639000  0.35066000  1.0
  C  C39  1  0.50434000  0.36027000  0.31601000  1.0
  C  C40  1  0.39847000  0.44026000  0.22670000  1.0
  C  C41  1  0.50620000  0.38626000  0.25729000  1.0
  C  C42  1  0.61586000  0.35976000  0.22952000  1.0
  C  C43  1  0.61567000  0.38644000  0.17354000  1.0
  C  C44  1  0.49610000  0.43979000  0.14262000  1.0
  C  C45  1  0.38801000  0.46554000  0.17077000  1.0
  C  C46  1  0.49584000  0.24909000  0.72687000  1.0
  C  C47  1  0.61543000  0.22668000  0.78021000  1.0
  C  C48  1  0.61549000  0.25598000  0.80688000  1.0
  C  C49  1  0.50572000  0.31023000  0.78039000  1.0
  C  C50  1  0.39796000  0.33363000  0.72638000  1.0
  C  C51  1  0.38767000  0.30296000  0.70111000  1.0
  C  C52  1  0.50351000  0.34295000  0.80637000  1.0
  C  C53  1  0.50361000  0.32374000  0.86026000  1.0
  C  C54  1  0.39852000  0.33307000  0.94027000  1.0
  C  C55  1  0.50597000  0.35646000  0.88624000  1.0
  C  C56  1  0.61591000  0.41070000  0.85972000  1.0
  C  C57  1  0.61606000  0.44001000  0.88639000  1.0
  C  C58  1  0.49661000  0.41762000  0.93975000  1.0
  C  C59  1  0.38851000  0.36374000  0.96554000  1.0
  C  C60  1  0.49632000  0.02402000  0.74909000  1.0
  C  C61  1  0.61590000  0.99309000  0.72666000  1.0
  C  C62  1  0.61591000  0.93711000  0.75599000  1.0
  C  C63  1  0.50608000  0.90936000  0.81025000  1.0
  C  C64  1  0.39845000  0.93998000  0.83365000  1.0
  C  C65  1  0.38822000  0.99591000  0.80298000  1.0
  C  C66  1  0.50386000  0.85066000  0.84298000  1.0
  C  C67  1  0.50391000  0.81600000  0.82373000  1.0
  C  C68  1  0.39853000  0.72670000  0.83305000  1.0
  C  C69  1  0.50606000  0.75730000  0.85645000  1.0
  C  C70  1  0.61576000  0.72953000  0.91071000  1.0
  C  C71  1  0.61576000  0.67356000  0.94002000  1.0
  C  C72  1  0.49632000  0.64264000  0.91760000  1.0
  C  C73  1  0.38834000  0.67077000  0.86371000  1.0
  O  O74  1  0.25404000  0.44429000  0.99878000  1.0
  O  O75  1  0.25391000  0.55696000  0.94426000  1.0
  O  O76  1  0.25351000  0.49880000  0.05694000  1.0
  O  O77  1  0.72494000  0.48693000  0.95174000  1.0
  O  O78  1  0.72443000  0.45179000  0.06128000  1.0
  O  O79  1  0.72452000  0.56132000  0.98692000  1.0
  O  O80  1  0.25372000  0.10972000  0.72241000  1.0
  O  O81  1  0.25409000  0.16785000  0.60974000  1.0
  O  O82  1  0.25355000  0.22239000  0.66787000  1.0
  O  O83  1  0.72474000  0.10534000  0.67976000  1.0
  O  O84  1  0.72425000  0.17974000  0.71490000  1.0
  O  O85  1  0.72476000  0.21488000  0.60536000  1.0
  F  F86  1  0.28028000  0.14903000  0.52334000  1.0
  F  F87  1  0.27967000  0.51762000  0.14338000  1.0
  F  F88  1  0.27935000  0.32764000  0.64902000  1.0
  F  F89  1  0.28049000  0.33907000  0.01765000  1.0
  F  F90  1  0.27998000  0.02332000  0.82767000  1.0
  F  F91  1  0.28026000  0.64337000  0.83902000  1.0
