# generated using pymatgen
data_HgH8C12(BrN3)2
_symmetry_space_group_name_H-M   'P 1'
_cell_length_a   7.29727000
_cell_length_b   7.53627000
_cell_length_c   7.99321000
_cell_angle_alpha   114.58000000
_cell_angle_beta   96.25000000
_cell_angle_gamma   106.81200000
_symmetry_Int_Tables_number   1
_chemical_formula_structural   HgH8C12(BrN3)2
_chemical_formula_sum   'Hg1 H8 C12 Br2 N6'
_cell_volume   369.16139931
_cell_formula_units_Z   1
loop_
 _symmetry_equiv_pos_site_id
 _symmetry_equiv_pos_as_xyz
  1  'x, y, z'
loop_
 _atom_site_type_symbol
 _atom_site_label
 _atom_site_symmetry_multiplicity
 _atom_site_fract_x
 _atom_site_fract_y
 _atom_site_fract_z
 _atom_site_occupancy
  Hg  Hg0  1  0.50000000  0.00001000  0.50000000  1.0
  H  H1  1  0.00281000  0.23853000  0.53730000  1.0
  H  H2  1  0.99718000  0.76146000  0.46271000  1.0
  H  H3  1  0.29087000  0.57668000  0.66419000  1.0
  H  H4  1  0.70912000  0.42329000  0.33580000  1.0
  H  H5  1  0.27722000  0.90210000  0.93081000  1.0
  H  H6  1  0.72279000  0.09789000  0.06918000  1.0
  H  H7  1  0.97729000  0.86834000  0.05711000  1.0
  H  H8  1  0.02272000  0.13166000  0.94288000  1.0
  C  C9  1  0.00005000  0.38225000  0.65058000  1.0
  C  C10  1  0.99994000  0.61774000  0.34942000  1.0
  C  C11  1  0.16236000  0.57164000  0.72278000  1.0
  C  C12  1  0.83764000  0.42834000  0.27722000  1.0
  C  C13  1  0.15457000  0.75094000  0.86894000  1.0
  C  C14  1  0.84544000  0.24905000  0.13105000  1.0
  C  C15  1  0.98667000  0.73441000  0.93840000  1.0
  C  C16  1  0.01334000  0.26559000  0.06161000  1.0
  C  C17  1  0.83010000  0.53903000  0.85570000  1.0
  C  C18  1  0.16990000  0.46098000  0.14430000  1.0
  C  C19  1  0.65248000  0.51680000  0.92946000  1.0
  C  C20  1  0.34752000  0.48321000  0.07054000  1.0
  Br  Br21  1  0.65217000  0.80885000  0.62884000  1.0
  Br  Br22  1  0.34783000  0.19116000  0.37116000  1.0
  N  N23  1  0.83656000  0.36540000  0.71305000  1.0
  N  N24  1  0.16344000  0.63460000  0.28695000  1.0
  N  N25  1  0.51291000  0.32311000  0.86480000  1.0
  N  N26  1  0.48709000  0.67690000  0.13521000  1.0
  N  N27  1  0.35877000  0.30597000  0.93619000  1.0
  N  N28  1  0.64123000  0.69404000  0.06382000  1.0
