# generated using pymatgen
data_PrH20C24Cl3O10
_symmetry_space_group_name_H-M   'P 1'
_cell_length_a   8.37865000
_cell_length_b   9.62837000
_cell_length_c   36.95260000
_cell_angle_alpha   89.99980000
_cell_angle_beta   89.99920000
_cell_angle_gamma   69.05900000
_symmetry_Int_Tables_number   1
_chemical_formula_structural   PrH20C24Cl3O10
_chemical_formula_sum   'Pr4 H80 C96 Cl12 O40'
_cell_volume   2784.16495950
_cell_formula_units_Z   4
loop_
 _symmetry_equiv_pos_site_id
 _symmetry_equiv_pos_as_xyz
  1  'x, y, z'
loop_
 _atom_site_type_symbol
 _atom_site_label
 _atom_site_symmetry_multiplicity
 _atom_site_fract_x
 _atom_site_fract_y
 _atom_site_fract_z
 _atom_site_occupancy
  Pr  Pr0  1  0.52824000  0.73048000  0.75355000  1.0
  Pr  Pr1  1  0.97175000  0.26951000  0.25355000  1.0
  Pr  Pr2  1  0.47175000  0.26953000  0.24645000  1.0
  Pr  Pr3  1  0.02825000  0.73050000  0.74645000  1.0
  H  H4  1  0.08785000  0.87429000  0.84781000  1.0
  H  H5  1  0.41217000  0.12569000  0.34780000  1.0
  H  H6  1  0.91216000  0.12568000  0.15219000  1.0
  H  H7  1  0.58785000  0.87431000  0.65219000  1.0
  H  H8  1  0.14957000  0.67870000  0.84669000  1.0
  H  H9  1  0.35045000  0.32128000  0.34669000  1.0
  H  H10  1  0.85045000  0.32128000  0.15331000  1.0
  H  H11  1  0.64957000  0.67871000  0.65331000  1.0
  H  H12  1  0.36958000  0.74275000  0.94956000  1.0
  H  H13  1  0.13042000  0.25725000  0.44956000  1.0
  H  H14  1  0.63042000  0.25725000  0.05044000  1.0
  H  H15  1  0.86959000  0.74275000  0.55044000  1.0
  H  H16  1  0.42135000  0.94391000  0.98369000  1.0
  H  H17  1  0.07864000  0.05609000  0.48369000  1.0
  H  H18  1  0.57864000  0.05609000  0.01631000  1.0
  H  H19  1  0.92136000  0.94391000  0.51631000  1.0
  H  H20  1  0.30295000  0.21967000  0.88824000  1.0
  H  H21  1  0.19705000  0.78033000  0.38824000  1.0
  H  H22  1  0.69705000  0.78033000  0.11176000  1.0
  H  H23  1  0.80295000  0.21968000  0.61176000  1.0
  H  H24  1  0.25444000  0.01853000  0.85393000  1.0
  H  H25  1  0.24557000  0.98146000  0.35392000  1.0
  H  H26  1  0.74558000  0.98146000  0.14607000  1.0
  H  H27  1  0.75444000  0.01854000  0.64607000  1.0
  H  H28  1  0.57150000  0.20129000  0.80855000  1.0
  H  H29  1  0.92850000  0.79872000  0.30855000  1.0
  H  H30  1  0.42850000  0.79872000  0.19145000  1.0
  H  H31  1  0.07150000  0.20129000  0.69145000  1.0
  H  H32  1  0.52899000  0.07906000  0.84006000  1.0
  H  H33  1  0.97097000  0.92095000  0.34006000  1.0
  H  H34  1  0.47101000  0.92094000  0.15994000  1.0
  H  H35  1  0.02903000  0.07905000  0.65994000  1.0
  H  H36  1  0.96982000  0.05214000  0.89900000  1.0
  H  H37  1  0.53017000  0.94784000  0.39899000  1.0
  H  H38  1  0.03018000  0.94785000  0.10101000  1.0
  H  H39  1  0.46982000  0.05216000  0.60100000  1.0
  H  H40  1  0.93949000  0.22409000  0.95076000  1.0
  H  H41  1  0.56052000  0.77590000  0.45076000  1.0
  H  H42  1  0.06050000  0.77591000  0.04924000  1.0
  H  H43  1  0.43950000  0.22410000  0.54923000  1.0
  H  H44  1  0.46701000  0.52226000  0.90519000  1.0
  H  H45  1  0.03300000  0.47773000  0.40518000  1.0
  H  H46  1  0.53299000  0.47773000  0.09481000  1.0
  H  H47  1  0.96703000  0.52228000  0.59481000  1.0
  H  H48  1  0.49768000  0.35311000  0.85371000  1.0
  H  H49  1  0.00232000  0.64689000  0.35370000  1.0
  H  H50  1  0.50233000  0.64688000  0.14629000  1.0
  H  H51  1  0.99769000  0.35313000  0.64629000  1.0
  H  H52  1  0.73117000  0.53955000  0.84102000  1.0
  H  H53  1  0.76882000  0.46041000  0.34103000  1.0
  H  H54  1  0.26882000  0.46045000  0.15898000  1.0
  H  H55  1  0.23116000  0.53958000  0.65898000  1.0
  H  H56  1  0.86810000  0.36338000  0.82615000  1.0
  H  H57  1  0.63191000  0.63660000  0.32616000  1.0
  H  H58  1  0.13189000  0.63662000  0.17384000  1.0
  H  H59  1  0.36809000  0.36340000  0.67385000  1.0
  H  H60  1  0.15745000  0.42125000  0.92091000  1.0
  H  H61  1  0.34254000  0.57874000  0.42092000  1.0
  H  H62  1  0.84254000  0.57875000  0.07908000  1.0
  H  H63  1  0.65744000  0.42126000  0.57908000  1.0
  H  H64  1  0.13003000  0.61000000  0.96858000  1.0
  H  H65  1  0.36994000  0.39000000  0.46859000  1.0
  H  H66  1  0.86996000  0.39000000  0.03142000  1.0
  H  H67  1  0.63004000  0.61000000  0.53142000  1.0
  H  H68  1  0.70221000  0.92005000  0.91146000  1.0
  H  H69  1  0.79776000  0.07993000  0.41147000  1.0
  H  H70  1  0.29778000  0.07994000  0.08853000  1.0
  H  H71  1  0.20222000  0.92006000  0.58854000  1.0
  H  H72  1  0.72684000  0.73338000  0.86414000  1.0
  H  H73  1  0.77315000  0.26660000  0.36415000  1.0
  H  H74  1  0.27315000  0.26662000  0.13585000  1.0
  H  H75  1  0.22684000  0.73339000  0.63586000  1.0
  H  H76  1  0.64530000  0.38400000  0.76830000  1.0
  H  H77  1  0.85471000  0.61598000  0.26830000  1.0
  H  H78  1  0.35471000  0.61599000  0.23170000  1.0
  H  H79  1  0.14529000  0.38401000  0.73170000  1.0
  H  H80  1  0.44981000  0.46489000  0.76123000  1.0
  H  H81  1  0.05019000  0.53510000  0.26123000  1.0
  H  H82  1  0.55020000  0.53511000  0.23877000  1.0
  H  H83  1  0.94981000  0.46492000  0.73877000  1.0
  C  C84  1  0.31712000  0.75887000  0.81795000  1.0
  C  C85  1  0.18288000  0.24113000  0.31795000  1.0
  C  C86  1  0.68289000  0.24112000  0.18205000  1.0
  C  C87  1  0.81713000  0.75888000  0.68205000  1.0
  C  C88  1  0.19908000  0.76958000  0.84964000  1.0
  C  C89  1  0.30093000  0.23041000  0.34963000  1.0
  C  C90  1  0.80093000  0.23041000  0.15037000  1.0
  C  C91  1  0.69908000  0.76959000  0.65037000  1.0
  C  C92  1  0.30872000  0.86700000  0.89975000  1.0
  C  C93  1  0.19128000  0.13300000  0.39975000  1.0
  C  C94  1  0.69128000  0.13300000  0.10025000  1.0
  C  C95  1  0.80872000  0.86701000  0.60025000  1.0
  C  C96  1  0.35612000  0.84721000  0.93626000  1.0
  C  C97  1  0.14388000  0.15279000  0.43626000  1.0
  C  C98  1  0.64388000  0.15279000  0.06374000  1.0
  C  C99  1  0.85612000  0.84721000  0.56374000  1.0
  C  C100  1  0.38524000  0.95999000  0.95532000  1.0
  C  C101  1  0.11476000  0.04001000  0.45531000  1.0
  C  C102  1  0.61476000  0.04001000  0.04469000  1.0
  C  C103  1  0.88524000  0.95999000  0.54468000  1.0
  C  C104  1  0.36600000  0.09397000  0.93798000  1.0
  C  C105  1  0.13400000  0.90602000  0.43797000  1.0
  C  C106  1  0.63400000  0.90603000  0.06203000  1.0
  C  C107  1  0.86600000  0.09398000  0.56203000  1.0
  C  C108  1  0.31959000  0.11468000  0.90160000  1.0
  C  C109  1  0.18042000  0.88532000  0.40160000  1.0
  C  C110  1  0.68042000  0.88532000  0.09840000  1.0
  C  C111  1  0.81959000  0.11469000  0.59840000  1.0
  C  C112  1  0.29169000  0.00048000  0.88228000  1.0
  C  C113  1  0.20831000  0.99951000  0.38228000  1.0
  C  C114  1  0.70832000  0.99951000  0.11772000  1.0
  C  C115  1  0.79169000  0.00049000  0.61772000  1.0
  C  C116  1  0.68173000  0.97160000  0.79472000  1.0
  C  C117  1  0.81826000  0.02840000  0.29471000  1.0
  C  C118  1  0.31826000  0.02841000  0.20528000  1.0
  C  C119  1  0.18174000  0.97161000  0.70529000  1.0
  C  C120  1  0.62948000  0.09432000  0.82301000  1.0
  C  C121  1  0.87050000  0.90568000  0.32301000  1.0
  C  C122  1  0.37052000  0.90568000  0.17699000  1.0
  C  C123  1  0.12949000  0.09433000  0.67699000  1.0
  C  C124  1  0.73810000  0.19123000  0.87283000  1.0
  C  C125  1  0.76189000  0.80876000  0.37283000  1.0
  C  C126  1  0.26191000  0.80877000  0.12717000  1.0
  C  C127  1  0.23811000  0.19125000  0.62717000  1.0
  C  C128  1  0.86097000  0.15602000  0.90033000  1.0
  C  C129  1  0.63903000  0.84396000  0.40033000  1.0
  C  C130  1  0.13903000  0.84397000  0.09967000  1.0
  C  C131  1  0.36098000  0.15604000  0.59967000  1.0
  C  C132  1  0.84404000  0.25223000  0.92932000  1.0
  C  C133  1  0.65596000  0.74777000  0.42932000  1.0
  C  C134  1  0.15596000  0.74777000  0.07068000  1.0
  C  C135  1  0.34405000  0.25223000  0.57068000  1.0
  C  C136  1  0.70215000  0.38399000  0.93087000  1.0
  C  C137  1  0.79787000  0.61601000  0.43087000  1.0
  C  C138  1  0.29785000  0.61601000  0.06913000  1.0
  C  C139  1  0.20215000  0.38400000  0.56912000  1.0
  C  C140  1  0.57776000  0.41965000  0.90390000  1.0
  C  C141  1  0.92224000  0.58034000  0.40390000  1.0
  C  C142  1  0.42224000  0.58034000  0.09610000  1.0
  C  C143  1  0.07778000  0.41968000  0.59610000  1.0
  C  C144  1  0.59519000  0.32278000  0.87475000  1.0
  C  C145  1  0.90481000  0.67721000  0.37475000  1.0
  C  C146  1  0.40482000  0.67722000  0.12525000  1.0
  C  C147  1  0.09520000  0.32280000  0.62525000  1.0
  C  C148  1  0.92281000  0.54260000  0.80265000  1.0
  C  C149  1  0.57718000  0.45741000  0.30265000  1.0
  C  C150  1  0.07718000  0.45742000  0.19735000  1.0
  C  C151  1  0.42281000  0.54260000  0.69736000  1.0
  C  C152  1  0.86551000  0.47383000  0.83473000  1.0
  C  C153  1  0.63448000  0.52614000  0.33473000  1.0
  C  C154  1  0.13448000  0.52616000  0.16527000  1.0
  C  C155  1  0.36551000  0.47385000  0.66527000  1.0
  C  C156  1  0.94734000  0.56453000  0.88924000  1.0
  C  C157  1  0.55266000  0.43546000  0.38925000  1.0
  C  C158  1  0.05265000  0.43547000  0.11075000  1.0
  C  C159  1  0.44734000  0.56453000  0.61076000  1.0
  C  C160  1  0.05936000  0.53130000  0.91875000  1.0
  C  C161  1  0.44063000  0.46869000  0.41875000  1.0
  C  C162  1  0.94063000  0.46870000  0.08125000  1.0
  C  C163  1  0.55936000  0.53130000  0.58125000  1.0
  C  C164  1  0.04394000  0.63671000  0.94541000  1.0
  C  C165  1  0.45605000  0.36327000  0.44542000  1.0
  C  C166  1  0.95606000  0.36328000  0.05459000  1.0
  C  C167  1  0.54393000  0.63672000  0.55459000  1.0
  C  C168  1  0.91542000  0.77675000  0.94250000  1.0
  C  C169  1  0.58455000  0.22324000  0.44251000  1.0
  C  C170  1  0.08457000  0.22325000  0.05750000  1.0
  C  C171  1  0.41542000  0.77675000  0.55750000  1.0
  C  C172  1  0.80306000  0.81108000  0.91325000  1.0
  C  C173  1  0.69692000  0.18890000  0.41326000  1.0
  C  C174  1  0.19694000  0.18892000  0.08675000  1.0
  C  C175  1  0.30306000  0.81109000  0.58675000  1.0
  C  C176  1  0.81851000  0.70475000  0.88634000  1.0
  C  C177  1  0.68149000  0.29523000  0.38635000  1.0
  C  C178  1  0.18149000  0.29525000  0.11366000  1.0
  C  C179  1  0.31851000  0.70476000  0.61366000  1.0
  Cl  Cl180  1  0.39929000  0.23512000  0.96240000  1.0
  Cl  Cl181  1  0.10071000  0.76488000  0.46240000  1.0
  Cl  Cl182  1  0.60071000  0.76488000  0.03760000  1.0
  Cl  Cl183  1  0.89929000  0.23512000  0.53759000  1.0
  Cl  Cl184  1  0.67952000  0.50294000  0.96735000  1.0
  Cl  Cl185  1  0.82050000  0.49705000  0.46736000  1.0
  Cl  Cl186  1  0.32047000  0.49705000  0.03265000  1.0
  Cl  Cl187  1  0.17954000  0.50295000  0.53264000  1.0
  Cl  Cl188  1  0.89603000  0.90768000  0.97603000  1.0
  Cl  Cl189  1  0.60393000  0.09231000  0.47604000  1.0
  Cl  Cl190  1  0.10395000  0.09232000  0.02396000  1.0
  Cl  Cl191  1  0.39604000  0.90768000  0.52397000  1.0
  O  O192  1  0.24920000  0.77291000  0.78580000  1.0
  O  O193  1  0.25079000  0.22711000  0.28580000  1.0
  O  O194  1  0.75080000  0.22710000  0.21420000  1.0
  O  O195  1  0.74921000  0.77290000  0.71420000  1.0
  O  O196  1  0.47375000  0.73556000  0.82168000  1.0
  O  O197  1  0.02628000  0.26441000  0.32168000  1.0
  O  O198  1  0.52626000  0.26442000  0.17832000  1.0
  O  O199  1  0.97373000  0.73560000  0.67832000  1.0
  O  O200  1  0.28020000  0.74915000  0.88382000  1.0
  O  O201  1  0.21983000  0.25084000  0.38381000  1.0
  O  O202  1  0.71982000  0.25084000  0.11618000  1.0
  O  O203  1  0.78019000  0.74916000  0.61618000  1.0
  O  O204  1  0.55821000  0.95210000  0.77812000  1.0
  O  O205  1  0.94175000  0.04790000  0.27811000  1.0
  O  O206  1  0.44179000  0.04790000  0.22188000  1.0
  O  O207  1  0.05825000  0.95211000  0.72189000  1.0
  O  O208  1  0.83867000  0.89853000  0.78908000  1.0
  O  O209  1  0.66129000  0.10149000  0.28908000  1.0
  O  O210  1  0.16133000  0.10148000  0.21092000  1.0
  O  O211  1  0.33871000  0.89854000  0.71092000  1.0
  O  O212  1  0.77164000  0.09127000  0.84435000  1.0
  O  O213  1  0.72835000  0.90872000  0.34434000  1.0
  O  O214  1  0.22837000  0.90873000  0.15565000  1.0
  O  O215  1  0.27165000  0.09128000  0.65565000  1.0
  O  O216  1  0.81817000  0.58118000  0.77524000  1.0
  O  O217  1  0.68181000  0.41882000  0.27524000  1.0
  O  O218  1  0.18182000  0.41883000  0.22476000  1.0
  O  O219  1  0.31818000  0.58121000  0.72477000  1.0
  O  O220  1  0.06629000  0.55637000  0.80134000  1.0
  O  O221  1  0.43367000  0.44366000  0.30134000  1.0
  O  O222  1  0.93370000  0.44364000  0.19865000  1.0
  O  O223  1  0.56633000  0.55636000  0.69866000  1.0
  O  O224  1  0.97486000  0.44925000  0.86491000  1.0
  O  O225  1  0.52514000  0.55073000  0.36492000  1.0
  O  O226  1  0.02514000  0.55075000  0.13508000  1.0
  O  O227  1  0.47484000  0.44927000  0.63509000  1.0
  O  O228  1  0.54342000  0.46031000  0.77791000  1.0
  O  O229  1  0.95658000  0.53967000  0.27791000  1.0
  O  O230  1  0.45659000  0.53968000  0.22209000  1.0
  O  O231  1  0.04343000  0.46033000  0.72209000  1.0
