# generated using pymatgen
data_ZnH6C8O5
_symmetry_space_group_name_H-M   'P 1'
_cell_length_a   6.50752000
_cell_length_b   12.61210000
_cell_length_c   15.55100000
_cell_angle_alpha   90.00000000
_cell_angle_beta   90.00010000
_cell_angle_gamma   104.11300000
_symmetry_Int_Tables_number   1
_chemical_formula_structural   ZnH6C8O5
_chemical_formula_sum   'Zn4 H24 C32 O20'
_cell_volume   1237.80121268
_cell_formula_units_Z   4
loop_
 _symmetry_equiv_pos_site_id
 _symmetry_equiv_pos_as_xyz
  1  'x, y, z'
loop_
 _atom_site_type_symbol
 _atom_site_label
 _atom_site_symmetry_multiplicity
 _atom_site_fract_x
 _atom_site_fract_y
 _atom_site_fract_z
 _atom_site_occupancy
  Zn  Zn0  1  0.20259000  0.57203000  0.50498000  1.0
  Zn  Zn1  1  0.29741000  0.92797000  0.00497000  1.0
  Zn  Zn2  1  0.79741000  0.42797000  0.49502000  1.0
  Zn  Zn3  1  0.70259000  0.07203000  0.99502000  1.0
  H  H4  1  0.85955000  0.16854000  0.68716000  1.0
  H  H5  1  0.64044000  0.33146000  0.18716000  1.0
  H  H6  1  0.14045000  0.83147000  0.31284000  1.0
  H  H7  1  0.35957000  0.66852000  0.81285000  1.0
  H  H8  1  0.98558000  0.06026000  0.80192000  1.0
  H  H9  1  0.51441000  0.43973000  0.30193000  1.0
  H  H10  1  0.01442000  0.93974000  0.19808000  1.0
  H  H11  1  0.48559000  0.56025000  0.69808000  1.0
  H  H12  1  0.61103000  0.27245000  0.78434000  1.0
  H  H13  1  0.88897000  0.22754000  0.28435000  1.0
  H  H14  1  0.38897000  0.72755000  0.21565000  1.0
  H  H15  1  0.11103000  0.77246000  0.71565000  1.0
  H  H16  1  0.48540000  0.38295000  0.67199000  1.0
  H  H17  1  0.01460000  0.11704000  0.17200000  1.0
  H  H18  1  0.51460000  0.61705000  0.32800000  1.0
  H  H19  1  0.98540000  0.88295000  0.82800000  1.0
  H  H20  1  0.50634000  0.73195000  0.47342000  1.0
  H  H21  1  0.99366000  0.76805000  0.97342000  1.0
  H  H22  1  0.49365000  0.26805000  0.52657000  1.0
  H  H23  1  0.00634000  0.23195000  0.02657000  1.0
  H  H24  1  0.60173000  0.62861000  0.47901000  1.0
  H  H25  1  0.89827000  0.87139000  0.97901000  1.0
  H  H26  1  0.39827000  0.37139000  0.52098000  1.0
  H  H27  1  0.10173000  0.12861000  0.02099000  1.0
  C  C28  1  0.02388000  0.19040000  0.70858000  1.0
  C  C29  1  0.47611000  0.30960000  0.20858000  1.0
  C  C30  1  0.97610000  0.80961000  0.29142000  1.0
  C  C31  1  0.52390000  0.69039000  0.79142000  1.0
  C  C32  1  0.09442000  0.12978000  0.77184000  1.0
  C  C33  1  0.40558000  0.37022000  0.27185000  1.0
  C  C34  1  0.90558000  0.87023000  0.22815000  1.0
  C  C35  1  0.59443000  0.62977000  0.72816000  1.0
  C  C36  1  0.30654000  0.15936000  0.79905000  1.0
  C  C37  1  0.19345000  0.34065000  0.29906000  1.0
  C  C38  1  0.69345000  0.84065000  0.20095000  1.0
  C  C39  1  0.80656000  0.65935000  0.70095000  1.0
  C  C40  1  0.08814000  0.34892000  0.60558000  1.0
  C  C41  1  0.41186000  0.15108000  0.10558000  1.0
  C  C42  1  0.91184000  0.65107000  0.39442000  1.0
  C  C43  1  0.58816000  0.84892000  0.89442000  1.0
  C  C44  1  0.38044000  0.09642000  0.86922000  1.0
  C  C45  1  0.11955000  0.40358000  0.36922000  1.0
  C  C46  1  0.61956000  0.90359000  0.13078000  1.0
  C  C47  1  0.88044000  0.59641000  0.63078000  1.0
  C  C48  1  0.16420000  0.28186000  0.67224000  1.0
  C  C49  1  0.33580000  0.21814000  0.17224000  1.0
  C  C50  1  0.83580000  0.71814000  0.32776000  1.0
  C  C51  1  0.66420000  0.78186000  0.82776000  1.0
  C  C52  1  0.44721000  0.25008000  0.76230000  1.0
  C  C53  1  0.05278000  0.24991000  0.26231000  1.0
  C  C54  1  0.55279000  0.74992000  0.23769000  1.0
  C  C55  1  0.94722000  0.75008000  0.73769000  1.0
  C  C56  1  0.37649000  0.31140000  0.69955000  1.0
  C  C57  1  0.12350000  0.18860000  0.19956000  1.0
  C  C58  1  0.62350000  0.68860000  0.30044000  1.0
  C  C59  1  0.87650000  0.81140000  0.80044000  1.0
  O  O60  1  0.22940000  0.42915000  0.57279000  1.0
  O  O61  1  0.27060000  0.07086000  0.07278000  1.0
  O  O62  1  0.77060000  0.57085000  0.42721000  1.0
  O  O63  1  0.72939000  0.92915000  0.92720000  1.0
  O  O64  1  0.89491000  0.32414000  0.58409000  1.0
  O  O65  1  0.60509000  0.17586000  0.08410000  1.0
  O  O66  1  0.10510000  0.67587000  0.41591000  1.0
  O  O67  1  0.39491000  0.82413000  0.91592000  1.0
  O  O68  1  0.57205000  0.13042000  0.89464000  1.0
  O  O69  1  0.92794000  0.36958000  0.39464000  1.0
  O  O70  1  0.42792000  0.86959000  0.10537000  1.0
  O  O71  1  0.07208000  0.63042000  0.60537000  1.0
  O  O72  1  0.50486000  0.66810000  0.50894000  1.0
  O  O73  1  0.99514000  0.83191000  0.00894000  1.0
  O  O74  1  0.49513000  0.33191000  0.49106000  1.0
  O  O75  1  0.00486000  0.16809000  0.99106000  1.0
  O  O76  1  0.24636000  0.01394000  0.89926000  1.0
  O  O77  1  0.25364000  0.48606000  0.39926000  1.0
  O  O78  1  0.75364000  0.98606000  0.10073000  1.0
  O  O79  1  0.74637000  0.51395000  0.60074000  1.0
