# generated using pymatgen
data_AgH8C10(NO)3
_symmetry_space_group_name_H-M   'P 1'
_cell_length_a   6.90112000
_cell_length_b   8.66511000
_cell_length_c   17.68330000
_cell_angle_alpha   100.35900000
_cell_angle_beta   89.99980000
_cell_angle_gamma   89.99990000
_symmetry_Int_Tables_number   1
_chemical_formula_structural   AgH8C10(NO)3
_chemical_formula_sum   'Ag4 H32 C40 N12 O12'
_cell_volume   1040.20711603
_cell_formula_units_Z   4
loop_
 _symmetry_equiv_pos_site_id
 _symmetry_equiv_pos_as_xyz
  1  'x, y, z'
loop_
 _atom_site_type_symbol
 _atom_site_label
 _atom_site_symmetry_multiplicity
 _atom_site_fract_x
 _atom_site_fract_y
 _atom_site_fract_z
 _atom_site_occupancy
  Ag  Ag0  1  0.03216000  0.12696000  0.30823000  1.0
  Ag  Ag1  1  0.53217000  0.37304000  0.19177000  1.0
  Ag  Ag2  1  0.96784000  0.87304000  0.69177000  1.0
  Ag  Ag3  1  0.46783000  0.62695000  0.80823000  1.0
  H  H4  1  0.25173000  0.66062000  0.44667000  1.0
  H  H5  1  0.75173000  0.83938000  0.05333000  1.0
  H  H6  1  0.74826000  0.33938000  0.55333000  1.0
  H  H7  1  0.24827000  0.16062000  0.94667000  1.0
  H  H8  1  0.13962000  0.43738000  0.34714000  1.0
  H  H9  1  0.63962000  0.06263000  0.15286000  1.0
  H  H10  1  0.86038000  0.56263000  0.65286000  1.0
  H  H11  1  0.36038000  0.93737000  0.84714000  1.0
  H  H12  1  0.97198000  0.49332000  0.22953000  1.0
  H  H13  1  0.47198000  0.00668000  0.27047000  1.0
  H  H14  1  0.02802000  0.50669000  0.77047000  1.0
  H  H15  1  0.52802000  0.99331000  0.72953000  1.0
  H  H16  1  0.93199000  0.77601000  0.21508000  1.0
  H  H17  1  0.43198000  0.72399000  0.28492000  1.0
  H  H18  1  0.06802000  0.22400000  0.78492000  1.0
  H  H19  1  0.56801000  0.27600000  0.71508000  1.0
  H  H20  1  0.23715000  0.85147000  0.53612000  1.0
  H  H21  1  0.73715000  0.64853000  0.96388000  1.0
  H  H22  1  0.76285000  0.14853000  0.46388000  1.0
  H  H23  1  0.26285000  0.35147000  0.03612000  1.0
  H  H24  1  0.34242000  0.08810000  0.62714000  1.0
  H  H25  1  0.84241000  0.41191000  0.87286000  1.0
  H  H26  1  0.65758000  0.91190000  0.37286000  1.0
  H  H27  1  0.15758000  0.58810000  0.12714000  1.0
  H  H28  1  0.37235000  0.34607000  0.57984000  1.0
  H  H29  1  0.87235000  0.15393000  0.92016000  1.0
  H  H30  1  0.62765000  0.65393000  0.42017000  1.0
  H  H31  1  0.12765000  0.84607000  0.07984000  1.0
  H  H32  1  0.29006000  0.35116000  0.44341000  1.0
  H  H33  1  0.79005000  0.14884000  0.05658000  1.0
  H  H34  1  0.70995000  0.64884000  0.55659000  1.0
  H  H35  1  0.20995000  0.85115000  0.94341000  1.0
  C  C36  1  0.14728000  0.83697000  0.38353000  1.0
  C  C37  1  0.64728000  0.66303000  0.11647000  1.0
  C  C38  1  0.85272000  0.16303000  0.61647000  1.0
  C  C39  1  0.35272000  0.33697000  0.88353000  1.0
  C  C40  1  0.17828000  0.68298000  0.39526000  1.0
  C  C41  1  0.67828000  0.81702000  0.10474000  1.0
  C  C42  1  0.82172000  0.31702000  0.60475000  1.0
  C  C43  1  0.32172000  0.18298000  0.89526000  1.0
  C  C44  1  0.11587000  0.55810000  0.33969000  1.0
  C  C45  1  0.61588000  0.94190000  0.16031000  1.0
  C  C46  1  0.88413000  0.44190000  0.66031000  1.0
  C  C47  1  0.38413000  0.05810000  0.83970000  1.0
  C  C48  1  0.02434000  0.58856000  0.27363000  1.0
  C  C49  1  0.52434000  0.91144000  0.22637000  1.0
  C  C50  1  0.97566000  0.41144000  0.72637000  1.0
  C  C51  1  0.47566000  0.08856000  0.77363000  1.0
  C  C52  1  0.00063000  0.74460000  0.26576000  1.0
  C  C53  1  0.50063000  0.75541000  0.23424000  1.0
  C  C54  1  0.99937000  0.25541000  0.73424000  1.0
  C  C55  1  0.49937000  0.24459000  0.76576000  1.0
  C  C56  1  0.20984000  0.97562000  0.44046000  1.0
  C  C57  1  0.70983000  0.52438000  0.05953000  1.0
  C  C58  1  0.79016000  0.02438000  0.55954000  1.0
  C  C59  1  0.29016000  0.47562000  0.94046000  1.0
  C  C60  1  0.25283000  0.96299000  0.51651000  1.0
  C  C61  1  0.75283000  0.53701000  0.98349000  1.0
  C  C62  1  0.74717000  0.03701000  0.48349000  1.0
  C  C63  1  0.24717000  0.46299000  0.01651000  1.0
  C  C64  1  0.31119000  0.09607000  0.56761000  1.0
  C  C65  1  0.81119000  0.40394000  0.93238000  1.0
  C  C66  1  0.68881000  0.90393000  0.43239000  1.0
  C  C67  1  0.18881000  0.59606000  0.06761000  1.0
  C  C68  1  0.32639000  0.23870000  0.54211000  1.0
  C  C69  1  0.82639000  0.26130000  0.95789000  1.0
  C  C70  1  0.67361000  0.76130000  0.45789000  1.0
  C  C71  1  0.17361000  0.73870000  0.04211000  1.0
  C  C72  1  0.27952000  0.24213000  0.46581000  1.0
  C  C73  1  0.77952000  0.25787000  0.03419000  1.0
  C  C74  1  0.72048000  0.75787000  0.53420000  1.0
  C  C75  1  0.22048000  0.74213000  0.96581000  1.0
  N  N76  1  0.69187000  0.35694000  0.35083000  1.0
  N  N77  1  0.19187000  0.14305000  0.14917000  1.0
  N  N78  1  0.30813000  0.64305000  0.64917000  1.0
  N  N79  1  0.80813000  0.85695000  0.85083000  1.0
  N  N80  1  0.05963000  0.86533000  0.31911000  1.0
  N  N81  1  0.55963000  0.63467000  0.18089000  1.0
  N  N82  1  0.94037000  0.13468000  0.68090000  1.0
  N  N83  1  0.44037000  0.36532000  0.81911000  1.0
  N  N84  1  0.22168000  0.11464000  0.41600000  1.0
  N  N85  1  0.72168000  0.38536000  0.08400000  1.0
  N  N86  1  0.77832000  0.88536000  0.58400000  1.0
  N  N87  1  0.27832000  0.61464000  0.91600000  1.0
  O  O88  1  0.76162000  0.26983000  0.28939000  1.0
  O  O89  1  0.26162000  0.23017000  0.21061000  1.0
  O  O90  1  0.23838000  0.73017000  0.71061000  1.0
  O  O91  1  0.73838000  0.76983000  0.78939000  1.0
  O  O92  1  0.54149000  0.43624000  0.34365000  1.0
  O  O93  1  0.04149000  0.06376000  0.15636000  1.0
  O  O94  1  0.45851000  0.56376000  0.65635000  1.0
  O  O95  1  0.95851000  0.93624000  0.84365000  1.0
  O  O96  1  0.77419000  0.36145000  0.41434000  1.0
  O  O97  1  0.27420000  0.13853000  0.08566000  1.0
  O  O98  1  0.22581000  0.63854000  0.58566000  1.0
  O  O99  1  0.72580000  0.86147000  0.91434000  1.0
