# generated using pymatgen
data_ZnH20C26(NO)4
_symmetry_space_group_name_H-M   'P 1'
_cell_length_a   9.62211000
_cell_length_b   10.45480000
_cell_length_c   13.55730000
_cell_angle_alpha   70.78020000
_cell_angle_beta   81.26780000
_cell_angle_gamma   71.33010000
_symmetry_Int_Tables_number   1
_chemical_formula_structural   ZnH20C26(NO)4
_chemical_formula_sum   'Zn2 H40 C52 N8 O8'
_cell_volume   1218.39953980
_cell_formula_units_Z   2
loop_
 _symmetry_equiv_pos_site_id
 _symmetry_equiv_pos_as_xyz
  1  'x, y, z'
loop_
 _atom_site_type_symbol
 _atom_site_label
 _atom_site_symmetry_multiplicity
 _atom_site_fract_x
 _atom_site_fract_y
 _atom_site_fract_z
 _atom_site_occupancy
  Zn  Zn0  1  0.49193000  0.16260000  0.71718000  1.0
  Zn  Zn1  1  0.50807000  0.83740000  0.28282000  1.0
  H  H2  1  0.47910000  0.69483000  0.07244000  1.0
  H  H3  1  0.52090000  0.30518000  0.92756000  1.0
  H  H4  1  0.81203000  0.59247000  0.33685000  1.0
  H  H5  1  0.18797000  0.40753000  0.66315000  1.0
  H  H6  1  0.16236000  0.82891000  0.74060000  1.0
  H  H7  1  0.83764000  0.17109000  0.25940000  1.0
  H  H8  1  0.31318000  0.81736000  0.64779000  1.0
  H  H9  1  0.68682000  0.18264000  0.35221000  1.0
  H  H10  1  0.20453000  0.69891000  0.67474000  1.0
  H  H11  1  0.79547000  0.30109000  0.32525000  1.0
  H  H12  1  0.67146000  0.43563000  0.45657000  1.0
  H  H13  1  0.32854000  0.56437000  0.54343000  1.0
  H  H14  1  0.30604000  0.16733000  0.37222000  1.0
  H  H15  1  0.69398000  0.83267000  0.62778000  1.0
  H  H16  1  0.80949000  0.93162000  0.75837000  1.0
  H  H17  1  0.19051000  0.06838000  0.24163000  1.0
  H  H18  1  0.24782000  0.48000000  0.86271000  1.0
  H  H19  1  0.75218000  0.52000000  0.13729000  1.0
  H  H20  1  0.01414000  0.16792000  0.96508000  1.0
  H  H21  1  0.98586000  0.83208000  0.03492000  1.0
  H  H22  1  0.83407000  0.30878000  0.07198000  1.0
  H  H23  1  0.16593000  0.69121000  0.92802000  1.0
  H  H24  1  0.82562000  0.64568000  0.85675000  1.0
  H  H25  1  0.17438000  0.35432000  0.14325000  1.0
  H  H26  1  0.02787000  0.23492000  0.39764000  1.0
  H  H27  1  0.97214000  0.76508000  0.60236000  1.0
  H  H28  1  0.38469000  0.90270000  0.87144000  1.0
  H  H29  1  0.61531000  0.09730000  0.12856000  1.0
  H  H30  1  0.74383000  0.47178000  0.78224000  1.0
  H  H31  1  0.25617000  0.52821000  0.21776000  1.0
  H  H32  1  0.59336000  0.62102000  0.73358000  1.0
  H  H33  1  0.40664000  0.37897000  0.26641000  1.0
  H  H34  1  0.58156000  0.44685000  0.75631000  1.0
  H  H35  1  0.41844000  0.55315000  0.24370000  1.0
  H  H36  1  0.49159000  0.24399000  0.46963000  1.0
  H  H37  1  0.50842000  0.75600000  0.53037000  1.0
  H  H38  1  0.97959000  0.30080000  0.69466000  1.0
  H  H39  1  0.02041000  0.69921000  0.30533000  1.0
  H  H40  1  0.21194000  0.05624000  0.70049000  1.0
  H  H41  1  0.78806000  0.94376000  0.29950000  1.0
  C  C42  1  0.48482000  0.60980000  0.04073000  1.0
  C  C43  1  0.51518000  0.39020000  0.95927000  1.0
  C  C44  1  0.84927000  0.52918000  0.41485000  1.0
  C  C45  1  0.15072000  0.47082000  0.58515000  1.0
  C  C46  1  0.20098000  0.80827000  0.66505000  1.0
  C  C47  1  0.79903000  0.19173000  0.33495000  1.0
  C  C48  1  0.09950000  0.90875000  0.58041000  1.0
  C  C49  1  0.90050000  0.09125000  0.41959000  1.0
  C  C50  1  0.77177000  0.44132000  0.48060000  1.0
  C  C51  1  0.22822000  0.55869000  0.51940000  1.0
  C  C52  1  0.25102000  0.22818000  0.84884000  1.0
  C  C53  1  0.74897000  0.77182000  0.15116000  1.0
  C  C54  1  0.31597000  0.15632000  0.45334000  1.0
  C  C55  1  0.68404000  0.84368000  0.54666000  1.0
  C  C56  1  0.14200000  0.31641000  0.90950000  1.0
  C  C57  1  0.85799000  0.68358000  0.09050000  1.0
  C  C58  1  0.72468000  0.88050000  0.79425000  1.0
  C  C59  1  0.27532000  0.11950000  0.20575000  1.0
  C  C60  1  0.15711000  0.44387000  0.90910000  1.0
  C  C61  1  0.84288000  0.55612000  0.09091000  1.0
  C  C62  1  0.82025000  0.35705000  0.58194000  1.0
  C  C63  1  0.17975000  0.64295000  0.41806000  1.0
  C  C64  1  0.02388000  0.26756000  0.96817000  1.0
  C  C65  1  0.97611000  0.73244000  0.03184000  1.0
  C  C66  1  0.92580000  0.34508000  0.02713000  1.0
  C  C67  1  0.07419000  0.65491000  0.97287000  1.0
  C  C68  1  0.73361000  0.74062000  0.84259000  1.0
  C  C69  1  0.26639000  0.25938000  0.15741000  1.0
  C  C70  1  0.01620000  0.13024000  0.44062000  1.0
  C  C71  1  0.98381000  0.86976000  0.55937000  1.0
  C  C72  1  0.73747000  0.25892000  0.65282000  1.0
  C  C73  1  0.26254000  0.74108000  0.34719000  1.0
  C  C74  1  0.50217000  0.87172000  0.85287000  1.0
  C  C75  1  0.49783000  0.12829000  0.14713000  1.0
  C  C76  1  0.62320000  0.51225000  0.78628000  1.0
  C  C77  1  0.37679000  0.48775000  0.21372000  1.0
  C  C78  1  0.54619000  0.61475000  0.93987000  1.0
  C  C79  1  0.45381000  0.38525000  0.06013000  1.0
  C  C80  1  0.97629000  0.54129000  0.44821000  1.0
  C  C81  1  0.02371000  0.45872000  0.55178000  1.0
  C  C82  1  0.11345000  0.04203000  0.51848000  1.0
  C  C83  1  0.88656000  0.95797000  0.48152000  1.0
  C  C84  1  0.40703000  0.19157000  0.50185000  1.0
  C  C85  1  0.59298000  0.80843000  0.49815000  1.0
  C  C86  1  0.94393000  0.36633000  0.61642000  1.0
  C  C87  1  0.05607000  0.63368000  0.38357000  1.0
  C  C88  1  0.26722000  0.09153000  0.62519000  1.0
  C  C89  1  0.73278000  0.90847000  0.37481000  1.0
  C  C90  1  0.05886000  0.52557000  0.96938000  1.0
  C  C91  1  0.94113000  0.47443000  0.03062000  1.0
  C  C92  1  0.56270000  0.50585000  0.89605000  1.0
  C  C93  1  0.43729000  0.49416000  0.10395000  1.0
  N  N94  1  0.57983000  0.96038000  0.80035000  1.0
  N  N95  1  0.42017000  0.03962000  0.19965000  1.0
  N  N96  1  0.59199000  0.73671000  0.87994000  1.0
  N  N97  1  0.40801000  0.26329000  0.12006000  1.0
  N  N98  1  0.22832000  0.09184000  0.53265000  1.0
  N  N99  1  0.77168000  0.90816000  0.46735000  1.0
  N  N100  1  0.37558000  0.15032000  0.60849000  1.0
  N  N101  1  0.62442000  0.84968000  0.39151000  1.0
  O  O102  1  0.78583000  0.17565000  0.73831000  1.0
  O  O103  1  0.21418000  0.82435000  0.26169000  1.0
  O  O104  1  0.36236000  0.27517000  0.80477000  1.0
  O  O105  1  0.63763000  0.72483000  0.19523000  1.0
  O  O106  1  0.23064000  0.11855000  0.84279000  1.0
  O  O107  1  0.76935000  0.88144000  0.15722000  1.0
  O  O108  1  0.61318000  0.27095000  0.61781000  1.0
  O  O109  1  0.38682000  0.72905000  0.38220000  1.0
