# generated using pymatgen
data_ZnP2H8(CO2)3
_symmetry_space_group_name_H-M   'P 1'
_cell_length_a   5.06680000
_cell_length_b   8.46430000
_cell_length_c   18.15810000
_cell_angle_alpha   92.82320000
_cell_angle_beta   89.99990000
_cell_angle_gamma   89.99920000
_symmetry_Int_Tables_number   1
_chemical_formula_structural   ZnP2H8(CO2)3
_chemical_formula_sum   'Zn4 P8 H32 C12 O24'
_cell_volume   777.79971370
_cell_formula_units_Z   4
loop_
 _symmetry_equiv_pos_site_id
 _symmetry_equiv_pos_as_xyz
  1  'x, y, z'
loop_
 _atom_site_type_symbol
 _atom_site_label
 _atom_site_symmetry_multiplicity
 _atom_site_fract_x
 _atom_site_fract_y
 _atom_site_fract_z
 _atom_site_occupancy
  Zn  Zn0  1  0.45141000  0.55943000  0.18868000  1.0
  Zn  Zn1  1  0.95141000  0.94056000  0.31132000  1.0
  Zn  Zn2  1  0.54858000  0.44056000  0.81133000  1.0
  Zn  Zn3  1  0.04859000  0.05944000  0.68867000  1.0
  P  P4  1  0.57769000  0.86945000  0.62499000  1.0
  P  P5  1  0.07767000  0.63054000  0.87500000  1.0
  P  P6  1  0.42231000  0.13056000  0.37501000  1.0
  P  P7  1  0.92233000  0.36943000  0.12499000  1.0
  P  P8  1  0.75493000  0.58944000  0.34296000  1.0
  P  P9  1  0.25494000  0.91056000  0.15704000  1.0
  P  P10  1  0.24509000  0.41057000  0.65704000  1.0
  P  P11  1  0.74507000  0.08944000  0.84296000  1.0
  H  H12  1  0.05122000  0.39510000  0.36293000  1.0
  H  H13  1  0.55121000  0.10490000  0.13708000  1.0
  H  H14  1  0.94880000  0.60491000  0.63708000  1.0
  H  H15  1  0.44880000  0.89510000  0.86293000  1.0
  H  H16  1  0.57352000  0.64369000  0.68646000  1.0
  H  H17  1  0.07352000  0.85630000  0.81354000  1.0
  H  H18  1  0.42649000  0.35631000  0.31354000  1.0
  H  H19  1  0.92647000  0.14369000  0.18647000  1.0
  H  H20  1  0.41877000  0.76566000  0.38426000  1.0
  H  H21  1  0.91874000  0.73435000  0.11574000  1.0
  H  H22  1  0.58122000  0.23433000  0.61574000  1.0
  H  H23  1  0.08125000  0.26566000  0.88426000  1.0
  H  H24  1  0.38780000  0.58035000  0.42264000  1.0
  H  H25  1  0.88777000  0.91967000  0.07737000  1.0
  H  H26  1  0.61223000  0.41965000  0.57736000  1.0
  H  H27  1  0.11223000  0.08034000  0.92264000  1.0
  H  H28  1  0.33953000  0.90221000  0.51346000  1.0
  H  H29  1  0.83949000  0.59780000  0.98654000  1.0
  H  H30  1  0.66047000  0.09780000  0.48654000  1.0
  H  H31  1  0.16047000  0.40220000  0.01346000  1.0
  H  H32  1  0.29869000  0.71177000  0.54680000  1.0
  H  H33  1  0.79868000  0.78824000  0.95320000  1.0
  H  H34  1  0.70130000  0.28824000  0.45320000  1.0
  H  H35  1  0.20130000  0.21175000  0.04679000  1.0
  H  H36  1  0.80210000  0.83228000  0.47150000  1.0
  H  H37  1  0.30205000  0.66772000  0.02850000  1.0
  H  H38  1  0.19790000  0.16772000  0.52851000  1.0
  H  H39  1  0.69792000  0.33228000  0.97149000  1.0
  H  H40  1  0.77151000  0.64418000  0.50751000  1.0
  H  H41  1  0.27149000  0.85583000  0.99248000  1.0
  H  H42  1  0.22849000  0.35582000  0.49249000  1.0
  H  H43  1  0.72848000  0.14418000  0.00751000  1.0
  C  C44  1  0.53139000  0.67335000  0.41102000  1.0
  C  C45  1  0.03137000  0.82667000  0.08897000  1.0
  C  C46  1  0.46861000  0.32665000  0.58898000  1.0
  C  C47  1  0.96862000  0.17334000  0.91103000  1.0
  C  C48  1  0.44686000  0.80304000  0.53654000  1.0
  C  C49  1  0.94683000  0.69698000  0.96346000  1.0
  C  C50  1  0.55314000  0.19696000  0.46346000  1.0
  C  C51  1  0.05314000  0.30303000  0.03654000  1.0
  C  C52  1  0.65863000  0.73873000  0.48261000  1.0
  C  C53  1  0.15862000  0.76126000  0.01739000  1.0
  C  C54  1  0.34137000  0.26127000  0.51739000  1.0
  C  C55  1  0.84137000  0.23873000  0.98261000  1.0
  O  O56  1  0.59139000  0.49330000  0.28434000  1.0
  O  O57  1  0.09140000  0.00670000  0.21566000  1.0
  O  O58  1  0.40863000  0.50671000  0.71567000  1.0
  O  O59  1  0.90861000  0.99330000  0.78433000  1.0
  O  O60  1  0.92077000  0.46938000  0.38861000  1.0
  O  O61  1  0.42076000  0.03061000  0.11138000  1.0
  O  O62  1  0.07925000  0.53062000  0.61139000  1.0
  O  O63  1  0.57925000  0.96938000  0.88861000  1.0
  O  O64  1  0.70368000  0.71722000  0.66143000  1.0
  O  O65  1  0.20367000  0.78279000  0.83858000  1.0
  O  O66  1  0.29632000  0.28279000  0.33857000  1.0
  O  O67  1  0.79632000  0.21721000  0.16143000  1.0
  O  O68  1  0.80580000  0.98193000  0.61083000  1.0
  O  O69  1  0.30579000  0.51808000  0.88917000  1.0
  O  O70  1  0.19418000  0.01807000  0.38917000  1.0
  O  O71  1  0.69421000  0.48194000  0.11083000  1.0
  O  O72  1  0.93173000  0.71210000  0.30938000  1.0
  O  O73  1  0.43171000  0.78789000  0.19061000  1.0
  O  O74  1  0.06828000  0.28790000  0.69062000  1.0
  O  O75  1  0.56830000  0.21211000  0.80940000  1.0
  O  O76  1  0.36294000  0.93176000  0.67681000  1.0
  O  O77  1  0.86294000  0.56825000  0.82319000  1.0
  O  O78  1  0.63706000  0.06823000  0.32320000  1.0
  O  O79  1  0.13710000  0.43173000  0.17680000  1.0
