# generated using pymatgen
data_HgP2H26C18N2(ClO3)2
_symmetry_space_group_name_H-M   'P 1'
_cell_length_a   8.17119000
_cell_length_b   11.86340000
_cell_length_c   14.04800000
_cell_angle_alpha   90.00000000
_cell_angle_beta   90.00000000
_cell_angle_gamma   109.46000000
_symmetry_Int_Tables_number   1
_chemical_formula_structural   HgP2H26C18N2(ClO3)2
_chemical_formula_sum   'Hg2 P4 H52 C36 N4 Cl4 O12'
_cell_volume   1283.99336890
_cell_formula_units_Z   2
loop_
 _symmetry_equiv_pos_site_id
 _symmetry_equiv_pos_as_xyz
  1  'x, y, z'
loop_
 _atom_site_type_symbol
 _atom_site_label
 _atom_site_symmetry_multiplicity
 _atom_site_fract_x
 _atom_site_fract_y
 _atom_site_fract_z
 _atom_site_occupancy
  Hg  Hg0  1  0.56679000  0.77289000  0.75000000  1.0
  Hg  Hg1  1  0.43321000  0.22711000  0.25000000  1.0
  P  P2  1  0.68048000  0.45465000  0.75000000  1.0
  P  P3  1  0.31951000  0.54535000  0.25000000  1.0
  P  P4  1  0.06290000  0.15141000  0.75000000  1.0
  P  P5  1  0.93710000  0.84859000  0.25000000  1.0
  H  H6  1  0.30357000  0.50019000  0.75000000  1.0
  H  H7  1  0.69643000  0.49981000  0.25000000  1.0
  H  H8  1  0.99069000  0.38113000  0.75000000  1.0
  H  H9  1  0.00931000  0.61888000  0.25000000  1.0
  H  H10  1  0.49532000  0.42944000  0.58267000  1.0
  H  H11  1  0.49532000  0.42944000  0.91733000  1.0
  H  H12  1  0.50468000  0.57056000  0.41733000  1.0
  H  H13  1  0.50468000  0.57056000  0.08267000  1.0
  H  H14  1  0.53097000  0.29883000  0.53957000  1.0
  H  H15  1  0.53097000  0.29883000  0.96043000  1.0
  H  H16  1  0.46903000  0.70117000  0.46043000  1.0
  H  H17  1  0.46903000  0.70117000  0.03957000  1.0
  H  H18  1  0.69224000  0.46909000  0.43790000  1.0
  H  H19  1  0.69224000  0.46909000  0.06210000  1.0
  H  H20  1  0.30776000  0.53091000  0.56210000  1.0
  H  H21  1  0.30776000  0.53091000  0.93790000  1.0
  H  H22  1  0.84505000  0.42329000  0.50347000  1.0
  H  H23  1  0.84505000  0.42329000  0.99653000  1.0
  H  H24  1  0.15495000  0.57671000  0.49653000  1.0
  H  H25  1  0.15495000  0.57671000  0.00347000  1.0
  H  H26  1  0.79762000  0.55462000  0.53783000  1.0
  H  H27  1  0.79761000  0.55462000  0.96217000  1.0
  H  H28  1  0.20238000  0.44538000  0.46217000  1.0
  H  H29  1  0.20239000  0.44538000  0.03783000  1.0
  H  H30  1  0.87858000  0.71183000  0.75000000  1.0
  H  H31  1  0.12143000  0.28817000  0.25000000  1.0
  H  H32  1  0.97454000  0.88817000  0.75000000  1.0
  H  H33  1  0.02546000  0.11182000  0.25000000  1.0
  H  H34  1  0.04650000  0.09852000  0.53730000  1.0
  H  H35  1  0.04650000  0.09852000  0.96270000  1.0
  H  H36  1  0.95350000  0.90148000  0.46270000  1.0
  H  H37  1  0.95350000  0.90148000  0.03730000  1.0
  H  H38  1  0.05337000  0.24482000  0.57067000  1.0
  H  H39  1  0.05337000  0.24482000  0.92934000  1.0
  H  H40  1  0.94663000  0.75518000  0.42933000  1.0
  H  H41  1  0.94662000  0.75518000  0.07066000  1.0
  H  H42  1  0.83295000  0.16413000  0.44228000  1.0
  H  H43  1  0.83295000  0.16414000  0.05772000  1.0
  H  H44  1  0.16705000  0.83586000  0.55772000  1.0
  H  H45  1  0.16705000  0.83586000  0.94228000  1.0
  H  H46  1  0.72799000  0.18215000  0.54967000  1.0
  H  H47  1  0.72799000  0.18215000  0.95033000  1.0
  H  H48  1  0.27201000  0.81785000  0.45033000  1.0
  H  H49  1  0.27201000  0.81785000  0.04967000  1.0
  H  H50  1  0.72434000  0.03686000  0.51400000  1.0
  H  H51  1  0.72435000  0.03687000  0.98601000  1.0
  H  H52  1  0.27566000  0.96313000  0.48600000  1.0
  H  H53  1  0.27565000  0.96313000  0.01399000  1.0
  H  H54  1  0.43607000  0.19966000  0.75000000  1.0
  H  H55  1  0.56393000  0.80034000  0.25000000  1.0
  H  H56  1  0.61235000  0.06182000  0.75000000  1.0
  H  H57  1  0.38765000  0.93819000  0.25000000  1.0
  C  C58  1  0.20550000  0.54389000  0.75000000  1.0
  C  C59  1  0.79450000  0.45611000  0.25000000  1.0
  C  C60  1  0.02938000  0.47808000  0.75000000  1.0
  C  C61  1  0.97062000  0.52192000  0.25000000  1.0
  C  C62  1  0.90997000  0.53913000  0.75000000  1.0
  C  C63  1  0.09003000  0.46087000  0.25000000  1.0
  C  C64  1  0.59441000  0.38717000  0.57107000  1.0
  C  C65  1  0.59441000  0.38717000  0.92893000  1.0
  C  C66  1  0.40559000  0.61283000  0.42893000  1.0
  C  C67  1  0.40559000  0.61283000  0.07107000  1.0
  C  C68  1  0.74211000  0.46331000  0.50970000  1.0
  C  C69  1  0.74211000  0.46331000  0.99030000  1.0
  C  C70  1  0.25789000  0.53669000  0.49030000  1.0
  C  C71  1  0.25789000  0.53669000  0.00970000  1.0
  C  C72  1  0.97091000  0.66387000  0.75000000  1.0
  C  C73  1  0.02909000  0.33613000  0.25000000  1.0
  C  C74  1  0.15036000  0.72477000  0.75000000  1.0
  C  C75  1  0.84964000  0.27523000  0.25000000  1.0
  C  C76  1  0.22266000  0.85765000  0.75000000  1.0
  C  C77  1  0.77734000  0.14235000  0.25000000  1.0
  C  C78  1  0.11524000  0.92844000  0.75000000  1.0
  C  C79  1  0.88476000  0.07156000  0.25000000  1.0
  C  C80  1  0.19158000  0.05283000  0.75000000  1.0
  C  C81  1  0.80842000  0.94717000  0.25000000  1.0
  C  C82  1  0.97088000  0.15028000  0.56876000  1.0
  C  C83  1  0.97088000  0.15028000  0.93125000  1.0
  C  C84  1  0.02912000  0.84972000  0.43125000  1.0
  C  C85  1  0.02912000  0.84972000  0.06875000  1.0
  C  C86  1  0.80331000  0.13202000  0.51562000  1.0
  C  C87  1  0.80332000  0.13202000  0.98438000  1.0
  C  C88  1  0.19668000  0.86798000  0.48438000  1.0
  C  C89  1  0.19668000  0.86798000  0.01562000  1.0
  C  C90  1  0.37260000  0.10325000  0.75000000  1.0
  C  C91  1  0.62740000  0.89675000  0.25000000  1.0
  C  C92  1  0.47072000  0.02701000  0.75000000  1.0
  C  C93  1  0.52928000  0.97299000  0.25000000  1.0
  N  N94  1  0.26355000  0.66383000  0.75000000  1.0
  N  N95  1  0.73645000  0.33617000  0.25000000  1.0
  N  N96  1  0.39699000  0.90800000  0.75000000  1.0
  N  N97  1  0.60302000  0.09200000  0.25000000  1.0
  Cl  Cl98  1  0.71138000  0.79199000  0.59610000  1.0
  Cl  Cl99  1  0.71138000  0.79199000  0.90390000  1.0
  Cl  Cl100  1  0.28862000  0.20801000  0.40390000  1.0
  Cl  Cl101  1  0.28862000  0.20801000  0.09610000  1.0
  O  O102  1  0.57044000  0.53183000  0.75000000  1.0
  O  O103  1  0.42956000  0.46817000  0.25000000  1.0
  O  O104  1  0.65538000  0.36258000  0.66441000  1.0
  O  O105  1  0.65538000  0.36258000  0.83559000  1.0
  O  O106  1  0.34462000  0.63742000  0.33559000  1.0
  O  O107  1  0.34462000  0.63742000  0.16441000  1.0
  O  O108  1  0.17910000  0.27769000  0.75000000  1.0
  O  O109  1  0.82090000  0.72231000  0.25000000  1.0
  O  O110  1  0.92554000  0.10921000  0.66624000  1.0
  O  O111  1  0.92555000  0.10921000  0.83376000  1.0
  O  O112  1  0.07445000  0.89079000  0.33376000  1.0
  O  O113  1  0.07446000  0.89079000  0.16624000  1.0
