# generated using pymatgen
data_CuH3C5N5O2
_symmetry_space_group_name_H-M   'P 1'
_cell_length_a   7.62497000
_cell_length_b   7.62450000
_cell_length_c   13.08040000
_cell_angle_alpha   96.55050000
_cell_angle_beta   96.55050000
_cell_angle_gamma   99.20460000
_symmetry_Int_Tables_number   1
_chemical_formula_structural   CuH3C5N5O2
_chemical_formula_sum   'Cu4 H12 C20 N20 O8'
_cell_volume   738.93699707
_cell_formula_units_Z   4
loop_
 _symmetry_equiv_pos_site_id
 _symmetry_equiv_pos_as_xyz
  1  'x, y, z'
loop_
 _atom_site_type_symbol
 _atom_site_label
 _atom_site_symmetry_multiplicity
 _atom_site_fract_x
 _atom_site_fract_y
 _atom_site_fract_z
 _atom_site_occupancy
  Cu  Cu0  1  0.60427000  0.39572000  0.25000000  1.0
  Cu  Cu1  1  0.39577000  0.60424000  0.75001000  1.0
  Cu  Cu2  1  0.32438000  0.67560000  0.25000000  1.0
  Cu  Cu3  1  0.67537000  0.32463000  0.75000000  1.0
  H  H4  1  0.69602000  0.16929000  0.05417000  1.0
  H  H5  1  0.83071000  0.30399000  0.44581000  1.0
  H  H6  1  0.30431000  0.82885000  0.94417000  1.0
  H  H7  1  0.17118000  0.69567000  0.55584000  1.0
  H  H8  1  0.25797000  0.38675000  0.05647000  1.0
  H  H9  1  0.61323000  0.74202000  0.44353000  1.0
  H  H10  1  0.74234000  0.61241000  0.94301000  1.0
  H  H11  1  0.38756000  0.25768000  0.55699000  1.0
  H  H12  1  0.97930000  0.16520000  0.97118000  1.0
  H  H13  1  0.83480000  0.02070000  0.52881000  1.0
  H  H14  1  0.02179000  0.83342000  0.02810000  1.0
  H  H15  1  0.16658000  0.97819000  0.47191000  1.0
  C  C16  1  0.97300000  0.60487000  0.31472000  1.0
  C  C17  1  0.39513000  0.02699000  0.18528000  1.0
  C  C18  1  0.02445000  0.39388000  0.68343000  1.0
  C  C19  1  0.60614000  0.97559000  0.81656000  1.0
  C  C20  1  0.97184000  0.48308000  0.21397000  1.0
  C  C21  1  0.51691000  0.02815000  0.28604000  1.0
  C  C22  1  0.02708000  0.51607000  0.78426000  1.0
  C  C23  1  0.48394000  0.97293000  0.71573000  1.0
  C  C24  1  0.13013000  0.37842000  0.08663000  1.0
  C  C25  1  0.62157000  0.86986000  0.41337000  1.0
  C  C26  1  0.86994000  0.62079000  0.91253000  1.0
  C  C27  1  0.37920000  0.13007000  0.58747000  1.0
  C  C28  1  0.97814000  0.25603000  0.04135000  1.0
  C  C29  1  0.74397000  0.02185000  0.45864000  1.0
  C  C30  1  0.02236000  0.74271000  0.95776000  1.0
  C  C31  1  0.25729000  0.97764000  0.54225000  1.0
  C  C32  1  0.82174000  0.25744000  0.08662000  1.0
  C  C33  1  0.74256000  0.17826000  0.41337000  1.0
  C  C34  1  0.17823000  0.74101000  0.91198000  1.0
  C  C35  1  0.25900000  0.82175000  0.58802000  1.0
  N  N36  1  0.12488000  0.49303000  0.17207000  1.0
  N  N37  1  0.50696000  0.87511000  0.32793000  1.0
  N  N38  1  0.87447000  0.50676000  0.82672000  1.0
  N  N39  1  0.49324000  0.12555000  0.67327000  1.0
  N  N40  1  0.82085000  0.37048000  0.17337000  1.0
  N  N41  1  0.62951000  0.17916000  0.32663000  1.0
  N  N42  1  0.17833000  0.62816000  0.82493000  1.0
  N  N43  1  0.37187000  0.82166000  0.67507000  1.0
  N  N44  1  0.53276000  0.57856000  0.15711000  1.0
  N  N45  1  0.42142000  0.46723000  0.34290000  1.0
  N  N46  1  0.46628000  0.42346000  0.84311000  1.0
  N  N47  1  0.57662000  0.53365000  0.65696000  1.0
  N  N48  1  0.64626000  0.70082000  0.14314000  1.0
  N  N49  1  0.29916000  0.35373000  0.35686000  1.0
  N  N50  1  0.35323000  0.30042000  0.85671000  1.0
  N  N51  1  0.69961000  0.64671000  0.64331000  1.0
  N  N52  1  0.75218000  0.82167000  0.12979000  1.0
  N  N53  1  0.17830000  0.24780000  0.37020000  1.0
  N  N54  1  0.24838000  0.17866000  0.87001000  1.0
  N  N55  1  0.82130000  0.75158000  0.62996000  1.0
  O  O56  1  0.83038000  0.58916000  0.35550000  1.0
  O  O57  1  0.41083000  0.16962000  0.14450000  1.0
  O  O58  1  0.16589000  0.40874000  0.64185000  1.0
  O  O59  1  0.59134000  0.83418000  0.85815000  1.0
  O  O60  1  0.11984000  0.70873000  0.34951000  1.0
  O  O61  1  0.29126000  0.88014000  0.15050000  1.0
  O  O62  1  0.87674000  0.29013000  0.64985000  1.0
  O  O63  1  0.70987000  0.12334000  0.85012000  1.0
