# generated using pymatgen
data_CdH7C8I2N5
_symmetry_space_group_name_H-M   'P 1'
_cell_length_a   9.38257000
_cell_length_b   9.65080000
_cell_length_c   15.10440000
_cell_angle_alpha   90.00010000
_cell_angle_beta   90.00000000
_cell_angle_gamma   108.08200000
_symmetry_Int_Tables_number   1
_chemical_formula_structural   CdH7C8I2N5
_chemical_formula_sum   'Cd4 H28 C32 I8 N20'
_cell_volume   1300.14708640
_cell_formula_units_Z   4
loop_
 _symmetry_equiv_pos_site_id
 _symmetry_equiv_pos_as_xyz
  1  'x, y, z'
loop_
 _atom_site_type_symbol
 _atom_site_label
 _atom_site_symmetry_multiplicity
 _atom_site_fract_x
 _atom_site_fract_y
 _atom_site_fract_z
 _atom_site_occupancy
  Cd  Cd0  1  0.04840000  0.39843000  0.89142000  1.0
  Cd  Cd1  1  0.45160000  0.10157000  0.39142000  1.0
  Cd  Cd2  1  0.95160000  0.60157000  0.10858000  1.0
  Cd  Cd3  1  0.54840000  0.89843000  0.60858000  1.0
  H  H4  1  0.13616000  0.96863000  0.89835000  1.0
  H  H5  1  0.36384000  0.53137000  0.39834000  1.0
  H  H6  1  0.86384000  0.03137000  0.10166000  1.0
  H  H7  1  0.63616000  0.46862000  0.60166000  1.0
  H  H8  1  0.77854000  0.14095000  0.77460000  1.0
  H  H9  1  0.72146000  0.35905000  0.27460000  1.0
  H  H10  1  0.22146000  0.85905000  0.22540000  1.0
  H  H11  1  0.27854000  0.64095000  0.72540000  1.0
  H  H12  1  0.32520000  0.01059000  0.00540000  1.0
  H  H13  1  0.17480000  0.48940000  0.50539000  1.0
  H  H14  1  0.67480000  0.98941000  0.99461000  1.0
  H  H15  1  0.82520000  0.51059000  0.49461000  1.0
  H  H16  1  0.47360000  0.42566000  0.14067000  1.0
  H  H17  1  0.02640000  0.07434000  0.64067000  1.0
  H  H18  1  0.52639000  0.57434000  0.85933000  1.0
  H  H19  1  0.97360000  0.92565000  0.35933000  1.0
  H  H20  1  0.01201000  0.82764000  0.79871000  1.0
  H  H21  1  0.48799000  0.67236000  0.29871000  1.0
  H  H22  1  0.98799000  0.17237000  0.20128000  1.0
  H  H23  1  0.51201000  0.32764000  0.70129000  1.0
  H  H24  1  0.29132000  0.50393000  0.05014000  1.0
  H  H25  1  0.20869000  0.99608000  0.55014000  1.0
  H  H26  1  0.70868000  0.49608000  0.94986000  1.0
  H  H27  1  0.79131000  0.00391000  0.44986000  1.0
  H  H28  1  0.49454000  0.17297000  0.11860000  1.0
  H  H29  1  0.00546000  0.32703000  0.61859000  1.0
  H  H30  1  0.50545000  0.82703000  0.88141000  1.0
  H  H31  1  0.99454000  0.67297000  0.38141000  1.0
  C  C32  1  0.12065000  0.07589000  0.90709000  1.0
  C  C33  1  0.37935000  0.42412000  0.40709000  1.0
  C  C34  1  0.87935000  0.92412000  0.09292000  1.0
  C  C35  1  0.62065000  0.57588000  0.59292000  1.0
  C  C36  1  0.22144000  0.17325000  0.96990000  1.0
  C  C37  1  0.27855000  0.32675000  0.46989000  1.0
  C  C38  1  0.77855000  0.82675000  0.03011000  1.0
  C  C39  1  0.72145000  0.67325000  0.53011000  1.0
  C  C40  1  0.80906000  0.04167000  0.76624000  1.0
  C  C41  1  0.69094000  0.45833000  0.26624000  1.0
  C  C42  1  0.19094000  0.95833000  0.23376000  1.0
  C  C43  1  0.30907000  0.54166000  0.73376000  1.0
  C  C44  1  0.32220000  0.12116000  0.01757000  1.0
  C  C45  1  0.17779000  0.37884000  0.51757000  1.0
  C  C46  1  0.67779000  0.87885000  0.98243000  1.0
  C  C47  1  0.82221000  0.62115000  0.48243000  1.0
  C  C48  1  0.40438000  0.35031000  0.09278000  1.0
  C  C49  1  0.09563000  0.14969000  0.59277000  1.0
  C  C50  1  0.59562000  0.64969000  0.90723000  1.0
  C  C51  1  0.90438000  0.85030000  0.40722000  1.0
  C  C52  1  0.93109000  0.88114000  0.77854000  1.0
  C  C53  1  0.56891000  0.61886000  0.27853000  1.0
  C  C54  1  0.06891000  0.11887000  0.22146000  1.0
  C  C55  1  0.43110000  0.38113000  0.72146000  1.0
  C  C56  1  0.30219000  0.39525000  0.04201000  1.0
  C  C57  1  0.19782000  0.10476000  0.54201000  1.0
  C  C58  1  0.69781000  0.60476000  0.95799000  1.0
  C  C59  1  0.80218000  0.89524000  0.45799000  1.0
  C  C60  1  0.41575000  0.21137000  0.08015000  1.0
  C  C61  1  0.08425000  0.28864000  0.58015000  1.0
  C  C62  1  0.58425000  0.78864000  0.91985000  1.0
  C  C63  1  0.91574000  0.71137000  0.41985000  1.0
  I  I64  1  0.16971000  0.70039000  0.96166000  1.0
  I  I65  1  0.33029000  0.79961000  0.46165000  1.0
  I  I66  1  0.83029000  0.29962000  0.03834000  1.0
  I  I67  1  0.66971000  0.20038000  0.53834000  1.0
  I  I68  1  0.85645000  0.45190000  0.76030000  1.0
  I  I69  1  0.64355000  0.04810000  0.26030000  1.0
  I  I70  1  0.14355000  0.54812000  0.23970000  1.0
  I  I71  1  0.35644000  0.95187000  0.73969000  1.0
  N  N72  1  0.92711000  0.01567000  0.80887000  1.0
  N  N73  1  0.57289000  0.48433000  0.30887000  1.0
  N  N74  1  0.07289000  0.98433000  0.19113000  1.0
  N  N75  1  0.42711000  0.51567000  0.69113000  1.0
  N  N76  1  0.21311000  0.30965000  0.98161000  1.0
  N  N77  1  0.28689000  0.19035000  0.48161000  1.0
  N  N78  1  0.78689000  0.69036000  0.01840000  1.0
  N  N79  1  0.71311000  0.80964000  0.51839000  1.0
  N  N80  1  0.74664000  0.93097000  0.71336000  1.0
  N  N81  1  0.75336000  0.56903000  0.21336000  1.0
  N  N82  1  0.25336000  0.06904000  0.28664000  1.0
  N  N83  1  0.24664000  0.43096000  0.78664000  1.0
  N  N84  1  0.01765000  0.11452000  0.86694000  1.0
  N  N85  1  0.48235000  0.38548000  0.36694000  1.0
  N  N86  1  0.98235000  0.88548000  0.13306000  1.0
  N  N87  1  0.51765000  0.61452000  0.63306000  1.0
  N  N88  1  0.82298000  0.82969000  0.72075000  1.0
  N  N89  1  0.67702000  0.67031000  0.22075000  1.0
  N  N90  1  0.17702000  0.17032000  0.27925000  1.0
  N  N91  1  0.32298000  0.32969000  0.77925000  1.0
