# generated using pymatgen
data_InCuH16C24(NO2)4
_symmetry_space_group_name_H-M   'P 1'
_cell_length_a   12.23400000
_cell_length_b   12.85630000
_cell_length_c   13.90259261
_cell_angle_alpha   77.91524802
_cell_angle_beta   63.89523877
_cell_angle_gamma   61.58830000
_symmetry_Int_Tables_number   1
_chemical_formula_structural   InCuH16C24(NO2)4
_chemical_formula_sum   'In2 Cu2 H32 C48 N8 O16'
_cell_volume   1727.08416019
_cell_formula_units_Z   2
loop_
 _symmetry_equiv_pos_site_id
 _symmetry_equiv_pos_as_xyz
  1  'x, y, z'
loop_
 _atom_site_type_symbol
 _atom_site_label
 _atom_site_symmetry_multiplicity
 _atom_site_fract_x
 _atom_site_fract_y
 _atom_site_fract_z
 _atom_site_occupancy
  In  In0  1  0.87504000  0.24992000  0.25000000  1.0
  In  In1  1  0.12496000  0.75008000  0.75000000  1.0
  Cu  Cu2  1  0.62503000  0.74994000  0.75000000  1.0
  Cu  Cu3  1  0.37497000  0.25006000  0.25000000  1.0
  H  H4  1  0.56750000  0.08428000  0.48791000  1.0
  H  H5  1  0.94457000  0.41546000  0.48793000  1.0
  H  H6  1  0.34820000  0.08428000  0.01210000  1.0
  H  H7  1  0.63998000  0.41545000  0.01207000  1.0
  H  H8  1  0.43248000  0.91572000  0.51210000  1.0
  H  H9  1  0.05544000  0.58454000  0.51207000  1.0
  H  H10  1  0.65179000  0.91572000  0.98791000  1.0
  H  H11  1  0.36002000  0.58454000  0.98793000  1.0
  H  H12  1  0.95759000  0.92767000  0.50697000  1.0
  H  H13  1  0.53540000  0.57236000  0.50700000  1.0
  H  H14  1  0.11474000  0.92767000  0.99302000  1.0
  H  H15  1  0.89223000  0.57236000  0.99301000  1.0
  H  H16  1  0.04241000  0.07233000  0.49302000  1.0
  H  H17  1  0.46460000  0.42764000  0.49300000  1.0
  H  H18  1  0.88526000  0.07233000  0.00697000  1.0
  H  H19  1  0.10776000  0.42764000  0.00700000  1.0
  H  H20  1  0.50320000  0.94890000  0.63775000  1.0
  H  H21  1  0.85925000  0.55097000  0.63765000  1.0
  H  H22  1  0.54790000  0.94890000  0.86225000  1.0
  H  H23  1  0.58979000  0.55097000  0.86235000  1.0
  H  H24  1  0.49680000  0.05110000  0.36225000  1.0
  H  H25  1  0.14076000  0.44903000  0.36235000  1.0
  H  H26  1  0.45210000  0.05110000  0.13775000  1.0
  H  H27  1  0.41021000  0.44903000  0.13765000  1.0
  H  H28  1  0.88199000  0.79516000  0.64976000  1.0
  H  H29  1  0.46841000  0.70487000  0.64972000  1.0
  H  H30  1  0.32286000  0.79516000  0.85023000  1.0
  H  H31  1  0.82672000  0.70487000  0.85028000  1.0
  H  H32  1  0.11802000  0.20484000  0.35023000  1.0
  H  H33  1  0.53160000  0.29513000  0.35028000  1.0
  H  H34  1  0.67715000  0.20484000  0.14976000  1.0
  H  H35  1  0.17328000  0.29513000  0.14972000  1.0
  C  C36  1  0.63911000  0.02091000  0.52226000  1.0
  C  C37  1  0.83865000  0.47891000  0.52230000  1.0
  C  C38  1  0.33997000  0.02090000  0.97774000  1.0
  C  C39  1  0.68244000  0.47891000  0.97770000  1.0
  C  C40  1  0.36088000  0.97910000  0.47774000  1.0
  C  C41  1  0.16136000  0.52109000  0.47770000  1.0
  C  C42  1  0.66002000  0.97910000  0.02226000  1.0
  C  C43  1  0.31755000  0.52109000  0.02231000  1.0
  C  C44  1  0.85705000  0.93382000  0.53151000  1.0
  C  C45  1  0.61147000  0.56615000  0.53149000  1.0
  C  C46  1  0.20913000  0.93382000  0.96849000  1.0
  C  C47  1  0.82239000  0.56615000  0.96851000  1.0
  C  C48  1  0.14295000  0.06618000  0.46849000  1.0
  C  C49  1  0.38855000  0.43385000  0.46850000  1.0
  C  C50  1  0.79087000  0.06618000  0.03151000  1.0
  C  C51  1  0.17761000  0.43385000  0.03150000  1.0
  C  C52  1  0.60367000  0.94623000  0.60470000  1.0
  C  C53  1  0.79179000  0.55366000  0.60464000  1.0
  C  C54  1  0.45011000  0.94623000  0.89530000  1.0
  C  C55  1  0.65455000  0.55366000  0.89536000  1.0
  C  C56  1  0.39633000  0.05377000  0.39530000  1.0
  C  C57  1  0.20821000  0.44634000  0.39536000  1.0
  C  C58  1  0.54989000  0.05377000  0.10470000  1.0
  C  C59  1  0.34545000  0.44634000  0.10464000  1.0
  C  C60  1  0.81453000  0.86034000  0.61259000  1.0
  C  C61  1  0.57303000  0.63963000  0.61253000  1.0
  C  C62  1  0.32513000  0.86034000  0.88741000  1.0
  C  C63  1  0.78735000  0.63963000  0.88747000  1.0
  C  C64  1  0.18547000  0.13966000  0.38741000  1.0
  C  C65  1  0.42698000  0.36037000  0.38747000  1.0
  C  C66  1  0.67487000  0.13966000  0.11259000  1.0
  C  C67  1  0.21265000  0.36037000  0.11253000  1.0
  C  C68  1  0.80806000  0.09642000  0.39720000  1.0
  C  C69  1  0.79485000  0.40341000  0.39723000  1.0
  C  C70  1  0.09550000  0.09641000  0.10280000  1.0
  C  C71  1  0.80175000  0.40340000  0.10277000  1.0
  C  C72  1  0.19193000  0.90358000  0.60280000  1.0
  C  C73  1  0.20515000  0.59659000  0.60277000  1.0
  C  C74  1  0.90449000  0.90358000  0.89720000  1.0
  C  C75  1  0.19826000  0.59659000  0.89723000  1.0
  C  C76  1  0.76859000  0.01511000  0.48435000  1.0
  C  C77  1  0.74707000  0.48474000  0.48440000  1.0
  C  C78  1  0.21629000  0.01511000  0.01565000  1.0
  C  C79  1  0.76819000  0.48474000  0.01560000  1.0
  C  C80  1  0.23141000  0.98489000  0.51565000  1.0
  C  C81  1  0.25294000  0.51525000  0.51560000  1.0
  C  C82  1  0.78371000  0.98489000  0.98435000  1.0
  C  C83  1  0.23181000  0.51525000  0.98440000  1.0
  N  N84  1  0.68978000  0.86568000  0.64915000  1.0
  N  N85  1  0.66124000  0.63430000  0.64904000  1.0
  N  N86  1  0.44454000  0.86568000  0.85085000  1.0
  N  N87  1  0.70447000  0.63430000  0.85096000  1.0
  N  N88  1  0.31021000  0.13432000  0.35085000  1.0
  N  N89  1  0.33877000  0.36570000  0.35096000  1.0
  N  N90  1  0.55546000  0.13432000  0.14915000  1.0
  N  N91  1  0.29554000  0.36570000  0.14904000  1.0
  O  O92  1  0.91275000  0.10918000  0.37968000  1.0
  O  O93  1  0.70771000  0.39062000  0.37967000  1.0
  O  O94  1  0.97806000  0.10917000  0.12031000  1.0
  O  O95  1  0.90167000  0.39062000  0.12033000  1.0
  O  O96  1  0.08724000  0.89082000  0.62031000  1.0
  O  O97  1  0.29229000  0.60938000  0.62033000  1.0
  O  O98  1  0.02193000  0.89082000  0.87969000  1.0
  O  O99  1  0.09833000  0.60938000  0.87967000  1.0
  O  O100  1  0.73585000  0.15295000  0.34280000  1.0
  O  O101  1  0.92146000  0.34695000  0.34283000  1.0
  O  O102  1  0.11119000  0.15294000  0.15720000  1.0
  O  O103  1  0.73160000  0.34695000  0.15717000  1.0
  O  O104  1  0.26413000  0.84706000  0.65721000  1.0
  O  O105  1  0.07855000  0.65305000  0.65717000  1.0
  O  O106  1  0.88881000  0.84706000  0.84280000  1.0
  O  O107  1  0.26841000  0.65305000  0.84283000  1.0
