# generated using pymatgen
data_AlHC8S2O5F2
_symmetry_space_group_name_H-M   'P 1'
_cell_length_a   6.75505000
_cell_length_b   15.33640000
_cell_length_c   19.30100000
_cell_angle_alpha   89.99320000
_cell_angle_beta   89.93750000
_cell_angle_gamma   90.90900000
_symmetry_Int_Tables_number   1
_chemical_formula_structural   AlHC8S2O5F2
_chemical_formula_sum   'Al4 H4 C32 S8 O20 F8'
_cell_volume   1999.29502498
_cell_formula_units_Z   4
loop_
 _symmetry_equiv_pos_site_id
 _symmetry_equiv_pos_as_xyz
  1  'x, y, z'
loop_
 _atom_site_type_symbol
 _atom_site_label
 _atom_site_symmetry_multiplicity
 _atom_site_fract_x
 _atom_site_fract_y
 _atom_site_fract_z
 _atom_site_occupancy
  Al  Al0  1  0.00746000  0.00059000  0.50068000  1.0
  Al  Al1  1  0.50723000  0.99936000  0.49952000  1.0
  Al  Al2  1  0.99277000  0.50061000  0.00050000  1.0
  Al  Al3  1  0.49254000  0.49936000  0.99933000  1.0
  H  H4  1  0.26223000  0.11513000  0.49779000  1.0
  H  H5  1  0.75509000  0.88483000  0.49842000  1.0
  H  H6  1  0.23774000  0.38483000  0.00213000  1.0
  H  H7  1  0.74489000  0.61513000  0.00147000  1.0
  C  C8  1  0.75677000  0.10196000  0.59459000  1.0
  C  C9  1  0.76547000  0.10235000  0.40559000  1.0
  C  C10  1  0.25542000  0.89791000  0.40554000  1.0
  C  C11  1  0.25020000  0.89785000  0.59441000  1.0
  C  C12  1  0.74325000  0.39802000  0.90539000  1.0
  C  C13  1  0.73458000  0.39760000  0.09441000  1.0
  C  C14  1  0.24460000  0.60203000  0.09449000  1.0
  C  C15  1  0.24976000  0.60220000  0.90565000  1.0
  C  C16  1  0.91401000  0.20510000  0.31273000  1.0
  C  C17  1  0.58600000  0.29488000  0.18728000  1.0
  C  C18  1  0.76059000  0.15959000  0.34470000  1.0
  C  C19  1  0.73943000  0.34037000  0.15530000  1.0
  C  C20  1  0.64741000  0.24532000  0.24476000  1.0
  C  C21  1  0.85259000  0.25468000  0.25526000  1.0
  C  C22  1  0.40517000  0.79277000  0.68259000  1.0
  C  C23  1  0.09480000  0.70730000  0.81749000  1.0
  C  C24  1  0.25114000  0.84048000  0.65521000  1.0
  C  C25  1  0.24883000  0.65961000  0.84488000  1.0
  C  C26  1  0.14979000  0.75612000  0.75834000  1.0
  C  C27  1  0.35018000  0.74392000  0.74172000  1.0
  C  C28  1  0.09514000  0.79262000  0.31671000  1.0
  C  C29  1  0.40484000  0.70737000  0.18328000  1.0
  C  C30  1  0.25117000  0.84059000  0.34470000  1.0
  C  C31  1  0.24882000  0.65939000  0.15530000  1.0
  C  C32  1  0.35087000  0.75624000  0.24212000  1.0
  C  C33  1  0.14909000  0.74377000  0.25786000  1.0
  C  C34  1  0.90965000  0.20799000  0.68442000  1.0
  C  C35  1  0.59037000  0.29208000  0.81551000  1.0
  C  C36  1  0.75620000  0.15943000  0.65535000  1.0
  C  C37  1  0.74383000  0.34061000  0.84461000  1.0
  C  C38  1  0.64875000  0.24345000  0.75707000  1.0
  C  C39  1  0.85124000  0.25666000  0.74284000  1.0
  S  S40  1  0.53433000  0.17781000  0.30464000  1.0
  S  S41  1  0.96568000  0.32216000  0.19537000  1.0
  S  S42  1  0.03278000  0.82556000  0.70213000  1.0
  S  S43  1  0.46719000  0.67450000  0.79795000  1.0
  S  S44  1  0.47030000  0.82592000  0.29879000  1.0
  S  S45  1  0.02967000  0.67407000  0.20120000  1.0
  S  S46  1  0.53403000  0.17341000  0.69953000  1.0
  S  S47  1  0.96598000  0.32666000  0.80041000  1.0
  O  O48  1  0.92324000  0.08579000  0.56688000  1.0
  O  O49  1  0.59694000  0.08364000  0.43244000  1.0
  O  O50  1  0.42715000  0.92554000  0.42371000  1.0
  O  O51  1  0.08112000  0.92656000  0.57663000  1.0
  O  O52  1  0.09106000  0.91449000  0.43469000  1.0
  O  O53  1  0.41550000  0.91335000  0.56473000  1.0
  O  O54  1  0.58675000  0.07381000  0.57499000  1.0
  O  O55  1  0.93394000  0.07694000  0.42609000  1.0
  O  O56  1  0.25975000  0.05207000  0.50010000  1.0
  O  O57  1  0.75602000  0.94793000  0.49988000  1.0
  O  O58  1  0.91327000  0.42613000  0.92503000  1.0
  O  O59  1  0.56611000  0.42300000  0.07390000  1.0
  O  O60  1  0.40897000  0.58543000  0.06535000  1.0
  O  O61  1  0.08446000  0.58667000  0.93532000  1.0
  O  O62  1  0.07287000  0.57440000  0.07632000  1.0
  O  O63  1  0.41884000  0.57345000  0.92340000  1.0
  O  O64  1  0.57676000  0.41419000  0.93309000  1.0
  O  O65  1  0.90311000  0.41631000  0.06756000  1.0
  O  O66  1  0.24025000  0.44790000  0.99990000  1.0
  O  O67  1  0.74398000  0.55202000  0.00011000  1.0
  F  F68  1  0.10323000  0.20473000  0.33440000  1.0
  F  F69  1  0.39679000  0.29524000  0.16559000  1.0
  F  F70  1  0.58912000  0.79101000  0.65594000  1.0
  F  F71  1  0.91085000  0.70908000  0.84414000  1.0
  F  F72  1  0.91017000  0.79050000  0.34264000  1.0
  F  F73  1  0.58981000  0.70949000  0.15734000  1.0
  F  F74  1  0.09605000  0.21079000  0.65984000  1.0
  F  F75  1  0.40397000  0.28927000  0.84011000  1.0
