# generated using pymatgen
data_AlH8C15ClO6
_symmetry_space_group_name_H-M   'P 1'
_cell_length_a   6.64979000
_cell_length_b   15.33070000
_cell_length_c   17.79206913
_cell_angle_alpha   88.60890310
_cell_angle_beta   79.36840200
_cell_angle_gamma   77.58760000
_symmetry_Int_Tables_number   1
_chemical_formula_structural   AlH8C15ClO6
_chemical_formula_sum   'Al2 H16 C30 Cl2 O12'
_cell_volume   1740.79995686
_cell_formula_units_Z   2
loop_
 _symmetry_equiv_pos_site_id
 _symmetry_equiv_pos_as_xyz
  1  'x, y, z'
loop_
 _atom_site_type_symbol
 _atom_site_label
 _atom_site_symmetry_multiplicity
 _atom_site_fract_x
 _atom_site_fract_y
 _atom_site_fract_z
 _atom_site_occupancy
  Al  Al0  1  0.99944000  0.49986000  0.49981000  1.0
  Al  Al1  1  0.49930000  0.49976000  0.50015000  1.0
  H  H2  1  0.17863000  0.55892000  0.58703000  1.0
  H  H3  1  0.81869000  0.44198000  0.41253000  1.0
  H  H4  1  0.09041000  0.45813000  0.26838000  1.0
  H  H5  1  0.16344000  0.44989000  0.12612000  1.0
  H  H6  1  0.68939000  0.57394000  0.12492000  1.0
  H  H7  1  0.31536000  0.42627000  0.87611000  1.0
  H  H8  1  0.91118000  0.54238000  0.73054000  1.0
  H  H9  1  0.84100000  0.55111000  0.87276000  1.0
  H  H10  1  0.76524000  0.06271000  0.53513000  1.0
  H  H11  1  0.23240000  0.93693000  0.46501000  1.0
  H  H12  1  0.91182000  0.77096000  0.52233000  1.0
  H  H13  1  0.83332000  0.93403000  0.52865000  1.0
  H  H14  1  0.08633000  0.22886000  0.47743000  1.0
  H  H15  1  0.16470000  0.06575000  0.47111000  1.0
  H  H16  1  0.66678000  0.29545000  0.53661000  1.0
  H  H17  1  0.33090000  0.70414000  0.46369000  1.0
  C  C18  1  0.66585000  0.66250000  0.49517000  1.0
  C  C19  1  0.69334000  0.48969000  0.63760000  1.0
  C  C20  1  0.33237000  0.33719000  0.50486000  1.0
  C  C21  1  0.30635000  0.51009000  0.36234000  1.0
  C  C22  1  0.35177000  0.51570000  0.27728000  1.0
  C  C23  1  0.22316000  0.48200000  0.23608000  1.0
  C  C24  1  0.26303000  0.47773000  0.15688000  1.0
  C  C25  1  0.43499000  0.50929000  0.11560000  1.0
  C  C26  1  0.56019000  0.54673000  0.15603000  1.0
  C  C27  1  0.51980000  0.54958000  0.23570000  1.0
  C  C28  1  0.48216000  0.50351000  0.03483000  1.0
  C  C29  1  0.52373000  0.49727000  0.96515000  1.0
  C  C30  1  0.56965000  0.49138000  0.88438000  1.0
  C  C31  1  0.44375000  0.45360000  0.84453000  1.0
  C  C32  1  0.48250000  0.45049000  0.76487000  1.0
  C  C33  1  0.64950000  0.48450000  0.72270000  1.0
  C  C34  1  0.77893000  0.51853000  0.76331000  1.0
  C  C35  1  0.74076000  0.52303000  0.84250000  1.0
  C  C36  1  0.38050000  0.23924000  0.50625000  1.0
  C  C37  1  0.61732000  0.76046000  0.49389000  1.0
  C  C38  1  0.57338000  0.19011000  0.52308000  1.0
  C  C39  1  0.61574000  0.09662000  0.52110000  1.0
  C  C40  1  0.42429000  0.80954000  0.47715000  1.0
  C  C41  1  0.38189000  0.90304000  0.47908000  1.0
  C  C42  1  0.76165000  0.80831000  0.51133000  1.0
  C  C43  1  0.71681000  0.90059000  0.51402000  1.0
  C  C44  1  0.23625000  0.19146000  0.48863000  1.0
  C  C45  1  0.28100000  0.09918000  0.48594000  1.0
  C  C46  1  0.47354000  0.04942000  0.50181000  1.0
  C  C47  1  0.52406000  0.95030000  0.49828000  1.0
  Cl  Cl48  1  0.67761000  0.59972000  0.27985000  1.0
  Cl  Cl49  1  0.32410000  0.39985000  0.72146000  1.0
  O  O50  1  0.84349000  0.62148000  0.50812000  1.0
  O  O51  1  0.53704000  0.50605000  0.60363000  1.0
  O  O52  1  0.47829000  0.37706000  0.51589000  1.0
  O  O53  1  0.11519000  0.51888000  0.39445000  1.0
  O  O54  1  0.15521000  0.37827000  0.49151000  1.0
  O  O55  1  0.46201000  0.49336000  0.39661000  1.0
  O  O56  1  0.51976000  0.62257000  0.48445000  1.0
  O  O57  1  0.88418000  0.48086000  0.60515000  1.0
  O  O58  1  0.21328000  0.53964000  0.53385000  1.0
  O  O59  1  0.78530000  0.46013000  0.46599000  1.0
  O  O60  1  0.72140000  0.22979000  0.54110000  1.0
  O  O61  1  0.27621000  0.76980000  0.45922000  1.0
