# generated using pymatgen
data_Zn8H41C78N9O26
_symmetry_space_group_name_H-M   'P 1'
_cell_length_a   18.22170000
_cell_length_b   18.30475695
_cell_length_c   18.50102395
_cell_angle_alpha   60.61940506
_cell_angle_beta   61.08026373
_cell_angle_gamma   60.25639168
_symmetry_Int_Tables_number   1
_chemical_formula_structural   Zn8H41C78N9O26
_chemical_formula_sum   'Zn8 H41 C78 N9 O26'
_cell_volume   4427.26932598
_cell_formula_units_Z   1
loop_
 _symmetry_equiv_pos_site_id
 _symmetry_equiv_pos_as_xyz
  1  'x, y, z'
loop_
 _atom_site_type_symbol
 _atom_site_label
 _atom_site_symmetry_multiplicity
 _atom_site_fract_x
 _atom_site_fract_y
 _atom_site_fract_z
 _atom_site_occupancy
  Zn  Zn0  1  0.53743000  0.05386000  0.86940000  1.0
  Zn  Zn1  1  0.53507000  0.87333000  0.03808000  1.0
  Zn  Zn2  1  0.36518000  0.05115000  0.03804000  1.0
  Zn  Zn3  1  0.54044000  0.04228000  0.04609000  1.0
  Zn  Zn4  1  0.94785000  0.46436000  0.63139000  1.0
  Zn  Zn5  1  0.12727000  0.45868000  0.46077000  1.0
  Zn  Zn6  1  0.95233000  0.63107000  0.45801000  1.0
  Zn  Zn7  1  0.95553000  0.44901000  0.46306000  1.0
  H  H8  1  0.68138000  0.21244000  0.69963000  1.0
  H  H9  1  0.66462000  0.16755000  0.98722000  1.0
  H  H10  1  0.78931000  0.57678000  0.30262000  1.0
  H  H11  1  0.76453000  0.95173000  0.14488000  1.0
  H  H12  1  0.09210000  0.81008000  0.35254000  1.0
  H  H13  1  0.31382000  0.59315000  0.16812000  1.0
  H  H14  1  0.46026000  0.63693000  0.16008000  1.0
  H  H15  1  0.84730000  0.81785000  0.59259000  1.0
  H  H16  1  0.58301000  0.68540000  0.92115000  1.0
  H  H17  1  0.67601000  0.63292000  0.95995000  1.0
  H  H18  1  0.78234000  0.30290000  0.59849000  1.0
  H  H19  1  0.02933000  0.35317000  0.87462000  1.0
  H  H20  1  0.09136000  0.42755000  0.81398000  1.0
  H  H21  1  0.91129000  0.85622000  0.16597000  1.0
  H  H22  1  0.87685000  0.92947000  0.22256000  1.0
  H  H23  1  0.92433000  0.81209000  0.27072000  1.0
  H  H24  1  0.21410000  0.95063000  0.27163000  1.0
  H  H25  1  0.14882000  0.98863000  0.20720000  1.0
  H  H26  1  0.10743000  0.93836000  0.32232000  1.0
  H  H27  1  0.68818000  0.15474000  0.10782000  1.0
  H  H28  1  0.80074000  0.12860000  0.09709000  1.0
  H  H29  1  0.72767000  0.23952000  0.08035000  1.0
  H  H30  1  0.19451000  0.32651000  0.90503000  1.0
  H  H31  1  0.35182000  0.72413000  0.03415000  1.0
  H  H32  1  0.44500000  0.74811000  0.01312000  1.0
  H  H33  1  0.45957000  0.64044000  0.02227000  1.0
  H  H34  1  0.60693000  0.55476000  0.86557000  1.0
  H  H35  1  0.59884000  0.66363000  0.78622000  1.0
  H  H36  1  0.68455000  0.56785000  0.75756000  1.0
  H  H37  1  0.43265000  0.04999000  0.74501000  1.0
  H  H38  1  0.36477000  0.03934000  0.70904000  1.0
  H  H39  1  0.42895000  0.10940000  0.63627000  1.0
  H  H40  1  0.28083000  0.12109000  0.63099000  1.0
  H  H41  1  0.13159000  0.25297000  0.96612000  1.0
  H  H42  1  0.20724000  0.22721000  0.58840000  1.0
  H  H43  1  0.32289000  0.20819000  0.55183000  1.0
  H  H44  1  0.08842000  0.28828000  0.30983000  1.0
  H  H45  1  0.37039000  0.36891000  0.22995000  1.0
  H  H46  1  0.46219000  0.27619000  0.13114000  1.0
  H  H47  1  0.47668000  0.17688000  0.22385000  1.0
  H  H48  1  0.69502000  0.67291000  0.20486000  1.0
  C  C49  1  0.63530000  0.85531000  0.13613000  1.0
  C  C50  1  0.29529000  0.17911000  0.80761000  1.0
  C  C51  1  0.31123000  0.16318000  0.73251000  1.0
  C  C52  1  0.35634000  0.13207000  0.86013000  1.0
  C  C53  1  0.25172000  0.21825000  0.68261000  1.0
  C  C54  1  0.17819000  0.29293000  0.70417000  1.0
  C  C55  1  0.16002000  0.30193000  0.78222000  1.0
  C  C56  1  0.09674000  0.35708000  0.84257000  1.0
  C  C57  1  0.16119000  0.29363000  0.90009000  1.0
  C  C58  1  0.34189000  0.23644000  0.21215000  1.0
  C  C59  1  0.30618000  0.20001000  0.19149000  1.0
  C  C60  1  0.87426000  0.23327000  0.82524000  1.0
  C  C61  1  0.21206000  0.21990000  0.22904000  1.0
  C  C62  1  0.16021000  0.27397000  0.28244000  1.0
  C  C63  1  0.19784000  0.30965000  0.30280000  1.0
  C  C64  1  0.64095000  0.87099000  0.85833000  1.0
  C  C65  1  0.28993000  0.28855000  0.26661000  1.0
  C  C66  1  0.37036000  0.30002000  0.26116000  1.0
  C  C67  1  0.42853000  0.24095000  0.19834000  1.0
  C  C68  1  0.72600000  0.83116000  0.21916000  1.0
  C  C69  1  0.69371000  0.79650000  0.19270000  1.0
  C  C70  1  0.71886000  0.70293000  0.22384000  1.0
  C  C71  1  0.81316000  0.24328000  0.79069000  1.0
  C  C72  1  0.77191000  0.64894000  0.27864000  1.0
  C  C73  1  0.80361000  0.68514000  0.30513000  1.0
  C  C74  1  0.77934000  0.77775000  0.27268000  1.0
  C  C75  1  0.78847000  0.85602000  0.27411000  1.0
  C  C76  1  0.36360000  0.14293000  0.13491000  1.0
  C  C77  1  0.72645000  0.91804000  0.21061000  1.0
  C  C78  1  0.32291000  0.72942000  0.19437000  1.0
  C  C79  1  0.29346000  0.81543000  0.19530000  1.0
  C  C80  1  0.20766000  0.84484000  0.25489000  1.0
  C  C81  1  0.15800000  0.78690000  0.30758000  1.0
  C  C82  1  0.74248000  0.20767000  0.85085000  1.0
  C  C83  1  0.18834000  0.70035000  0.30604000  1.0
  C  C84  1  0.27281000  0.67347000  0.24789000  1.0
  C  C85  1  0.33937000  0.60089000  0.20622000  1.0
  C  C86  1  0.39778000  0.66530000  0.14566000  1.0
  C  C87  1  0.69851000  0.73078000  0.82629000  1.0
  C  C88  1  0.35204000  0.87049000  0.13497000  1.0
  C  C89  1  0.69946000  0.81595000  0.79943000  1.0
  C  C90  1  0.75620000  0.84591000  0.71288000  1.0
  C  C91  1  0.80525000  0.79250000  0.65866000  1.0
  C  C92  1  0.80153000  0.70738000  0.68707000  1.0
  C  C93  1  0.69632000  0.19495000  0.81527000  1.0
  C  C94  1  0.74720000  0.67866000  0.77226000  1.0
  C  C95  1  0.70689000  0.60480000  0.83857000  1.0
  C  C96  1  0.65581000  0.66350000  0.90153000  1.0
  C  C97  1  0.13983000  0.36609000  0.36037000  1.0
  C  C98  1  0.85369000  0.65072000  0.62993000  1.0
  C  C99  1  0.12449000  0.36301000  0.64548000  1.0
  C  C100  1  0.63281000  0.14380000  0.86998000  1.0
  C  C101  1  0.85805000  0.62856000  0.36554000  1.0
  C  C102  1  0.13185000  0.64297000  0.36259000  1.0
  C  C103  1  0.87073000  0.34912000  0.63872000  1.0
  C  C104  1  0.71512000  0.22500000  0.72530000  1.0
  C  C105  1  0.72237000  0.18784000  0.94168000  1.0
  C  C106  1  0.77287000  0.19291000  0.97460000  1.0
  C  C107  1  0.85405000  0.20979000  0.91532000  1.0
  C  C108  1  0.16451000  0.18581000  0.21702000  1.0
  C  C109  1  0.39106000  0.25970000  0.34191000  1.0
  C  C110  1  0.74632000  0.86542000  0.36050000  1.0
  C  C111  1  0.88133000  0.86400000  0.23057000  1.0
  C  C112  1  0.64208000  0.98320000  0.24021000  1.0
  C  C113  1  0.16737000  0.93501000  0.26479000  1.0
  C  C114  1  0.38275000  0.51347000  0.25918000  1.0
  C  C115  1  0.77433000  0.27271000  0.66815000  1.0
  C  C116  1  0.74578000  0.17753000  0.07011000  1.0
  C  C117  1  0.41456000  0.69611000  0.04806000  1.0
  C  C118  1  0.76859000  0.92971000  0.67756000  1.0
  C  C119  1  0.64531000  0.59710000  0.81012000  1.0
  C  C120  1  0.76878000  0.51712000  0.87135000  1.0
  C  C121  1  0.91594000  0.19952000  0.94853000  1.0
  C  C122  1  0.96189000  0.23318000  0.76871000  1.0
  C  C123  1  0.38878000  0.08628000  0.70497000  1.0
  C  C124  1  0.26611000  0.19320000  0.60941000  1.0
  C  C125  1  0.82230000  0.28350000  0.69955000  1.0
  C  C126  1  0.21643000  0.24603000  0.83287000  1.0
  N  N127  1  0.11814000  0.16162000  0.21355000  1.0
  N  N128  1  0.41055000  0.22364000  0.40553000  1.0
  N  N129  1  0.71398000  0.87090000  0.43035000  1.0
  N  N130  1  0.57477000  0.03642000  0.26377000  1.0
  N  N131  1  0.42204000  0.44321000  0.29809000  1.0
  N  N132  1  0.78509000  0.99528000  0.64454000  1.0
  N  N133  1  0.81530000  0.44573000  0.89981000  1.0
  N  N134  1  0.96588000  0.18925000  0.97786000  1.0
  N  N135  1  0.03519000  0.22473000  0.72197000  1.0
  O  O136  1  0.49652000  0.00325000  0.99839000  1.0
  O  O137  1  0.88251000  0.67102000  0.38283000  1.0
  O  O138  1  0.17265000  0.55901000  0.38268000  1.0
  O  O139  1  0.61455000  0.93882000  0.11724000  1.0
  O  O140  1  0.90035000  0.35956000  0.55740000  1.0
  O  O141  1  0.04770000  0.68290000  0.38531000  1.0
  O  O142  1  0.87251000  0.39357000  0.67315000  1.0
  O  O143  1  0.04295000  0.40463000  0.68139000  1.0
  O  O144  1  0.87474000  0.54480000  0.39419000  1.0
  O  O145  1  0.17953000  0.39104000  0.38031000  1.0
  O  O146  1  0.88842000  0.68769000  0.54884000  1.0
  O  O147  1  0.62933000  0.95373000  0.82493000  1.0
  O  O148  1  0.44076000  0.10496000  0.82242000  1.0
  O  O149  1  0.60619000  0.82855000  0.93804000  1.0
  O  O150  1  0.32421000  0.11759000  0.11528000  1.0
  O  O151  1  0.43564000  0.82731000  0.10848000  1.0
  O  O152  1  0.62325000  0.10540000  0.95162000  1.0
  O  O153  1  0.31555000  0.95472000  0.11347000  1.0
  O  O154  1  0.59438000  0.14014000  0.83022000  1.0
  O  O155  1  0.44773000  0.12444000  0.11123000  1.0
  O  O156  1  0.61159000  0.81817000  0.11212000  1.0
  O  O157  1  0.31860000  0.12544000  0.94118000  1.0
  O  O158  1  0.99510000  0.50105000  0.50226000  1.0
  O  O159  1  0.05610000  0.38436000  0.38363000  1.0
  O  O160  1  0.85850000  0.56928000  0.66860000  1.0
  O  O161  1  0.16483000  0.38014000  0.56321000  1.0
