# generated using pymatgen
data_ZnH28C30N(ClO2)2
_symmetry_space_group_name_H-M   'P 1'
_cell_length_a   16.62450000
_cell_length_b   17.62690000
_cell_length_c   17.81140000
_cell_angle_alpha   90.45610000
_cell_angle_beta   92.06470000
_cell_angle_gamma   95.07720000
_symmetry_Int_Tables_number   1
_chemical_formula_structural   ZnH28C30N(ClO2)2
_chemical_formula_sum   'Zn2 H56 C60 N2 Cl4 O8'
_cell_volume   5195.24387221
_cell_formula_units_Z   2
loop_
 _symmetry_equiv_pos_site_id
 _symmetry_equiv_pos_as_xyz
  1  'x, y, z'
loop_
 _atom_site_type_symbol
 _atom_site_label
 _atom_site_symmetry_multiplicity
 _atom_site_fract_x
 _atom_site_fract_y
 _atom_site_fract_z
 _atom_site_occupancy
  Zn  Zn0  1  0.41090000  0.49701000  0.49699000  1.0
  Zn  Zn1  1  0.59278000  0.50326000  0.50254000  1.0
  H  H2  1  0.00976000  0.58749000  0.50540000  1.0
  H  H3  1  0.99384000  0.41306000  0.49465000  1.0
  H  H4  1  0.44172000  0.00156000  0.42803000  1.0
  H  H5  1  0.54801000  0.99785000  0.57151000  1.0
  H  H6  1  0.36538000  0.46352000  0.73233000  1.0
  H  H7  1  0.62467000  0.49400000  0.74059000  1.0
  H  H8  1  0.36678000  0.51604000  0.25858000  1.0
  H  H9  1  0.62604000  0.52657000  0.26678000  1.0
  H  H10  1  0.72986000  0.56636000  0.66923000  1.0
  H  H11  1  0.65981000  0.59775000  0.60180000  1.0
  H  H12  1  0.75238000  0.65341000  0.62302000  1.0
  H  H13  1  0.88572000  0.66962000  0.61202000  1.0
  H  H14  1  0.96186000  0.60505000  0.61459000  1.0
  H  H15  1  0.87780000  0.59085000  0.67258000  1.0
  H  H16  1  0.69918000  0.44523000  0.34382000  1.0
  H  H17  1  0.64982000  0.40036000  0.41991000  1.0
  H  H18  1  0.74043000  0.36684000  0.38758000  1.0
  H  H19  1  0.88498000  0.38268000  0.38581000  1.0
  H  H20  1  0.94016000  0.47140000  0.36944000  1.0
  H  H21  1  0.84198000  0.45013000  0.32774000  1.0
  H  H22  1  0.15987000  0.54538000  0.67447000  1.0
  H  H23  1  0.06227000  0.52569000  0.63109000  1.0
  H  H24  1  0.11837000  0.61449000  0.61744000  1.0
  H  H25  1  0.26456000  0.62733000  0.62032000  1.0
  H  H26  1  0.35510000  0.59297000  0.58948000  1.0
  H  H27  1  0.30010000  0.54506000  0.66120000  1.0
  H  H28  1  0.12103000  0.41834000  0.32531000  1.0
  H  H29  1  0.04170000  0.39390000  0.38663000  1.0
  H  H30  1  0.12342000  0.33601000  0.38059000  1.0
  H  H31  1  0.25885000  0.35314000  0.37443000  1.0
  H  H32  1  0.34449000  0.42007000  0.38570000  1.0
  H  H33  1  0.26170000  0.43957000  0.32513000  1.0
  H  H34  1  0.30436000  0.26829000  0.45488000  1.0
  H  H35  1  0.34273000  0.31370000  0.53885000  1.0
  H  H36  1  0.29312000  0.22005000  0.54119000  1.0
  H  H37  1  0.30256000  0.08915000  0.53926000  1.0
  H  H38  1  0.33437000  0.04198000  0.45942000  1.0
  H  H39  1  0.28595000  0.12714000  0.44897000  1.0
  H  H40  1  0.67998000  0.22784000  0.56614000  1.0
  H  H41  1  0.63710000  0.31615000  0.57669000  1.0
  H  H42  1  0.67706000  0.29230000  0.49058000  1.0
  H  H43  1  0.68152000  0.15073000  0.46809000  1.0
  H  H44  1  0.62642000  0.05969000  0.46382000  1.0
  H  H45  1  0.66253000  0.09956000  0.55136000  1.0
  H  H46  1  0.33422000  0.88671000  0.44000000  1.0
  H  H47  1  0.36339000  0.93158000  0.52723000  1.0
  H  H48  1  0.31391000  0.83799000  0.52443000  1.0
  H  H49  1  0.32749000  0.70376000  0.51348000  1.0
  H  H50  1  0.37378000  0.66591000  0.43563000  1.0
  H  H51  1  0.32700000  0.75245000  0.42696000  1.0
  H  H52  1  0.70948000  0.88190000  0.55730000  1.0
  H  H53  1  0.65587000  0.96389000  0.54861000  1.0
  H  H54  1  0.69362000  0.92283000  0.46819000  1.0
  H  H55  1  0.71475000  0.79629000  0.46935000  1.0
  H  H56  1  0.66993000  0.70147000  0.45550000  1.0
  H  H57  1  0.69869000  0.73516000  0.54666000  1.0
  C  C58  1  0.49499000  0.35300000  0.49903000  1.0
  C  C59  1  0.49692000  0.51496000  0.35488000  1.0
  C  C60  1  0.51702000  0.64724000  0.50052000  1.0
  C  C61  1  0.49510000  0.48535000  0.64422000  1.0
  C  C62  1  0.75870000  0.47070000  0.45178000  1.0
  C  C63  1  0.84315000  0.47938000  0.44544000  1.0
  C  C64  1  0.89002000  0.52343000  0.50020000  1.0
  C  C65  1  0.85048000  0.56179000  0.55581000  1.0
  C  C66  1  0.76560000  0.55410000  0.55566000  1.0
  C  C67  1  0.97915000  0.52999000  0.50110000  1.0
  C  C68  1  0.02445000  0.47057000  0.49879000  1.0
  C  C69  1  0.15319000  0.44134000  0.44253000  1.0
  C  C70  1  0.11362000  0.47729000  0.49970000  1.0
  C  C71  1  0.16038000  0.51919000  0.55600000  1.0
  C  C72  1  0.24498000  0.52731000  0.55062000  1.0
  C  C73  1  0.23802000  0.45051000  0.44181000  1.0
  C  C74  1  0.48976000  0.26751000  0.50699000  1.0
  C  C75  1  0.56152000  0.22946000  0.51434000  1.0
  C  C76  1  0.55783000  0.15012000  0.50159000  1.0
  C  C77  1  0.48233000  0.10737000  0.48992000  1.0
  C  C78  1  0.41040000  0.14444000  0.49131000  1.0
  C  C79  1  0.41362000  0.22401000  0.50095000  1.0
  C  C80  1  0.47715000  0.02398000  0.47762000  1.0
  C  C81  1  0.51290000  0.97445000  0.52213000  1.0
  C  C82  1  0.58724000  0.85910000  0.51074000  1.0
  C  C83  1  0.51230000  0.89140000  0.50992000  1.0
  C  C84  1  0.43975000  0.84434000  0.49642000  1.0
  C  C85  1  0.44209000  0.76520000  0.48636000  1.0
  C  C86  1  0.51688000  0.73240000  0.49323000  1.0
  C  C87  1  0.59027000  0.78027000  0.49944000  1.0
  C  C88  1  0.49499000  0.48051000  0.72846000  1.0
  C  C89  1  0.42190000  0.47184000  0.76524000  1.0
  C  C90  1  0.42212000  0.47532000  0.84314000  1.0
  C  C91  1  0.49523000  0.48634000  0.88716000  1.0
  C  C92  1  0.56832000  0.49063000  0.84791000  1.0
  C  C93  1  0.56830000  0.48852000  0.77003000  1.0
  C  C94  1  0.49528000  0.49467000  0.96564000  1.0
  C  C95  1  0.49539000  0.50454000  0.03356000  1.0
  C  C96  1  0.49577000  0.51319000  0.11202000  1.0
  C  C97  1  0.42293000  0.51295000  0.15133000  1.0
  C  C98  1  0.42309000  0.51681000  0.22923000  1.0
  C  C99  1  0.49637000  0.51980000  0.27067000  1.0
  C  C100  1  0.56946000  0.52296000  0.23383000  1.0
  C  C101  1  0.56909000  0.52055000  0.15597000  1.0
  C  C102  1  0.72402000  0.59517000  0.61487000  1.0
  C  C103  1  0.89669000  0.60911000  0.61650000  1.0
  C  C104  1  0.70911000  0.41791000  0.39827000  1.0
  C  C105  1  0.87967000  0.44410000  0.37885000  1.0
  C  C106  1  0.12313000  0.55282000  0.62309000  1.0
  C  C107  1  0.29437000  0.57571000  0.60797000  1.0
  C  C108  1  0.10710000  0.39515000  0.38101000  1.0
  C  C109  1  0.27890000  0.41415000  0.37901000  1.0
  C  C110  1  0.33453000  0.25875000  0.50959000  1.0
  C  C111  1  0.32943000  0.09844000  0.48401000  1.0
  C  C112  1  0.64314000  0.26868000  0.53822000  1.0
  C  C113  1  0.63597000  0.11306000  0.49597000  1.0
  C  C114  1  0.35878000  0.87691000  0.49710000  1.0
  C  C115  1  0.36371000  0.71899000  0.46444000  1.0
  C  C116  1  0.66523000  0.90937000  0.52206000  1.0
  C  C117  1  0.67269000  0.75160000  0.49209000  1.0
  N  N118  1  0.72098000  0.50835000  0.50515000  1.0
  N  N119  1  0.28270000  0.49305000  0.49484000  1.0
  Cl  Cl120  1  0.65932000  0.50054000  0.89843000  1.0
  Cl  Cl121  1  0.33132000  0.46767000  0.88781000  1.0
  Cl  Cl122  1  0.65980000  0.52452000  0.11128000  1.0
  Cl  Cl123  1  0.33188000  0.50595000  0.10084000  1.0
  O  O124  1  0.43292000  0.38419000  0.47444000  1.0
  O  O125  1  0.56336000  0.39015000  0.51344000  1.0
  O  O126  1  0.56199000  0.49746000  0.38667000  1.0
  O  O127  1  0.43152000  0.52682000  0.38658000  1.0
  O  O128  1  0.58162000  0.61599000  0.48769000  1.0
  O  O129  1  0.45305000  0.61015000  0.52301000  1.0
  O  O130  1  0.42777000  0.46937000  0.60877000  1.0
  O  O131  1  0.56230000  0.50677000  0.61613000  1.0
