# generated using pymatgen
data_SnH8C12(NCl)2
_symmetry_space_group_name_H-M   'P 1'
_cell_length_a   8.17737000
_cell_length_b   9.25295000
_cell_length_c   9.25312000
_cell_angle_alpha   65.50380000
_cell_angle_beta   77.75360000
_cell_angle_gamma   77.75510000
_symmetry_Int_Tables_number   1
_chemical_formula_structural   SnH8C12(NCl)2
_chemical_formula_sum   'Sn2 H16 C24 N4 Cl4'
_cell_volume   616.52111556
_cell_formula_units_Z   2
loop_
 _symmetry_equiv_pos_site_id
 _symmetry_equiv_pos_as_xyz
  1  'x, y, z'
loop_
 _atom_site_type_symbol
 _atom_site_label
 _atom_site_symmetry_multiplicity
 _atom_site_fract_x
 _atom_site_fract_y
 _atom_site_fract_z
 _atom_site_occupancy
  Sn  Sn0  1  0.75002000  0.04945000  0.95055000  1.0
  Sn  Sn1  1  0.25006000  0.95058000  0.04946000  1.0
  H  H2  1  0.07409000  0.98433000  0.68892000  1.0
  H  H3  1  0.42589000  0.31108000  0.01567000  1.0
  H  H4  1  0.92591000  0.01566000  0.31107000  1.0
  H  H5  1  0.57410000  0.68892000  0.98433000  1.0
  H  H6  1  0.20218000  0.11589000  0.40021000  1.0
  H  H7  1  0.29781000  0.59980000  0.88410000  1.0
  H  H8  1  0.79781000  0.88411000  0.59979000  1.0
  H  H9  1  0.70218000  0.40020000  0.11589000  1.0
  H  H10  1  0.07538000  0.39378000  0.23630000  1.0
  H  H11  1  0.42463000  0.76370000  0.60621000  1.0
  H  H12  1  0.92462000  0.60622000  0.76370000  1.0
  H  H13  1  0.57537000  0.23630000  0.39378000  1.0
  H  H14  1  0.86983000  0.63796000  0.22649000  1.0
  H  H15  1  0.63018000  0.77351000  0.36203000  1.0
  H  H16  1  0.13017000  0.36204000  0.77351000  1.0
  H  H17  1  0.36982000  0.22649000  0.63797000  1.0
  C  C18  1  0.02288000  0.10500000  0.61263000  1.0
  C  C19  1  0.47711000  0.38737000  0.89499000  1.0
  C  C20  1  0.97712000  0.89499000  0.38737000  1.0
  C  C21  1  0.52288000  0.61263000  0.10500000  1.0
  C  C22  1  0.09352000  0.17917000  0.45186000  1.0
  C  C23  1  0.40647000  0.54814000  0.82082000  1.0
  C  C24  1  0.90647000  0.82082000  0.54813000  1.0
  C  C25  1  0.59352000  0.45186000  0.17918000  1.0
  C  C26  1  0.02434000  0.33256000  0.36168000  1.0
  C  C27  1  0.47566000  0.63832000  0.66744000  1.0
  C  C28  1  0.97565000  0.66744000  0.63832000  1.0
  C  C29  1  0.52434000  0.36168000  0.33256000  1.0
  C  C30  1  0.88709000  0.41302000  0.43356000  1.0
  C  C31  1  0.61291000  0.56645000  0.58697000  1.0
  C  C32  1  0.11290000  0.58697000  0.56644000  1.0
  C  C33  1  0.38709000  0.43356000  0.41303000  1.0
  C  C34  1  0.82116000  0.32798000  0.59572000  1.0
  C  C35  1  0.67884000  0.40428000  0.67202000  1.0
  C  C36  1  0.17884000  0.67202000  0.40428000  1.0
  C  C37  1  0.32117000  0.59572000  0.32798000  1.0
  C  C38  1  0.81519000  0.57504000  0.35030000  1.0
  C  C39  1  0.68481000  0.64969000  0.42495000  1.0
  C  C40  1  0.18481000  0.42495000  0.64970000  1.0
  C  C41  1  0.31519000  0.35031000  0.57505000  1.0
  N  N42  1  0.88959000  0.17614000  0.68160000  1.0
  N  N43  1  0.61040000  0.31840000  0.82385000  1.0
  N  N44  1  0.11041000  0.82385000  0.31840000  1.0
  N  N45  1  0.38960000  0.68160000  0.17615000  1.0
  Cl  Cl46  1  0.43932000  0.02615000  0.22101000  1.0
  Cl  Cl47  1  0.06069000  0.77903000  0.97385000  1.0
  Cl  Cl48  1  0.56069000  0.97385000  0.77900000  1.0
  Cl  Cl49  1  0.93930000  0.22098000  0.02615000  1.0
