# generated using pymatgen
data_Zr3H31C46(NO4)5
_symmetry_space_group_name_H-M   'P 1'
_cell_length_a   19.02436252
_cell_length_b   19.05332313
_cell_length_c   19.05320000
_cell_angle_alpha   90.09148457
_cell_angle_beta   119.93812734
_cell_angle_gamma   119.93831768
_symmetry_Int_Tables_number   1
_chemical_formula_structural   Zr3H31C46(NO4)5
_chemical_formula_sum   'Zr6 H62 C92 N10 O40'
_cell_volume   4888.74404063
_cell_formula_units_Z   2
loop_
 _symmetry_equiv_pos_site_id
 _symmetry_equiv_pos_as_xyz
  1  'x, y, z'
loop_
 _atom_site_type_symbol
 _atom_site_label
 _atom_site_symmetry_multiplicity
 _atom_site_fract_x
 _atom_site_fract_y
 _atom_site_fract_z
 _atom_site_occupancy
  Zr  Zr0  1  0.68610000  0.09383000  0.09056000  1.0
  Zr  Zr1  1  0.31452000  0.90941000  0.90623000  1.0
  Zr  Zr2  1  0.49840000  0.90807000  0.90439000  1.0
  Zr  Zr3  1  0.50219000  0.09567000  0.09190000  1.0
  Zr  Zr4  1  0.50027000  0.09434000  0.90560000  1.0
  Zr  Zr5  1  0.50036000  0.90902000  0.09109000  1.0
  H  H6  1  0.64509000  0.07347000  0.92373000  1.0
  H  H7  1  0.35540000  0.07617000  0.92650000  1.0
  H  H8  1  0.35292000  0.78278000  0.92576000  1.0
  H  H9  1  0.64770000  0.07437000  0.21723000  1.0
  H  H10  1  0.08075000  0.72272000  0.93892000  1.0
  H  H11  1  0.91878000  0.35994000  0.13457000  1.0
  H  H12  1  0.71894000  0.28818000  0.86120000  1.0
  H  H13  1  0.85275000  0.41780000  0.86226000  1.0
  H  H14  1  0.27847000  0.64609000  0.06482000  1.0
  H  H15  1  0.14275000  0.51300000  0.05843000  1.0
  H  H16  1  0.08146000  0.86555000  0.64010000  1.0
  H  H17  1  0.92005000  0.06152000  0.27762000  1.0
  H  H18  1  0.72219000  0.93567000  0.35413000  1.0
  H  H19  1  0.85791000  0.94222000  0.48737000  1.0
  H  H20  1  0.28183000  0.13886000  0.71210000  1.0
  H  H21  1  0.14817000  0.13817000  0.58271000  1.0
  H  H22  1  0.58169000  0.72238000  0.13559000  1.0
  H  H23  1  0.57817000  0.35985000  0.93794000  1.0
  H  H24  1  0.43110000  0.28933000  0.06463000  1.0
  H  H25  1  0.42442000  0.41717000  0.05641000  1.0
  H  H26  1  0.42857000  0.64470000  0.86116000  1.0
  H  H27  1  0.42454000  0.51142000  0.86211000  1.0
  H  H28  1  0.42204000  0.06177000  0.64006000  1.0
  H  H29  1  0.41871000  0.86434000  0.27737000  1.0
  H  H30  1  0.57157000  0.13874000  0.35525000  1.0
  H  H31  1  0.57526000  0.13756000  0.48837000  1.0
  H  H32  1  0.56891000  0.93491000  0.71031000  1.0
  H  H33  1  0.57537000  0.94304000  0.58235000  1.0
  H  H34  1  0.07021000  0.87569000  0.90348000  1.0
  H  H35  1  0.29100000  0.10910000  0.11550000  1.0
  H  H36  1  0.93036000  0.09648000  0.12428000  1.0
  H  H37  1  0.70953000  0.88462000  0.89073000  1.0
  H  H38  1  0.27728000  0.71865000  0.64081000  1.0
  H  H39  1  0.72329000  0.35921000  0.28128000  1.0
  H  H40  1  0.92369000  0.28535000  0.35680000  1.0
  H  H41  1  0.05047000  0.41265000  0.49184000  1.0
  H  H42  1  0.07692000  0.64309000  0.71472000  1.0
  H  H43  1  0.95010000  0.50810000  0.58739000  1.0
  H  H44  1  0.87195000  0.53683000  0.92220000  1.0
  H  H45  1  0.91692000  0.63344000  0.90295000  1.0
  H  H46  1  0.11226000  0.56667000  0.15596000  1.0
  H  H47  1  0.07028000  0.50428000  0.20868000  1.0
  H  H48  1  0.88808000  0.84458000  0.43364000  1.0
  H  H49  1  0.92994000  0.79172000  0.49590000  1.0
  H  H50  1  0.12879000  0.07817000  0.46359000  1.0
  H  H51  1  0.08385000  0.09737000  0.36694000  1.0
  H  H52  1  0.58651000  0.53469000  0.15464000  1.0
  H  H53  1  0.61343000  0.62657000  0.20696000  1.0
  H  H54  1  0.60440000  0.56308000  0.94211000  1.0
  H  H55  1  0.63985000  0.50201000  0.92467000  1.0
  H  H56  1  0.39545000  0.05749000  0.43668000  1.0
  H  H57  1  0.36014000  0.07495000  0.49787000  1.0
  H  H58  1  0.41326000  0.84495000  0.46475000  1.0
  H  H59  1  0.38652000  0.79272000  0.37292000  1.0
  H  H60  1  0.09570000  0.53957000  0.43926000  1.0
  H  H61  1  0.20864000  0.63686000  0.49878000  1.0
  H  H62  1  0.90479000  0.56068000  0.46051000  1.0
  H  H63  1  0.79185000  0.50119000  0.36320000  1.0
  H  H64  1  0.69759000  0.76349000  0.89661000  1.0
  H  H65  1  0.78648000  0.77810000  0.73114000  1.0
  H  H66  1  0.21367000  0.26879000  0.22152000  1.0
  H  H67  1  0.30301000  0.10346000  0.23672000  1.0
  C  C68  1  0.73475000  0.23856000  0.99854000  1.0
  C  C69  1  0.26576000  0.00137000  0.76146000  1.0
  C  C70  1  0.26534000  0.76977000  0.00254000  1.0
  C  C71  1  0.73539000  0.99773000  0.23037000  1.0
  C  C72  1  0.73557000  0.99579000  0.00141000  1.0
  C  C73  1  0.73872000  0.23930000  0.23201000  1.0
  C  C74  1  0.26501000  0.99855000  0.00424000  1.0
  C  C75  1  0.26190000  0.76787000  0.76080000  1.0
  C  C76  1  0.49379000  0.99702000  0.75940000  1.0
  C  C77  1  0.50491000  0.76853000  0.99910000  1.0
  C  C78  1  0.49572000  0.00098000  0.23150000  1.0
  C  C79  1  0.50659000  0.24050000  0.00275000  1.0
  C  C80  1  0.18683000  0.69201000  0.00244000  1.0
  C  C81  1  0.81196000  0.31738000  0.99839000  1.0
  C  C82  1  0.09420000  0.67691000  0.96619000  1.0
  C  C83  1  0.01849000  0.60438000  0.96563000  1.0
  C  C84  1  0.90477000  0.37446000  0.07544000  1.0
  C  C85  1  0.97861000  0.45003000  0.07766000  1.0
  C  C86  1  0.79151000  0.33353000  0.92098000  1.0
  C  C87  1  0.86605000  0.40646000  0.92247000  1.0
  C  C88  1  0.20608000  0.63386000  0.03750000  1.0
  C  C89  1  0.13036000  0.56037000  0.03404000  1.0
  C  C90  1  0.03681000  0.54413000  0.99930000  1.0
  C  C91  1  0.95951000  0.46592000  0.99931000  1.0
  C  C92  1  0.18856000  0.00167000  0.68274000  1.0
  C  C93  1  0.81392000  0.99802000  0.30828000  1.0
  C  C94  1  0.09563000  0.92475000  0.62569000  1.0
  C  C95  1  0.02185000  0.92273000  0.55023000  1.0
  C  C96  1  0.90660000  0.03433000  0.32345000  1.0
  C  C97  1  0.98228000  0.03491000  0.39605000  1.0
  C  C98  1  0.79462000  0.96304000  0.36644000  1.0
  C  C99  1  0.87033000  0.96656000  0.43999000  1.0
  C  C100  1  0.20918000  0.07916000  0.66672000  1.0
  C  C101  1  0.13472000  0.07788000  0.59393000  1.0
  C  C102  1  0.04113000  0.00115000  0.53446000  1.0
  C  C103  1  0.96390000  0.00128000  0.45628000  1.0
  C  C104  1  0.50567000  0.69071000  0.99885000  1.0
  C  C105  1  0.50605000  0.31840000  0.00215000  1.0
  C  C106  1  0.54845000  0.67581000  0.07612000  1.0
  C  C107  1  0.55108000  0.60346000  0.07810000  1.0
  C  C108  1  0.54652000  0.37437000  0.96534000  1.0
  C  C109  1  0.54791000  0.44872000  0.96424000  1.0
  C  C110  1  0.46330000  0.33410000  0.03687000  1.0
  C  C111  1  0.46116000  0.40594000  0.03301000  1.0
  C  C112  1  0.46242000  0.63259000  0.92107000  1.0
  C  C113  1  0.46107000  0.55896000  0.92227000  1.0
  C  C114  1  0.50473000  0.54289000  0.99923000  1.0
  C  C115  1  0.50376000  0.46464000  0.99839000  1.0
  C  C116  1  0.49410000  0.99750000  0.68139000  1.0
  C  C117  1  0.49466000  0.00107000  0.30916000  1.0
  C  C118  1  0.45359000  0.03431000  0.62544000  1.0
  C  C119  1  0.45206000  0.03534000  0.55103000  1.0
  C  C120  1  0.45181000  0.92374000  0.32394000  1.0
  C  C121  1  0.44895000  0.92162000  0.39617000  1.0
  C  C122  1  0.53769000  0.07878000  0.36727000  1.0
  C  C123  1  0.53883000  0.07744000  0.44081000  1.0
  C  C124  1  0.53668000  0.96266000  0.66555000  1.0
  C  C125  1  0.53872000  0.96649000  0.59366000  1.0
  C  C126  1  0.49609000  0.00113000  0.53499000  1.0
  C  C127  1  0.49516000  0.00041000  0.45677000  1.0
  C  C128  1  0.08713000  0.92415000  0.95090000  1.0
  C  C129  1  0.01166000  0.91902000  0.95230000  1.0
  C  C130  1  0.90796000  0.85167000  0.88824000  1.0
  C  C131  1  0.21263000  0.05622000  0.07272000  1.0
  C  C132  1  0.14036000  0.05220000  0.07909000  1.0
  C  C133  1  0.16548000  0.11530000  0.14560000  1.0
  C  C134  1  0.91342000  0.04908000  0.07578000  1.0
  C  C135  1  0.98887000  0.04765000  0.08092000  1.0
  C  C136  1  0.09255000  0.11168000  0.14829000  1.0
  C  C137  1  0.78791000  0.92735000  0.94364000  1.0
  C  C138  1  0.86016000  0.92094000  0.94766000  1.0
  C  C139  1  0.83505000  0.85440000  0.88461000  1.0
  C  C140  1  0.18611000  0.99280000  0.00944000  1.0
  C  C141  1  0.03786000  0.98423000  0.01622000  1.0
  C  C142  1  0.81445000  0.99061000  0.00710000  1.0
  C  C143  1  0.96268000  0.98374000  0.01569000  1.0
  C  C144  1  0.18393000  0.68846000  0.68398000  1.0
  C  C145  1  0.81668000  0.31610000  0.31144000  1.0
  C  C146  1  0.20442000  0.67228000  0.62743000  1.0
  C  C147  1  0.13266000  0.59849000  0.55400000  1.0
  C  C148  1  0.79616000  0.37260000  0.32767000  1.0
  C  C149  1  0.86789000  0.44601000  0.40150000  1.0
  C  C150  1  0.90903000  0.33045000  0.36991000  1.0
  C  C151  1  0.97917000  0.40160000  0.44455000  1.0
  C  C152  1  0.09157000  0.63000000  0.66960000  1.0
  C  C153  1  0.02140000  0.55538000  0.59843000  1.0
  C  C154  1  0.03927000  0.53834000  0.53942000  1.0
  C  C155  1  0.96128000  0.46058000  0.46163000  1.0
  C  C156  1  0.72776000  0.78864000  0.81337000  1.0
  C  C157  1  0.88551000  0.77648000  0.83236000  1.0
  C  C158  1  0.11494000  0.16758000  0.22341000  1.0
  C  C159  1  0.27273000  0.18661000  0.21135000  1.0
  N  N160  1  0.93105000  0.59526000  0.93635000  1.0
  N  N161  1  0.06970000  0.50661000  0.15529000  1.0
  N  N162  1  0.93066000  0.84518000  0.49367000  1.0
  N  N163  1  0.06971000  0.06411000  0.40519000  1.0
  N  N164  1  0.60263000  0.59432000  0.15628000  1.0
  N  N165  1  0.58920000  0.50377000  0.92794000  1.0
  N  N166  1  0.41073000  0.07166000  0.49602000  1.0
  N  N167  1  0.39730000  0.84339000  0.40517000  1.0
  N  N168  1  0.15433000  0.58431000  0.49818000  1.0
  N  N169  1  0.84617000  0.50176000  0.41571000  1.0
  O  O170  1  0.76395000  0.20923000  0.05946000  1.0
  O  O171  1  0.23655000  0.94044000  0.79077000  1.0
  O  O172  1  0.23714000  0.80296000  0.94518000  1.0
  O  O173  1  0.76354000  0.05503000  0.19711000  1.0
  O  O174  1  0.64600000  0.93737000  0.94025000  1.0
  O  O175  1  0.64837000  0.21101000  0.19896000  1.0
  O  O176  1  0.35456000  0.05975000  0.06262000  1.0
  O  O177  1  0.35224000  0.80088000  0.78911000  1.0
  O  O178  1  0.49009000  0.05453000  0.78864000  1.0
  O  O179  1  0.50800000  0.80062000  0.06026000  1.0
  O  O180  1  0.49280000  0.93989000  0.19949000  1.0
  O  O181  1  0.51040000  0.21130000  0.94531000  1.0
  O  O182  1  0.49997000  0.79678000  0.93697000  1.0
  O  O183  1  0.50070000  0.06311000  0.20326000  1.0
  O  O184  1  0.50166000  0.20781000  0.06016000  1.0
  O  O185  1  0.49881000  0.93967000  0.79216000  1.0
  O  O186  1  0.76579000  0.05860000  0.05817000  1.0
  O  O187  1  0.23317000  0.79676000  0.79373000  1.0
  O  O188  1  0.23481000  0.94180000  0.94143000  1.0
  O  O189  1  0.76747000  0.20638000  0.20314000  1.0
  O  O190  1  0.64502000  0.94091000  0.20264000  1.0
  O  O191  1  0.64416000  0.20512000  0.93663000  1.0
  O  O192  1  0.35636000  0.06323000  0.79484000  1.0
  O  O193  1  0.35571000  0.79745000  0.05926000  1.0
  O  O194  1  0.60564000  0.05405000  0.15495000  1.0
  O  O195  1  0.39502000  0.84507000  0.94606000  1.0
  O  O196  1  0.39617000  0.05461000  0.94738000  1.0
  O  O197  1  0.60438000  0.05260000  0.94536000  1.0
  O  O198  1  0.42259000  0.96306000  0.88302000  1.0
  O  O199  1  0.57794000  0.11695000  0.03687000  1.0
  O  O200  1  0.42376000  0.96418000  0.03753000  1.0
  O  O201  1  0.57687000  0.96255000  0.03586000  1.0
  O  O202  1  0.66368000  0.74373000  0.83434000  1.0
  O  O203  1  0.69619000  0.77415000  0.73724000  1.0
  O  O204  1  0.82678000  0.75446000  0.74686000  1.0
  O  O205  1  0.92342000  0.73881000  0.86554000  1.0
  O  O206  1  0.17342000  0.25308000  0.24520000  1.0
  O  O207  1  0.07722000  0.13445000  0.26123000  1.0
  O  O208  1  0.33686000  0.16573000  0.25638000  1.0
  O  O209  1  0.30417000  0.26270000  0.22572000  1.0
