# generated using pymatgen
data_Ni2Mo6H40C48N16O19
_symmetry_space_group_name_H-M   'P 1'
_cell_length_a   12.13630000
_cell_length_b   12.13780000
_cell_length_c   13.49013952
_cell_angle_alpha   63.27300064
_cell_angle_beta   63.27112632
_cell_angle_gamma   90.01060000
_symmetry_Int_Tables_number   1
_chemical_formula_structural   Ni2Mo6H40C48N16O19
_chemical_formula_sum   'Ni2 Mo6 H40 C48 N16 O19'
_cell_volume   1533.32790391
_cell_formula_units_Z   1
loop_
 _symmetry_equiv_pos_site_id
 _symmetry_equiv_pos_as_xyz
  1  'x, y, z'
loop_
 _atom_site_type_symbol
 _atom_site_label
 _atom_site_symmetry_multiplicity
 _atom_site_fract_x
 _atom_site_fract_y
 _atom_site_fract_z
 _atom_site_occupancy
  Ni  Ni0  1  0.00000000  0.50000000  0.00000000  1.0
  Ni  Ni1  1  0.50000000  0.00000000  1.00000000  1.0
  Mo  Mo2  1  0.96866000  0.80896000  0.00001000  1.0
  Mo  Mo3  1  0.03134000  0.19104000  0.99998000  1.0
  Mo  Mo4  1  0.80895000  0.03130000  0.00003000  1.0
  Mo  Mo5  1  0.19105000  0.96870000  0.99997000  1.0
  Mo  Mo6  1  0.88675000  0.88676000  0.22653000  1.0
  Mo  Mo7  1  0.11325000  0.11325000  0.77346000  1.0
  H  H8  1  0.04781000  0.43500000  0.78048000  1.0
  H  H9  1  0.17157000  0.78442000  0.78056000  1.0
  H  H10  1  0.43497000  0.17168000  0.78050000  1.0
  H  H11  1  0.78459000  0.04791000  0.78050000  1.0
  H  H12  1  0.95219000  0.56500000  0.21952000  1.0
  H  H13  1  0.82843000  0.21558000  0.21944000  1.0
  H  H14  1  0.56502000  0.82831000  0.21951000  1.0
  H  H15  1  0.21542000  0.95209000  0.21950000  1.0
  H  H16  1  0.84583000  0.69063000  0.87044000  1.0
  H  H17  1  0.28388000  0.43897000  0.87036000  1.0
  H  H18  1  0.69070000  0.28386000  0.87037000  1.0
  H  H19  1  0.43897000  0.84583000  0.87043000  1.0
  H  H20  1  0.15417000  0.30938000  0.12955000  1.0
  H  H21  1  0.71612000  0.56102000  0.12964000  1.0
  H  H22  1  0.30930000  0.71614000  0.12963000  1.0
  H  H23  1  0.56103000  0.15417000  0.12957000  1.0
  H  H24  1  0.84530000  0.70142000  0.66017000  1.0
  H  H25  1  0.49458000  0.63856000  0.66010000  1.0
  H  H26  1  0.70142000  0.49460000  0.66011000  1.0
  H  H27  1  0.63846000  0.84537000  0.66016000  1.0
  H  H28  1  0.15470000  0.29858000  0.33983000  1.0
  H  H29  1  0.50542000  0.36144000  0.33990000  1.0
  H  H30  1  0.29858000  0.50540000  0.33989000  1.0
  H  H31  1  0.36154000  0.15463000  0.33984000  1.0
  H  H32  1  0.97959000  0.33569000  0.70665000  1.0
  H  H33  1  0.31372000  0.95773000  0.70664000  1.0
  H  H34  1  0.33562000  0.31379000  0.70664000  1.0
  H  H35  1  0.95767000  0.97960000  0.70664000  1.0
  H  H36  1  0.02041000  0.66430000  0.29336000  1.0
  H  H37  1  0.68628000  0.04227000  0.29336000  1.0
  H  H38  1  0.66438000  0.68621000  0.29336000  1.0
  H  H39  1  0.04233000  0.02040000  0.29336000  1.0
  H  H40  1  0.97693000  0.71750000  0.46078000  1.0
  H  H41  1  0.56220000  0.82171000  0.46078000  1.0
  H  H42  1  0.71755000  0.56225000  0.46081000  1.0
  H  H43  1  0.82168000  0.97707000  0.46070000  1.0
  H  H44  1  0.02308000  0.28250000  0.53922000  1.0
  H  H45  1  0.43780000  0.17829000  0.53922000  1.0
  H  H46  1  0.28245000  0.43775000  0.53919000  1.0
  H  H47  1  0.17832000  0.02293000  0.53930000  1.0
  C  C48  1  0.99220000  0.50513000  0.77910000  1.0
  C  C49  1  0.22863000  0.71574000  0.77910000  1.0
  C  C50  1  0.50512000  0.22870000  0.77911000  1.0
  C  C51  1  0.71584000  0.99232000  0.77907000  1.0
  C  C52  1  0.00780000  0.49487000  0.22090000  1.0
  C  C53  1  0.77137000  0.28426000  0.22090000  1.0
  C  C54  1  0.49488000  0.77129000  0.22090000  1.0
  C  C55  1  0.28416000  0.00768000  0.22093000  1.0
  C  C56  1  0.88728000  0.63861000  0.82093000  1.0
  C  C57  1  0.29185000  0.54048000  0.82087000  1.0
  C  C58  1  0.63867000  0.29188000  0.82086000  1.0
  C  C59  1  0.54049000  0.88732000  0.82093000  1.0
  C  C60  1  0.11272000  0.36139000  0.17907000  1.0
  C  C61  1  0.70815000  0.45952000  0.17912000  1.0
  C  C62  1  0.36133000  0.70812000  0.17914000  1.0
  C  C63  1  0.45951000  0.11268000  0.17907000  1.0
  C  C64  1  0.88637000  0.64540000  0.71693000  1.0
  C  C65  1  0.39670000  0.63775000  0.71685000  1.0
  C  C66  1  0.64541000  0.39676000  0.71690000  1.0
  C  C67  1  0.63771000  0.88649000  0.71689000  1.0
  C  C68  1  0.11363000  0.35459000  0.28307000  1.0
  C  C69  1  0.60330000  0.36226000  0.28314000  1.0
  C  C70  1  0.35459000  0.60325000  0.28310000  1.0
  C  C71  1  0.36229000  0.11351000  0.28311000  1.0
  C  C72  1  0.97671000  0.53030000  0.59418000  1.0
  C  C73  1  0.42905000  0.87557000  0.59418000  1.0
  C  C74  1  0.53025000  0.42912000  0.59416000  1.0
  C  C75  1  0.87554000  0.97679000  0.59413000  1.0
  C  C76  1  0.02329000  0.46970000  0.40582000  1.0
  C  C77  1  0.57095000  0.12444000  0.40582000  1.0
  C  C78  1  0.46974000  0.57088000  0.40584000  1.0
  C  C79  1  0.12447000  0.02321000  0.40587000  1.0
  C  C80  1  0.99034000  0.40845000  0.61552000  1.0
  C  C81  1  0.39414000  0.97610000  0.61553000  1.0
  C  C82  1  0.40838000  0.39417000  0.61551000  1.0
  C  C83  1  0.97607000  0.99031000  0.61551000  1.0
  C  C84  1  0.00966000  0.59154000  0.38449000  1.0
  C  C85  1  0.60586000  0.02391000  0.38447000  1.0
  C  C86  1  0.59162000  0.60583000  0.38449000  1.0
  C  C87  1  0.02393000  0.00968000  0.38449000  1.0
  C  C88  1  0.98605000  0.62192000  0.47888000  1.0
  C  C89  1  0.53498000  0.89919000  0.47887000  1.0
  C  C90  1  0.62198000  0.53503000  0.47888000  1.0
  C  C91  1  0.89916000  0.98617000  0.47883000  1.0
  C  C92  1  0.01395000  0.37808000  0.52112000  1.0
  C  C93  1  0.46502000  0.10081000  0.52113000  1.0
  C  C94  1  0.37802000  0.46497000  0.52112000  1.0
  C  C95  1  0.10084000  0.01382000  0.52117000  1.0
  N  N96  1  0.95366000  0.55116000  0.85815000  1.0
  N  N97  1  0.18821000  0.59065000  0.85813000  1.0
  N  N98  1  0.55123000  0.18830000  0.85808000  1.0
  N  N99  1  0.59074000  0.95371000  0.85815000  1.0
  N  N100  1  0.04634000  0.44884000  0.14185000  1.0
  N  N101  1  0.81179000  0.40935000  0.14187000  1.0
  N  N102  1  0.44876000  0.81170000  0.14192000  1.0
  N  N103  1  0.40926000  0.04629000  0.14185000  1.0
  N  N104  1  0.95300000  0.55962000  0.69142000  1.0
  N  N105  1  0.35551000  0.74899000  0.69140000  1.0
  N  N106  1  0.55959000  0.35559000  0.69144000  1.0
  N  N107  1  0.74901000  0.95313000  0.69139000  1.0
  N  N108  1  0.04700000  0.44038000  0.30858000  1.0
  N  N109  1  0.64449000  0.25101000  0.30860000  1.0
  N  N110  1  0.44040000  0.64441000  0.30856000  1.0
  N  N111  1  0.25099000  0.04687000  0.30861000  1.0
  O  O112  1  0.96531000  0.66591000  0.00002000  1.0
  O  O113  1  0.03469000  0.33409000  0.99998000  1.0
  O  O114  1  0.66586000  0.03465000  0.00008000  1.0
  O  O115  1  0.33414000  0.96536000  0.99991000  1.0
  O  O116  1  0.82580000  0.85224000  0.00009000  1.0
  O  O117  1  0.17421000  0.14776000  0.99990000  1.0
  O  O118  1  0.85232000  0.17408000  0.00002000  1.0
  O  O119  1  0.14768000  0.82592000  0.99998000  1.0
  O  O120  1  0.00000000  0.00000000  0.00000000  1.0
  O  O121  1  0.90275000  0.75404000  0.17657000  1.0
  O  O122  1  0.92079000  0.06946000  0.17651000  1.0
  O  O123  1  0.75402000  0.92074000  0.17657000  1.0
  O  O124  1  0.06946000  0.90278000  0.17651000  1.0
  O  O125  1  0.09725000  0.24595000  0.82344000  1.0
  O  O126  1  0.07922000  0.93054000  0.82349000  1.0
  O  O127  1  0.24598000  0.07926000  0.82343000  1.0
  O  O128  1  0.93054000  0.09721000  0.82350000  1.0
  O  O129  1  0.80466000  0.80475000  0.39061000  1.0
  O  O130  1  0.19534000  0.19525000  0.60939000  1.0
