# generated using pymatgen
data_NiH18C20(I2O3)4
_symmetry_space_group_name_H-M   'P 1'
_cell_length_a   9.67269000
_cell_length_b   10.11130000
_cell_length_c   10.42320000
_cell_angle_alpha   102.37100000
_cell_angle_beta   112.74300000
_cell_angle_gamma   98.84520000
_symmetry_Int_Tables_number   1
_chemical_formula_structural   NiH18C20(I2O3)4
_chemical_formula_sum   'Ni1 H18 C20 I8 O12'
_cell_volume   886.09537412
_cell_formula_units_Z   1
loop_
 _symmetry_equiv_pos_site_id
 _symmetry_equiv_pos_as_xyz
  1  'x, y, z'
loop_
 _atom_site_type_symbol
 _atom_site_label
 _atom_site_symmetry_multiplicity
 _atom_site_fract_x
 _atom_site_fract_y
 _atom_site_fract_z
 _atom_site_occupancy
  Ni  Ni0  1  0.00001000  0.50001000  0.50001000  1.0
  H  H1  1  0.65914000  0.43950000  0.50157000  1.0
  H  H2  1  0.34088000  0.56051000  0.49843000  1.0
  H  H3  1  0.68971000  0.56268000  0.66711000  1.0
  H  H4  1  0.31029000  0.43732000  0.33288000  1.0
  H  H5  1  0.76508000  0.41190000  0.67411000  1.0
  H  H6  1  0.23491000  0.58812000  0.32589000  1.0
  H  H7  1  0.15884000  0.78078000  0.41015000  1.0
  H  H8  1  0.84114000  0.21923000  0.58984000  1.0
  H  H9  1  0.17742000  0.92040000  0.56057000  1.0
  H  H10  1  0.82256000  0.07960000  0.43943000  1.0
  H  H11  1  0.99018000  0.80749000  0.43338000  1.0
  H  H12  1  0.00981000  0.19250000  0.56662000  1.0
  H  H13  1  0.96541000  0.60061000  0.72133000  1.0
  H  H14  1  0.03461000  0.39939000  0.27869000  1.0
  H  H15  1  0.23317000  0.73293000  0.64566000  1.0
  H  H16  1  0.76684000  0.26708000  0.35434000  1.0
  H  H17  1  0.20690000  0.68751000  0.03159000  1.0
  H  H18  1  0.79312000  0.31250000  0.96843000  1.0
  C  C19  1  0.78938000  0.45334000  0.18755000  1.0
  C  C20  1  0.21061000  0.54665000  0.81247000  1.0
  C  C21  1  0.63873000  0.47280000  0.08468000  1.0
  C  C22  1  0.36128000  0.52721000  0.91535000  1.0
  C  C23  1  0.49660000  0.39235000  0.06614000  1.0
  C  C24  1  0.50344000  0.60766000  0.93389000  1.0
  C  C25  1  0.64234000  0.57963000  0.01821000  1.0
  C  C26  1  0.35768000  0.42037000  0.98180000  1.0
  C  C27  1  0.74137000  0.49079000  0.61618000  1.0
  C  C28  1  0.25863000  0.50923000  0.38383000  1.0
  C  C29  1  0.11340000  0.81249000  0.49049000  1.0
  C  C30  1  0.88659000  0.18751000  0.50951000  1.0
  C  C31  1  0.35647000  0.84959000  0.19003000  1.0
  C  C32  1  0.64350000  0.15042000  0.80993000  1.0
  C  C33  1  0.42519000  0.92140000  0.35205000  1.0
  C  C34  1  0.57479000  0.07861000  0.64792000  1.0
  C  C35  1  0.55769000  0.89178000  0.44705000  1.0
  C  C36  1  0.44231000  0.10822000  0.55292000  1.0
  C  C37  1  0.63298000  0.97130000  0.59497000  1.0
  C  C38  1  0.36701000  0.02872000  0.40501000  1.0
  I  I39  1  0.49048000  0.22188000  0.15157000  1.0
  I  I40  1  0.50953000  0.77811000  0.84845000  1.0
  I  I41  1  0.86033000  0.70038000  0.05738000  1.0
  I  I42  1  0.13970000  0.29954000  0.94259000  1.0
  I  I43  1  0.64029000  0.72853000  0.36617000  1.0
  I  I44  1  0.35967000  0.27145000  0.63382000  1.0
  I  I45  1  0.83911000  0.93839000  0.73911000  1.0
  I  I46  1  0.16085000  0.06164000  0.26088000  1.0
  O  O47  1  0.82843000  0.51503000  0.32147000  1.0
  O  O48  1  0.17158000  0.48496000  0.67852000  1.0
  O  O49  1  0.86394000  0.38121000  0.13786000  1.0
  O  O50  1  0.13607000  0.61875000  0.86214000  1.0
  O  O51  1  0.88029000  0.57028000  0.61977000  1.0
  O  O52  1  0.11973000  0.42973000  0.38025000  1.0
  O  O53  1  0.12382000  0.71899000  0.57843000  1.0
  O  O54  1  0.87619000  0.28101000  0.42158000  1.0
  O  O55  1  0.40245000  0.90290000  0.11369000  1.0
  O  O56  1  0.59752000  0.09708000  0.88629000  1.0
  O  O57  1  0.24718000  0.73034000  0.14290000  1.0
  O  O58  1  0.75280000  0.26967000  0.85711000  1.0
