# generated using pymatgen
data_FeH8C10(SN7)2
_symmetry_space_group_name_H-M   'P 1'
_cell_length_a   8.40350000
_cell_length_b   8.40350000
_cell_length_c   12.70380000
_cell_angle_alpha   91.85780000
_cell_angle_beta   91.85780000
_cell_angle_gamma   96.26820000
_symmetry_Int_Tables_number   1
_chemical_formula_structural   FeH8C10(SN7)2
_chemical_formula_sum   'Fe2 H16 C20 S4 N28'
_cell_volume   890.71124426
_cell_formula_units_Z   2
loop_
 _symmetry_equiv_pos_site_id
 _symmetry_equiv_pos_as_xyz
  1  'x, y, z'
loop_
 _atom_site_type_symbol
 _atom_site_label
 _atom_site_symmetry_multiplicity
 _atom_site_fract_x
 _atom_site_fract_y
 _atom_site_fract_z
 _atom_site_occupancy
  Fe  Fe0  1  0.50000000  0.00000000  0.50000000  1.0
  Fe  Fe1  1  0.00000000  0.50000000  0.00000000  1.0
  H  H2  1  0.71283000  0.11004000  0.13894000  1.0
  H  H3  1  0.88996000  0.28717000  0.36106000  1.0
  H  H4  1  0.28717000  0.88996000  0.86106000  1.0
  H  H5  1  0.11004000  0.71283000  0.63894000  1.0
  H  H6  1  0.55970000  0.72263000  0.33315000  1.0
  H  H7  1  0.27737000  0.44029000  0.16685000  1.0
  H  H8  1  0.44030000  0.27737000  0.66685000  1.0
  H  H9  1  0.72264000  0.55971000  0.83316000  1.0
  H  H10  1  0.46229000  0.70782000  0.04278000  1.0
  H  H11  1  0.29218000  0.53771000  0.45721000  1.0
  H  H12  1  0.53771000  0.29218000  0.95721000  1.0
  H  H13  1  0.70782000  0.46229000  0.54279000  1.0
  H  H14  1  0.93492000  0.76020000  0.17954000  1.0
  H  H15  1  0.23980000  0.06507000  0.32046000  1.0
  H  H16  1  0.06507000  0.23980000  0.82046000  1.0
  H  H17  1  0.76020000  0.93493000  0.67954000  1.0
  C  C18  1  0.81692000  0.19907000  0.56492000  1.0
  C  C19  1  0.80093000  0.18309000  0.93508000  1.0
  C  C20  1  0.18309000  0.80092000  0.43507000  1.0
  C  C21  1  0.19908000  0.81693000  0.06493000  1.0
  C  C22  1  0.66634000  0.04492000  0.20574000  1.0
  C  C23  1  0.95508000  0.33365000  0.29426000  1.0
  C  C24  1  0.33365000  0.95508000  0.79426000  1.0
  C  C25  1  0.04492000  0.66634000  0.70574000  1.0
  C  C26  1  0.58492000  0.84247000  0.30424000  1.0
  C  C27  1  0.15753000  0.41508000  0.19576000  1.0
  C  C28  1  0.41508000  0.15753000  0.69576000  1.0
  C  C29  1  0.84247000  0.58492000  0.80424000  1.0
  C  C30  1  0.58821000  0.69349000  0.05519000  1.0
  C  C31  1  0.30651000  0.41179000  0.44480000  1.0
  C  C32  1  0.41179000  0.30651000  0.94480000  1.0
  C  C33  1  0.69349000  0.58821000  0.55519000  1.0
  C  C34  1  0.83427000  0.72253000  0.12533000  1.0
  C  C35  1  0.27748000  0.16573000  0.37467000  1.0
  C  C36  1  0.16573000  0.27748000  0.87468000  1.0
  C  C37  1  0.72252000  0.83426000  0.62532000  1.0
  S  S38  1  0.99563000  0.27838000  0.60233000  1.0
  S  S39  1  0.72162000  0.00437000  0.89767000  1.0
  S  S40  1  0.00437000  0.72162000  0.39766000  1.0
  S  S41  1  0.27839000  0.99563000  0.10234000  1.0
  N  N42  1  0.68577000  0.14368000  0.53672000  1.0
  N  N43  1  0.85632000  0.31423000  0.96327000  1.0
  N  N44  1  0.31422000  0.85632000  0.46327000  1.0
  N  N45  1  0.14367000  0.68577000  0.03673000  1.0
  N  N46  1  0.57255000  0.97784000  0.35707000  1.0
  N  N47  1  0.02217000  0.42745000  0.14293000  1.0
  N  N48  1  0.42744000  0.02216000  0.64293000  1.0
  N  N49  1  0.97784000  0.57256000  0.85707000  1.0
  N  N50  1  0.62319000  0.10578000  0.29554000  1.0
  N  N51  1  0.89422000  0.37681000  0.20446000  1.0
  N  N52  1  0.37681000  0.89422000  0.70446000  1.0
  N  N53  1  0.10578000  0.62320000  0.79554000  1.0
  N  N54  1  0.64544000  0.88055000  0.20860000  1.0
  N  N55  1  0.11945000  0.35456000  0.29140000  1.0
  N  N56  1  0.35456000  0.11946000  0.79140000  1.0
  N  N57  1  0.88055000  0.64544000  0.70860000  1.0
  N  N58  1  0.68523000  0.77201000  0.13390000  1.0
  N  N59  1  0.22799000  0.31476000  0.36610000  1.0
  N  N60  1  0.31476000  0.22799000  0.86610000  1.0
  N  N61  1  0.77201000  0.68524000  0.63390000  1.0
  N  N62  1  0.82660000  0.61786000  0.04524000  1.0
  N  N63  1  0.38214000  0.17340000  0.45476000  1.0
  N  N64  1  0.17340000  0.38214000  0.95476000  1.0
  N  N65  1  0.61786000  0.82660000  0.54524000  1.0
  N  N66  1  0.67242000  0.59883000  0.00131000  1.0
  N  N67  1  0.40117000  0.32758000  0.49869000  1.0
  N  N68  1  0.32758000  0.40117000  0.99869000  1.0
  N  N69  1  0.59883000  0.67241000  0.50131000  1.0
