# generated using pymatgen
data_CuSiH24C24(N2F)6
_symmetry_space_group_name_H-M   'P 1'
_cell_length_a   8.07067000
_cell_length_b   13.63790000
_cell_length_c   13.63810000
_cell_angle_alpha   89.99860000
_cell_angle_beta   89.99920000
_cell_angle_gamma   89.99950000
_symmetry_Int_Tables_number   1
_chemical_formula_structural   CuSiH24C24(N2F)6
_chemical_formula_sum   'Cu1 Si1 H24 C24 N12 F6'
_cell_volume   1501.10462103
_cell_formula_units_Z   1
loop_
 _symmetry_equiv_pos_site_id
 _symmetry_equiv_pos_as_xyz
  1  'x, y, z'
loop_
 _atom_site_type_symbol
 _atom_site_label
 _atom_site_symmetry_multiplicity
 _atom_site_fract_x
 _atom_site_fract_y
 _atom_site_fract_z
 _atom_site_occupancy
  Cu  Cu0  1  0.49997000  0.49999000  0.49999000  1.0
  Si  Si1  1  0.00003000  0.50004000  0.50000000  1.0
  H  H2  1  0.74793000  0.65253000  0.45783000  1.0
  H  H3  1  0.25203000  0.65254000  0.54221000  1.0
  H  H4  1  0.74790000  0.34745000  0.54220000  1.0
  H  H5  1  0.25207000  0.34744000  0.45773000  1.0
  H  H6  1  0.74790000  0.45783000  0.34744000  1.0
  H  H7  1  0.25206000  0.54222000  0.34743000  1.0
  H  H8  1  0.74789000  0.54217000  0.65253000  1.0
  H  H9  1  0.25207000  0.45772000  0.65255000  1.0
  H  H10  1  0.21336000  0.91677000  0.56466000  1.0
  H  H11  1  0.11379000  0.80598000  0.57100000  1.0
  H  H12  1  0.78663000  0.91674000  0.43538000  1.0
  H  H13  1  0.88618000  0.80595000  0.42907000  1.0
  H  H14  1  0.21338000  0.08321000  0.43530000  1.0
  H  H15  1  0.11382000  0.19399000  0.42895000  1.0
  H  H16  1  0.78665000  0.08324000  0.56468000  1.0
  H  H17  1  0.88618000  0.19403000  0.57097000  1.0
  H  H18  1  0.21337000  0.56464000  0.08322000  1.0
  H  H19  1  0.11379000  0.57099000  0.19401000  1.0
  H  H20  1  0.78662000  0.43536000  0.08324000  1.0
  H  H21  1  0.88618000  0.42906000  0.19403000  1.0
  H  H22  1  0.21339000  0.43529000  0.91676000  1.0
  H  H23  1  0.11382000  0.42894000  0.80598000  1.0
  H  H24  1  0.78661000  0.56465000  0.91673000  1.0
  H  H25  1  0.88617000  0.57095000  0.80595000  1.0
  C  C26  1  0.63949000  0.69619000  0.47662000  1.0
  C  C27  1  0.64651000  0.79882000  0.47737000  1.0
  C  C28  1  0.49998000  0.85199000  0.50002000  1.0
  C  C29  1  0.35345000  0.79883000  0.52267000  1.0
  C  C30  1  0.36047000  0.69620000  0.52344000  1.0
  C  C31  1  0.50000000  0.95502000  0.49999000  1.0
  C  C32  1  0.50000000  0.04495000  0.50001000  1.0
  C  C33  1  0.49998000  0.14798000  0.49998000  1.0
  C  C34  1  0.64652000  0.20115000  0.52264000  1.0
  C  C35  1  0.63949000  0.30379000  0.52339000  1.0
  C  C36  1  0.36049000  0.30377000  0.47652000  1.0
  C  C37  1  0.35346000  0.20115000  0.47730000  1.0
  C  C38  1  0.63949000  0.47661000  0.30378000  1.0
  C  C39  1  0.64651000  0.47736000  0.20115000  1.0
  C  C40  1  0.49998000  0.50002000  0.14800000  1.0
  C  C41  1  0.35346000  0.52267000  0.20115000  1.0
  C  C42  1  0.36046000  0.52345000  0.30378000  1.0
  C  C43  1  0.49997000  0.49999000  0.04495000  1.0
  C  C44  1  0.49998000  0.49999000  0.95503000  1.0
  C  C45  1  0.49997000  0.49998000  0.85197000  1.0
  C  C46  1  0.64649000  0.52263000  0.79883000  1.0
  C  C47  1  0.63948000  0.52338000  0.69619000  1.0
  C  C48  1  0.36048000  0.47651000  0.69620000  1.0
  C  C49  1  0.35346000  0.47729000  0.79883000  1.0
  N  N50  1  0.49997000  0.64835000  0.50004000  1.0
  N  N51  1  0.49998000  0.35162000  0.49995000  1.0
  N  N52  1  0.49997000  0.50004000  0.35162000  1.0
  N  N53  1  0.49998000  0.49995000  0.64836000  1.0
  N  N54  1  0.20583000  0.84652000  0.54043000  1.0
  N  N55  1  0.79414000  0.84650000  0.45963000  1.0
  N  N56  1  0.20585000  0.15345000  0.45952000  1.0
  N  N57  1  0.79414000  0.15347000  0.54040000  1.0
  N  N58  1  0.20584000  0.54043000  0.15345000  1.0
  N  N59  1  0.79412000  0.45961000  0.15346000  1.0
  N  N60  1  0.20586000  0.45950000  0.84653000  1.0
  N  N61  1  0.79412000  0.54040000  0.84651000  1.0
  F  F62  1  0.78741000  0.50003000  0.49998000  1.0
  F  F63  1  0.21261000  0.50003000  0.49998000  1.0
  F  F64  1  1.00000000  0.58931000  0.58947000  1.0
  F  F65  1  0.00001000  0.41067000  0.41057000  1.0
  F  F66  1  1.00000000  0.58944000  0.41065000  1.0
  F  F67  1  0.00002000  0.41052000  0.58929000  1.0
