# generated using pymatgen
data_Zn3H32C42SN4O15
_symmetry_space_group_name_H-M   'P 1'
_cell_length_a   21.28680000
_cell_length_b   21.30210000
_cell_length_c   24.19990000
_cell_angle_alpha   115.79350000
_cell_angle_beta   115.52730000
_cell_angle_gamma   90.21640000
_symmetry_Int_Tables_number   1
_chemical_formula_structural   Zn3H32C42SN4O15
_chemical_formula_sum   'Zn6 H64 C84 S2 N8 O30'
_cell_volume   8665.07260595
_cell_formula_units_Z   2
loop_
 _symmetry_equiv_pos_site_id
 _symmetry_equiv_pos_as_xyz
  1  'x, y, z'
loop_
 _atom_site_type_symbol
 _atom_site_label
 _atom_site_symmetry_multiplicity
 _atom_site_fract_x
 _atom_site_fract_y
 _atom_site_fract_z
 _atom_site_occupancy
  Zn  Zn0  1  0.00247000  0.57283000  0.50325000  1.0
  Zn  Zn1  1  0.43240000  0.99953000  0.49716000  1.0
  Zn  Zn2  1  0.99952000  0.44547000  0.50094000  1.0
  Zn  Zn3  1  0.55967000  0.00143000  0.49864000  1.0
  Zn  Zn4  1  0.53435000  0.53287000  0.56871000  1.0
  Zn  Zn5  1  0.46651000  0.46611000  0.42785000  1.0
  H  H6  1  0.17260000  0.52179000  0.71141000  1.0
  H  H7  1  0.49616000  0.83202000  0.28550000  1.0
  H  H8  1  0.85483000  0.28184000  0.28122000  1.0
  H  H9  1  0.72090000  0.14855000  0.71954000  1.0
  H  H10  1  0.78850000  0.22010000  0.15001000  1.0
  H  H11  1  0.78162000  0.21398000  0.85069000  1.0
  H  H12  1  0.88179000  0.40294000  0.15444000  1.0
  H  H13  1  0.59940000  0.11674000  0.84445000  1.0
  H  H14  1  0.94317000  0.46666000  0.28563000  1.0
  H  H15  1  0.53643000  0.05659000  0.71337000  1.0
  H  H16  1  0.70172000  0.40642000  0.46614000  1.0
  H  H17  1  0.59427000  0.30180000  0.53160000  1.0
  H  H18  1  0.84444000  0.47974000  0.57730000  1.0
  H  H19  1  0.52761000  0.15792000  0.42015000  1.0
  H  H20  1  0.79168000  0.59796000  0.63980000  1.0
  H  H21  1  0.40686000  0.20687000  0.35406000  1.0
  H  H22  1  0.81345000  0.65845000  0.56329000  1.0
  H  H23  1  0.34388000  0.17975000  0.42655000  1.0
  H  H24  1  0.67154000  0.58343000  0.45156000  1.0
  H  H25  1  0.41236000  0.32306000  0.53867000  1.0
  H  H26  1  0.24554000  0.58048000  0.84136000  1.0
  H  H27  1  0.42483000  0.74966000  0.15614000  1.0
  H  H28  1  0.72694000  0.46665000  0.39101000  1.0
  H  H29  1  0.53126000  0.27241000  0.60295000  1.0
  H  H30  1  0.30504000  0.44025000  0.55283000  1.0
  H  H31  1  0.55860000  0.69395000  0.44085000  1.0
  H  H32  1  0.17695000  0.41600000  0.43098000  1.0
  H  H33  1  0.58927000  0.82282000  0.56526000  1.0
  H  H34  1  0.25548000  0.50321000  0.40916000  1.0
  H  H35  1  0.50554000  0.74664000  0.59207000  1.0
  H  H36  1  0.21871000  0.62563000  0.49028000  1.0
  H  H37  1  0.38236000  0.78615000  0.51645000  1.0
  H  H38  1  0.34554000  0.64876000  0.61288000  1.0
  H  H39  1  0.35283000  0.65852000  0.39143000  1.0
  H  H40  1  0.32484000  0.64103000  0.79742000  1.0
  H  H41  1  0.31586000  0.54841000  0.77238000  1.0
  H  H42  1  0.40225000  0.60608000  0.81948000  1.0
  H  H43  1  0.36602000  0.53177000  0.69121000  1.0
  H  H44  1  0.37855000  0.62386000  0.71736000  1.0
  H  H45  1  0.24579000  0.61289000  0.66886000  1.0
  H  H46  1  0.23207000  0.52045000  0.64327000  1.0
  H  H47  1  0.35080000  0.67283000  0.20116000  1.0
  H  H48  1  0.44210000  0.67802000  0.22183000  1.0
  H  H49  1  0.38265000  0.59318000  0.17819000  1.0
  H  H50  1  0.46152000  0.63222000  0.30625000  1.0
  H  H51  1  0.37061000  0.62281000  0.28433000  1.0
  H  H52  1  0.38447000  0.75569000  0.33180000  1.0
  H  H53  1  0.47554000  0.76664000  0.35220000  1.0
  H  H54  1  0.03574000  0.79939000  0.97327000  1.0
  H  H55  1  0.96354000  0.76893000  0.88826000  1.0
  H  H56  1  0.96155000  0.73017000  0.93922000  1.0
  H  H57  1  0.99459000  0.64608000  0.85052000  1.0
  H  H58  1  0.06659000  0.67832000  0.93528000  1.0
  H  H59  1  0.13204000  0.76108000  0.92550000  1.0
  H  H60  1  0.05920000  0.75488000  0.85168000  1.0
  H  H61  1  0.13791000  0.88220000  0.01171000  1.0
  H  H62  1  0.17988000  0.97194000  0.07993000  1.0
  H  H63  1  0.19106000  0.93937000  0.00426000  1.0
  H  H64  1  0.30095000  0.94514000  0.10600000  1.0
  H  H65  1  0.26157000  0.85607000  0.03797000  1.0
  H  H66  1  0.20564000  0.83070000  0.09910000  1.0
  H  H67  1  0.22984000  0.92140000  0.16144000  1.0
  H  H68  1  0.95266000  0.70795000  0.78943000  1.0
  H  H69  1  0.36488000  0.06207000  0.24575000  1.0
  C  C70  1  0.12331000  0.53442000  0.51015000  1.0
  C  C71  1  0.47024000  0.87907000  0.49140000  1.0
  C  C72  1  0.09150000  0.58101000  0.71359000  1.0
  C  C73  1  0.42346000  0.90144000  0.28639000  1.0
  C  C74  1  0.29775000  0.75151000  0.06924000  1.0
  C  C75  1  0.21762000  0.67521000  0.93595000  1.0
  C  C76  1  0.21516000  0.46762000  0.47092000  1.0
  C  C77  1  0.53685000  0.78552000  0.52711000  1.0
  C  C78  1  0.28434000  0.48088000  0.53840000  1.0
  C  C79  1  0.52002000  0.71584000  0.45821000  1.0
  C  C80  1  0.32692000  0.53013000  0.52619000  1.0
  C  C81  1  0.47281000  0.67461000  0.47328000  1.0
  C  C82  1  0.25724000  0.51652000  0.45890000  1.0
  C  C83  1  0.48992000  0.74477000  0.54193000  1.0
  C  C84  1  0.23793000  0.58428000  0.50406000  1.0
  C  C85  1  0.42174000  0.76565000  0.49985000  1.0
  C  C86  1  0.30741000  0.59731000  0.57180000  1.0
  C  C87  1  0.40515000  0.69571000  0.43074000  1.0
  C  C88  1  0.26506000  0.54830000  0.58382000  1.0
  C  C89  1  0.45214000  0.73664000  0.41588000  1.0
  C  C90  1  0.19479000  0.53535000  0.51484000  1.0
  C  C91  1  0.46891000  0.80753000  0.48641000  1.0
  C  C92  1  0.05714000  0.54734000  0.63484000  1.0
  C  C93  1  0.46034000  0.93984000  0.36514000  1.0
  C  C94  1  0.85972000  0.30811000  0.25293000  1.0
  C  C95  1  0.69448000  0.14259000  0.74738000  1.0
  C  C96  1  0.82326000  0.27371000  0.18016000  1.0
  C  C97  1  0.72836000  0.17855000  0.82015000  1.0
  C  C98  1  0.83146000  0.30776000  0.14444000  1.0
  C  C99  1  0.69419000  0.16914000  0.85539000  1.0
  C  C100  1  0.87567000  0.37720000  0.18267000  1.0
  C  C101  1  0.62523000  0.12395000  0.81665000  1.0
  C  C102  1  0.91005000  0.41225000  0.25529000  1.0
  C  C103  1  0.59058000  0.09022000  0.74404000  1.0
  C  C104  1  0.90284000  0.37781000  0.29092000  1.0
  C  C105  1  0.62506000  0.09890000  0.70891000  1.0
  C  C106  1  0.73000000  0.20650000  0.93221000  1.0
  C  C107  1  0.79422000  0.27136000  0.06762000  1.0
  C  C108  1  0.80519000  0.50292000  0.54992000  1.0
  C  C109  1  0.50172000  0.19532000  0.44583000  1.0
  C  C110  1  0.72791000  0.46214000  0.48781000  1.0
  C  C111  1  0.53896000  0.27333000  0.50819000  1.0
  C  C112  1  0.69922000  0.52840000  0.52294000  1.0
  C  C113  1  0.47181000  0.29943000  0.47112000  1.0
  C  C114  1  0.88376000  0.53592000  0.50148000  1.0
  C  C115  1  0.46839000  0.11537000  0.49344000  1.0
  C  C116  1  0.77684000  0.56893000  0.58436000  1.0
  C  C117  1  0.43464000  0.22119000  0.40942000  1.0
  C  C118  1  0.78871000  0.60243000  0.54213000  1.0
  C  C119  1  0.39951000  0.20692000  0.44949000  1.0
  C  C120  1  0.71114000  0.56107000  0.47991000  1.0
  C  C121  1  0.43731000  0.28519000  0.51195000  1.0
  C  C122  1  0.73992000  0.49548000  0.44604000  1.0
  C  C123  1  0.50398000  0.25912000  0.54789000  1.0
  C  C124  1  0.81838000  0.53721000  0.50903000  1.0
  C  C125  1  0.46590000  0.17991000  0.48461000  1.0
  C  C126  1  0.47932000  0.36802000  0.47029000  1.0
  C  C127  1  0.63113000  0.51943000  0.52437000  1.0
  C  C128  1  0.39685000  0.52219000  0.52831000  1.0
  C  C129  1  0.47959000  0.60405000  0.46982000  1.0
  C  C130  1  0.94054000  0.41685000  0.36908000  1.0
  C  C131  1  0.58640000  0.06231000  0.63078000  1.0
  C  C132  1  0.15500000  0.56186000  0.74483000  1.0
  C  C133  1  0.44725000  0.84242000  0.25365000  1.0
  C  C134  1  0.19531000  0.59420000  0.81693000  1.0
  C  C135  1  0.40718000  0.79633000  0.18213000  1.0
  C  C136  1  0.17194000  0.64490000  0.85992000  1.0
  C  C137  1  0.34119000  0.80674000  0.14300000  1.0
  C  C138  1  0.10762000  0.66555000  0.83060000  1.0
  C  C139  1  0.31672000  0.86789000  0.17339000  1.0
  C  C140  1  0.06831000  0.63255000  0.75676000  1.0
  C  C141  1  0.36093000  0.91593000  0.24499000  1.0
  C  C142  1  0.26778000  0.56534000  0.65185000  1.0
  C  C143  1  0.34390000  0.57874000  0.70931000  1.0
  C  C144  1  0.34704000  0.59451000  0.77846000  1.0
  C  C145  1  0.43159000  0.73274000  0.34678000  1.0
  C  C146  1  0.41515000  0.65536000  0.28947000  1.0
  C  C147  1  0.39656000  0.64936000  0.21872000  1.0
  C  C148  1  0.08428000  0.72277000  0.87699000  1.0
  C  C149  1  0.03432000  0.69463000  0.89655000  1.0
  C  C150  1  0.99691000  0.75103000  0.92575000  1.0
  C  C151  1  0.24765000  0.88025000  0.12861000  1.0
  C  C152  1  0.25312000  0.90136000  0.07726000  1.0
  C  C153  1  0.18687000  0.92492000  0.04115000  1.0
  S  S154  1  0.98882000  0.65854000  0.71351000  1.0
  S  S155  1  0.34075000  0.00042000  0.28634000  1.0
  N  N156  1  0.18804000  0.68254000  0.97715000  1.0
  N  N157  1  0.22898000  0.72232000  0.04555000  1.0
  N  N158  1  0.33068000  0.72397000  0.02981000  1.0
  N  N159  1  0.28959000  0.68543000  0.96160000  1.0
  N  N160  1  0.81832000  0.29675000  0.03598000  1.0
  N  N161  1  0.70535000  0.18161000  0.96382000  1.0
  N  N162  1  0.78511000  0.26441000  0.96718000  1.0
  N  N163  1  0.73737000  0.21516000  0.03266000  1.0
  O  O164  1  0.09481000  0.58734000  0.50818000  1.0
  O  O165  1  0.41698000  0.90748000  0.49252000  1.0
  O  O166  1  0.45260000  0.36747000  0.41101000  1.0
  O  O167  1  0.63225000  0.54574000  0.58402000  1.0
  O  O168  1  0.45414000  0.54957000  0.58843000  1.0
  O  O169  1  0.45123000  0.54704000  0.40921000  1.0
  O  O170  1  0.39524000  0.48716000  0.46958000  1.0
  O  O171  1  0.51457000  0.60474000  0.52794000  1.0
  O  O172  1  0.09511000  0.48083000  0.50919000  1.0
  O  O173  1  0.52434000  0.90740000  0.49312000  1.0
  O  O174  1  0.05470000  0.58821000  0.60921000  1.0
  O  O175  1  0.41991000  0.94750000  0.39234000  1.0
  O  O176  1  0.03901000  0.47836000  0.60142000  1.0
  O  O177  1  0.52919000  0.95650000  0.39785000  1.0
  O  O178  1  0.91294000  0.58971000  0.50208000  1.0
  O  O179  1  0.41512000  0.08720000  0.49425000  1.0
  O  O180  1  0.90764000  0.47983000  0.49458000  1.0
  O  O181  1  0.52483000  0.09205000  0.50087000  1.0
  O  O182  1  0.95837000  0.48485000  0.39948000  1.0
  O  O183  1  0.51841000  0.04562000  0.60041000  1.0
  O  O184  1  0.95261000  0.37880000  0.40045000  1.0
  O  O185  1  0.62467000  0.05003000  0.59950000  1.0
  O  O186  1  0.51306000  0.42362000  0.53020000  1.0
  O  O187  1  0.57533000  0.48501000  0.46480000  1.0
  O  O188  1  0.00904000  0.73049000  0.72720000  1.0
  O  O189  1  0.94665000  0.59993000  0.64436000  1.0
  O  O190  1  0.94067000  0.65976000  0.75026000  1.0
  O  O191  1  0.27617000  0.98963000  0.28943000  1.0
  O  O192  1  0.40625000  0.04997000  0.34621000  1.0
  O  O193  1  0.32128000  0.02867000  0.22948000  1.0
