# generated using pymatgen
data_CuH10C7NO4
_symmetry_space_group_name_H-M   'P 1'
_cell_length_a   7.96403000
_cell_length_b   8.48648000
_cell_length_c   12.99980000
_cell_angle_alpha   97.41150000
_cell_angle_beta   98.62600000
_cell_angle_gamma   90.52490000
_symmetry_Int_Tables_number   1
_chemical_formula_structural   CuH10C7NO4
_chemical_formula_sum   'Cu4 H40 C28 N4 O16'
_cell_volume   861.05180017
_cell_formula_units_Z   4
loop_
 _symmetry_equiv_pos_site_id
 _symmetry_equiv_pos_as_xyz
  1  'x, y, z'
loop_
 _atom_site_type_symbol
 _atom_site_label
 _atom_site_symmetry_multiplicity
 _atom_site_fract_x
 _atom_site_fract_y
 _atom_site_fract_z
 _atom_site_occupancy
  Cu  Cu0  1  0.09436000  0.54541000  0.08961000  1.0
  Cu  Cu1  1  0.90563000  0.45459000  0.91039000  1.0
  Cu  Cu2  1  0.47897000  0.93362000  0.37188000  1.0
  Cu  Cu3  1  0.52103000  0.06639000  0.62813000  1.0
  H  H4  1  0.46275000  0.20194000  0.95888000  1.0
  H  H5  1  0.53725000  0.79808000  0.04112000  1.0
  H  H6  1  0.35449000  0.17593000  0.82534000  1.0
  H  H7  1  0.64551000  0.82407000  0.17466000  1.0
  H  H8  1  0.49000000  0.34571000  0.87660000  1.0
  H  H9  1  0.50999000  0.65430000  0.12340000  1.0
  H  H10  1  0.04812000  0.00293000  0.91673000  1.0
  H  H11  1  0.95189000  0.99706000  0.08326000  1.0
  H  H12  1  0.26353000  0.94765000  0.92523000  1.0
  H  H13  1  0.73647000  0.05233000  0.07476000  1.0
  H  H14  1  0.11715000  0.89148000  0.80628000  1.0
  H  H15  1  0.88286000  0.10852000  0.19371000  1.0
  H  H16  1  0.37206000  0.41099000  0.40174000  1.0
  H  H17  1  0.62794000  0.58900000  0.59826000  1.0
  H  H18  1  0.17932000  0.39114000  0.30848000  1.0
  H  H19  1  0.82069000  0.60886000  0.69152000  1.0
  H  H20  1  0.18997000  0.50704000  0.43485000  1.0
  H  H21  1  0.81003000  0.49296000  0.56515000  1.0
  H  H22  1  0.78476000  0.15820000  0.44868000  1.0
  H  H23  1  0.21525000  0.84180000  0.55131000  1.0
  H  H24  1  0.89807000  0.40035000  0.38928000  1.0
  H  H25  1  0.10193000  0.59966000  0.61071000  1.0
  H  H26  1  0.73804000  0.50351000  0.23205000  1.0
  H  H27  1  0.26197000  0.49649000  0.76794000  1.0
  H  H28  1  0.46948000  0.35755000  0.13899000  1.0
  H  H29  1  0.53053000  0.64244000  0.86101000  1.0
  H  H30  1  0.23700000  0.15976000  0.16484000  1.0
  H  H31  1  0.76300000  0.84024000  0.83517000  1.0
  H  H32  1  0.36734000  0.00698000  0.11851000  1.0
  H  H33  1  0.63265000  0.99301000  0.88150000  1.0
  H  H34  1  0.20030000  0.02550000  0.30648000  1.0
  H  H35  1  0.79970000  0.97450000  0.69352000  1.0
  H  H36  1  0.24207000  0.86368000  0.22173000  1.0
  H  H37  1  0.75794000  0.13632000  0.77828000  1.0
  H  H38  1  0.25065000  0.29124000  0.64106000  1.0
  H  H39  1  0.74933000  0.70877000  0.35895000  1.0
  H  H40  1  0.11094000  0.12787000  0.64431000  1.0
  H  H41  1  0.88904000  0.87213000  0.35569000  1.0
  H  H42  1  0.03295000  0.29025000  0.57949000  1.0
  H  H43  1  0.96704000  0.70974000  0.42051000  1.0
  C  C44  1  0.24814000  0.35058000  0.93161000  1.0
  C  C45  1  0.75185000  0.64943000  0.06838000  1.0
  C  C46  1  0.39676000  0.26155000  0.89507000  1.0
  C  C47  1  0.60324000  0.73846000  0.10493000  1.0
  C  C48  1  0.08777000  0.75685000  0.93301000  1.0
  C  C49  1  0.91222000  0.24315000  0.06697000  1.0
  C  C50  1  0.13306000  0.90866000  0.89210000  1.0
  C  C51  1  0.86694000  0.09133000  0.10789000  1.0
  C  C52  1  0.31282000  0.61914000  0.32653000  1.0
  C  C53  1  0.68719000  0.38085000  0.67347000  1.0
  C  C54  1  0.25924000  0.47185000  0.36894000  1.0
  C  C55  1  0.74077000  0.52814000  0.63106000  1.0
  C  C56  1  0.72105000  0.20576000  0.38011000  1.0
  C  C57  1  0.27895000  0.79424000  0.61988000  1.0
  C  C58  1  0.78109000  0.34191000  0.34731000  1.0
  C  C59  1  0.21891000  0.65809000  0.65269000  1.0
  C  C60  1  0.69179000  0.39779000  0.25941000  1.0
  C  C61  1  0.30822000  0.60221000  0.74058000  1.0
  C  C62  1  0.54547000  0.31541000  0.20650000  1.0
  C  C63  1  0.45453000  0.68458000  0.79350000  1.0
  C  C64  1  0.49366000  0.17785000  0.24252000  1.0
  C  C65  1  0.50634000  0.82215000  0.75748000  1.0
  C  C66  1  0.33867000  0.07965000  0.18987000  1.0
  C  C67  1  0.66133000  0.92035000  0.81013000  1.0
  C  C68  1  0.19518000  0.13377000  0.49627000  1.0
  C  C69  1  0.80482000  0.86623000  0.50374000  1.0
  C  C70  1  0.14405000  0.21744000  0.59613000  1.0
  C  C71  1  0.85594000  0.78256000  0.40387000  1.0
  N  N72  1  0.58118000  0.12487000  0.32805000  1.0
  N  N73  1  0.41883000  0.87513000  0.67196000  1.0
  N  N74  1  0.28622000  0.97300000  0.26015000  1.0
  N  N75  1  0.71379000  0.02701000  0.73986000  1.0
  O  O76  1  0.27539000  0.42716000  0.02384000  1.0
  O  O77  1  0.72460000  0.57285000  0.97616000  1.0
  O  O78  1  0.89014000  0.65687000  0.13259000  1.0
  O  O79  1  0.10986000  0.34314000  0.86741000  1.0
  O  O80  1  0.15253000  0.74127000  0.02672000  1.0
  O  O81  1  0.84746000  0.25874000  0.97327000  1.0
  O  O82  1  0.01407000  0.34093000  0.12970000  1.0
  O  O83  1  0.98592000  0.65906000  0.87030000  1.0
  O  O84  1  0.26859000  0.63745000  0.23137000  1.0
  O  O85  1  0.73142000  0.36255000  0.76863000  1.0
  O  O86  1  0.40496000  0.72080000  0.39444000  1.0
  O  O87  1  0.59505000  0.27920000  0.60556000  1.0
  O  O88  1  0.34263000  0.06839000  0.50419000  1.0
  O  O89  1  0.65737000  0.93162000  0.49582000  1.0
  O  O90  1  0.09747000  0.12517000  0.41042000  1.0
  O  O91  1  0.90253000  0.87483000  0.58959000  1.0
