# generated using pymatgen
data_Zn2H17C30S2N8O9
_symmetry_space_group_name_H-M   'P 1'
_cell_length_a   18.96940000
_cell_length_b   19.12260000
_cell_length_c   19.53100000
_cell_angle_alpha   102.75200000
_cell_angle_beta   111.67400000
_cell_angle_gamma   109.48600000
_symmetry_Int_Tables_number   1
_chemical_formula_structural   Zn2H17C30S2N8O9
_chemical_formula_sum   'Zn4 H34 C60 S4 N16 O18'
_cell_volume   5708.46807613
_cell_formula_units_Z   2
loop_
 _symmetry_equiv_pos_site_id
 _symmetry_equiv_pos_as_xyz
  1  'x, y, z'
loop_
 _atom_site_type_symbol
 _atom_site_label
 _atom_site_symmetry_multiplicity
 _atom_site_fract_x
 _atom_site_fract_y
 _atom_site_fract_z
 _atom_site_occupancy
  Zn  Zn0  1  0.11905000  0.60522000  0.98631000  1.0
  Zn  Zn1  1  0.89459000  0.40411000  0.01566000  1.0
  Zn  Zn2  1  0.88360000  0.50044000  0.87150000  1.0
  Zn  Zn3  1  0.12681000  0.50011000  0.12648000  1.0
  H  H4  1  0.34896000  0.02588000  0.52833000  1.0
  H  H5  1  0.12537000  0.32856000  0.13555000  1.0
  H  H6  1  0.37838000  0.88957000  0.51815000  1.0
  H  H7  1  0.55553000  0.13586000  0.50472000  1.0
  H  H8  1  0.09492000  0.85461000  0.13386000  1.0
  H  H9  1  0.15832000  0.90267000  0.09297000  1.0
  H  H10  1  0.20667000  0.88153000  0.17907000  1.0
  H  H11  1  0.83070000  0.10953000  0.90186000  1.0
  H  H12  1  0.88897000  0.13767000  0.84982000  1.0
  H  H13  1  0.78125000  0.12439000  0.81175000  1.0
  H  H14  1  0.60300000  0.91710000  0.59647000  1.0
  H  H15  1  0.58603000  0.00009000  0.49591000  1.0
  H  H16  1  0.50810000  0.87259000  0.60453000  1.0
  H  H17  1  0.61046000  0.92801000  0.69293000  1.0
  H  H18  1  0.41740000  0.15344000  0.42379000  1.0
  H  H19  1  0.32332000  0.09976000  0.42955000  1.0
  H  H20  1  0.31617000  0.09523000  0.33430000  1.0
  H  H21  1  0.87513000  0.33639000  0.25629000  1.0
  H  H22  1  0.19866000  0.58229000  0.76087000  1.0
  H  H23  1  0.74203000  0.66444000  0.95496000  1.0
  H  H24  1  0.64715000  0.57237000  0.88381000  1.0
  H  H25  1  0.70353000  0.63928000  0.84935000  1.0
  H  H26  1  0.82193000  0.49320000  0.10228000  1.0
  H  H27  1  0.35412000  0.41154000  0.10752000  1.0
  H  H28  1  0.25605000  0.32856000  0.02676000  1.0
  H  H29  1  0.28593000  0.33828000  0.12839000  1.0
  H  H30  1  0.42423000  0.69138000  0.35979000  1.0
  H  H31  1  0.65689000  0.27380000  0.61125000  1.0
  H  H32  1  0.22420000  0.54036000  0.92073000  1.0
  H  H33  1  0.27565000  0.79036000  0.13424000  1.0
  H  H34  1  0.70438000  0.23441000  0.89319000  1.0
  H  H35  1  0.13609000  0.60217000  0.30005000  1.0
  H  H36  1  0.86737000  0.38867000  0.70296000  1.0
  H  H37  1  0.87304000  0.66284000  0.84812000  1.0
  C  C38  1  0.05907000  0.73561000  0.00751000  1.0
  C  C39  1  0.41871000  0.02316000  0.44828000  1.0
  C  C40  1  0.41833000  0.94490000  0.51642000  1.0
  C  C41  1  0.51645000  0.08084000  0.50774000  1.0
  C  C42  1  0.36197000  0.82112000  0.30866000  1.0
  C  C43  1  0.59626000  0.20228000  0.71880000  1.0
  C  C44  1  0.53386000  0.00615000  0.50368000  1.0
  C  C45  1  0.40139000  0.02003000  0.52095000  1.0
  C  C46  1  0.43597000  0.94724000  0.44348000  1.0
  C  C47  1  0.49949000  0.07869000  0.58094000  1.0
  C  C48  1  0.40038000  0.87966000  0.37195000  1.0
  C  C49  1  0.94290000  0.26987000  0.97682000  1.0
  C  C50  1  0.54296000  0.14662000  0.65422000  1.0
  C  C51  1  0.00800000  0.51267000  0.34327000  1.0
  C  C52  1  0.99143000  0.47846000  0.65501000  1.0
  C  C53  1  0.94289000  0.45252000  0.19338000  1.0
  C  C54  1  0.05856000  0.54186000  0.80514000  1.0
  C  C55  1  0.00477000  0.50648000  0.40363000  1.0
  C  C56  1  0.99509000  0.48243000  0.59422000  1.0
  C  C57  1  0.00174000  0.49842000  0.46895000  1.0
  C  C58  1  0.99827000  0.48948000  0.52864000  1.0
  C  C59  1  0.33182000  0.47187000  0.99427000  1.0
  C  C60  1  0.00798000  0.50957000  0.27128000  1.0
  C  C61  1  0.69251000  0.53615000  0.01425000  1.0
  C  C62  1  0.39956000  0.48042000  0.99514000  1.0
  C  C63  1  0.62397000  0.52519000  0.01259000  1.0
  C  C64  1  0.47575000  0.49419000  0.00038000  1.0
  C  C65  1  0.54740000  0.50990000  0.00706000  1.0
  C  C66  1  0.99260000  0.82720000  0.97216000  1.0
  C  C67  1  0.99813000  0.16932000  0.00889000  1.0
  C  C68  1  0.99118000  0.89233000  0.97918000  1.0
  C  C69  1  0.99739000  0.10339000  0.00222000  1.0
  C  C70  1  0.99250000  0.96421000  0.98722000  1.0
  C  C71  1  0.99258000  0.48365000  0.72780000  1.0
  C  C72  1  0.99484000  0.03108000  0.99440000  1.0
  C  C73  1  0.79106000  0.55109000  0.95238000  1.0
  C  C74  1  0.22525000  0.45353000  0.04786000  1.0
  C  C75  1  0.26430000  0.67159000  0.23107000  1.0
  C  C76  1  0.72186000  0.33859000  0.78307000  1.0
  C  C77  1  0.82052000  0.51034000  0.05260000  1.0
  C  C78  1  0.21600000  0.51406000  0.96269000  1.0
  C  C79  1  0.26455000  0.74418000  0.15814000  1.0
  C  C80  1  0.71868000  0.27488000  0.86368000  1.0
  C  C81  1  0.07351000  0.55273000  0.25650000  1.0
  C  C82  1  0.76486000  0.53776000  0.00986000  1.0
  C  C83  1  0.93003000  0.43887000  0.74477000  1.0
  C  C84  1  0.93411000  0.67791000  0.89711000  1.0
  C  C85  1  0.06639000  0.31859000  0.08721000  1.0
  C  C86  1  0.99446000  0.75334000  0.96152000  1.0
  C  C87  1  0.00173000  0.24551000  0.02131000  1.0
  C  C88  1  0.14871000  0.86034000  0.12246000  1.0
  C  C89  1  0.84126000  0.14466000  0.86592000  1.0
  C  C90  1  0.57181000  0.92461000  0.63337000  1.0
  C  C91  1  0.35598000  0.09824000  0.39325000  1.0
  C  C92  1  0.71013000  0.61508000  0.89595000  1.0
  C  C93  1  0.26041000  0.47410000  0.99795000  1.0
  C  C94  1  0.28777000  0.37123000  0.08929000  1.0
  C  C95  1  0.30521000  0.75159000  0.23787000  1.0
  C  C96  1  0.66938000  0.26758000  0.78561000  1.0
  C  C97  1  0.51592000  0.00239000  0.57583000  1.0
  S  S98  1  0.84241000  0.37435000  0.15946000  1.0
  S  S99  1  0.15219000  0.62723000  0.83583000  1.0
  S  S100  1  0.28851000  0.62664000  0.29854000  1.0
  S  S101  1  0.70141000  0.37956000  0.71169000  1.0
  N  N102  1  0.03864000  0.65741000  0.97254000  1.0
  N  N103  1  0.16221000  0.51863000  0.99057000  1.0
  N  N104  1  0.20358000  0.66750000  0.11044000  1.0
  N  N105  1  0.79338000  0.34323000  0.90139000  1.0
  N  N106  1  0.04897000  0.52233000  0.17749000  1.0
  N  N107  1  0.95719000  0.46939000  0.82457000  1.0
  N  N108  1  0.96069000  0.62221000  0.90342000  1.0
  N  N109  1  0.04722000  0.37888000  0.08293000  1.0
  N  N110  1  0.97045000  0.34964000  0.01425000  1.0
  N  N111  1  0.96873000  0.46114000  0.13949000  1.0
  N  N112  1  0.03653000  0.53162000  0.86098000  1.0
  N  N113  1  0.85482000  0.53187000  0.96072000  1.0
  N  N114  1  0.16717000  0.48034000  0.04274000  1.0
  N  N115  1  0.20347000  0.62294000  0.15514000  1.0
  N  N116  1  0.79615000  0.38172000  0.85155000  1.0
  N  N117  1  0.87242000  0.50529000  0.02190000  1.0
  O  O118  1  0.13433000  0.78290000  0.07457000  1.0
  O  O119  1  0.21243000  0.59240000  0.81684000  1.0
  O  O120  1  0.76173000  0.57502000  0.89246000  1.0
  O  O121  1  0.24243000  0.41667000  0.09879000  1.0
  O  O122  1  0.29225000  0.66707000  0.37213000  1.0
  O  O123  1  0.23429000  0.54031000  0.25336000  1.0
  O  O124  1  0.38243000  0.63772000  0.31756000  1.0
  O  O125  1  0.61651000  0.37112000  0.67976000  1.0
  O  O126  1  0.77465000  0.45803000  0.74504000  1.0
  O  O127  1  0.70898000  0.32568000  0.64064000  1.0
  O  O128  1  0.86805000  0.22836000  0.90857000  1.0
  O  O129  1  0.56619000  0.99881000  0.64545000  1.0
  O  O130  1  0.36808000  0.02729000  0.37919000  1.0
  O  O131  1  0.79400000  0.40343000  0.18849000  1.0
  O  O132  1  0.80942000  0.33097000  0.07491000  1.0
  O  O133  1  0.86396000  0.31486000  0.20078000  1.0
  O  O134  1  0.13638000  0.67411000  0.78944000  1.0
  O  O135  1  0.19346000  0.66274000  0.92270000  1.0
