# generated using pymatgen
data_MgH8C4O7
_symmetry_space_group_name_H-M   'P 1'
_cell_length_a   6.90289000
_cell_length_b   10.27330000
_cell_length_c   10.85100000
_cell_angle_alpha   89.99980000
_cell_angle_beta   97.96890000
_cell_angle_gamma   89.99940000
_symmetry_Int_Tables_number   1
_chemical_formula_structural   MgH8C4O7
_chemical_formula_sum   'Mg4 H32 C16 O28'
_cell_volume   762.07291617
_cell_formula_units_Z   4
loop_
 _symmetry_equiv_pos_site_id
 _symmetry_equiv_pos_as_xyz
  1  'x, y, z'
loop_
 _atom_site_type_symbol
 _atom_site_label
 _atom_site_symmetry_multiplicity
 _atom_site_fract_x
 _atom_site_fract_y
 _atom_site_fract_z
 _atom_site_occupancy
  Mg  Mg0  1  0.94047000  0.61610000  0.19247000  1.0
  Mg  Mg1  1  0.55954000  0.11610000  0.30754000  1.0
  Mg  Mg2  1  0.05954000  0.38390000  0.80753000  1.0
  Mg  Mg3  1  0.44045000  0.88390000  0.69246000  1.0
  H  H4  1  0.21958000  0.68588000  0.38264000  1.0
  H  H5  1  0.28043000  0.18588000  0.11737000  1.0
  H  H6  1  0.78042000  0.31412000  0.61736000  1.0
  H  H7  1  0.71958000  0.81412000  0.88263000  1.0
  H  H8  1  0.02140000  0.67618000  0.43402000  1.0
  H  H9  1  0.47862000  0.17618000  0.06599000  1.0
  H  H10  1  0.97860000  0.32382000  0.56598000  1.0
  H  H11  1  0.52139000  0.82382000  0.93401000  1.0
  H  H12  1  0.63010000  0.63040000  0.02260000  1.0
  H  H13  1  0.86994000  0.13039000  0.47740000  1.0
  H  H14  1  0.36989000  0.36961000  0.97740000  1.0
  H  H15  1  0.13007000  0.86962000  0.52259000  1.0
  H  H16  1  0.77153000  0.52845000  0.96742000  1.0
  H  H17  1  0.72849000  0.02846000  0.53257000  1.0
  H  H18  1  0.22848000  0.47156000  0.03258000  1.0
  H  H19  1  0.27151000  0.97155000  0.46743000  1.0
  H  H20  1  0.29047000  0.89202000  0.17610000  1.0
  H  H21  1  0.20951000  0.39201000  0.32388000  1.0
  H  H22  1  0.70953000  0.10799000  0.82390000  1.0
  H  H23  1  0.79048000  0.60799000  0.67612000  1.0
  H  H24  1  0.15642000  0.89774000  0.02287000  1.0
  H  H25  1  0.34352000  0.39776000  0.47712000  1.0
  H  H26  1  0.84357000  0.10227000  0.97712000  1.0
  H  H27  1  0.65646000  0.60224000  0.52288000  1.0
  H  H28  1  0.84998000  0.98208000  0.13063000  1.0
  H  H29  1  0.65001000  0.48208000  0.36936000  1.0
  H  H30  1  0.15003000  0.01792000  0.86937000  1.0
  H  H31  1  0.34998000  0.51791000  0.63064000  1.0
  H  H32  1  0.99121000  0.96419000  0.28039000  1.0
  H  H33  1  0.50880000  0.46418000  0.21962000  1.0
  H  H34  1  0.00879000  0.03581000  0.71962000  1.0
  H  H35  1  0.49121000  0.53583000  0.78038000  1.0
  C  C36  1  0.27708000  0.70999000  0.07859000  1.0
  C  C37  1  0.22293000  0.20998000  0.42140000  1.0
  C  C38  1  0.72292000  0.29002000  0.92141000  1.0
  C  C39  1  0.77706000  0.79002000  0.57860000  1.0
  C  C40  1  0.18572000  0.83900000  0.10837000  1.0
  C  C41  1  0.31427000  0.33902000  0.39162000  1.0
  C  C42  1  0.81429000  0.16100000  0.89163000  1.0
  C  C43  1  0.68572000  0.66098000  0.60838000  1.0
  C  C44  1  0.90166000  0.91128000  0.20421000  1.0
  C  C45  1  0.59833000  0.41127000  0.29579000  1.0
  C  C46  1  0.09834000  0.08872000  0.79578000  1.0
  C  C47  1  0.40167000  0.58873000  0.70422000  1.0
  C  C48  1  0.72529000  0.84785000  0.25190000  1.0
  C  C49  1  0.77469000  0.34785000  0.24811000  1.0
  C  C50  1  0.27470000  0.15215000  0.74810000  1.0
  C  C51  1  0.22530000  0.65215000  0.75189000  1.0
  O  O52  1  0.42009000  0.71343000  0.01846000  1.0
  O  O53  1  0.07991000  0.21344000  0.48154000  1.0
  O  O54  1  0.57992000  0.28657000  0.98154000  1.0
  O  O55  1  0.92009000  0.78656000  0.51846000  1.0
  O  O56  1  0.20349000  0.60600000  0.11792000  1.0
  O  O57  1  0.29650000  0.10601000  0.38208000  1.0
  O  O58  1  0.79652000  0.39400000  0.88208000  1.0
  O  O59  1  0.70349000  0.89399000  0.61792000  1.0
  O  O60  1  0.00996000  0.80929000  0.15718000  1.0
  O  O61  1  0.49003000  0.30929000  0.34284000  1.0
  O  O62  1  0.99004000  0.19071000  0.84283000  1.0
  O  O63  1  0.50996000  0.69070000  0.65716000  1.0
  O  O64  1  0.59669000  0.92434000  0.28329000  1.0
  O  O65  1  0.90331000  0.42435000  0.21672000  1.0
  O  O66  1  0.40331000  0.07565000  0.71670000  1.0
  O  O67  1  0.09669000  0.57565000  0.78329000  1.0
  O  O68  1  0.71841000  0.72481000  0.25645000  1.0
  O  O69  1  0.78161000  0.22483000  0.24357000  1.0
  O  O70  1  0.28159000  0.27518000  0.74355000  1.0
  O  O71  1  0.21839000  0.77518000  0.75643000  1.0
  O  O72  1  0.10200000  0.63216000  0.37608000  1.0
  O  O73  1  0.39803000  0.13217000  0.12393000  1.0
  O  O74  1  0.89801000  0.36784000  0.62392000  1.0
  O  O75  1  0.60198000  0.86783000  0.87607000  1.0
  O  O76  1  0.76969000  0.60866000  0.01903000  1.0
  O  O77  1  0.73031000  0.10865000  0.48098000  1.0
  O  O78  1  0.23033000  0.39133000  0.98096000  1.0
  O  O79  1  0.26970000  0.89135000  0.51902000  1.0
