# generated using pymatgen
data_ZnH24C22(NO)4
_symmetry_space_group_name_H-M   'P 1'
_cell_length_a   6.82375000
_cell_length_b   8.38150000
_cell_length_c   9.85336000
_cell_angle_alpha   81.76280000
_cell_angle_beta   74.11570000
_cell_angle_gamma   75.34130000
_symmetry_Int_Tables_number   1
_chemical_formula_structural   ZnH24C22(NO)4
_chemical_formula_sum   'Zn1 H24 C22 N4 O4'
_cell_volume   522.72348109
_cell_formula_units_Z   1
loop_
 _symmetry_equiv_pos_site_id
 _symmetry_equiv_pos_as_xyz
  1  'x, y, z'
loop_
 _atom_site_type_symbol
 _atom_site_label
 _atom_site_symmetry_multiplicity
 _atom_site_fract_x
 _atom_site_fract_y
 _atom_site_fract_z
 _atom_site_occupancy
  Zn  Zn0  1  0.50000000  0.50000000  0.50000000  1.0
  H  H1  1  0.96981000  0.52380000  0.35680000  1.0
  H  H2  1  0.03020000  0.47620000  0.64319000  1.0
  H  H3  1  0.59377000  0.25104000  0.27652000  1.0
  H  H4  1  0.40623000  0.74896000  0.72348000  1.0
  H  H5  1  0.86084000  0.15246000  0.05554000  1.0
  H  H6  1  0.13917000  0.84754000  0.94446000  1.0
  H  H7  1  0.19121000  0.25943000  0.97948000  1.0
  H  H8  1  0.80879000  0.74057000  0.02052000  1.0
  H  H9  1  0.29986000  0.55059000  0.20669000  1.0
  H  H10  1  0.70014000  0.44940000  0.79331000  1.0
  H  H11  1  0.42236000  0.81662000  0.08626000  1.0
  H  H12  1  0.57764000  0.18338000  0.91373000  1.0
  H  H13  1  0.41838000  0.01346000  0.14007000  1.0
  H  H14  1  0.58163000  0.98654000  0.85993000  1.0
  H  H15  1  0.19722000  0.92144000  0.20628000  1.0
  H  H16  1  0.80278000  0.07856000  0.79372000  1.0
  H  H17  1  0.65927000  0.96461000  0.27363000  1.0
  H  H18  1  0.34073000  0.03539000  0.72638000  1.0
  H  H19  1  0.82189000  0.88612000  0.59076000  1.0
  H  H20  1  0.17810000  0.11389000  0.40924000  1.0
  H  H21  1  0.85438000  0.99534000  0.41953000  1.0
  H  H22  1  0.14560000  0.00466000  0.58047000  1.0
  H  H23  1  0.01610000  0.79517000  0.44630000  1.0
  H  H24  1  0.98390000  0.20484000  0.55370000  1.0
  C  C25  1  0.10618000  0.40023000  0.16311000  1.0
  C  C26  1  0.89382000  0.59977000  0.83689000  1.0
  C  C27  1  0.94935000  0.44381000  0.28624000  1.0
  C  C28  1  0.05066000  0.55619000  0.71376000  1.0
  C  C29  1  0.74267000  0.28854000  0.24180000  1.0
  C  C30  1  0.25733000  0.71146000  0.75820000  1.0
  C  C31  1  0.89204000  0.23502000  0.11914000  1.0
  C  C32  1  0.10797000  0.76498000  0.88086000  1.0
  C  C33  1  0.07464000  0.29316000  0.07750000  1.0
  C  C34  1  0.92537000  0.70684000  0.92249000  1.0
  C  C35  1  0.28638000  0.47471000  0.12876000  1.0
  C  C36  1  0.71362000  0.52530000  0.87123000  1.0
  C  C37  1  0.36879000  0.89653000  0.17494000  1.0
  C  C38  1  0.63121000  0.10347000  0.82506000  1.0
  C  C39  1  0.45634000  0.80138000  0.29557000  1.0
  C  C40  1  0.54366000  0.19861000  0.70443000  1.0
  C  C41  1  0.61234000  0.85515000  0.33370000  1.0
  C  C42  1  0.38765000  0.14485000  0.66630000  1.0
  C  C43  1  0.70312000  0.78956000  0.44809000  1.0
  C  C44  1  0.29688000  0.21044000  0.55191000  1.0
  C  C45  1  0.85702000  0.87314000  0.47682000  1.0
  C  C46  1  0.14297000  0.12687000  0.52318000  1.0
  N  N47  1  0.77000000  0.39231000  0.32360000  1.0
  N  N48  1  0.23000000  0.60769000  0.67639000  1.0
  N  N49  1  0.42300000  0.45622000  0.00797000  1.0
  N  N50  1  0.57700000  0.54378000  0.99202000  1.0
  O  O51  1  0.66817000  0.66171000  0.53108000  1.0
  O  O52  1  0.33183000  0.33829000  0.46892000  1.0
  O  O53  1  0.37948000  0.67686000  0.35433000  1.0
  O  O54  1  0.62052000  0.32314000  0.64567000  1.0
