# generated using pymatgen
data_InH11C7
_symmetry_space_group_name_H-M   'P 1'
_cell_length_a   6.49180000
_cell_length_b   9.48318000
_cell_length_c   12.19290000
_cell_angle_alpha   89.99820000
_cell_angle_beta   100.68400000
_cell_angle_gamma   90.00000000
_symmetry_Int_Tables_number   1
_chemical_formula_structural   InH11C7
_chemical_formula_sum   'In4 H44 C28'
_cell_volume   737.61790636
_cell_formula_units_Z   4
loop_
 _symmetry_equiv_pos_site_id
 _symmetry_equiv_pos_as_xyz
  1  'x, y, z'
loop_
 _atom_site_type_symbol
 _atom_site_label
 _atom_site_symmetry_multiplicity
 _atom_site_fract_x
 _atom_site_fract_y
 _atom_site_fract_z
 _atom_site_occupancy
  In  In0  1  0.30677000  0.29309000  0.38022000  1.0
  In  In1  1  0.19323000  0.79306000  0.11978000  1.0
  In  In2  1  0.69325000  0.70693000  0.61978000  1.0
  In  In3  1  0.80672000  0.20691000  0.88019000  1.0
  H  H4  1  0.02456000  0.38080000  0.50903000  1.0
  H  H5  1  0.47542000  0.88079000  0.99099000  1.0
  H  H6  1  0.97549000  0.61924000  0.49098000  1.0
  H  H7  1  0.52455000  0.11922000  0.00903000  1.0
  H  H8  1  0.28293000  0.38239000  0.59109000  1.0
  H  H9  1  0.21705000  0.88239000  0.90893000  1.0
  H  H10  1  0.71711000  0.61757000  0.40894000  1.0
  H  H11  1  0.78292000  0.11759000  0.09107000  1.0
  H  H12  1  0.14238000  0.22008000  0.56487000  1.0
  H  H13  1  0.35761000  0.72008000  0.93512000  1.0
  H  H14  1  0.85759000  0.77992000  0.43509000  1.0
  H  H15  1  0.64239000  0.27992000  0.06487000  1.0
  H  H16  1  0.62718000  0.28978000  0.26404000  1.0
  H  H17  1  0.87281000  0.78978000  0.23596000  1.0
  H  H18  1  0.37283000  0.71020000  0.73595000  1.0
  H  H19  1  0.12715000  0.21020000  0.76403000  1.0
  H  H20  1  0.69311000  0.17910000  0.38462000  1.0
  H  H21  1  0.80683000  0.67911000  0.11538000  1.0
  H  H22  1  0.30687000  0.82090000  0.61537000  1.0
  H  H23  1  0.19309000  0.32089000  0.88460000  1.0
  H  H24  1  0.71724000  0.36643000  0.39885000  1.0
  H  H25  1  0.78279000  0.86646000  0.10115000  1.0
  H  H26  1  0.28282000  0.63355000  0.60113000  1.0
  H  H27  1  0.21717000  0.13354000  0.89884000  1.0
  H  H28  1  0.96037000  0.13894000  0.26778000  1.0
  H  H29  1  0.53963000  0.63893000  0.23223000  1.0
  H  H30  1  0.03967000  0.86105000  0.73225000  1.0
  H  H31  1  0.46032000  0.36110000  0.76772000  1.0
  H  H32  1  0.11090000  0.97802000  0.44776000  1.0
  H  H33  1  0.38912000  0.47805000  0.05226000  1.0
  H  H34  1  0.88913000  0.02198000  0.55229000  1.0
  H  H35  1  0.61084000  0.52197000  0.94770000  1.0
  H  H36  1  0.45803000  0.84898000  0.41060000  1.0
  H  H37  1  0.04201000  0.34897000  0.08941000  1.0
  H  H38  1  0.54201000  0.15103000  0.58947000  1.0
  H  H39  1  0.95797000  0.65103000  0.91055000  1.0
  H  H40  1  0.54851000  0.95012000  0.21864000  1.0
  H  H41  1  0.95151000  0.45009000  0.28138000  1.0
  H  H42  1  0.45155000  0.04985000  0.78143000  1.0
  H  H43  1  0.04844000  0.54992000  0.71858000  1.0
  H  H44  1  0.24220000  0.12943000  0.12842000  1.0
  H  H45  1  0.25786000  0.62938000  0.37162000  1.0
  H  H46  1  0.75793000  0.87058000  0.87166000  1.0
  H  H47  1  0.74206000  0.37066000  0.62832000  1.0
  C  C48  1  0.17236000  0.32259000  0.52936000  1.0
  C  C49  1  0.32762000  0.82258000  0.97065000  1.0
  C  C50  1  0.82768000  0.67741000  0.47065000  1.0
  C  C51  1  0.67232000  0.17741000  0.02935000  1.0
  C  C52  1  0.62579000  0.28060000  0.35341000  1.0
  C  C53  1  0.87418000  0.78060000  0.14660000  1.0
  C  C54  1  0.37423000  0.71940000  0.64659000  1.0
  C  C55  1  0.12575000  0.21939000  0.85338000  1.0
  C  C56  1  0.11327000  0.08761000  0.28400000  1.0
  C  C57  1  0.38677000  0.58761000  0.21602000  1.0
  C  C58  1  0.88679000  0.91238000  0.71604000  1.0
  C  C59  1  0.61319000  0.41240000  0.78395000  1.0
  C  C60  1  0.18530000  0.99297000  0.37576000  1.0
  C  C61  1  0.31473000  0.49298000  0.12425000  1.0
  C  C62  1  0.81473000  0.00703000  0.62429000  1.0
  C  C63  1  0.68525000  0.50703000  0.87571000  1.0
  C  C64  1  0.36253000  0.92312000  0.35526000  1.0
  C  C65  1  0.13751000  0.42312000  0.14475000  1.0
  C  C66  1  0.63752000  0.07687000  0.64479000  1.0
  C  C67  1  0.86246000  0.57688000  0.85522000  1.0
  C  C68  1  0.40266000  0.96777000  0.24866000  1.0
  C  C69  1  0.09739000  0.46775000  0.25135000  1.0
  C  C70  1  0.59739000  0.03221000  0.75140000  1.0
  C  C71  1  0.90259000  0.53225000  0.74861000  1.0
  C  C72  1  0.24816000  0.07010000  0.20518000  1.0
  C  C73  1  0.25188000  0.57008000  0.29482000  1.0
  C  C74  1  0.75190000  0.92989000  0.79485000  1.0
  C  C75  1  0.74808000  0.42994000  0.70514000  1.0
