# generated using pymatgen
data_CdH68C64S4Br2(NO)4
_symmetry_space_group_name_H-M   'P 1'
_cell_length_a   15.25560000
_cell_length_b   15.57360000
_cell_length_c   19.10530000
_cell_angle_alpha   97.28330000
_cell_angle_beta   89.99940000
_cell_angle_gamma   119.32700000
_symmetry_Int_Tables_number   1
_chemical_formula_structural   CdH68C64S4Br2(NO)4
_chemical_formula_sum   'Cd2 H136 C128 S8 Br4 N8 O8'
_cell_volume   3915.32578185
_cell_formula_units_Z   2
loop_
 _symmetry_equiv_pos_site_id
 _symmetry_equiv_pos_as_xyz
  1  'x, y, z'
loop_
 _atom_site_type_symbol
 _atom_site_label
 _atom_site_symmetry_multiplicity
 _atom_site_fract_x
 _atom_site_fract_y
 _atom_site_fract_z
 _atom_site_occupancy
  Cd  Cd0  1  0.00000000  0.50000000  0.50000000  1.0
  Cd  Cd1  1  0.50000000  0.50000000  0.00000000  1.0
  H  H2  1  0.71203000  0.79651000  0.52794000  1.0
  H  H3  1  0.50940000  0.80528000  0.68251000  1.0
  H  H4  1  0.70163000  0.12812000  0.64061000  1.0
  H  H5  1  0.77819000  0.11780000  0.57250000  1.0
  H  H6  1  0.85202000  0.27600000  0.53530000  1.0
  H  H7  1  0.02575000  0.53705000  0.67087000  1.0
  H  H8  1  0.97883000  0.44768000  0.77741000  1.0
  H  H9  1  0.86821000  0.26059000  0.75858000  1.0
  H  H10  1  0.50548000  0.53383000  0.55616000  1.0
  H  H11  1  0.59061000  0.61819000  0.62780000  1.0
  H  H12  1  0.62672000  0.62928000  0.53978000  1.0
  H  H13  1  0.38621000  0.68843000  0.60590000  1.0
  H  H14  1  0.43551000  0.63797000  0.66324000  1.0
  H  H15  1  0.36720000  0.56746000  0.58208000  1.0
  H  H16  1  0.55936000  0.70737000  0.45975000  1.0
  H  H17  1  0.45771000  0.72657000  0.48633000  1.0
  H  H18  1  0.43841000  0.60346000  0.46610000  1.0
  H  H19  1  0.22350000  0.20255000  0.73339000  1.0
  H  H20  1  0.01451000  0.19921000  0.57948000  1.0
  H  H21  1  0.06808000  0.88348000  0.61725000  1.0
  H  H22  1  0.98950000  0.88251000  0.54735000  1.0
  H  H23  1  0.05184000  0.72637000  0.55673000  1.0
  H  H24  1  0.78405000  0.46209000  0.55059000  1.0
  H  H25  1  0.69603000  0.55060000  0.60785000  1.0
  H  H26  1  0.79087000  0.73872000  0.63128000  1.0
  H  H27  1  0.23754000  0.29162000  0.54183000  1.0
  H  H28  1  0.31960000  0.29238000  0.60868000  1.0
  H  H29  1  0.33291000  0.40679000  0.58867000  1.0
  H  H30  1  0.31258000  0.35416000  0.73723000  1.0
  H  H31  1  0.21325000  0.37719000  0.76273000  1.0
  H  H32  1  0.31223000  0.46123000  0.71581000  1.0
  H  H33  1  0.08862000  0.36978000  0.66154000  1.0
  H  H34  1  0.11302000  0.34798000  0.57211000  1.0
  H  H35  1  0.19977000  0.45776000  0.62686000  1.0
  H  H36  1  0.91552000  0.20349000  0.97206000  1.0
  H  H37  1  0.70411000  0.19470000  0.81749000  1.0
  H  H38  1  0.57354000  0.87186000  0.85940000  1.0
  H  H39  1  0.66041000  0.88217000  0.92750000  1.0
  H  H40  1  0.57609000  0.72399000  0.96470000  1.0
  H  H41  1  0.48869000  0.46292000  0.82914000  1.0
  H  H42  1  0.53112000  0.55228000  0.72260000  1.0
  H  H43  1  0.60759000  0.73937000  0.74142000  1.0
  H  H44  1  0.97166000  0.46616000  0.94385000  1.0
  H  H45  1  0.97243000  0.38179000  0.87221000  1.0
  H  H46  1  0.99743000  0.37069000  0.96023000  1.0
  H  H47  1  0.69779000  0.31157000  0.89408000  1.0
  H  H48  1  0.79757000  0.36203000  0.83675000  1.0
  H  H49  1  0.79976000  0.43254000  0.91792000  1.0
  H  H50  1  0.85198000  0.29261000  0.04024000  1.0
  H  H51  1  0.73114000  0.27341000  0.01366000  1.0
  H  H52  1  0.83495000  0.39652000  0.03390000  1.0
  H  H53  1  0.02092000  0.79742000  0.76660000  1.0
  H  H54  1  0.81529000  0.80079000  0.92053000  1.0
  H  H55  1  0.18459000  0.11647000  0.88274000  1.0
  H  H56  1  0.10698000  0.11748000  0.95264000  1.0
  H  H57  1  0.32553000  0.27362000  0.94317000  1.0
  H  H58  1  0.32200000  0.53790000  0.94934000  1.0
  H  H59  1  0.14543000  0.44937000  0.89214000  1.0
  H  H60  1  0.05215000  0.26125000  0.86874000  1.0
  H  H61  1  0.94592000  0.70836000  0.95816000  1.0
  H  H62  1  0.02721000  0.70759000  0.89131000  1.0
  H  H63  1  0.92611000  0.59319000  0.91132000  1.0
  H  H64  1  0.95838000  0.64581000  0.76276000  1.0
  H  H65  1  0.83602000  0.62279000  0.73728000  1.0
  H  H66  1  0.85095000  0.53875000  0.78418000  1.0
  H  H67  1  0.71882000  0.63021000  0.83848000  1.0
  H  H68  1  0.76503000  0.65200000  0.92791000  1.0
  H  H69  1  0.74199000  0.54222000  0.87316000  1.0
  H  H70  1  0.28797000  0.20349000  0.47206000  1.0
  H  H71  1  0.49061000  0.19472000  0.31749000  1.0
  H  H72  1  0.29837000  0.87188000  0.35939000  1.0
  H  H73  1  0.22181000  0.88220000  0.42750000  1.0
  H  H74  1  0.14798000  0.72400000  0.46470000  1.0
  H  H75  1  0.97425000  0.46295000  0.32913000  1.0
  H  H76  1  0.02117000  0.55232000  0.22259000  1.0
  H  H77  1  0.13179000  0.73941000  0.24142000  1.0
  H  H78  1  0.49452000  0.46617000  0.44384000  1.0
  H  H79  1  0.40939000  0.38181000  0.37220000  1.0
  H  H80  1  0.37328000  0.37072000  0.46022000  1.0
  H  H81  1  0.61379000  0.31157000  0.39410000  1.0
  H  H82  1  0.56449000  0.36203000  0.33676000  1.0
  H  H83  1  0.63280000  0.43254000  0.41792000  1.0
  H  H84  1  0.44064000  0.29263000  0.54025000  1.0
  H  H85  1  0.54229000  0.27342000  0.51367000  1.0
  H  H86  1  0.56158000  0.39654000  0.53390000  1.0
  H  H87  1  0.77650000  0.79745000  0.26661000  1.0
  H  H88  1  0.98549000  0.80079000  0.42052000  1.0
  H  H89  1  0.93192000  0.11652000  0.38275000  1.0
  H  H90  1  0.01050000  0.11749000  0.45265000  1.0
  H  H91  1  0.94816000  0.27363000  0.44327000  1.0
  H  H92  1  0.21595000  0.53791000  0.44941000  1.0
  H  H93  1  0.30397000  0.44940000  0.39215000  1.0
  H  H94  1  0.20913000  0.26128000  0.36871000  1.0
  H  H95  1  0.76246000  0.70838000  0.45817000  1.0
  H  H96  1  0.68040000  0.70762000  0.39132000  1.0
  H  H97  1  0.66709000  0.59321000  0.41133000  1.0
  H  H98  1  0.68742000  0.64584000  0.26277000  1.0
  H  H99  1  0.78675000  0.62281000  0.23727000  1.0
  H  H100  1  0.68777000  0.53877000  0.28419000  1.0
  H  H101  1  0.91138000  0.63022000  0.33846000  1.0
  H  H102  1  0.88698000  0.65202000  0.42789000  1.0
  H  H103  1  0.80023000  0.54224000  0.37314000  1.0
  H  H104  1  0.08448000  0.79651000  0.02794000  1.0
  H  H105  1  0.29590000  0.80530000  0.18251000  1.0
  H  H106  1  0.42646000  0.12814000  0.14060000  1.0
  H  H107  1  0.33959000  0.11783000  0.07250000  1.0
  H  H108  1  0.42391000  0.27601000  0.03530000  1.0
  H  H109  1  0.51131000  0.53708000  0.17086000  1.0
  H  H110  1  0.46888000  0.44772000  0.27740000  1.0
  H  H111  1  0.39241000  0.26063000  0.25858000  1.0
  H  H112  1  0.02834000  0.53384000  0.05615000  1.0
  H  H113  1  0.02757000  0.61820000  0.12779000  1.0
  H  H114  1  0.00257000  0.62931000  0.03977000  1.0
  H  H115  1  0.30221000  0.68843000  0.10592000  1.0
  H  H116  1  0.20244000  0.63797000  0.16325000  1.0
  H  H117  1  0.20024000  0.56746000  0.08208000  1.0
  H  H118  1  0.14802000  0.70739000  0.95976000  1.0
  H  H119  1  0.26886000  0.72659000  0.98634000  1.0
  H  H120  1  0.16505000  0.60348000  0.96610000  1.0
  H  H121  1  0.97908000  0.20258000  0.23340000  1.0
  H  H122  1  0.18471000  0.19921000  0.07947000  1.0
  H  H123  1  0.81541000  0.88353000  0.11725000  1.0
  H  H124  1  0.89302000  0.88251000  0.04736000  1.0
  H  H125  1  0.67447000  0.72638000  0.05683000  1.0
  H  H126  1  0.67800000  0.46210000  0.05065000  1.0
  H  H127  1  0.85457000  0.55062000  0.10786000  1.0
  H  H128  1  0.94785000  0.73874000  0.13126000  1.0
  H  H129  1  0.05408000  0.29165000  0.04184000  1.0
  H  H130  1  0.97279000  0.29241000  0.10869000  1.0
  H  H131  1  0.07389000  0.40681000  0.08868000  1.0
  H  H132  1  0.04162000  0.35419000  0.23724000  1.0
  H  H133  1  0.16398000  0.37721000  0.26272000  1.0
  H  H134  1  0.14905000  0.46125000  0.21582000  1.0
  H  H135  1  0.28118000  0.36979000  0.16152000  1.0
  H  H136  1  0.23497000  0.34800000  0.07209000  1.0
  H  H137  1  0.25801000  0.45778000  0.12684000  1.0
  C  C138  1  0.65101000  0.93852000  0.68410000  1.0
  C  C139  1  0.74225000  0.98792000  0.65213000  1.0
  C  C140  1  0.76428000  0.93433000  0.59664000  1.0
  C  C141  1  0.69288000  0.83524000  0.57152000  1.0
  C  C142  1  0.59847000  0.78745000  0.59977000  1.0
  C  C143  1  0.58028000  0.83983000  0.65740000  1.0
  C  C144  1  0.77870000  0.14383000  0.62901000  1.0
  C  C145  1  0.85114000  0.25323000  0.64546000  1.0
  C  C146  1  0.88009000  0.31014000  0.59012000  1.0
  C  C147  1  0.97494000  0.45681000  0.66615000  1.0
  C  C148  1  0.94968000  0.40609000  0.72458000  1.0
  C  C149  1  0.88805000  0.30290000  0.71424000  1.0
  C  C150  1  0.51929000  0.68123000  0.56850000  1.0
  C  C151  1  0.56326000  0.61170000  0.57313000  1.0
  C  C152  1  0.42234000  0.64262000  0.60761000  1.0
  C  C153  1  0.49240000  0.67987000  0.49038000  1.0
  C  C154  1  0.97683000  0.05918000  0.61158000  1.0
  C  C155  1  0.00513000  0.00776000  0.65347000  1.0
  C  C156  1  0.09394000  0.06153000  0.69831000  1.0
  C  C157  1  0.15531000  0.16384000  0.69797000  1.0
  C  C158  1  0.13059000  0.21560000  0.65410000  1.0
  C  C159  1  0.03916000  0.16188000  0.61252000  1.0
  C  C160  1  0.98936000  0.85862000  0.59949000  1.0
  C  C161  1  0.92746000  0.74770000  0.59255000  1.0
  C  C162  1  0.97157000  0.69109000  0.56586000  1.0
  C  C163  1  0.82267000  0.54289000  0.56508000  1.0
  C  C164  1  0.77432000  0.59297000  0.59537000  1.0
  C  C165  1  0.82675000  0.69689000  0.60863000  1.0
  C  C166  1  0.20362000  0.32558000  0.64941000  1.0
  C  C167  1  0.27809000  0.32918000  0.59376000  1.0
  C  C168  1  0.26357000  0.38218000  0.72049000  1.0
  C  C169  1  0.14794000  0.37785000  0.62617000  1.0
  C  C170  1  0.71250000  0.06146000  0.81591000  1.0
  C  C171  1  0.75433000  0.01206000  0.84788000  1.0
  C  C172  1  0.82996000  0.06566000  0.90336000  1.0
  C  C173  1  0.85764000  0.16475000  0.92848000  1.0
  C  C174  1  0.81102000  0.21253000  0.90023000  1.0
  C  C175  1  0.74044000  0.16015000  0.84260000  1.0
  C  C176  1  0.63489000  0.85615000  0.87099000  1.0
  C  C177  1  0.59792000  0.74675000  0.85454000  1.0
  C  C178  1  0.56999000  0.68986000  0.90988000  1.0
  C  C179  1  0.51813000  0.54316000  0.83385000  1.0
  C  C180  1  0.54359000  0.59387000  0.77543000  1.0
  C  C181  1  0.58514000  0.69706000  0.78576000  1.0
  C  C182  1  0.83806000  0.31876000  0.93149000  1.0
  C  C183  1  0.95157000  0.38828000  0.92688000  1.0
  C  C184  1  0.77973000  0.35738000  0.89239000  1.0
  C  C185  1  0.81253000  0.32011000  0.00960000  1.0
  C  C186  1  0.91766000  0.94081000  0.88842000  1.0
  C  C187  1  0.99737000  0.99222000  0.84652000  1.0
  C  C188  1  0.03240000  0.93845000  0.80169000  1.0
  C  C189  1  0.99145000  0.83613000  0.80203000  1.0
  C  C190  1  0.91498000  0.78439000  0.84590000  1.0
  C  C191  1  0.87727000  0.83811000  0.88749000  1.0
  C  C192  1  0.13073000  0.14135000  0.90050000  1.0
  C  C193  1  0.17978000  0.25228000  0.90742000  1.0
  C  C194  1  0.28053000  0.30889000  0.93406000  1.0
  C  C195  1  0.27981000  0.45709000  0.93487000  1.0
  C  C196  1  0.18137000  0.40701000  0.90461000  1.0
  C  C197  1  0.12986000  0.30308000  0.89137000  1.0
  C  C198  1  0.87802000  0.67440000  0.85059000  1.0
  C  C199  1  0.94890000  0.67080000  0.90623000  1.0
  C  C200  1  0.88136000  0.61780000  0.77951000  1.0
  C  C201  1  0.77008000  0.62214000  0.87385000  1.0
  C  C202  1  0.34899000  0.06148000  0.31590000  1.0
  C  C203  1  0.25775000  0.01208000  0.34787000  1.0
  C  C204  1  0.23572000  0.06567000  0.40336000  1.0
  C  C205  1  0.30712000  0.16476000  0.42848000  1.0
  C  C206  1  0.40153000  0.21255000  0.40023000  1.0
  C  C207  1  0.41972000  0.16017000  0.34260000  1.0
  C  C208  1  0.22130000  0.85617000  0.37099000  1.0
  C  C209  1  0.14887000  0.74678000  0.35454000  1.0
  C  C210  1  0.11991000  0.68987000  0.40988000  1.0
  C  C211  1  0.02506000  0.54319000  0.33385000  1.0
  C  C212  1  0.05032000  0.59391000  0.27543000  1.0
  C  C213  1  0.11195000  0.69710000  0.28576000  1.0
  C  C214  1  0.48071000  0.31877000  0.43150000  1.0
  C  C215  1  0.43673000  0.38830000  0.42687000  1.0
  C  C216  1  0.57766000  0.35738000  0.39239000  1.0
  C  C217  1  0.50760000  0.32013000  0.50961000  1.0
  C  C218  1  0.02317000  0.94082000  0.38842000  1.0
  C  C219  1  0.99487000  0.99224000  0.34653000  1.0
  C  C220  1  0.90606000  0.93847000  0.30169000  1.0
  C  C221  1  0.84469000  0.83616000  0.30203000  1.0
  C  C222  1  0.86941000  0.78440000  0.34590000  1.0
  C  C223  1  0.96084000  0.83812000  0.38748000  1.0
  C  C224  1  0.01065000  0.14138000  0.40051000  1.0
  C  C225  1  0.07254000  0.25230000  0.40744000  1.0
  C  C226  1  0.02843000  0.30891000  0.43415000  1.0
  C  C227  1  0.17733000  0.45711000  0.43492000  1.0
  C  C228  1  0.22568000  0.40703000  0.40463000  1.0
  C  C229  1  0.17325000  0.30311000  0.39137000  1.0
  C  C230  1  0.79638000  0.67442000  0.35058000  1.0
  C  C231  1  0.72191000  0.67082000  0.40624000  1.0
  C  C232  1  0.73643000  0.61782000  0.27951000  1.0
  C  C233  1  0.85206000  0.62215000  0.37383000  1.0
  C  C234  1  0.28750000  0.93853000  0.18410000  1.0
  C  C235  1  0.24567000  0.98794000  0.15212000  1.0
  C  C236  1  0.17004000  0.93434000  0.09664000  1.0
  C  C237  1  0.14236000  0.83525000  0.07152000  1.0
  C  C238  1  0.18898000  0.78747000  0.09977000  1.0
  C  C239  1  0.25956000  0.83985000  0.15740000  1.0
  C  C240  1  0.36512000  0.14385000  0.12901000  1.0
  C  C241  1  0.40208000  0.25325000  0.14546000  1.0
  C  C242  1  0.43001000  0.31015000  0.09012000  1.0
  C  C243  1  0.48187000  0.45684000  0.16615000  1.0
  C  C244  1  0.45641000  0.40613000  0.22457000  1.0
  C  C245  1  0.41487000  0.30294000  0.21425000  1.0
  C  C246  1  0.16194000  0.68124000  0.06851000  1.0
  C  C247  1  0.04843000  0.61172000  0.07313000  1.0
  C  C248  1  0.22027000  0.64263000  0.10761000  1.0
  C  C249  1  0.18747000  0.67988000  0.99040000  1.0
  C  C250  1  0.08234000  0.05918000  0.11158000  1.0
  C  C251  1  0.00263000  0.00777000  0.15348000  1.0
  C  C252  1  0.96760000  0.06155000  0.19831000  1.0
  C  C253  1  0.00856000  0.16387000  0.19797000  1.0
  C  C254  1  0.08502000  0.21561000  0.15410000  1.0
  C  C255  1  0.12273000  0.16189000  0.11251000  1.0
  C  C256  1  0.86927000  0.85865000  0.09950000  1.0
  C  C257  1  0.82022000  0.74772000  0.09258000  1.0
  C  C258  1  0.71947000  0.69111000  0.06594000  1.0
  C  C259  1  0.72019000  0.54291000  0.06513000  1.0
  C  C260  1  0.81862000  0.59298000  0.09539000  1.0
  C  C261  1  0.87014000  0.69691000  0.10863000  1.0
  C  C262  1  0.12197000  0.32560000  0.14941000  1.0
  C  C263  1  0.05110000  0.32920000  0.09377000  1.0
  C  C264  1  0.11864000  0.38220000  0.22049000  1.0
  C  C265  1  0.22992000  0.37786000  0.12616000  1.0
  S  S266  1  0.87222000  0.99331000  0.54796000  1.0
  S  S267  1  0.87893000  0.00669000  0.95204000  1.0
  S  S268  1  0.12778000  0.00669000  0.45204000  1.0
  S  S269  1  0.12107000  0.99331000  0.04796000  1.0
  S  S270  1  0.61150000  0.99998000  0.75001000  1.0
  S  S271  1  0.13590000  0.99998000  0.74999000  1.0
  S  S272  1  0.38850000  0.00002000  0.24999000  1.0
  S  S273  1  0.86410000  0.00002000  0.25001000  1.0
  Br  Br274  1  0.17519000  0.64042000  0.57628000  1.0
  Br  Br275  1  0.53487000  0.35965000  0.92373000  1.0
  Br  Br276  1  0.82481000  0.35959000  0.42372000  1.0
  Br  Br277  1  0.46513000  0.64035000  0.07627000  1.0
  N  N278  1  0.94097000  0.40915000  0.60006000  1.0
  N  N279  1  0.92017000  0.59163000  0.55125000  1.0
  N  N280  1  0.53184000  0.59084000  0.89994000  1.0
  N  N281  1  0.32857000  0.40835000  0.94867000  1.0
  N  N282  1  0.05903000  0.59085000  0.39994000  1.0
  N  N283  1  0.07983000  0.40837000  0.44875000  1.0
  N  N284  1  0.46816000  0.40916000  0.10005000  1.0
  N  N285  1  0.67142000  0.59165000  0.05133000  1.0
  O  O286  1  0.80636000  0.08880000  0.67140000  1.0
  O  O287  1  0.94838000  0.90541000  0.64855000  1.0
  O  O288  1  0.71758000  0.91119000  0.82860000  1.0
  O  O289  1  0.04298000  0.09457000  0.85143000  1.0
  O  O290  1  0.19364000  0.91120000  0.32860000  1.0
  O  O291  1  0.05162000  0.09459000  0.35145000  1.0
  O  O292  1  0.28242000  0.08881000  0.17141000  1.0
  O  O293  1  0.95703000  0.90543000  0.14856000  1.0
