# generated using pymatgen
data_UH4C7NO6
_symmetry_space_group_name_H-M   'P 1'
_cell_length_a   7.91655000
_cell_length_b   10.40750000
_cell_length_c   11.97020000
_cell_angle_alpha   70.35700000
_cell_angle_beta   90.00040000
_cell_angle_gamma   90.00010000
_symmetry_Int_Tables_number   1
_chemical_formula_structural   UH4C7NO6
_chemical_formula_sum   'U4 H16 C28 N4 O24'
_cell_volume   928.84869914
_cell_formula_units_Z   4
loop_
 _symmetry_equiv_pos_site_id
 _symmetry_equiv_pos_as_xyz
  1  'x, y, z'
loop_
 _atom_site_type_symbol
 _atom_site_label
 _atom_site_symmetry_multiplicity
 _atom_site_fract_x
 _atom_site_fract_y
 _atom_site_fract_z
 _atom_site_occupancy
  U  U0  1  0.72481000  0.75973000  0.86479000  1.0
  U  U1  1  0.22481000  0.24026000  0.63521000  1.0
  U  U2  1  0.27519000  0.24027000  0.13522000  1.0
  U  U3  1  0.77519000  0.75973000  0.36478000  1.0
  H  H4  1  0.81657000  0.02128000  0.52782000  1.0
  H  H5  1  0.31658000  0.97872000  0.97218000  1.0
  H  H6  1  0.18342000  0.97872000  0.47218000  1.0
  H  H7  1  0.68342000  0.02128000  0.02782000  1.0
  H  H8  1  0.91688000  0.21936000  0.35252000  1.0
  H  H9  1  0.41688000  0.78064000  0.14749000  1.0
  H  H10  1  0.08313000  0.78063000  0.64748000  1.0
  H  H11  1  0.58312000  0.21936000  0.85251000  1.0
  H  H12  1  0.73799000  0.43184000  0.28608000  1.0
  H  H13  1  0.23800000  0.56816000  0.21392000  1.0
  H  H14  1  0.26201000  0.56816000  0.71392000  1.0
  H  H15  1  0.76200000  0.43184000  0.78608000  1.0
  H  H16  1  0.47300000  0.43946000  0.39515000  1.0
  H  H17  1  0.97300000  0.56054000  0.10485000  1.0
  H  H18  1  0.52700000  0.56054000  0.60485000  1.0
  H  H19  1  0.02700000  0.43946000  0.89515000  1.0
  C  C20  1  0.56900000  0.47422000  0.04756000  1.0
  C  C21  1  0.06901000  0.52577000  0.45244000  1.0
  C  C22  1  0.43099000  0.52577000  0.95245000  1.0
  C  C23  1  0.93100000  0.47423000  0.54756000  1.0
  C  C24  1  0.52949000  0.01861000  0.65670000  1.0
  C  C25  1  0.02950000  0.98139000  0.84331000  1.0
  C  C26  1  0.47050000  0.98140000  0.34330000  1.0
  C  C27  1  0.97050000  0.01860000  0.15670000  1.0
  C  C28  1  0.59568000  0.12918000  0.55102000  1.0
  C  C29  1  0.09568000  0.87082000  0.94898000  1.0
  C  C30  1  0.40432000  0.87082000  0.44898000  1.0
  C  C31  1  0.90431000  0.12919000  0.05102000  1.0
  C  C32  1  0.74511000  0.11574000  0.49502000  1.0
  C  C33  1  0.24510000  0.88426000  0.00498000  1.0
  C  C34  1  0.25490000  0.88425000  0.50498000  1.0
  C  C35  1  0.75490000  0.11574000  0.99502000  1.0
  C  C36  1  0.79934000  0.22543000  0.39778000  1.0
  C  C37  1  0.29934000  0.77457000  0.10223000  1.0
  C  C38  1  0.20066000  0.77457000  0.60222000  1.0
  C  C39  1  0.70066000  0.22543000  0.89777000  1.0
  C  C40  1  0.70180000  0.34335000  0.36113000  1.0
  C  C41  1  0.20180000  0.65665000  0.13887000  1.0
  C  C42  1  0.29820000  0.65665000  0.63887000  1.0
  C  C43  1  0.79820000  0.34335000  0.86113000  1.0
  C  C44  1  0.55269000  0.34890000  0.42207000  1.0
  C  C45  1  0.05269000  0.65110000  0.07793000  1.0
  C  C46  1  0.44731000  0.65110000  0.57792000  1.0
  C  C47  1  0.94731000  0.34890000  0.92207000  1.0
  N  N48  1  0.50007000  0.24419000  0.51571000  1.0
  N  N49  1  0.00007000  0.75581000  0.98429000  1.0
  N  N50  1  0.49993000  0.75581000  0.48429000  1.0
  N  N51  1  0.99993000  0.24419000  0.01571000  1.0
  O  O52  1  0.70122000  0.54648000  0.03347000  1.0
  O  O53  1  0.20120000  0.45352000  0.46652000  1.0
  O  O54  1  0.29879000  0.45352000  0.96653000  1.0
  O  O55  1  0.79879000  0.54649000  0.53347000  1.0
  O  O56  1  0.83552000  0.66830000  0.78256000  1.0
  O  O57  1  0.33552000  0.33170000  0.71744000  1.0
  O  O58  1  0.16448000  0.33170000  0.21744000  1.0
  O  O59  1  0.66449000  0.66830000  0.28256000  1.0
  O  O60  1  0.53665000  0.36439000  0.13081000  1.0
  O  O61  1  0.03665000  0.63561000  0.36918000  1.0
  O  O62  1  0.46335000  0.63561000  0.86918000  1.0
  O  O63  1  0.96335000  0.36439000  0.63081000  1.0
  O  O64  1  0.62289000  0.84788000  0.95264000  1.0
  O  O65  1  0.12288000  0.15211000  0.54736000  1.0
  O  O66  1  0.37711000  0.15211000  0.04736000  1.0
  O  O67  1  0.87712000  0.84789000  0.45264000  1.0
  O  O68  1  0.60187000  0.90268000  0.69061000  1.0
  O  O69  1  0.10187000  0.09732000  0.80939000  1.0
  O  O70  1  0.39813000  0.09732000  0.30939000  1.0
  O  O71  1  0.89813000  0.90268000  0.19061000  1.0
  O  O72  1  0.40120000  0.04708000  0.70799000  1.0
  O  O73  1  0.90120000  0.95292000  0.79201000  1.0
  O  O74  1  0.59880000  0.95292000  0.29201000  1.0
  O  O75  1  0.09880000  0.04708000  0.20799000  1.0
