# generated using pymatgen
data_CuH22C22SN2O5
_symmetry_space_group_name_H-M   'P 1'
_cell_length_a   5.43147000
_cell_length_b   20.19060000
_cell_length_c   20.50630000
_cell_angle_alpha   90.00030000
_cell_angle_beta   89.99960000
_cell_angle_gamma   89.99990000
_symmetry_Int_Tables_number   1
_chemical_formula_structural   CuH22C22SN2O5
_chemical_formula_sum   'Cu4 H88 C88 S4 N8 O20'
_cell_volume   2248.81596986
_cell_formula_units_Z   4
loop_
 _symmetry_equiv_pos_site_id
 _symmetry_equiv_pos_as_xyz
  1  'x, y, z'
loop_
 _atom_site_type_symbol
 _atom_site_label
 _atom_site_symmetry_multiplicity
 _atom_site_fract_x
 _atom_site_fract_y
 _atom_site_fract_z
 _atom_site_occupancy
  Cu  Cu0  1  0.45209000  0.50000000  0.25000000  1.0
  Cu  Cu1  1  0.54793000  0.00000000  0.25000000  1.0
  Cu  Cu2  1  0.54794000  0.50000000  0.75000000  1.0
  Cu  Cu3  1  0.45209000  0.00000000  0.75000000  1.0
  H  H4  1  0.96394000  0.53651000  0.23207000  1.0
  H  H5  1  0.03609000  0.96348000  0.23207000  1.0
  H  H6  1  0.96393000  0.46348000  0.26792000  1.0
  H  H7  1  0.03606000  0.03652000  0.26793000  1.0
  H  H8  1  0.03608000  0.46348000  0.76792000  1.0
  H  H9  1  0.96394000  0.03652000  0.76793000  1.0
  H  H10  1  0.03608000  0.53652000  0.73208000  1.0
  H  H11  1  0.96394000  0.96349000  0.73208000  1.0
  H  H12  1  0.73775000  0.61987000  0.25939000  1.0
  H  H13  1  0.26230000  0.88012000  0.25938000  1.0
  H  H14  1  0.73770000  0.38012000  0.24061000  1.0
  H  H15  1  0.26229000  0.11987000  0.24062000  1.0
  H  H16  1  0.26228000  0.38014000  0.74061000  1.0
  H  H17  1  0.73774000  0.11988000  0.74061000  1.0
  H  H18  1  0.26227000  0.61987000  0.75939000  1.0
  H  H19  1  0.73773000  0.88013000  0.75939000  1.0
  H  H20  1  0.14125000  0.54527000  0.36316000  1.0
  H  H21  1  0.85874000  0.95473000  0.36317000  1.0
  H  H22  1  0.14124000  0.45473000  0.13683000  1.0
  H  H23  1  0.85872000  0.04526000  0.13683000  1.0
  H  H24  1  0.85877000  0.45472000  0.63683000  1.0
  H  H25  1  0.14124000  0.04527000  0.63685000  1.0
  H  H26  1  0.85876000  0.54527000  0.86317000  1.0
  H  H27  1  0.14126000  0.95473000  0.86317000  1.0
  H  H28  1  0.78375000  0.71451000  0.33555000  1.0
  H  H29  1  0.21628000  0.78548000  0.33555000  1.0
  H  H30  1  0.78369000  0.28548000  0.16445000  1.0
  H  H31  1  0.21627000  0.21451000  0.16446000  1.0
  H  H32  1  0.21623000  0.28550000  0.66445000  1.0
  H  H33  1  0.78372000  0.21452000  0.66445000  1.0
  H  H34  1  0.21627000  0.71451000  0.83556000  1.0
  H  H35  1  0.78375000  0.78549000  0.83555000  1.0
  H  H36  1  0.15312000  0.63933000  0.44130000  1.0
  H  H37  1  0.84686000  0.86067000  0.44131000  1.0
  H  H38  1  0.15310000  0.36066000  0.05870000  1.0
  H  H39  1  0.84682000  0.13932000  0.05869000  1.0
  H  H40  1  0.84687000  0.36066000  0.55870000  1.0
  H  H41  1  0.15308000  0.13934000  0.55871000  1.0
  H  H42  1  0.84689000  0.63933000  0.94130000  1.0
  H  H43  1  0.15314000  0.86066000  0.94130000  1.0
  H  H44  1  0.70086000  0.46398000  0.41528000  1.0
  H  H45  1  0.29914000  0.03602000  0.41528000  1.0
  H  H46  1  0.70084000  0.53601000  0.08472000  1.0
  H  H47  1  0.29915000  0.96399000  0.08472000  1.0
  H  H48  1  0.29915000  0.53600000  0.58472000  1.0
  H  H49  1  0.70086000  0.96399000  0.58472000  1.0
  H  H50  1  0.29913000  0.46399000  0.91527000  1.0
  H  H51  1  0.70085000  0.03601000  0.91528000  1.0
  H  H52  1  0.44276000  0.36887000  0.42571000  1.0
  H  H53  1  0.55724000  0.13113000  0.42572000  1.0
  H  H54  1  0.44275000  0.63113000  0.07428000  1.0
  H  H55  1  0.55727000  0.86887000  0.07428000  1.0
  H  H56  1  0.55727000  0.63113000  0.57428000  1.0
  H  H57  1  0.44273000  0.86887000  0.57428000  1.0
  H  H58  1  0.55725000  0.36887000  0.92572000  1.0
  H  H59  1  0.44274000  0.13113000  0.92572000  1.0
  H  H60  1  0.28194000  0.30517000  0.38338000  1.0
  H  H61  1  0.71805000  0.19483000  0.38339000  1.0
  H  H62  1  0.28194000  0.69483000  0.11660000  1.0
  H  H63  1  0.71810000  0.80517000  0.11661000  1.0
  H  H64  1  0.71810000  0.69483000  0.61661000  1.0
  H  H65  1  0.28191000  0.80517000  0.61661000  1.0
  H  H66  1  0.71807000  0.30517000  0.88339000  1.0
  H  H67  1  0.28193000  0.19483000  0.88339000  1.0
  H  H68  1  0.34085000  0.42618000  0.53389000  1.0
  H  H69  1  0.65916000  0.07382000  0.53390000  1.0
  H  H70  1  0.34083000  0.57381000  0.96610000  1.0
  H  H71  1  0.65916000  0.92619000  0.96611000  1.0
  H  H72  1  0.65916000  0.57381000  0.46612000  1.0
  H  H73  1  0.34085000  0.92619000  0.46611000  1.0
  H  H74  1  0.65914000  0.42619000  0.03388000  1.0
  H  H75  1  0.34084000  0.07382000  0.03389000  1.0
  H  H76  1  0.88049000  0.35690000  0.41235000  1.0
  H  H77  1  0.11951000  0.14310000  0.41236000  1.0
  H  H78  1  0.88048000  0.64309000  0.08764000  1.0
  H  H79  1  0.11955000  0.85691000  0.08764000  1.0
  H  H80  1  0.11954000  0.64309000  0.58764000  1.0
  H  H81  1  0.88046000  0.85691000  0.58764000  1.0
  H  H82  1  0.11952000  0.35690000  0.91235000  1.0
  H  H83  1  0.88047000  0.14310000  0.91235000  1.0
  H  H84  1  0.05167000  0.32994000  0.48096000  1.0
  H  H85  1  0.94832000  0.17006000  0.48097000  1.0
  H  H86  1  0.05167000  0.67006000  0.01903000  1.0
  H  H87  1  0.94835000  0.82995000  0.01903000  1.0
  H  H88  1  0.94835000  0.67005000  0.51903000  1.0
  H  H89  1  0.05166000  0.82995000  0.51903000  1.0
  H  H90  1  0.94834000  0.32994000  0.98096000  1.0
  H  H91  1  0.05165000  0.17006000  0.98097000  1.0
  C  C92  1  0.25762000  0.40005000  0.33760000  1.0
  C  C93  1  0.74238000  0.09995000  0.33761000  1.0
  C  C94  1  0.25764000  0.59995000  0.16239000  1.0
  C  C95  1  0.74240000  0.90005000  0.16239000  1.0
  C  C96  1  0.74239000  0.59995000  0.66240000  1.0
  C  C97  1  0.25760000  0.90006000  0.66240000  1.0
  C  C98  1  0.74238000  0.40005000  0.83760000  1.0
  C  C99  1  0.25763000  0.09995000  0.83760000  1.0
  C  C100  1  0.61394000  0.62541000  0.30080000  1.0
  C  C101  1  0.38608000  0.87459000  0.30080000  1.0
  C  C102  1  0.61392000  0.37459000  0.19920000  1.0
  C  C103  1  0.38607000  0.12541000  0.19921000  1.0
  C  C104  1  0.38607000  0.37459000  0.69920000  1.0
  C  C105  1  0.61394000  0.12541000  0.69920000  1.0
  C  C106  1  0.38607000  0.62541000  0.80080000  1.0
  C  C107  1  0.61394000  0.87459000  0.80080000  1.0
  C  C108  1  0.28094000  0.58371000  0.35874000  1.0
  C  C109  1  0.71907000  0.91630000  0.35875000  1.0
  C  C110  1  0.28092000  0.41630000  0.14125000  1.0
  C  C111  1  0.71905000  0.08370000  0.14126000  1.0
  C  C112  1  0.71909000  0.41629000  0.64125000  1.0
  C  C113  1  0.28092000  0.08371000  0.64126000  1.0
  C  C114  1  0.71909000  0.58370000  0.85875000  1.0
  C  C115  1  0.28095000  0.91629000  0.85874000  1.0
  C  C116  1  0.47249000  0.68416000  0.39541000  1.0
  C  C117  1  0.52751000  0.81584000  0.39541000  1.0
  C  C118  1  0.47246000  0.31583000  0.10460000  1.0
  C  C119  1  0.52748000  0.18416000  0.10460000  1.0
  C  C120  1  0.52748000  0.31584000  0.60459000  1.0
  C  C121  1  0.47246000  0.18417000  0.60460000  1.0
  C  C122  1  0.52753000  0.68416000  0.89541000  1.0
  C  C123  1  0.47251000  0.81584000  0.89541000  1.0
  C  C124  1  0.63796000  0.67834000  0.34333000  1.0
  C  C125  1  0.36205000  0.82166000  0.34333000  1.0
  C  C126  1  0.63793000  0.32166000  0.15667000  1.0
  C  C127  1  0.36203000  0.17834000  0.15668000  1.0
  C  C128  1  0.36201000  0.32167000  0.65667000  1.0
  C  C129  1  0.63794000  0.17835000  0.65667000  1.0
  C  C130  1  0.36205000  0.67834000  0.84334000  1.0
  C  C131  1  0.63797000  0.82166000  0.84333000  1.0
  C  C132  1  0.02304000  0.43609000  0.47120000  1.0
  C  C133  1  0.97696000  0.06392000  0.47121000  1.0
  C  C134  1  0.02304000  0.56391000  0.02880000  1.0
  C  C135  1  0.97697000  0.93610000  0.02880000  1.0
  C  C136  1  0.97696000  0.56390000  0.52880000  1.0
  C  C137  1  0.02304000  0.93610000  0.52880000  1.0
  C  C138  1  0.97696000  0.43609000  0.97119000  1.0
  C  C139  1  0.02304000  0.06391000  0.97120000  1.0
  C  C140  1  0.28907000  0.63629000  0.40261000  1.0
  C  C141  1  0.71092000  0.86371000  0.40262000  1.0
  C  C142  1  0.28904000  0.36370000  0.09739000  1.0
  C  C143  1  0.71090000  0.13629000  0.09739000  1.0
  C  C144  1  0.71092000  0.36371000  0.59738000  1.0
  C  C145  1  0.28904000  0.13630000  0.59740000  1.0
  C  C146  1  0.71095000  0.63629000  0.90261000  1.0
  C  C147  1  0.28909000  0.86371000  0.90261000  1.0
  C  C148  1  0.83250000  0.47915000  0.45274000  1.0
  C  C149  1  0.16750000  0.02085000  0.45274000  1.0
  C  C150  1  0.83249000  0.52084000  0.04726000  1.0
  C  C151  1  0.16751000  0.97916000  0.04726000  1.0
  C  C152  1  0.16750000  0.52084000  0.54726000  1.0
  C  C153  1  0.83250000  0.97916000  0.54727000  1.0
  C  C154  1  0.16749000  0.47916000  0.95273000  1.0
  C  C155  1  0.83250000  0.02085000  0.95274000  1.0
  C  C156  1  0.27332000  0.35738000  0.39881000  1.0
  C  C157  1  0.72666000  0.14262000  0.39881000  1.0
  C  C158  1  0.27333000  0.64262000  0.10119000  1.0
  C  C159  1  0.72670000  0.85738000  0.10119000  1.0
  C  C160  1  0.72669000  0.64262000  0.60119000  1.0
  C  C161  1  0.27330000  0.85738000  0.60119000  1.0
  C  C162  1  0.72668000  0.35738000  0.89881000  1.0
  C  C163  1  0.27333000  0.14262000  0.89881000  1.0
  C  C164  1  0.18965000  0.45827000  0.51870000  1.0
  C  C165  1  0.81036000  0.04173000  0.51871000  1.0
  C  C166  1  0.18963000  0.54172000  0.98129000  1.0
  C  C167  1  0.81036000  0.95828000  0.98130000  1.0
  C  C168  1  0.81036000  0.54172000  0.48130000  1.0
  C  C169  1  0.18964000  0.95828000  0.48130000  1.0
  C  C170  1  0.81035000  0.45828000  0.01869000  1.0
  C  C171  1  0.18965000  0.04173000  0.01870000  1.0
  C  C172  1  0.04455000  0.36749000  0.44194000  1.0
  C  C173  1  0.95546000  0.13251000  0.44195000  1.0
  C  C174  1  0.04454000  0.63251000  0.05805000  1.0
  C  C175  1  0.95547000  0.86749000  0.05805000  1.0
  C  C176  1  0.95547000  0.63251000  0.55805000  1.0
  C  C177  1  0.04453000  0.86749000  0.55805000  1.0
  C  C178  1  0.95546000  0.36749000  0.94194000  1.0
  C  C179  1  0.04453000  0.13251000  0.94195000  1.0
  S  S180  1  0.50000000  0.75000000  0.45193000  1.0
  S  S181  1  0.49995000  0.24999000  0.04807000  1.0
  S  S182  1  0.49995000  0.25000000  0.54807000  1.0
  S  S183  1  0.50004000  0.75000000  0.95193000  1.0
  N  N184  1  0.44044000  0.57839000  0.30905000  1.0
  N  N185  1  0.55958000  0.92161000  0.30906000  1.0
  N  N186  1  0.44042000  0.42161000  0.19094000  1.0
  N  N187  1  0.55957000  0.07838000  0.19095000  1.0
  N  N188  1  0.55958000  0.42162000  0.69094000  1.0
  N  N189  1  0.44045000  0.07839000  0.69095000  1.0
  N  N190  1  0.55958000  0.57838000  0.80906000  1.0
  N  N191  1  0.44044000  0.92161000  0.80906000  1.0
  O  O192  1  0.43601000  0.44129000  0.32892000  1.0
  O  O193  1  0.56401000  0.05871000  0.32893000  1.0
  O  O194  1  0.43600000  0.55871000  0.17107000  1.0
  O  O195  1  0.56402000  0.94129000  0.17108000  1.0
  O  O196  1  0.56401000  0.55871000  0.67108000  1.0
  O  O197  1  0.43600000  0.94129000  0.67108000  1.0
  O  O198  1  0.56401000  0.44129000  0.82892000  1.0
  O  O199  1  0.43599000  0.05871000  0.82892000  1.0
  O  O200  1  0.86085000  0.49999000  0.24999000  1.0
  O  O201  1  0.13916000  0.00000000  0.25000000  1.0
  O  O202  1  0.13916000  0.50000000  0.75000000  1.0
  O  O203  1  0.86086000  1.00000000  0.75001000  1.0
  O  O204  1  0.07356000  0.39345000  0.30102000  1.0
  O  O205  1  0.92641000  0.10655000  0.30102000  1.0
  O  O206  1  0.07361000  0.60655000  0.19898000  1.0
  O  O207  1  0.92645000  0.89345000  0.19898000  1.0
  O  O208  1  0.92643000  0.60655000  0.69899000  1.0
  O  O209  1  0.07354000  0.89346000  0.69898000  1.0
  O  O210  1  0.92643000  0.39345000  0.80101000  1.0
  O  O211  1  0.07361000  0.10656000  0.80101000  1.0
