# generated using pymatgen
data_ZnH2(C5O4)2
_symmetry_space_group_name_H-M   'P 1'
_cell_length_a   9.82290000
_cell_length_b   13.39470000
_cell_length_c   14.88340000
_cell_angle_alpha   90.00030000
_cell_angle_beta   90.00470000
_cell_angle_gamma   102.22800000
_symmetry_Int_Tables_number   1
_chemical_formula_structural   ZnH2(C5O4)2
_chemical_formula_sum   'Zn4 H8 C40 O32'
_cell_volume   1913.85187476
_cell_formula_units_Z   4
loop_
 _symmetry_equiv_pos_site_id
 _symmetry_equiv_pos_as_xyz
  1  'x, y, z'
loop_
 _atom_site_type_symbol
 _atom_site_label
 _atom_site_symmetry_multiplicity
 _atom_site_fract_x
 _atom_site_fract_y
 _atom_site_fract_z
 _atom_site_occupancy
  Zn  Zn0  1  0.54117000  0.62544000  0.35765000  1.0
  Zn  Zn1  1  0.45877000  0.87453000  0.85763000  1.0
  Zn  Zn2  1  0.45881000  0.37454000  0.64236000  1.0
  Zn  Zn3  1  0.54122000  0.12545000  0.14235000  1.0
  H  H4  1  0.07892000  0.65626000  0.40569000  1.0
  H  H5  1  0.59443000  0.67321000  0.06667000  1.0
  H  H6  1  0.92105000  0.84377000  0.90563000  1.0
  H  H7  1  0.40555000  0.82679000  0.56665000  1.0
  H  H8  1  0.92108000  0.34377000  0.59435000  1.0
  H  H9  1  0.40557000  0.32679000  0.93333000  1.0
  H  H10  1  0.07896000  0.15623000  0.09432000  1.0
  H  H11  1  0.59444000  0.17321000  0.43335000  1.0
  C  C12  1  0.90392000  0.54436000  0.45071000  1.0
  C  C13  1  0.80333000  0.59266000  0.39590000  1.0
  C  C14  1  0.04425000  0.58853000  0.44740000  1.0
  C  C15  1  0.29191000  0.57997000  0.46807000  1.0
  C  C16  1  0.52230000  0.51248000  0.09299000  1.0
  C  C17  1  0.54590000  0.52670000  0.19313000  1.0
  C  C18  1  0.53620000  0.68196000  0.89193000  1.0
  C  C19  1  0.55804000  0.59752000  0.03778000  1.0
  C  C20  1  0.14024000  0.53906000  0.49072000  1.0
  C  C21  1  0.52544000  0.58566000  0.94600000  1.0
  C  C22  1  0.09606000  0.95565000  0.95066000  1.0
  C  C23  1  0.19663000  0.90734000  0.89586000  1.0
  C  C24  1  0.95573000  0.91149000  0.94734000  1.0
  C  C25  1  0.70808000  0.92005000  0.96804000  1.0
  C  C26  1  0.47769000  0.98751000  0.59298000  1.0
  C  C27  1  0.45409000  0.97329000  0.69312000  1.0
  C  C28  1  0.46379000  0.81803000  0.39192000  1.0
  C  C29  1  0.44194000  0.90248000  0.53777000  1.0
  C  C30  1  0.85976000  0.96097000  0.99067000  1.0
  C  C31  1  0.47455000  0.91434000  0.44599000  1.0
  C  C32  1  0.09607000  0.45567000  0.54933000  1.0
  C  C33  1  0.19667000  0.40736000  0.60413000  1.0
  C  C34  1  0.95575000  0.41150000  0.55265000  1.0
  C  C35  1  0.70809000  0.42004000  0.53196000  1.0
  C  C36  1  0.47771000  0.48752000  0.90702000  1.0
  C  C37  1  0.45410000  0.47330000  0.80688000  1.0
  C  C38  1  0.46382000  0.31803000  0.10807000  1.0
  C  C39  1  0.44197000  0.40248000  0.96222000  1.0
  C  C40  1  0.85976000  0.46097000  0.50933000  1.0
  C  C41  1  0.47457000  0.41434000  0.05400000  1.0
  C  C42  1  0.90395000  0.04435000  0.04929000  1.0
  C  C43  1  0.80338000  0.09266000  0.10411000  1.0
  C  C44  1  0.04428000  0.08851000  0.05261000  1.0
  C  C45  1  0.29193000  0.07995000  0.03192000  1.0
  C  C46  1  0.52230000  0.01248000  0.40702000  1.0
  C  C47  1  0.54591000  0.02670000  0.30688000  1.0
  C  C48  1  0.53620000  0.18196000  0.60809000  1.0
  C  C49  1  0.55805000  0.09752000  0.46223000  1.0
  C  C50  1  0.14025000  0.03903000  0.00928000  1.0
  C  C51  1  0.52544000  0.08565000  0.55401000  1.0
  O  O52  1  0.51272000  0.60535000  0.22796000  1.0
  O  O53  1  0.44088000  0.73184000  0.89850000  1.0
  O  O54  1  0.67636000  0.56675000  0.42453000  1.0
  O  O55  1  0.84870000  0.65100000  0.33338000  1.0
  O  O56  1  0.35151000  0.55293000  0.40112000  1.0
  O  O57  1  0.64980000  0.70079000  0.85094000  1.0
  O  O58  1  0.32665000  0.64855000  0.52646000  1.0
  O  O59  1  0.60193000  0.46146000  0.22865000  1.0
  O  O60  1  0.48723000  0.89462000  0.72794000  1.0
  O  O61  1  0.55910000  0.76814000  0.39850000  1.0
  O  O62  1  0.32360000  0.93324000  0.92449000  1.0
  O  O63  1  0.15123000  0.84900000  0.83334000  1.0
  O  O64  1  0.64843000  0.94708000  0.90110000  1.0
  O  O65  1  0.35020000  0.79921000  0.35092000  1.0
  O  O66  1  0.67339000  0.85148000  0.02643000  1.0
  O  O67  1  0.39807000  0.03854000  0.72864000  1.0
  O  O68  1  0.48726000  0.39463000  0.77206000  1.0
  O  O69  1  0.55914000  0.26815000  0.10150000  1.0
  O  O70  1  0.32364000  0.43326000  0.57549000  1.0
  O  O71  1  0.15129000  0.34902000  0.66666667  1.0
  O  O72  1  0.64846000  0.44707000  0.59890000  1.0
  O  O73  1  0.35022000  0.29921000  0.14905000  1.0
  O  O74  1  0.67338000  0.35147000  0.47356000  1.0
  O  O75  1  0.39808000  0.53854000  0.77136000  1.0
  O  O76  1  0.51276000  0.10536000  0.27205000  1.0
  O  O77  1  0.44089000  0.23184000  0.60151000  1.0
  O  O78  1  0.67639000  0.06675000  0.07549000  1.0
  O  O79  1  0.84878000  0.15100000  0.16662000  1.0
  O  O80  1  0.35155000  0.05290000  0.09887000  1.0
  O  O81  1  0.64980000  0.20078000  0.64908000  1.0
  O  O82  1  0.32664000  0.14851000  0.97353000  1.0
  O  O83  1  0.60194000  0.96146000  0.27137000  1.0
