# generated using pymatgen
data_CuH10C19N2O5
_symmetry_space_group_name_H-M   'P 1'
_cell_length_a   11.42930000
_cell_length_b   12.30036360
_cell_length_c   14.90104907
_cell_angle_alpha   79.74905781
_cell_angle_beta   67.45410516
_cell_angle_gamma   62.37017687
_symmetry_Int_Tables_number   1
_chemical_formula_structural   CuH10C19N2O5
_chemical_formula_sum   'Cu4 H40 C76 N8 O20'
_cell_volume   1714.11814847
_cell_formula_units_Z   4
loop_
 _symmetry_equiv_pos_site_id
 _symmetry_equiv_pos_as_xyz
  1  'x, y, z'
loop_
 _atom_site_type_symbol
 _atom_site_label
 _atom_site_symmetry_multiplicity
 _atom_site_fract_x
 _atom_site_fract_y
 _atom_site_fract_z
 _atom_site_occupancy
  Cu  Cu0  1  0.54408000  0.41187000  0.75019000  1.0
  Cu  Cu1  1  0.20618000  0.08811000  0.74988000  1.0
  Cu  Cu2  1  0.45592000  0.58812000  0.24981000  1.0
  Cu  Cu3  1  0.79381000  0.91190000  0.25013000  1.0
  H  H4  1  0.47637000  0.30225000  0.07209000  1.0
  H  H5  1  0.95243000  0.19743000  0.07198000  1.0
  H  H6  1  0.35097000  0.19737000  0.42791000  1.0
  H  H7  1  0.72209000  0.30252000  0.42792000  1.0
  H  H8  1  0.52362000  0.69775000  0.92791000  1.0
  H  H9  1  0.04756000  0.80256000  0.92802000  1.0
  H  H10  1  0.64904000  0.80261000  0.57209000  1.0
  H  H11  1  0.27789000  0.69749000  0.57207000  1.0
  H  H12  1  0.63297000  0.49293000  0.54554000  1.0
  H  H13  1  0.32157000  0.00723000  0.54534000  1.0
  H  H14  1  0.17129000  0.00730000  0.95448000  1.0
  H  H15  1  0.37404000  0.49277000  0.95493000  1.0
  H  H16  1  0.36703000  0.50708000  0.45447000  1.0
  H  H17  1  0.67843000  0.99277000  0.45467000  1.0
  H  H18  1  0.82872000  0.99269000  0.04552000  1.0
  H  H19  1  0.62596000  0.50722000  0.04507000  1.0
  H  H20  1  0.82599000  0.53945000  0.43179000  1.0
  H  H21  1  0.24223000  0.96055000  0.43172000  1.0
  H  H22  1  0.29693000  0.96084000  0.06826000  1.0
  H  H23  1  0.13447000  0.53928000  0.06845000  1.0
  H  H24  1  0.17400000  0.46057000  0.56821000  1.0
  H  H25  1  0.75777000  0.03946000  0.56829000  1.0
  H  H26  1  0.70311000  0.03915000  0.93173000  1.0
  H  H27  1  0.86554000  0.46070000  0.93155000  1.0
  H  H28  1  0.81346000  0.38474000  0.75999000  1.0
  H  H29  1  0.92688000  0.11512000  0.75994000  1.0
  H  H30  1  0.45850000  0.11510000  0.73994000  1.0
  H  H31  1  0.30182000  0.38521000  0.74003000  1.0
  H  H32  1  0.18655000  0.61526000  0.24001000  1.0
  H  H33  1  0.07314000  0.88487000  0.24006000  1.0
  H  H34  1  0.54150000  0.88491000  0.26006000  1.0
  H  H35  1  0.69818000  0.61481000  0.25996000  1.0
  H  H36  1  0.01712000  0.41742000  0.65564000  1.0
  H  H37  1  0.82749000  0.08237000  0.65571000  1.0
  H  H38  1  0.59040000  0.08240000  0.84432000  1.0
  H  H39  1  0.06548000  0.41783000  0.84419000  1.0
  H  H40  1  0.98290000  0.58258000  0.34435000  1.0
  H  H41  1  0.17252000  0.91763000  0.34428000  1.0
  H  H42  1  0.40961000  0.91762000  0.15568000  1.0
  H  H43  1  0.93452000  0.58218000  0.15580000  1.0
  C  C44  1  0.66272000  0.29106000  0.88818000  1.0
  C  C45  1  0.94975000  0.20858000  0.88808000  1.0
  C  C46  1  0.34230000  0.20859000  0.61177000  1.0
  C  C47  1  0.54666000  0.29126000  0.61189000  1.0
  C  C48  1  0.33728000  0.70895000  0.11181000  1.0
  C  C49  1  0.05024000  0.79141000  0.11193000  1.0
  C  C50  1  0.65770000  0.79142000  0.38823000  1.0
  C  C51  1  0.45332000  0.70876000  0.38811000  1.0
  C  C52  1  0.69044000  0.26996000  0.98236000  1.0
  C  C53  1  0.82797000  0.22965000  0.98233000  1.0
  C  C54  1  0.44301000  0.22981000  0.51761000  1.0
  C  C55  1  0.54023000  0.27020000  0.51761000  1.0
  C  C56  1  0.30955000  0.73003000  0.01764000  1.0
  C  C57  1  0.17202000  0.77035000  0.01766000  1.0
  C  C58  1  0.55696000  0.77021000  0.48239000  1.0
  C  C59  1  0.45976000  0.72980000  0.48239000  1.0
  C  C60  1  0.58115000  0.28070000  0.07034000  1.0
  C  C61  1  0.84937000  0.21899000  0.07028000  1.0
  C  C62  1  0.43241000  0.21903000  0.42965000  1.0
  C  C63  1  0.63883000  0.28097000  0.42966000  1.0
  C  C64  1  0.41884000  0.71928000  0.92966000  1.0
  C  C65  1  0.15061000  0.78100000  0.92973000  1.0
  C  C66  1  0.56758000  0.78097000  0.57035000  1.0
  C  C67  1  0.36115000  0.71902000  0.57034000  1.0
  C  C68  1  0.60523000  0.26003000  0.15837000  1.0
  C  C69  1  0.73731000  0.23981000  0.15834000  1.0
  C  C70  1  0.52377000  0.23980000  0.34159000  1.0
  C  C71  1  0.63554000  0.26018000  0.34159000  1.0
  C  C72  1  0.39475000  0.73995000  0.84164000  1.0
  C  C73  1  0.26267000  0.76018000  0.84167000  1.0
  C  C74  1  0.47621000  0.76020000  0.65841000  1.0
  C  C75  1  0.36443000  0.73981000  0.65841000  1.0
  C  C76  1  0.49629000  0.24987000  0.24998000  1.0
  C  C77  1  0.75466000  0.25001000  0.24995000  1.0
  C  C78  1  0.50368000  0.75012000  0.75002000  1.0
  C  C79  1  0.24535000  0.74997000  0.75004000  1.0
  C  C80  1  0.72035000  0.47815000  0.56670000  1.0
  C  C81  1  0.21303000  0.02198000  0.56656000  1.0
  C  C82  1  0.26516000  0.02197000  0.93329000  1.0
  C  C83  1  0.30148000  0.47806000  0.93363000  1.0
  C  C84  1  0.27965000  0.52186000  0.43330000  1.0
  C  C85  1  0.78697000  0.97802000  0.43345000  1.0
  C  C86  1  0.73487000  0.97801000  0.06671000  1.0
  C  C87  1  0.69852000  0.52193000  0.06637000  1.0
  C  C88  1  0.83105000  0.50264000  0.50301000  1.0
  C  C89  1  0.16599000  0.99744000  0.50291000  1.0
  C  C90  1  0.33655000  0.99753000  0.99701000  1.0
  C  C91  1  0.16630000  0.50251000  0.99721000  1.0
  C  C92  1  0.16896000  0.49736000  0.49699000  1.0
  C  C93  1  0.83403000  0.00256000  0.49709000  1.0
  C  C94  1  0.66347000  0.00247000  0.00298000  1.0
  C  C95  1  0.83369000  0.49748000  0.00280000  1.0
  C  C96  1  0.81989000  0.41741000  0.68654000  1.0
  C  C97  1  0.99378000  0.08260000  0.68647000  1.0
  C  C98  1  0.42398000  0.08255000  0.81342000  1.0
  C  C99  1  0.26277000  0.41761000  0.81356000  1.0
  C  C100  1  0.18012000  0.58260000  0.31346000  1.0
  C  C101  1  0.00621000  0.91740000  0.31354000  1.0
  C  C102  1  0.57603000  0.91746000  0.18658000  1.0
  C  C103  1  0.73723000  0.58241000  0.18643000  1.0
  C  C104  1  0.93469000  0.43878000  0.62662000  1.0
  C  C105  1  0.93887000  0.06115000  0.62662000  1.0
  C  C106  1  0.50020000  0.06117000  0.87335000  1.0
  C  C107  1  0.12659000  0.43896000  0.87336000  1.0
  C  C108  1  0.06533000  0.56122000  0.37338000  1.0
  C  C109  1  0.06114000  0.93884000  0.37338000  1.0
  C  C110  1  0.49981000  0.93884000  0.12665000  1.0
  C  C111  1  0.87341000  0.56105000  0.12663000  1.0
  C  C112  1  0.94155000  0.48513000  0.53249000  1.0
  C  C113  1  0.02602000  0.01487000  0.53246000  1.0
  C  C114  1  0.45914000  0.01489000  0.96753000  1.0
  C  C115  1  0.07334000  0.48515000  0.96756000  1.0
  C  C116  1  0.05846000  0.51487000  0.46751000  1.0
  C  C117  1  0.97398000  0.98514000  0.46754000  1.0
  C  C118  1  0.54086000  0.98511000  0.03248000  1.0
  C  C119  1  0.92666000  0.51484000  0.03244000  1.0
  N  N120  1  0.71285000  0.43717000  0.65816000  1.0
  N  N121  1  0.12918000  0.06293000  0.65801000  1.0
  N  N122  1  0.30825000  0.06286000  0.84181000  1.0
  N  N123  1  0.35002000  0.43721000  0.84213000  1.0
  N  N124  1  0.28716000  0.56283000  0.34184000  1.0
  N  N125  1  0.87082000  0.93708000  0.34199000  1.0
  N  N126  1  0.69175000  0.93715000  0.15819000  1.0
  N  N127  1  0.64999000  0.56278000  0.15787000  1.0
  O  O128  1  0.59512000  0.40439000  0.86698000  1.0
  O  O129  1  0.03850000  0.09530000  0.86673000  1.0
  O  O130  1  0.36685000  0.09525000  0.63309000  1.0
  O  O131  1  0.50035000  0.40460000  0.63340000  1.0
  O  O132  1  0.40486000  0.59562000  0.13301000  1.0
  O  O133  1  0.96152000  0.90470000  0.13327000  1.0
  O  O134  1  0.63313000  0.90476000  0.36693000  1.0
  O  O135  1  0.49966000  0.59541000  0.36661000  1.0
  O  O136  1  0.70433000  0.20119000  0.83725000  1.0
  O  O137  1  0.95901000  0.29854000  0.83719000  1.0
  O  O138  1  0.24297000  0.29846000  0.66262000  1.0
  O  O139  1  0.59530000  0.20135000  0.66266000  1.0
  O  O140  1  0.29565000  0.79883000  0.16275000  1.0
  O  O141  1  0.04099000  0.70146000  0.16282000  1.0
  O  O142  1  0.75702000  0.70156000  0.33739000  1.0
  O  O143  1  0.40468000  0.79867000  0.33734000  1.0
  O  O144  1  0.38822000  0.24977000  0.24996000  1.0
  O  O145  1  0.86276000  0.25008000  0.24993000  1.0
  O  O146  1  0.61177000  0.75022000  0.75004000  1.0
  O  O147  1  0.13722000  0.74989000  0.75007000  1.0
