# generated using pymatgen
data_CdH18C18(N2O3)2
_symmetry_space_group_name_H-M   'P 1'
_cell_length_a   8.36165000
_cell_length_b   10.41400000
_cell_length_c   11.51420000
_cell_angle_alpha   83.18490000
_cell_angle_beta   72.94990000
_cell_angle_gamma   79.04150000
_symmetry_Int_Tables_number   1
_chemical_formula_structural   CdH18C18(N2O3)2
_chemical_formula_sum   'Cd2 H36 C36 N8 O12'
_cell_volume   938.97221509
_cell_formula_units_Z   2
loop_
 _symmetry_equiv_pos_site_id
 _symmetry_equiv_pos_as_xyz
  1  'x, y, z'
loop_
 _atom_site_type_symbol
 _atom_site_label
 _atom_site_symmetry_multiplicity
 _atom_site_fract_x
 _atom_site_fract_y
 _atom_site_fract_z
 _atom_site_occupancy
  Cd  Cd0  1  0.47299000  0.80617000  0.61329000  1.0
  Cd  Cd1  1  0.52701000  0.19383000  0.38671000  1.0
  H  H2  1  0.71295000  0.54022000  0.45140000  1.0
  H  H3  1  0.28704000  0.45979000  0.54860000  1.0
  H  H4  1  0.84778000  0.90931000  0.45827000  1.0
  H  H5  1  0.15222000  0.09069000  0.54174000  1.0
  H  H6  1  0.12736000  0.74755000  0.31606000  1.0
  H  H7  1  0.87264000  0.25245000  0.68394000  1.0
  H  H8  1  0.02502000  0.40839000  0.34897000  1.0
  H  H9  1  0.97498000  0.59161000  0.65103000  1.0
  H  H10  1  0.18521000  0.50587000  0.28320000  1.0
  H  H11  1  0.81479000  0.49413000  0.71680000  1.0
  H  H12  1  0.10680000  0.42520000  0.12226000  1.0
  H  H13  1  0.89320000  0.57480000  0.87774000  1.0
  H  H14  1  0.88755000  0.48471000  0.18508000  1.0
  H  H15  1  0.11246000  0.51529000  0.81492000  1.0
  H  H16  1  0.80379000  0.72400000  0.19915000  1.0
  H  H17  1  0.19621000  0.27600000  0.80086000  1.0
  H  H18  1  0.81428000  0.66657000  0.05732000  1.0
  H  H19  1  0.18573000  0.33343000  0.94268000  1.0
  H  H20  1  0.79567000  0.91100000  0.06316000  1.0
  H  H21  1  0.20433000  0.08900000  0.93684000  1.0
  H  H22  1  0.99837000  0.88230000  0.08987000  1.0
  H  H23  1  0.00163000  0.11770000  0.91013000  1.0
  H  H24  1  0.78306000  0.86919000  0.84225000  1.0
  H  H25  1  0.21693000  0.13081000  0.15776000  1.0
  H  H26  1  0.04067000  0.86278000  0.62329000  1.0
  H  H27  1  0.95933000  0.13722000  0.37671000  1.0
  H  H28  1  0.26134000  0.82442000  0.91347000  1.0
  H  H29  1  0.73866000  0.17558000  0.08652000  1.0
  H  H30  1  0.45656000  0.96041000  0.10960000  1.0
  H  H31  1  0.54344000  0.03960000  0.89040000  1.0
  H  H32  1  0.53322000  0.55127000  0.04305000  1.0
  H  H33  1  0.46678000  0.44873000  0.95695000  1.0
  H  H34  1  0.43692000  0.66558000  0.40729000  1.0
  H  H35  1  0.56307000  0.33443000  0.59271000  1.0
  H  H36  1  0.52832000  0.72322000  0.89067000  1.0
  H  H37  1  0.47168000  0.27678000  0.10933000  1.0
  C  C38  1  0.78732000  0.61856000  0.43781000  1.0
  C  C39  1  0.21268000  0.38144000  0.56219000  1.0
  C  C40  1  0.86389000  0.80812000  0.43680000  1.0
  C  C41  1  0.13611000  0.19188000  0.56320000  1.0
  C  C42  1  0.00097000  0.73022000  0.36616000  1.0
  C  C43  1  0.99903000  0.26979000  0.63384000  1.0
  C  C44  1  0.05136000  0.50111000  0.29685000  1.0
  C  C45  1  0.94864000  0.49889000  0.70315000  1.0
  C  C46  1  0.01659000  0.50416000  0.17337000  1.0
  C  C47  1  0.98342000  0.49584000  0.82663000  1.0
  C  C48  1  0.88483000  0.71025000  0.10537000  1.0
  C  C49  1  0.11517000  0.28976000  0.89463000  1.0
  C  C50  1  0.91746000  0.84432000  0.04677000  1.0
  C  C51  1  0.08254000  0.15568000  0.95323000  1.0
  C  C52  1  0.91963000  0.85929000  0.82367000  1.0
  C  C53  1  0.08036000  0.14071000  0.17633000  1.0
  C  C54  1  0.04788000  0.85537000  0.71644000  1.0
  C  C55  1  0.95211000  0.14463000  0.28356000  1.0
  C  C56  1  0.16816000  0.83503000  0.86291000  1.0
  C  C57  1  0.83184000  0.16497000  0.13709000  1.0
  C  C58  1  0.41056000  0.93208000  0.35079000  1.0
  C  C59  1  0.58944000  0.06792000  0.64921000  1.0
  C  C60  1  0.43942000  0.82415000  0.26701000  1.0
  C  C61  1  0.56058000  0.17585000  0.73299000  1.0
  C  C62  1  0.46066000  0.85767000  0.14272000  1.0
  C  C63  1  0.53934000  0.14233000  0.85728000  1.0
  C  C64  1  0.49139000  0.75984000  0.06175000  1.0
  C  C65  1  0.50861000  0.24016000  0.93825000  1.0
  C  C66  1  0.50288000  0.62820000  0.10580000  1.0
  C  C67  1  0.49712000  0.37180000  0.89419000  1.0
  C  C68  1  0.48571000  0.59449000  0.22951000  1.0
  C  C69  1  0.51428000  0.40551000  0.77049000  1.0
  C  C70  1  0.45188000  0.69245000  0.31095000  1.0
  C  C71  1  0.54812000  0.30755000  0.68904000  1.0
  C  C72  1  0.50641000  0.45285000  0.27478000  1.0
  C  C73  1  0.49359000  0.54716000  0.72522000  1.0
  N  N74  1  0.73203000  0.73721000  0.48090000  1.0
  N  N75  1  0.26797000  0.26279000  0.51910000  1.0
  N  N76  1  0.95077000  0.61057000  0.36807000  1.0
  N  N77  1  0.04923000  0.38943000  0.63193000  1.0
  N  N78  1  0.99857000  0.84655000  0.91582000  1.0
  N  N79  1  0.00143000  0.15344000  0.08418000  1.0
  N  N80  1  0.20175000  0.84051000  0.74235000  1.0
  N  N81  1  0.79825000  0.15949000  0.25764000  1.0
  O  O82  1  0.35034000  0.90890000  0.46481000  1.0
  O  O83  1  0.64966000  0.09110000  0.53519000  1.0
  O  O84  1  0.44822000  0.04167000  0.29923000  1.0
  O  O85  1  0.55177000  0.95833000  0.70077000  1.0
  O  O86  1  0.46757000  0.36923000  0.21886000  1.0
  O  O87  1  0.53243000  0.63078000  0.78114000  1.0
  O  O88  1  0.55835000  0.42237000  0.36931000  1.0
  O  O89  1  0.44165000  0.57763000  0.63069000  1.0
  O  O90  1  0.51494000  0.79807000  0.94164000  1.0
  O  O91  1  0.48506000  0.20193000  0.05836000  1.0
  O  O92  1  0.04165000  0.62601000  0.10409000  1.0
  O  O93  1  0.95835000  0.37399000  0.89591000  1.0
