# generated using pymatgen
data_Zr6H25C50Br5O32
_symmetry_space_group_name_H-M   'P 1'
_cell_length_a   14.79080000
_cell_length_b   14.79660000
_cell_length_c   14.79938370
_cell_angle_alpha   90.05946619
_cell_angle_beta   119.92930616
_cell_angle_gamma   119.93050000
_symmetry_Int_Tables_number   1
_chemical_formula_structural   Zr6H25C50Br5O32
_chemical_formula_sum   'Zr6 H25 C50 Br5 O32'
_cell_volume   2293.90731759
_cell_formula_units_Z   1
loop_
 _symmetry_equiv_pos_site_id
 _symmetry_equiv_pos_as_xyz
  1  'x, y, z'
loop_
 _atom_site_type_symbol
 _atom_site_label
 _atom_site_symmetry_multiplicity
 _atom_site_fract_x
 _atom_site_fract_y
 _atom_site_fract_z
 _atom_site_occupancy
  Zr  Zr0  1  0.50122000  0.88104000  0.38090000  1.0
  Zr  Zr1  1  0.49896000  0.11857000  0.61874000  1.0
  Zr  Zr2  1  0.26206000  0.87996000  0.37987000  1.0
  Zr  Zr3  1  0.73971000  0.11982000  0.62002000  1.0
  Zr  Zr4  1  0.50196000  0.88170000  0.62065000  1.0
  Zr  Zr5  1  0.50215000  0.12085000  0.38197000  1.0
  H  H6  1  0.31278000  0.71817000  0.40562000  1.0
  H  H7  1  0.68781000  0.09404000  0.78227000  1.0
  H  H8  1  0.31233000  0.09371000  0.40581000  1.0
  H  H9  1  0.68975000  0.09496000  0.40665000  1.0
  H  H10  1  0.50563000  0.58309000  0.35718000  1.0
  H  H11  1  0.50309000  0.59300000  0.64583000  1.0
  H  H12  1  0.50430000  0.41271000  0.36460000  1.0
  H  H13  1  0.49380000  0.85142000  0.07715000  1.0
  H  H14  1  0.49285000  0.14095000  0.08779000  1.0
  H  H15  1  0.49174000  0.85848000  0.90643000  1.0
  H  H16  1  0.77674000  0.85368000  0.91845000  1.0
  H  H17  1  0.05512000  0.14241000  0.90623000  1.0
  H  H18  1  0.95462000  0.86248000  0.08849000  1.0
  H  H19  1  0.77699000  0.42506000  0.36024000  1.0
  H  H20  1  0.05494000  0.41151000  0.64794000  1.0
  H  H21  1  0.95505000  0.59476000  0.36897000  1.0
  H  H22  1  0.77217000  0.41818000  0.91235000  1.0
  H  H23  1  0.93958000  0.58676000  0.08006000  1.0
  H  H24  1  0.29944000  0.62917000  0.04192000  1.0
  H  H25  1  0.29785000  0.54412000  0.12736000  1.0
  H  H26  1  0.12918000  0.37386000  0.95759000  1.0
  H  H27  1  0.13046000  0.45891000  0.87209000  1.0
  H  H28  1  0.06652000  0.14222000  0.64847000  1.0
  H  H29  1  0.76468000  0.85292000  0.35855000  1.0
  H  H30  1  0.22699000  0.13324000  0.63921000  1.0
  C  C31  1  0.50760000  0.70038000  0.50193000  1.0
  C  C32  1  0.49312000  0.99959000  0.80045000  1.0
  C  C33  1  0.50580000  0.30676000  0.50603000  1.0
  C  C34  1  0.49510000  0.99592000  0.19410000  1.0
  C  C35  1  0.19720000  0.70029000  0.19359000  1.0
  C  C36  1  0.80630000  0.99877000  0.50543000  1.0
  C  C37  1  0.80363000  0.30526000  0.80004000  1.0
  C  C38  1  0.19228000  0.99230000  0.49818000  1.0
  C  C39  1  0.20186000  0.69980000  0.50782000  1.0
  C  C40  1  0.20166000  0.00157000  0.19379000  1.0
  C  C41  1  0.80371000  0.30785000  0.50304000  1.0
  C  C42  1  0.80367000  0.99600000  0.80102000  1.0
  C  C43  1  0.50455000  0.40742000  0.50903000  1.0
  C  C44  1  0.50616000  0.59863000  0.50238000  1.0
  C  C45  1  0.50299000  0.45876000  0.58834000  1.0
  C  C46  1  0.50535000  0.54789000  0.42172000  1.0
  C  C47  1  0.50420000  0.55344000  0.58472000  1.0
  C  C48  1  0.50473000  0.45393000  0.42599000  1.0
  C  C49  1  0.49291000  0.00336000  0.90159000  1.0
  C  C50  1  0.49319000  0.99610000  0.09212000  1.0
  C  C51  1  0.49377000  0.08394000  0.95407000  1.0
  C  C52  1  0.49315000  0.91579000  0.04179000  1.0
  C  C53  1  0.49323000  0.07945000  0.04788000  1.0
  C  C54  1  0.49255000  0.92006000  0.94786000  1.0
  C  C55  1  0.10416000  0.00580000  0.09304000  1.0
  C  C56  1  0.90609000  0.99749000  0.90209000  1.0
  C  C57  1  0.13198000  0.08604000  0.04116000  1.0
  C  C58  1  0.87638000  0.91807000  0.95315000  1.0
  C  C59  1  0.03360000  0.08105000  0.94657000  1.0
  C  C60  1  0.97468000  0.92304000  0.04695000  1.0
  C  C61  1  0.10438000  0.59885000  0.51194000  1.0
  C  C62  1  0.90612000  0.40900000  0.50457000  1.0
  C  C63  1  0.13210000  0.54591000  0.59112000  1.0
  C  C64  1  0.87656000  0.45967000  0.42474000  1.0
  C  C65  1  0.03361000  0.45233000  0.58704000  1.0
  C  C66  1  0.97495000  0.55314000  0.42947000  1.0
  C  C67  1  0.09794000  0.59990000  0.09363000  1.0
  C  C68  1  0.90478000  0.40556000  0.90017000  1.0
  C  C69  1  0.12853000  0.54944000  0.04480000  1.0
  C  C70  1  0.87295000  0.45553000  0.94968000  1.0
  C  C71  1  0.03466000  0.45488000  0.95071000  1.0
  C  C72  1  0.96661000  0.54976000  0.04345000  1.0
  C  C73  1  0.23749000  0.55508000  0.05252000  1.0
  C  C74  1  0.13133000  0.44810000  0.94591000  1.0
  C  C75  1  0.08771000  0.98911000  0.49483000  1.0
  C  C76  1  0.90589000  0.99717000  0.50402000  1.0
  C  C77  1  0.95566000  0.90986000  0.41474000  1.0
  C  C78  1  0.03637000  0.07730000  0.58363000  1.0
  C  C79  1  0.86640000  0.91415000  0.42003000  1.0
  C  C80  1  0.12490000  0.07231000  0.57832000  1.0
  Br  Br81  1  0.49814000  0.40916000  0.70594000  1.0
  Br  Br82  1  0.49750000  0.20582000  0.90860000  1.0
  Br  Br83  1  0.29906000  0.20778000  0.08959000  1.0
  Br  Br84  1  0.29913000  0.59018000  0.70872000  1.0
  Br  Br85  1  0.88240000  0.79152000  0.29259000  1.0
  O  O86  1  0.50561000  0.73791000  0.42374000  1.0
  O  O87  1  0.49079000  0.07327000  0.75680000  1.0
  O  O88  1  0.50390000  0.26356000  0.58001000  1.0
  O  O89  1  0.49746000  0.91989000  0.23384000  1.0
  O  O90  1  0.15977000  0.73928000  0.23388000  1.0
  O  O91  1  0.84469000  0.07701000  0.58137000  1.0
  O  O92  1  0.84141000  0.26510000  0.76127000  1.0
  O  O93  1  0.15983000  0.91717000  0.42335000  1.0
  O  O94  1  0.31916000  0.74253000  0.58311000  1.0
  O  O95  1  0.31887000  0.07722000  0.23673000  1.0
  O  O96  1  0.68800000  0.26853000  0.42517000  1.0
  O  O97  1  0.68804000  0.91998000  0.76360000  1.0
  O  O98  1  0.16092000  0.92334000  0.23048000  1.0
  O  O99  1  0.84008000  0.26754000  0.57907000  1.0
  O  O100  1  0.83998000  0.07217000  0.76078000  1.0
  O  O101  1  0.16102000  0.73537000  0.42861000  1.0
  O  O102  1  0.31361000  0.73986000  0.23332000  1.0
  O  O103  1  0.30696000  0.07082000  0.57508000  1.0
  O  O104  1  0.68744000  0.26549000  0.76072000  1.0
  O  O105  1  0.69001000  0.92232000  0.42910000  1.0
  O  O106  1  0.49642000  0.07303000  0.23470000  1.0
  O  O107  1  0.50896000  0.74106000  0.57904000  1.0
  O  O108  1  0.49719000  0.92372000  0.76541000  1.0
  O  O109  1  0.50727000  0.27017000  0.42890000  1.0
  O  O110  1  0.63631000  0.06823000  0.43346000  1.0
  O  O111  1  0.36590000  0.06703000  0.43239000  1.0
  O  O112  1  0.63473000  0.06688000  0.70212000  1.0
  O  O113  1  0.36682000  0.79834000  0.43296000  1.0
  O  O114  1  0.40142000  0.94998000  0.54895000  1.0
  O  O115  1  0.60019000  0.95086000  0.54991000  1.0
  O  O116  1  0.59972000  0.14870000  0.54996000  1.0
  O  O117  1  0.40268000  0.95125000  0.35187000  1.0
