# generated using pymatgen
data_ZnH10C11SN4O5
_symmetry_space_group_name_H-M   'P 1'
_cell_length_a   4.84999000
_cell_length_b   16.18970000
_cell_length_c   23.67350000
_cell_angle_alpha   90.00000000
_cell_angle_beta   91.08480000
_cell_angle_gamma   90.00000000
_symmetry_Int_Tables_number   1
_chemical_formula_structural   ZnH10C11SN4O5
_chemical_formula_sum   'Zn4 H40 C44 S4 N16 O20'
_cell_volume   1858.50729235
_cell_formula_units_Z   4
loop_
 _symmetry_equiv_pos_site_id
 _symmetry_equiv_pos_as_xyz
  1  'x, y, z'
loop_
 _atom_site_type_symbol
 _atom_site_label
 _atom_site_symmetry_multiplicity
 _atom_site_fract_x
 _atom_site_fract_y
 _atom_site_fract_z
 _atom_site_occupancy
  Zn  Zn0  1  0.48163000  0.51425000  0.68054000  1.0
  Zn  Zn1  1  0.01837000  0.01425000  0.81946000  1.0
  Zn  Zn2  1  0.51837000  0.48575000  0.31946000  1.0
  Zn  Zn3  1  0.98163000  0.98575000  0.18054000  1.0
  H  H4  1  0.86565000  0.96212000  0.30375000  1.0
  H  H5  1  0.63435000  0.46212000  0.19625000  1.0
  H  H6  1  0.13434000  0.03788000  0.69625000  1.0
  H  H7  1  0.36565000  0.53788000  0.80375000  1.0
  H  H8  1  0.06714000  0.87792000  0.38288000  1.0
  H  H9  1  0.43286000  0.37792000  0.11712000  1.0
  H  H10  1  0.93286000  0.12208000  0.61712000  1.0
  H  H11  1  0.56714000  0.62208000  0.88288000  1.0
  H  H12  1  0.58251000  0.75849000  0.26029000  1.0
  H  H13  1  0.91749000  0.25849000  0.23971000  1.0
  H  H14  1  0.41749000  0.24151000  0.73971000  1.0
  H  H15  1  0.08251000  0.74151000  0.76029000  1.0
  H  H16  1  0.35932000  0.84755000  0.18633000  1.0
  H  H17  1  0.14068000  0.34755000  0.31367000  1.0
  H  H18  1  0.64068000  0.15245000  0.81367000  1.0
  H  H19  1  0.85932000  0.65245000  0.68633000  1.0
  H  H20  1  0.62574000  0.72462000  0.35039000  1.0
  H  H21  1  0.87426000  0.22462000  0.14961000  1.0
  H  H22  1  0.37426000  0.27538000  0.64961000  1.0
  H  H23  1  0.12574000  0.77538000  0.85039000  1.0
  H  H24  1  0.70727000  0.65904000  0.42312000  1.0
  H  H25  1  0.79272000  0.15904000  0.07688000  1.0
  H  H26  1  0.29273000  0.34096000  0.57688000  1.0
  H  H27  1  0.20727000  0.84096000  0.92312000  1.0
  H  H28  1  0.22056000  0.73704000  0.53433000  1.0
  H  H29  1  0.27944000  0.23704000  0.96567000  1.0
  H  H30  1  0.77944000  0.26296000  0.46567000  1.0
  H  H31  1  0.72056000  0.76296000  0.03433000  1.0
  H  H32  1  0.21040000  0.66449000  0.62694000  1.0
  H  H33  1  0.28960000  0.16449000  0.87306000  1.0
  H  H34  1  0.78960000  0.33551000  0.37306000  1.0
  H  H35  1  0.71041000  0.83551000  0.12694000  1.0
  H  H36  1  0.80547000  0.49577000  0.57803000  1.0
  H  H37  1  0.69453000  0.99577000  0.92197000  1.0
  H  H38  1  0.19453000  0.50423000  0.42197000  1.0
  H  H39  1  0.30547000  0.00423000  0.07803000  1.0
  H  H40  1  0.84566000  0.56322000  0.48420000  1.0
  H  H41  1  0.65434000  0.06322000  0.01580000  1.0
  H  H42  1  0.15434000  0.43678000  0.51579000  1.0
  H  H43  1  0.34566000  0.93678000  0.98421000  1.0
  C  C44  1  0.02683000  0.91666000  0.29614000  1.0
  C  C45  1  0.47317000  0.41666000  0.20386000  1.0
  C  C46  1  0.97317000  0.08334000  0.70386000  1.0
  C  C47  1  0.52683000  0.58334000  0.79614000  1.0
  C  C48  1  0.13891000  0.87031000  0.34006000  1.0
  C  C49  1  0.36109000  0.37031000  0.15994000  1.0
  C  C50  1  0.86110000  0.12969000  0.65994000  1.0
  C  C51  1  0.63890000  0.62969000  0.84006000  1.0
  C  C52  1  0.34611000  0.81214000  0.32798000  1.0
  C  C53  1  0.15388000  0.31214000  0.17202000  1.0
  C  C54  1  0.65388000  0.18785000  0.67202000  1.0
  C  C55  1  0.84611000  0.68786000  0.82798000  1.0
  C  C56  1  0.42664000  0.80388000  0.27127000  1.0
  C  C57  1  0.07336000  0.30388000  0.22873000  1.0
  C  C58  1  0.57336000  0.19612000  0.72873000  1.0
  C  C59  1  0.92664000  0.69612000  0.77127000  1.0
  C  C60  1  0.30282000  0.85262000  0.23052000  1.0
  C  C61  1  0.19718000  0.35262000  0.26948000  1.0
  C  C62  1  0.69718000  0.14738000  0.76948000  1.0
  C  C63  1  0.80282000  0.64738000  0.73052000  1.0
  C  C64  1  0.39966000  0.74931000  0.42274000  1.0
  C  C65  1  0.10034000  0.24931000  0.07726000  1.0
  C  C66  1  0.60034000  0.25069000  0.57726000  1.0
  C  C67  1  0.89966000  0.75069000  0.92274000  1.0
  C  C68  1  0.53491000  0.65569000  0.50089000  1.0
  C  C69  1  0.96509000  0.15569000  0.99911000  1.0
  C  C70  1  0.46509000  0.34431000  0.49911000  1.0
  C  C71  1  0.03491000  0.84431000  0.00089000  1.0
  C  C72  1  0.35384000  0.68436000  0.54267000  1.0
  C  C73  1  0.14616000  0.18436000  0.95733000  1.0
  C  C74  1  0.64616000  0.31564000  0.45733000  1.0
  C  C75  1  0.85384000  0.81563000  0.04267000  1.0
  C  C76  1  0.34797000  0.64340000  0.59398000  1.0
  C  C77  1  0.15203000  0.14339000  0.90602000  1.0
  C  C78  1  0.65203000  0.35661000  0.40602000  1.0
  C  C79  1  0.84797000  0.85661000  0.09398000  1.0
  C  C80  1  0.68038000  0.54962000  0.56691000  1.0
  C  C81  1  0.81961000  0.04962000  0.93309000  1.0
  C  C82  1  0.31961000  0.45038000  0.43309000  1.0
  C  C83  1  0.18039000  0.95038000  0.06691000  1.0
  C  C84  1  0.70242000  0.58714000  0.51499000  1.0
  C  C85  1  0.79758000  0.08714000  0.98501000  1.0
  C  C86  1  0.29758000  0.41286000  0.48501000  1.0
  C  C87  1  0.20242000  0.91286000  0.01499000  1.0
  S  S88  1  0.98973000  0.40128000  0.67043000  1.0
  S  S89  1  0.51028000  0.90128000  0.82957000  1.0
  S  S90  1  0.01027000  0.59872000  0.32957000  1.0
  S  S91  1  0.48972000  0.09872000  0.17043000  1.0
  N  N92  1  0.10602000  0.90903000  0.24199000  1.0
  N  N93  1  0.39398000  0.40903000  0.25801000  1.0
  N  N94  1  0.89398000  0.09097000  0.75801000  1.0
  N  N95  1  0.60602000  0.59097000  0.74199000  1.0
  N  N96  1  0.47758000  0.76258000  0.36723000  1.0
  N  N97  1  0.02242000  0.26259000  0.13277000  1.0
  N  N98  1  0.52242000  0.23742000  0.63277000  1.0
  N  N99  1  0.97758000  0.73742000  0.86723000  1.0
  N  N100  1  0.56139000  0.68835000  0.44786000  1.0
  N  N101  1  0.93861000  0.18835000  0.05214000  1.0
  N  N102  1  0.43861000  0.31165000  0.55214000  1.0
  N  N103  1  0.06139000  0.81165000  0.94786000  1.0
  N  N104  1  0.50474000  0.57660000  0.60673000  1.0
  N  N105  1  0.99526000  0.07660000  0.89327000  1.0
  N  N106  1  0.49526000  0.42340000  0.39327000  1.0
  N  N107  1  0.00474000  0.92340000  0.10673000  1.0
  O  O108  1  0.21192000  0.78633000  0.44627000  1.0
  O  O109  1  0.28808000  0.28633000  0.05373000  1.0
  O  O110  1  0.78808000  0.21367000  0.55373000  1.0
  O  O111  1  0.71192000  0.71367000  0.94627000  1.0
  O  O112  1  0.10686000  0.47870000  0.69846000  1.0
  O  O113  1  0.39314000  0.97871000  0.80154000  1.0
  O  O114  1  0.89314000  0.52129000  0.30154000  1.0
  O  O115  1  0.60686000  0.02129000  0.19846000  1.0
  O  O116  1  0.09186000  0.32605000  0.69774000  1.0
  O  O117  1  0.40814000  0.82605000  0.80226000  1.0
  O  O118  1  0.90814000  0.67395000  0.30226000  1.0
  O  O119  1  0.59186000  0.17395000  0.19774000  1.0
  O  O120  1  0.05686000  0.40270000  0.60944000  1.0
  O  O121  1  0.44314000  0.90270000  0.89056000  1.0
  O  O122  1  0.94314000  0.59730000  0.39056000  1.0
  O  O123  1  0.55686000  0.09730000  0.10944000  1.0
  O  O124  1  0.68157000  0.40829000  0.67681000  1.0
  O  O125  1  0.81843000  0.90829000  0.82319000  1.0
  O  O126  1  0.31843000  0.59171000  0.32319000  1.0
  O  O127  1  0.18157000  0.09171000  0.17681000  1.0
