# generated using pymatgen
data_Cd5H32C34(N3O2)6
_symmetry_space_group_name_H-M   'P 1'
_cell_length_a   8.69220000
_cell_length_b   9.15955000
_cell_length_c   16.00160000
_cell_angle_alpha   73.57700000
_cell_angle_beta   87.48590000
_cell_angle_gamma   70.25080000
_symmetry_Int_Tables_number   1
_chemical_formula_structural   Cd5H32C34(N3O2)6
_chemical_formula_sum   'Cd5 H32 C34 N18 O12'
_cell_volume   1148.25209213
_cell_formula_units_Z   1
loop_
 _symmetry_equiv_pos_site_id
 _symmetry_equiv_pos_as_xyz
  1  'x, y, z'
loop_
 _atom_site_type_symbol
 _atom_site_label
 _atom_site_symmetry_multiplicity
 _atom_site_fract_x
 _atom_site_fract_y
 _atom_site_fract_z
 _atom_site_occupancy
  Cd  Cd0  1  0.82612000  0.33280000  0.16926000  1.0
  Cd  Cd1  1  0.17388000  0.66719000  0.83073000  1.0
  Cd  Cd2  1  0.50001000  0.50000000  0.00000000  1.0
  Cd  Cd3  1  0.61470000  0.08945000  0.14711000  1.0
  Cd  Cd4  1  0.38531000  0.91055000  0.85288000  1.0
  H  H5  1  0.25260000  0.90320000  0.32297000  1.0
  H  H6  1  0.74740000  0.09679000  0.67703000  1.0
  H  H7  1  0.47514000  0.65247000  0.39904000  1.0
  H  H8  1  0.52486000  0.34751000  0.60096000  1.0
  H  H9  1  0.27826000  0.37823000  0.28115000  1.0
  H  H10  1  0.72173000  0.62176000  0.71884000  1.0
  H  H11  1  0.05470000  0.62724000  0.20914000  1.0
  H  H12  1  0.94530000  0.37276000  0.79086000  1.0
  H  H13  1  0.40425000  0.19306000  0.41737000  1.0
  H  H14  1  0.59575000  0.80692000  0.58263000  1.0
  H  H15  1  0.63063000  0.10993000  0.52956000  1.0
  H  H16  1  0.36937000  0.89007000  0.47044000  1.0
  H  H17  1  0.77492000  0.11503000  0.44649000  1.0
  H  H18  1  0.22508000  0.88497000  0.55351000  1.0
  H  H19  1  0.67924000  0.96670000  0.46818000  1.0
  H  H20  1  0.32077000  0.03329000  0.53183000  1.0
  H  H21  1  0.13030000  0.13212000  0.33502000  1.0
  H  H22  1  0.86968000  0.86789000  0.66498000  1.0
  H  H23  1  0.73854000  0.55099000  0.33867000  1.0
  H  H24  1  0.26145000  0.44902000  0.66133000  1.0
  H  H25  1  0.93015000  0.37730000  0.56195000  1.0
  H  H26  1  0.06985000  0.62271000  0.43805000  1.0
  H  H27  1  0.81132000  0.56740000  0.49023000  1.0
  H  H28  1  0.18867000  0.43262000  0.50977000  1.0
  H  H29  1  0.80433000  0.70956000  0.19443000  1.0
  H  H30  1  0.19567000  0.29045000  0.80556000  1.0
  H  H31  1  0.35200000  0.90612000  0.05229000  1.0
  H  H32  1  0.64800000  0.09387000  0.94770000  1.0
  H  H33  1  0.07417000  0.60133000  0.05155000  1.0
  H  H34  1  0.92584000  0.39868000  0.94844000  1.0
  H  H35  1  0.20491000  0.09888000  0.16494000  1.0
  H  H36  1  0.79510000  0.90113000  0.83507000  1.0
  C  C37  1  0.13341000  0.78281000  0.26271000  1.0
  C  C38  1  0.86658000  0.21718000  0.73729000  1.0
  C  C39  1  0.25631000  0.78805000  0.31492000  1.0
  C  C40  1  0.74368000  0.21195000  0.68508000  1.0
  C  C41  1  0.38274000  0.64815000  0.35672000  1.0
  C  C42  1  0.61725000  0.35184000  0.64328000  1.0
  C  C43  1  0.39057000  0.49783000  0.34705000  1.0
  C  C44  1  0.60942000  0.50216000  0.65295000  1.0
  C  C45  1  0.27182000  0.49146000  0.29270000  1.0
  C  C46  1  0.72817000  0.50853000  0.70730000  1.0
  C  C47  1  0.14541000  0.63283000  0.25173000  1.0
  C  C48  1  0.85458000  0.36717000  0.74828000  1.0
  C  C49  1  0.99126000  0.93268000  0.22163000  1.0
  C  C50  1  0.00875000  0.06732000  0.77837000  1.0
  C  C51  1  0.52298000  0.20588000  0.39726000  1.0
  C  C52  1  0.47702000  0.79411000  0.60273000  1.0
  C  C53  1  0.65998000  0.09259000  0.46486000  1.0
  C  C54  1  0.34003000  0.90741000  0.53514000  1.0
  C  C55  1  0.55778000  0.16575000  0.30965000  1.0
  C  C56  1  0.44222000  0.83423000  0.69035000  1.0
  C  C57  1  0.04959000  0.23317000  0.35567000  1.0
  C  C58  1  0.95039000  0.76684000  0.64434000  1.0
  C  C59  1  0.84947000  0.44605000  0.35478000  1.0
  C  C60  1  0.15052000  0.55397000  0.64522000  1.0
  C  C61  1  0.92895000  0.46818000  0.49990000  1.0
  C  C62  1  0.07105000  0.53183000  0.50010000  1.0
  C  C63  1  0.69576000  0.72072000  0.15898000  1.0
  C  C64  1  0.30423000  0.27929000  0.84102000  1.0
  C  C65  1  0.46692000  0.82239000  0.08635000  1.0
  C  C66  1  0.53309000  0.17762000  0.91364000  1.0
  C  C67  1  0.14162000  0.47287000  0.07608000  1.0
  C  C68  1  0.85839000  0.52713000  0.92393000  1.0
  C  C69  1  0.20969000  0.21788000  0.13197000  1.0
  C  C70  1  0.79032000  0.78213000  0.86804000  1.0
  N  N71  1  0.94271000  0.39516000  0.42939000  1.0
  N  N72  1  0.05729000  0.60485000  0.57061000  1.0
  N  N73  1  0.07188000  0.25912000  0.43102000  1.0
  N  N74  1  0.92811000  0.74089000  0.56899000  1.0
  N  N75  1  0.91424000  0.34527000  0.30657000  1.0
  N  N76  1  0.08574000  0.65473000  0.69343000  1.0
  N  N77  1  0.66723000  0.59987000  0.13982000  1.0
  N  N78  1  0.33277000  0.40013000  0.86018000  1.0
  N  N79  1  0.52058000  0.66426000  0.09323000  1.0
  N  N80  1  0.47942000  0.33574000  0.90676000  1.0
  N  N81  1  0.57362000  0.86363000  0.12686000  1.0
  N  N82  1  0.42638000  0.13638000  0.87314000  1.0
  N  N83  1  0.30292000  0.40888000  0.07018000  1.0
  N  N84  1  0.69708000  0.59112000  0.92982000  1.0
  N  N85  1  0.34616000  0.24677000  0.10517000  1.0
  N  N86  1  0.65385000  0.75324000  0.89483000  1.0
  N  N87  1  0.07770000  0.35591000  0.11517000  1.0
  N  N88  1  0.92231000  0.64410000  0.88483000  1.0
  O  O89  1  0.98836000  0.06361000  0.23537000  1.0
  O  O90  1  0.01166000  0.93639000  0.76463000  1.0
  O  O91  1  0.88287000  0.91709000  0.17690000  1.0
  O  O92  1  0.11714000  0.08292000  0.82308000  1.0
  O  O93  1  0.51600000  0.36772000  0.39335000  1.0
  O  O94  1  0.48399000  0.63227000  0.60664000  1.0
  O  O95  1  0.53688000  0.03842000  0.30370000  1.0
  O  O96  1  0.46313000  0.96156000  0.69631000  1.0
  O  O97  1  0.60493000  0.26128000  0.24886000  1.0
  O  O98  1  0.39508000  0.73869000  0.75114000  1.0
  O  O99  1  0.69271000  0.29197000  0.06679000  1.0
  O  O100  1  0.30729000  0.70804000  0.93322000  1.0
