# generated using pymatgen
data_LaCoH16C12(NO4)3
_symmetry_space_group_name_H-M   'P 1'
_cell_length_a   8.59262000
_cell_length_b   9.72174000
_cell_length_c   12.88380858
_cell_angle_alpha   67.84259728
_cell_angle_beta   81.06429889
_cell_angle_gamma   65.67550000
_symmetry_Int_Tables_number   1
_chemical_formula_structural   LaCoH16C12(NO4)3
_chemical_formula_sum   'La2 Co2 H32 C24 N6 O24'
_cell_volume   908.28568987
_cell_formula_units_Z   2
loop_
 _symmetry_equiv_pos_site_id
 _symmetry_equiv_pos_as_xyz
  1  'x, y, z'
loop_
 _atom_site_type_symbol
 _atom_site_label
 _atom_site_symmetry_multiplicity
 _atom_site_fract_x
 _atom_site_fract_y
 _atom_site_fract_z
 _atom_site_occupancy
  La  La0  1  0.75005000  0.50672000  0.98638000  1.0
  La  La1  1  0.24995000  0.49329000  0.01361000  1.0
  Co  Co2  1  0.74993000  0.66377000  0.67247000  1.0
  Co  Co3  1  0.25007000  0.33622000  0.32753000  1.0
  H  H4  1  0.91955000  0.80743000  0.50317000  1.0
  H  H5  1  0.58032000  0.68943000  0.50321000  1.0
  H  H6  1  0.08045000  0.19257000  0.49683000  1.0
  H  H7  1  0.41969000  0.31057000  0.49679000  1.0
  H  H8  1  0.35460000  0.08990000  0.74188000  1.0
  H  H9  1  0.14533000  0.16810000  0.74196000  1.0
  H  H10  1  0.64540000  0.91010000  0.25812000  1.0
  H  H11  1  0.85467000  0.83191000  0.25804000  1.0
  H  H12  1  0.03981000  0.90073000  0.63151000  1.0
  H  H13  1  0.45991000  0.46792000  0.63151000  1.0
  H  H14  1  0.96019000  0.09927000  0.36849000  1.0
  H  H15  1  0.54010000  0.53208000  0.36849000  1.0
  H  H16  1  0.12640000  0.70307000  0.62644000  1.0
  H  H17  1  0.37349000  0.67063000  0.62649000  1.0
  H  H18  1  0.87360000  0.29692000  0.37357000  1.0
  H  H19  1  0.62651000  0.32937000  0.37351000  1.0
  H  H20  1  0.70298000  0.04018000  0.46103000  1.0
  H  H21  1  0.79683000  0.49873000  0.46107000  1.0
  H  H22  1  0.29703000  0.95980000  0.53898000  1.0
  H  H23  1  0.20318000  0.50126000  0.53894000  1.0
  H  H24  1  0.79037000  0.07582000  0.56098000  1.0
  H  H25  1  0.70934000  0.36320000  0.56099000  1.0
  H  H26  1  0.20962000  0.92416000  0.43903000  1.0
  H  H27  1  0.29066000  0.63680000  0.43902000  1.0
  H  H28  1  0.30525000  0.28692000  0.80879000  1.0
  H  H29  1  0.19482000  0.90413000  0.80900000  1.0
  H  H30  1  0.69475000  0.71308000  0.19121000  1.0
  H  H31  1  0.80518000  0.09587000  0.19100000  1.0
  H  H32  1  0.35491000  0.11418000  0.93060000  1.0
  H  H33  1  0.14533000  0.95525000  0.93077000  1.0
  H  H34  1  0.64509000  0.88583000  0.06939000  1.0
  H  H35  1  0.85467000  0.04475000  0.06923000  1.0
  C  C36  1  0.98474000  0.72138000  0.77237000  1.0
  C  C37  1  0.51507000  0.50634000  0.77241000  1.0
  C  C38  1  0.01526000  0.27862000  0.22762000  1.0
  C  C39  1  0.48493000  0.49366000  0.22759000  1.0
  C  C40  1  0.57752000  0.00310000  0.61730000  1.0
  C  C41  1  0.92222000  0.37959000  0.61732000  1.0
  C  C42  1  0.42249000  0.99688000  0.38271000  1.0
  C  C43  1  0.07778000  0.62041000  0.38268000  1.0
  C  C44  1  0.01095000  0.79426000  0.64661000  1.0
  C  C45  1  0.48887000  0.55921000  0.64663000  1.0
  C  C46  1  0.98905000  0.20573000  0.35339000  1.0
  C  C47  1  0.51113000  0.44080000  0.35336000  1.0
  C  C48  1  0.74131000  0.99417000  0.54940000  1.0
  C  C49  1  0.75842000  0.45641000  0.54942000  1.0
  C  C50  1  0.25869000  0.00582000  0.45060000  1.0
  C  C51  1  0.24158000  0.54359000  0.45058000  1.0
  C  C52  1  0.09049000  0.27565000  0.91359000  1.0
  C  C53  1  0.40974000  0.81078000  0.91368000  1.0
  C  C54  1  0.90951000  0.72435000  0.08641000  1.0
  C  C55  1  0.59026000  0.18923000  0.08631000  1.0
  C  C56  1  0.25942000  0.19347000  0.86375000  1.0
  C  C57  1  0.24072000  0.94274000  0.86387000  1.0
  C  C58  1  0.74058000  0.80653000  0.13625000  1.0
  C  C59  1  0.75928000  0.05726000  0.13613000  1.0
  N  N60  1  0.87105000  0.82944000  0.57635000  1.0
  N  N61  1  0.62876000  0.59422000  0.57637000  1.0
  N  N62  1  0.12895000  0.17054000  0.42366000  1.0
  N  N63  1  0.37124000  0.40578000  0.42363000  1.0
  N  N64  1  0.25001000  0.10093000  0.79811000  1.0
  N  N65  1  0.74999000  0.89908000  0.20189000  1.0
  O  O66  1  0.86294000  0.67041000  0.80226000  1.0
  O  O67  1  0.63685000  0.52745000  0.80231000  1.0
  O  O68  1  0.13705000  0.32958000  0.19774000  1.0
  O  O69  1  0.36315000  0.47254000  0.19769000  1.0
  O  O70  1  0.08797000  0.71161000  0.83645000  1.0
  O  O71  1  0.41181000  0.45206000  0.83646000  1.0
  O  O72  1  0.91202000  0.28839000  0.16355000  1.0
  O  O73  1  0.58819000  0.54794000  0.16354000  1.0
  O  O74  1  0.54263000  0.87722000  0.65488000  1.0
  O  O75  1  0.95716000  0.46786000  0.65490000  1.0
  O  O76  1  0.45737000  0.12275000  0.34513000  1.0
  O  O77  1  0.04284000  0.53214000  0.34511000  1.0
  O  O78  1  0.48209000  0.13621000  0.62888000  1.0
  O  O79  1  0.01760000  0.23489000  0.62890000  1.0
  O  O80  1  0.51791000  0.86377000  0.37113000  1.0
  O  O81  1  0.98239000  0.76511000  0.37111000  1.0
  O  O82  1  0.09153000  0.37830000  0.95348000  1.0
  O  O83  1  0.40872000  0.66823000  0.95357000  1.0
  O  O84  1  0.90846000  0.62172000  0.04651000  1.0
  O  O85  1  0.59128000  0.33178000  0.04642000  1.0
  O  O86  1  0.95898000  0.24923000  0.91456000  1.0
  O  O87  1  0.54122000  0.83624000  0.91465000  1.0
  O  O88  1  0.04102000  0.75076000  0.08545000  1.0
  O  O89  1  0.45878000  0.16377000  0.08534000  1.0
