# generated using pymatgen
data_Zr3H10C26Cl5O16
_symmetry_space_group_name_H-M   'P 1'
_cell_length_a   14.79108173
_cell_length_b   14.79310000
_cell_length_c   14.80910000
_cell_angle_alpha   60.17040000
_cell_angle_beta   60.06975161
_cell_angle_gamma   90.26616710
_symmetry_Int_Tables_number   1
_chemical_formula_structural   Zr3H10C26Cl5O16
_chemical_formula_sum   'Zr6 H20 C52 Cl10 O32'
_cell_volume   2294.22206934
_cell_formula_units_Z   2
loop_
 _symmetry_equiv_pos_site_id
 _symmetry_equiv_pos_as_xyz
  1  'x, y, z'
loop_
 _atom_site_type_symbol
 _atom_site_label
 _atom_site_symmetry_multiplicity
 _atom_site_fract_x
 _atom_site_fract_y
 _atom_site_fract_z
 _atom_site_occupancy
  Zr  Zr0  1  0.37971000  0.88393000  0.49700000  1.0
  Zr  Zr1  1  0.61516000  0.11976000  0.50424000  1.0
  Zr  Zr2  1  0.37471000  0.87983000  0.74026000  1.0
  Zr  Zr3  1  0.61867000  0.12337000  0.26224000  1.0
  Zr  Zr4  1  0.61595000  0.88259000  0.50179000  1.0
  Zr  Zr5  1  0.37747000  0.12073000  0.50145000  1.0
  H  H6  1  0.40422000  0.71941000  0.68571000  1.0
  H  H7  1  0.77931000  0.09418000  0.31811000  1.0
  H  H8  1  0.39941000  0.09340000  0.69172000  1.0
  H  H9  1  0.40556000  0.09841000  0.31070000  1.0
  H  H10  1  0.61555000  0.57969000  0.53375000  1.0
  H  H11  1  0.40482000  0.44512000  0.42529000  1.0
  H  H12  1  0.08223000  0.12932000  0.51971000  1.0
  H  H13  1  0.89659000  0.85715000  0.51328000  1.0
  H  H14  1  0.86906000  0.09975000  0.96356000  1.0
  H  H15  1  0.10146000  0.87696000  0.04322000  1.0
  H  H16  1  0.63771000  0.41212000  0.95690000  1.0
  H  H17  1  0.37258000  0.60848000  0.04648000  1.0
  H  H18  1  0.25295000  0.57948000  0.70638000  1.0
  H  H19  1  0.24535000  0.41781000  0.69842000  1.0
  H  H20  1  0.92149000  0.23819000  0.05252000  1.0
  H  H21  1  0.07898000  0.24618000  0.87294000  1.0
  H  H22  1  0.85578000  0.47704000  0.19405000  1.0
  H  H23  1  0.02431000  0.64757000  0.02120000  1.0
  H  H24  1  0.36337000  0.86426000  0.23166000  1.0
  H  H25  1  0.64630000  0.12582000  0.76909000  1.0
  C  C26  1  0.50283000  0.70726000  0.48330000  1.0
  C  C27  1  0.79304000  0.99862000  0.51550000  1.0
  C  C28  1  0.50497000  0.30825000  0.49466000  1.0
  C  C29  1  0.19121000  0.99405000  0.50650000  1.0
  C  C30  1  0.19362000  0.69715000  0.80104000  1.0
  C  C31  1  0.50959000  0.00519000  0.18986000  1.0
  C  C32  1  0.80307000  0.30417000  0.19862000  1.0
  C  C33  1  0.49389000  0.99068000  0.81105000  1.0
  C  C34  1  0.50315000  0.70116000  0.80125000  1.0
  C  C35  1  0.18423000  0.99603000  0.80089000  1.0
  C  C36  1  0.50018000  0.31240000  0.20251000  1.0
  C  C37  1  0.79681000  0.99330000  0.20294000  1.0
  C  C38  1  0.51170000  0.41311000  0.48713000  1.0
  C  C39  1  0.50645000  0.61017000  0.47517000  1.0
  C  C40  1  0.57351000  0.45280000  0.51594000  1.0
  C  C41  1  0.44786000  0.57259000  0.44195000  1.0
  C  C42  1  0.56957000  0.54968000  0.50960000  1.0
  C  C43  1  0.45096000  0.47518000  0.44929000  1.0
  C  C44  1  0.89225000  0.99844000  0.51944000  1.0
  C  C45  1  0.08686000  0.98854000  0.51289000  1.0
  C  C46  1  0.94468000  0.07552000  0.52306000  1.0
  C  C47  1  0.03300000  0.90986000  0.51225000  1.0
  C  C48  1  0.04045000  0.06940000  0.51879000  1.0
  C  C49  1  0.93781000  0.91666000  0.51519000  1.0
  C  C50  1  0.07915000  0.99290000  0.90140000  1.0
  C  C51  1  0.89333000  0.98619000  0.10468000  1.0
  C  C52  1  0.01133000  0.05520000  0.87949000  1.0
  C  C53  1  0.95895000  0.92103000  0.12749000  1.0
  C  C54  1  0.92071000  0.05083000  0.98052000  1.0
  C  C55  1  0.04968000  0.92567000  0.02633000  1.0
  C  C56  1  0.50902000  0.60371000  0.89995000  1.0
  C  C57  1  0.49998000  0.41562000  0.10357000  1.0
  C  C58  1  0.58564000  0.54782000  0.87475000  1.0
  C  C59  1  0.42491000  0.47296000  0.12855000  1.0
  C  C60  1  0.57951000  0.45590000  0.97602000  1.0
  C  C61  1  0.43082000  0.56475000  0.02734000  1.0
  C  C62  1  0.09850000  0.59087000  0.90196000  1.0
  C  C63  1  0.09292000  0.50192000  0.88860000  1.0
  C  C64  1  0.01583000  0.58000000  0.01185000  1.0
  C  C65  1  0.18113000  0.50453000  0.78408000  1.0
  C  C66  1  0.17632000  0.41424000  0.77897000  1.0
  C  C67  1  0.90967000  0.39895000  0.09658000  1.0
  C  C68  1  0.92154000  0.48439000  0.10884000  1.0
  C  C69  1  0.99652000  0.40339000  0.98861000  1.0
  C  C70  1  0.99428000  0.31252000  0.97897000  1.0
  C  C71  1  0.08234000  0.31742000  0.87736000  1.0
  C  C72  1  0.49605000  0.98720000  0.91297000  1.0
  C  C73  1  0.51288000  0.00339000  0.08787000  1.0
  C  C74  1  0.41607000  0.91134000  0.04573000  1.0
  C  C75  1  0.59440000  0.07756000  0.95520000  1.0
  C  C76  1  0.42572000  0.92137000  0.12944000  1.0
  C  C77  1  0.58423000  0.06823000  0.87136000  1.0
  Cl  Cl78  1  0.65253000  0.38681000  0.56434000  1.0
  Cl  Cl79  1  0.37196000  0.64088000  0.38983000  1.0
  Cl  Cl80  1  0.89885000  0.17961000  0.53266000  1.0
  Cl  Cl81  1  0.07697000  0.80368000  0.50686000  1.0
  Cl  Cl82  1  0.03208000  0.13805000  0.73328000  1.0
  Cl  Cl83  1  0.93751000  0.83628000  0.27399000  1.0
  Cl  Cl84  1  0.68865000  0.58398000  0.72443000  1.0
  Cl  Cl85  1  0.32321000  0.43772000  0.27885000  1.0
  Cl  Cl86  1  0.30363000  0.80420000  0.11504000  1.0
  Cl  Cl87  1  0.70889000  0.18208000  0.88645000  1.0
  O  O88  1  0.42367000  0.74401000  0.48918000  1.0
  O  O89  1  0.75350000  0.07554000  0.51276000  1.0
  O  O90  1  0.57915000  0.26577000  0.49711000  1.0
  O  O91  1  0.23506000  0.92136000  0.50114000  1.0
  O  O92  1  0.23008000  0.73844000  0.83967000  1.0
  O  O93  1  0.58311000  0.08312000  0.15569000  1.0
  O  O94  1  0.76039000  0.26599000  0.16227000  1.0
  O  O95  1  0.41597000  0.91700000  0.84540000  1.0
  O  O96  1  0.57677000  0.74058000  0.68455000  1.0
  O  O97  1  0.22900000  0.07637000  0.68510000  1.0
  O  O98  1  0.42182000  0.26820000  0.31918000  1.0
  O  O99  1  0.75748000  0.92025000  0.31942000  1.0
  O  O100  1  0.22322000  0.91973000  0.83973000  1.0
  O  O101  1  0.57734000  0.27452000  0.16275000  1.0
  O  O102  1  0.76174000  0.07290000  0.16244000  1.0
  O  O103  1  0.42397000  0.73704000  0.84093000  1.0
  O  O104  1  0.23205000  0.73981000  0.68471000  1.0
  O  O105  1  0.57019000  0.06945000  0.69606000  1.0
  O  O106  1  0.76102000  0.26842000  0.31403000  1.0
  O  O107  1  0.43106000  0.92868000  0.30487000  1.0
  O  O108  1  0.22987000  0.07235000  0.50520000  1.0
  O  O109  1  0.57688000  0.74295000  0.48926000  1.0
  O  O110  1  0.75655000  0.92292000  0.51197000  1.0
  O  O111  1  0.42525000  0.26907000  0.49838000  1.0
  O  O112  1  0.43212000  0.07141000  0.36426000  1.0
  O  O113  1  0.42693000  0.06704000  0.63791000  1.0
  O  O114  1  0.69905000  0.06863000  0.36912000  1.0
  O  O115  1  0.42984000  0.79963000  0.63339000  1.0
  O  O116  1  0.54425000  0.95080000  0.60226000  1.0
  O  O117  1  0.54834000  0.95396000  0.40023000  1.0
  O  O118  1  0.54665000  0.15014000  0.40374000  1.0
  O  O119  1  0.34846000  0.95190000  0.59845000  1.0
