# generated using pymatgen
data_CdBH48C45I2N3
_symmetry_space_group_name_H-M   'P 1'
_cell_length_a   18.29604975
_cell_length_b   18.29990000
_cell_length_c   19.09784858
_cell_angle_alpha   90.00773200
_cell_angle_beta   118.62051276
_cell_angle_gamma   119.99267878
_symmetry_Int_Tables_number   1
_chemical_formula_structural   CdBH48C45I2N3
_chemical_formula_sum   'Cd4 B4 H192 C180 I8 N12'
_cell_volume   4613.62406959
_cell_formula_units_Z   4
loop_
 _symmetry_equiv_pos_site_id
 _symmetry_equiv_pos_as_xyz
  1  'x, y, z'
loop_
 _atom_site_type_symbol
 _atom_site_label
 _atom_site_symmetry_multiplicity
 _atom_site_fract_x
 _atom_site_fract_y
 _atom_site_fract_z
 _atom_site_occupancy
  Cd  Cd0  1  0.39971000  0.50001000  0.50000000  1.0
  Cd  Cd1  1  0.00010000  0.89980000  0.50004000  1.0
  Cd  Cd2  1  0.60026000  0.10020000  0.49997000  1.0
  Cd  Cd3  1  0.00001000  0.00000000  0.00000000  1.0
  B  B4  1  0.60000000  0.00000000  1.00000000  1.0
  B  B5  1  0.99996000  0.59989000  0.99993000  1.0
  B  B6  1  0.40014000  0.40010000  0.00007000  1.0
  B  B7  1  0.00004000  0.50000000  0.50001000  1.0
  H  H8  1  0.26935000  0.34087000  0.32550000  1.0
  H  H9  1  0.98416000  0.92834000  0.32515000  1.0
  H  H10  1  0.39692000  0.05614000  0.32547000  1.0
  H  H11  1  0.73067000  0.07165000  0.67485000  1.0
  H  H12  1  0.01529000  0.94385000  0.67452000  1.0
  H  H13  1  0.60297000  0.65912000  0.67449000  1.0
  H  H14  1  0.09001000  0.22311000  0.21301000  1.0
  H  H15  1  0.98955000  0.86674000  0.21273000  1.0
  H  H16  1  0.34603000  0.12300000  0.21300000  1.0
  H  H17  1  0.91009000  0.13327000  0.78728000  1.0
  H  H18  1  0.01002000  0.87700000  0.78700000  1.0
  H  H19  1  0.65389000  0.77689000  0.78699000  1.0
  H  H20  1  0.00118000  0.30388000  0.35413000  1.0
  H  H21  1  0.05034000  0.69754000  0.35419000  1.0
  H  H22  1  0.65684000  0.35274000  0.35408000  1.0
  H  H23  1  0.99861000  0.30246000  0.64581000  1.0
  H  H24  1  0.95002000  0.64726000  0.64593000  1.0
  H  H25  1  0.34318000  0.69613000  0.64588000  1.0
  H  H26  1  0.18420000  0.41132000  0.46513000  1.0
  H  H27  1  0.05406000  0.77333000  0.46517000  1.0
  H  H28  1  0.69219000  0.28076000  0.46510000  1.0
  H  H29  1  0.81556000  0.22667000  0.53483000  1.0
  H  H30  1  0.94632000  0.71924000  0.53490000  1.0
  H  H31  1  0.30774000  0.58868000  0.53486000  1.0
  H  H32  1  0.99094000  0.36189000  0.21743000  1.0
  H  H33  1  0.85563000  0.62915000  0.21749000  1.0
  H  H34  1  0.58850000  0.22652000  0.21743000  1.0
  H  H35  1  0.00900000  0.37086000  0.78251000  1.0
  H  H36  1  0.14456000  0.77349000  0.78258000  1.0
  H  H37  1  0.41163000  0.63811000  0.78258000  1.0
  H  H38  1  0.87587000  0.34387000  0.19358000  1.0
  H  H39  1  0.84975000  0.53209000  0.19361000  1.0
  H  H40  1  0.66162000  0.31777000  0.19357000  1.0
  H  H41  1  0.12405000  0.46791000  0.80639000  1.0
  H  H42  1  0.15029000  0.68224000  0.80644000  1.0
  H  H43  1  0.33843000  0.65613000  0.80643000  1.0
  H  H44  1  0.89522000  0.33702000  0.11252000  1.0
  H  H45  1  0.77557000  0.55832000  0.11256000  1.0
  H  H46  1  0.55441000  0.21737000  0.11251000  1.0
  H  H47  1  0.10469000  0.44168000  0.88744000  1.0
  H  H48  1  0.22453000  0.78263000  0.88749000  1.0
  H  H49  1  0.44569000  0.66299000  0.88749000  1.0
  H  H50  1  0.61985000  0.14642000  0.99931000  1.0
  H  H51  1  0.85300000  0.47343000  0.99947000  1.0
  H  H52  1  0.52615000  0.37965000  0.99954000  1.0
  H  H53  1  0.38010000  0.52657000  0.00053000  1.0
  H  H54  1  0.14695000  0.62034000  0.00046000  1.0
  H  H55  1  0.47412000  0.85358000  0.00070000  1.0
  H  H56  1  0.73035000  0.23712000  0.00934000  1.0
  H  H57  1  0.77242000  0.49331000  0.00959000  1.0
  H  H58  1  0.51646000  0.27923000  0.00955000  1.0
  H  H59  1  0.26953000  0.50670000  0.99042000  1.0
  H  H60  1  0.22769000  0.72077000  0.99046000  1.0
  H  H61  1  0.48390000  0.76289000  0.99067000  1.0
  H  H62  1  0.70453000  0.24445000  0.08597000  1.0
  H  H63  1  0.84179000  0.46021000  0.08622000  1.0
  H  H64  1  0.62612000  0.38165000  0.08627000  1.0
  H  H65  1  0.29537000  0.53980000  0.91379000  1.0
  H  H66  1  0.15820000  0.61834000  0.91374000  1.0
  H  H67  1  0.37412000  0.75557000  0.91404000  1.0
  H  H68  1  0.65741000  0.89923000  0.05200000  1.0
  H  H69  1  0.15277000  0.75815000  0.05190000  1.0
  H  H70  1  0.29407000  0.39483000  0.05203000  1.0
  H  H71  1  0.34272000  0.24184000  0.94810000  1.0
  H  H72  1  0.84720000  0.60516000  0.94797000  1.0
  H  H73  1  0.70617000  0.10076000  0.94800000  1.0
  H  H74  1  0.72660000  0.92244000  0.16260000  1.0
  H  H75  1  0.24031000  0.80422000  0.16250000  1.0
  H  H76  1  0.35861000  0.43628000  0.16264000  1.0
  H  H77  1  0.27359000  0.19578000  0.83750000  1.0
  H  H78  1  0.75970000  0.56373000  0.83736000  1.0
  H  H79  1  0.64155000  0.07755000  0.83740000  1.0
  H  H80  1  0.78174000  0.92538000  0.10724000  1.0
  H  H81  1  0.18190000  0.85635000  0.10715000  1.0
  H  H82  1  0.25095000  0.32582000  0.10721000  1.0
  H  H83  1  0.21840000  0.14365000  0.89285000  1.0
  H  H84  1  0.81792000  0.67418000  0.89279000  1.0
  H  H85  1  0.74911000  0.07461000  0.89276000  1.0
  H  H86  1  0.00903000  0.11803000  0.30105000  1.0
  H  H87  1  0.18306000  0.89110000  0.30098000  1.0
  H  H88  1  0.40999000  0.29203000  0.30105000  1.0
  H  H89  1  0.99098000  0.10891000  0.69902000  1.0
  H  H90  1  0.81690000  0.70796000  0.69895000  1.0
  H  H91  1  0.58995000  0.88196000  0.69896000  1.0
  H  H92  1  0.95508000  0.03447000  0.21146000  1.0
  H  H93  1  0.17691000  0.92063000  0.21134000  1.0
  H  H94  1  0.29074000  0.25626000  0.21140000  1.0
  H  H95  1  0.04494000  0.07938000  0.78866000  1.0
  H  H96  1  0.82307000  0.74373000  0.78860000  1.0
  H  H97  1  0.70916000  0.96553000  0.78855000  1.0
  H  H98  1  0.89343000  0.01415000  0.26508000  1.0
  H  H99  1  0.25099000  0.87944000  0.26495000  1.0
  H  H100  1  0.38555000  0.37154000  0.26495000  1.0
  H  H101  1  0.10660000  0.12057000  0.73504000  1.0
  H  H102  1  0.74907000  0.62847000  0.73506000  1.0
  H  H103  1  0.61421000  0.98586000  0.73493000  1.0
  H  H104  1  0.03283000  0.86411000  0.93794000  1.0
  H  H105  1  0.07380000  0.16866000  0.93802000  1.0
  H  H106  1  0.76913000  0.90516000  0.93775000  1.0
  H  H107  1  0.96712000  0.83134000  0.06198000  1.0
  H  H108  1  0.92623000  0.09485000  0.06225000  1.0
  H  H109  1  0.23078000  0.13589000  0.06206000  1.0
  H  H110  1  0.16598000  0.85778000  0.93931000  1.0
  H  H111  1  0.08141000  0.30807000  0.93937000  1.0
  H  H112  1  0.63108000  0.77355000  0.93925000  1.0
  H  H113  1  0.83396000  0.69193000  0.06063000  1.0
  H  H114  1  0.91828000  0.22645000  0.06075000  1.0
  H  H115  1  0.36889000  0.14223000  0.06069000  1.0
  H  H116  1  0.39219000  0.01826000  0.80244000  1.0
  H  H117  1  0.78425000  0.37390000  0.80214000  1.0
  H  H118  1  0.42859000  0.41055000  0.80248000  1.0
  H  H119  1  0.60821000  0.62610000  0.19786000  1.0
  H  H120  1  0.21556000  0.58945000  0.19752000  1.0
  H  H121  1  0.57150000  0.98176000  0.19757000  1.0
  H  H122  1  0.42529000  0.94149000  0.81977000  1.0
  H  H123  1  0.87855000  0.48375000  0.81965000  1.0
  H  H124  1  0.33610000  0.39488000  0.81985000  1.0
  H  H125  1  0.57515000  0.51626000  0.18035000  1.0
  H  H126  1  0.12137000  0.60511000  0.18015000  1.0
  H  H127  1  0.66403000  0.05851000  0.18023000  1.0
  H  H128  1  0.52028000  0.05641000  0.86635000  1.0
  H  H129  1  0.80993000  0.46381000  0.86599000  1.0
  H  H130  1  0.40242000  0.34625000  0.86626000  1.0
  H  H131  1  0.48013000  0.53619000  0.13401000  1.0
  H  H132  1  0.18990000  0.65374000  0.13374000  1.0
  H  H133  1  0.59751000  0.94358000  0.13365000  1.0
  H  H134  1  0.28873000  0.01067000  0.79941000  1.0
  H  H135  1  0.78849000  0.27783000  0.79936000  1.0
  H  H136  1  0.52134000  0.51083000  0.79945000  1.0
  H  H137  1  0.71129000  0.72217000  0.20063000  1.0
  H  H138  1  0.21106000  0.48916000  0.20055000  1.0
  H  H139  1  0.47865000  0.98933000  0.20059000  1.0
  H  H140  1  0.28057000  0.06189000  0.87135000  1.0
  H  H141  1  0.80932000  0.21848000  0.87127000  1.0
  H  H142  1  0.65264000  0.59097000  0.87131000  1.0
  H  H143  1  0.71957000  0.78152000  0.12873000  1.0
  H  H144  1  0.19037000  0.40904000  0.12869000  1.0
  H  H145  1  0.34733000  0.93811000  0.12865000  1.0
  H  H146  1  0.20573000  0.94541000  0.82960000  1.0
  H  H147  1  0.88406000  0.26023000  0.82950000  1.0
  H  H148  1  0.56917000  0.62400000  0.82962000  1.0
  H  H149  1  0.79433000  0.73978000  0.17050000  1.0
  H  H150  1  0.11555000  0.37600000  0.17038000  1.0
  H  H151  1  0.43072000  0.05459000  0.17040000  1.0
  H  H152  1  0.58175000  0.62319000  0.48119000  1.0
  H  H153  1  0.85802000  0.95858000  0.48117000  1.0
  H  H154  1  0.52270000  0.89942000  0.48121000  1.0
  H  H155  1  0.41827000  0.04142000  0.51883000  1.0
  H  H156  1  0.14206000  0.10057000  0.51879000  1.0
  H  H157  1  0.47737000  0.37682000  0.51880000  1.0
  H  H158  1  0.72339000  0.63081000  0.48437000  1.0
  H  H159  1  0.85360000  0.09260000  0.48441000  1.0
  H  H160  1  0.39178000  0.76096000  0.48427000  1.0
  H  H161  1  0.27658000  0.90739000  0.51558000  1.0
  H  H162  1  0.14656000  0.23905000  0.51574000  1.0
  H  H163  1  0.60822000  0.36920000  0.51564000  1.0
  H  H164  1  0.91283000  0.40671000  0.65317000  1.0
  H  H165  1  0.24630000  0.50608000  0.65323000  1.0
  H  H166  1  0.14745000  0.74061000  0.65337000  1.0
  H  H167  1  0.08699000  0.49392000  0.34677000  1.0
  H  H168  1  0.75349000  0.25941000  0.34664000  1.0
  H  H169  1  0.85296000  0.59329000  0.34684000  1.0
  H  H170  1  0.01842000  0.51788000  0.69331000  1.0
  H  H171  1  0.17515000  0.50035000  0.69331000  1.0
  H  H172  1  0.19321000  0.67518000  0.69354000  1.0
  H  H173  1  0.98150000  0.49966000  0.30670000  1.0
  H  H174  1  0.82449000  0.32481000  0.30646000  1.0
  H  H175  1  0.80723000  0.48212000  0.30670000  1.0
  H  H176  1  0.99704000  0.43786000  0.62035000  1.0
  H  H177  1  0.18217000  0.55898000  0.62037000  1.0
  H  H178  1  0.06160000  0.62359000  0.62064000  1.0
  H  H179  1  0.00282000  0.44102000  0.37964000  1.0
  H  H180  1  0.81738000  0.37642000  0.37937000  1.0
  H  H181  1  0.93883000  0.56214000  0.37965000  1.0
  H  H182  1  0.78212000  0.50843000  0.65037000  1.0
  H  H183  1  0.14198000  0.27377000  0.65054000  1.0
  H  H184  1  0.37694000  0.86835000  0.65052000  1.0
  H  H185  1  0.21768000  0.72624000  0.34947000  1.0
  H  H186  1  0.85808000  0.13166000  0.34949000  1.0
  H  H187  1  0.62334000  0.49158000  0.34965000  1.0
  H  H188  1  0.89525000  0.51325000  0.70187000  1.0
  H  H189  1  0.18842000  0.38202000  0.70189000  1.0
  H  H190  1  0.32004000  0.80670000  0.70194000  1.0
  H  H191  1  0.10452000  0.61799000  0.29812000  1.0
  H  H192  1  0.81140000  0.19329000  0.29807000  1.0
  H  H193  1  0.68014000  0.48675000  0.29814000  1.0
  H  H194  1  0.77644000  0.40911000  0.64309000  1.0
  H  H195  1  0.23399000  0.36746000  0.64325000  1.0
  H  H196  1  0.27600000  0.86678000  0.64322000  1.0
  H  H197  1  0.22329000  0.63255000  0.35676000  1.0
  H  H198  1  0.76600000  0.13321000  0.35679000  1.0
  H  H199  1  0.72425000  0.59090000  0.35692000  1.0
  C  C200  1  0.20745000  0.32972000  0.32988000  1.0
  C  C201  1  0.99988000  0.87773000  0.32963000  1.0
  C  C202  1  0.45207000  0.12239000  0.32985000  1.0
  C  C203  1  0.79253000  0.12228000  0.67037000  1.0
  C  C204  1  0.99982000  0.87761000  0.67015000  1.0
  C  C205  1  0.54785000  0.67028000  0.67012000  1.0
  C  C206  1  0.10706000  0.26516000  0.26653000  1.0
  C  C207  1  0.00112000  0.84186000  0.26631000  1.0
  C  C208  1  0.42456000  0.15944000  0.26650000  1.0
  C  C209  1  0.89296000  0.15815000  0.73369000  1.0
  C  C210  1  0.99862000  0.84057000  0.73350000  1.0
  C  C211  1  0.57537000  0.73484000  0.73347000  1.0
  C  C212  1  0.02956000  0.25564000  0.27267000  1.0
  C  C213  1  0.01696000  0.77399000  0.27258000  1.0
  C  C214  1  0.49870000  0.24304000  0.27265000  1.0
  C  C215  1  0.97039000  0.22601000  0.72742000  1.0
  C  C216  1  0.98302000  0.75697000  0.72736000  1.0
  C  C217  1  0.50124000  0.74435000  0.72733000  1.0
  C  C218  1  0.05812000  0.30970000  0.34526000  1.0
  C  C219  1  0.03557000  0.74860000  0.34523000  1.0
  C  C220  1  0.59682000  0.28700000  0.34523000  1.0
  C  C221  1  0.94174000  0.25140000  0.65477000  1.0
  C  C222  1  0.96459000  0.71301000  0.65478000  1.0
  C  C223  1  0.40316000  0.69030000  0.65474000  1.0
  C  C224  1  0.16006000  0.37038000  0.40689000  1.0
  C  C225  1  0.03656000  0.78995000  0.40683000  1.0
  C  C226  1  0.61716000  0.24670000  0.40686000  1.0
  C  C227  1  0.83978000  0.21005000  0.59317000  1.0
  C  C228  1  0.96359000  0.75330000  0.59314000  1.0
  C  C229  1  0.38279000  0.62962000  0.59311000  1.0
  C  C230  1  0.92093000  0.19137000  0.20517000  1.0
  C  C231  1  0.01384000  0.72963000  0.20513000  1.0
  C  C232  1  0.47557000  0.28419000  0.20516000  1.0
  C  C233  1  0.07908000  0.27037000  0.79487000  1.0
  C  C234  1  0.98623000  0.71582000  0.79485000  1.0
  C  C235  1  0.52440000  0.80864000  0.79484000  1.0
  C  C236  1  0.87749000  0.09955000  0.18961000  1.0
  C  C237  1  0.09010000  0.77798000  0.18956000  1.0
  C  C238  1  0.41163000  0.31209000  0.18960000  1.0
  C  C239  1  0.12257000  0.22203000  0.81044000  1.0
  C  C240  1  0.90995000  0.68792000  0.81041000  1.0
  C  C241  1  0.58832000  0.90043000  0.81039000  1.0
  C  C242  1  0.77568000  0.03888000  0.12279000  1.0
  C  C243  1  0.08404000  0.73684000  0.12278000  1.0
  C  C244  1  0.38606000  0.34722000  0.12287000  1.0
  C  C245  1  0.22442000  0.26316000  0.87722000  1.0
  C  C246  1  0.91597000  0.65278000  0.87713000  1.0
  C  C247  1  0.61402000  0.96113000  0.87722000  1.0
  C  C248  1  0.71523000  0.06888000  0.07419000  1.0
  C  C249  1  0.00547000  0.64636000  0.07424000  1.0
  C  C250  1  0.42795000  0.35907000  0.07429000  1.0
  C  C251  1  0.28488000  0.35364000  0.92577000  1.0
  C  C252  1  0.99459000  0.64093000  0.92571000  1.0
  C  C253  1  0.57216000  0.93112000  0.92581000  1.0
  C  C254  1  0.75928000  0.16164000  0.09383000  1.0
  C  C255  1  0.93237000  0.59771000  0.09392000  1.0
  C  C256  1  0.49627000  0.33462000  0.09392000  1.0
  C  C257  1  0.24074000  0.40228000  0.90608000  1.0
  C  C258  1  0.06773000  0.66539000  0.90608000  1.0
  C  C259  1  0.50381000  0.83836000  0.90618000  1.0
  C  C260  1  0.86250000  0.22304000  0.15773000  1.0
  C  C261  1  0.93478000  0.63953000  0.15777000  1.0
  C  C262  1  0.51829000  0.29521000  0.15777000  1.0
  C  C263  1  0.13748000  0.36047000  0.84223000  1.0
  C  C264  1  0.06532000  0.70480000  0.84224000  1.0
  C  C265  1  0.48173000  0.77695000  0.84227000  1.0
  C  C266  1  0.90897000  0.32122000  0.17141000  1.0
  C  C267  1  0.85025000  0.58783000  0.17145000  1.0
  C  C268  1  0.58373000  0.26247000  0.17141000  1.0
  C  C269  1  0.09097000  0.41217000  0.82855000  1.0
  C  C270  1  0.14985000  0.73753000  0.82859000  1.0
  C  C271  1  0.41635000  0.67878000  0.82860000  1.0
  C  C272  1  0.70003000  0.19858000  0.04432000  1.0
  C  C273  1  0.84594000  0.50151000  0.04453000  1.0
  C  C274  1  0.54312000  0.34448000  0.04454000  1.0
  C  C275  1  0.29990000  0.49849000  0.95548000  1.0
  C  C276  1  0.15411000  0.65553000  0.95547000  1.0
  C  C277  1  0.45712000  0.80141000  0.95568000  1.0
  C  C278  1  0.73260000  0.94153000  0.10989000  1.0
  C  C279  1  0.16846000  0.79109000  0.10982000  1.0
  C  C280  1  0.31896000  0.37754000  0.10994000  1.0
  C  C281  1  0.26754000  0.20890000  0.89018000  1.0
  C  C282  1  0.83148000  0.62245000  0.89006000  1.0
  C  C283  1  0.68119000  0.05848000  0.89012000  1.0
  C  C284  1  0.93693000  0.06516000  0.24467000  1.0
  C  C285  1  0.17951000  0.87183000  0.24458000  1.0
  C  C286  1  0.37277000  0.30765000  0.24462000  1.0
  C  C287  1  0.06310000  0.12817000  0.75542000  1.0
  C  C288  1  0.82050000  0.69234000  0.75539000  1.0
  C  C289  1  0.62710000  0.93483000  0.75533000  1.0
  C  C290  1  0.10909000  0.92418000  0.96613000  1.0
  C  C291  1  0.04193000  0.18485000  0.96624000  1.0
  C  C292  1  0.78114000  0.85712000  0.96600000  1.0
  C  C293  1  0.89084000  0.81515000  0.03376000  1.0
  C  C294  1  0.95803000  0.14289000  0.03400000  1.0
  C  C295  1  0.21878000  0.07582000  0.03387000  1.0
  C  C296  1  0.18354000  0.92131000  0.96611000  1.0
  C  C297  1  0.04470000  0.26212000  0.96618000  1.0
  C  C298  1  0.70380000  0.78271000  0.96601000  1.0
  C  C299  1  0.81641000  0.73790000  0.03383000  1.0
  C  C300  1  0.95509000  0.21730000  0.03399000  1.0
  C  C301  1  0.29612000  0.07870000  0.03389000  1.0
  C  C302  1  0.27964000  0.00000000  1.00000000  1.0
  C  C303  1  0.99982000  0.27949000  0.00004000  1.0
  C  C304  1  0.72029000  0.72052000  0.99996000  1.0
  C  C305  1  0.36097000  0.00000000  1.00000000  1.0
  C  C306  1  0.99976000  0.36077000  0.99997000  1.0
  C  C307  1  0.63902000  0.63924000  0.00003000  1.0
  C  C308  1  0.36244000  0.00235000  0.92698000  1.0
  C  C309  1  0.92442000  0.35989000  0.92693000  1.0
  C  C310  1  0.56694000  0.56471000  0.92704000  1.0
  C  C311  1  0.63760000  0.64012000  0.07307000  1.0
  C  C312  1  0.07519000  0.43529000  0.07296000  1.0
  C  C313  1  0.43311000  0.99765000  0.07302000  1.0
  C  C314  1  0.43883000  0.00130000  0.92675000  1.0
  C  C315  1  0.92533000  0.43737000  0.92661000  1.0
  C  C316  1  0.48934000  0.48808000  0.92686000  1.0
  C  C317  1  0.56135000  0.56263000  0.07339000  1.0
  C  C318  1  0.07439000  0.51191000  0.07314000  1.0
  C  C319  1  0.51080000  0.99872000  0.07326000  1.0
  C  C320  1  0.51345000  0.00000000  1.00000000  1.0
  C  C321  1  0.99987000  0.51329000  0.99986000  1.0
  C  C322  1  0.48672000  0.48671000  0.00014000  1.0
  C  C323  1  0.44391000  0.00468000  0.85002000  1.0
  C  C324  1  0.84541000  0.43915000  0.84978000  1.0
  C  C325  1  0.41085000  0.40636000  0.85006000  1.0
  C  C326  1  0.55648000  0.56085000  0.15022000  1.0
  C  C327  1  0.15442000  0.59363000  0.14994000  1.0
  C  C328  1  0.58921000  0.99533000  0.14998000  1.0
  C  C329  1  0.28136000  0.00545000  0.85300000  1.0
  C  C330  1  0.84737000  0.27573000  0.85293000  1.0
  C  C331  1  0.57706000  0.57179000  0.85302000  1.0
  C  C332  1  0.71870000  0.72426000  0.14706000  1.0
  C  C333  1  0.15225000  0.42821000  0.14697000  1.0
  C  C334  1  0.42290000  0.99454000  0.14700000  1.0
  C  C335  1  0.59246000  0.56952000  0.49069000  1.0
  C  C336  1  0.92120000  0.02295000  0.49071000  1.0
  C  C337  1  0.46779000  0.89820000  0.49067000  1.0
  C  C338  1  0.40753000  0.97704000  0.50928000  1.0
  C  C339  1  0.07892000  0.10179000  0.50933000  1.0
  C  C340  1  0.53224000  0.43047000  0.50930000  1.0
  C  C341  1  0.67019000  0.57251000  0.49146000  1.0
  C  C342  1  0.91899000  0.09768000  0.49150000  1.0
  C  C343  1  0.39379000  0.82125000  0.49138000  1.0
  C  C344  1  0.32980000  0.90231000  0.50849000  1.0
  C  C345  1  0.08115000  0.17874000  0.50862000  1.0
  C  C346  1  0.60622000  0.42750000  0.50854000  1.0
  C  C347  1  0.67787000  0.50000000  0.50000000  1.0
  C  C348  1  0.00005000  0.17783000  0.50005000  1.0
  C  C349  1  0.32216000  0.82215000  0.49995000  1.0
  C  C350  1  0.75875000  0.50001000  0.50001000  1.0
  C  C351  1  0.99999000  0.25865000  0.50000000  1.0
  C  C352  1  0.24134000  0.74135000  0.50001000  1.0
  C  C353  1  0.82323000  0.48528000  0.56758000  1.0
  C  C354  1  0.08220000  0.33785000  0.56759000  1.0
  C  C355  1  0.22983000  0.74450000  0.56766000  1.0
  C  C356  1  0.17677000  0.66215000  0.43242000  1.0
  C  C357  1  0.91768000  0.25551000  0.43235000  1.0
  C  C358  1  0.77039000  0.51474000  0.43243000  1.0
  C  C359  1  0.89606000  0.48004000  0.56466000  1.0
  C  C360  1  0.08448000  0.41588000  0.56462000  1.0
  C  C361  1  0.14892000  0.66878000  0.56482000  1.0
  C  C362  1  0.10399000  0.58412000  0.43539000  1.0
  C  C363  1  0.91532000  0.33122000  0.43519000  1.0
  C  C364  1  0.85137000  0.51997000  0.43535000  1.0
  C  C365  1  0.91335000  0.50001000  0.50001000  1.0
  C  C366  1  0.99990000  0.41319000  0.49986000  1.0
  C  C367  1  0.08685000  0.58681000  0.50015000  1.0
  C  C368  1  0.95937000  0.45942000  0.63615000  1.0
  C  C369  1  0.17650000  0.49980000  0.63617000  1.0
  C  C370  1  0.13659000  0.67702000  0.63637000  1.0
  C  C371  1  0.04053000  0.50020000  0.36383000  1.0
  C  C372  1  0.82320000  0.32298000  0.36363000  1.0
  C  C373  1  0.86382000  0.54059000  0.36386000  1.0
  C  C374  1  0.81878000  0.47866000  0.64430000  1.0
  C  C375  1  0.16557000  0.34013000  0.64440000  1.0
  C  C376  1  0.30443000  0.82565000  0.64441000  1.0
  C  C377  1  0.18104000  0.65987000  0.35561000  1.0
  C  C378  1  0.83438000  0.17436000  0.35560000  1.0
  C  C379  1  0.69582000  0.52134000  0.35570000  1.0
  I  I380  1  0.38863000  0.39565000  0.61305000  1.0
  I  I381  1  0.21746000  0.99262000  0.61287000  1.0
  I  I382  1  0.61993000  0.22424000  0.61301000  1.0
  I  I383  1  0.61196000  0.00738000  0.38712000  1.0
  I  I384  1  0.78268000  0.77576000  0.38699000  1.0
  I  I385  1  0.37989000  0.60432000  0.38691000  1.0
  I  I386  1  0.87849000  0.93933000  0.81767000  1.0
  I  I387  1  0.12148000  0.06067000  0.18233000  1.0
  N  N388  1  0.23360000  0.38165000  0.39865000  1.0
  N  N389  1  0.01689000  0.85210000  0.39849000  1.0
  N  N390  1  0.54661000  0.16496000  0.39862000  1.0
  N  N391  1  0.76630000  0.14789000  0.60151000  1.0
  N  N392  1  0.98302000  0.83504000  0.60138000  1.0
  N  N393  1  0.45329000  0.61834000  0.60134000  1.0
  N  N394  1  0.52505000  0.50000000  0.50000000  1.0
  N  N395  1  0.00005000  0.02508000  0.49999000  1.0
  N  N396  1  0.47498000  0.97492000  0.50001000  1.0
  N  N397  1  0.12646000  0.00000000  1.00000000  1.0
  N  N398  1  0.00001000  0.12642000  0.00014000  1.0
  N  N399  1  0.87344000  0.87357000  0.99986000  1.0
