# generated using pymatgen
data_HgH10C7S5(IO)2
_symmetry_space_group_name_H-M   'P 1'
_cell_length_a   4.37101000
_cell_length_b   13.80050000
_cell_length_c   14.73320000
_cell_angle_alpha   116.73900000
_cell_angle_beta   93.20080000
_cell_angle_gamma   93.52840000
_symmetry_Int_Tables_number   1
_chemical_formula_structural   HgH10C7S5(IO)2
_chemical_formula_sum   'Hg2 H20 C14 S10 I4 O4'
_cell_volume   788.71088928
_cell_formula_units_Z   2
loop_
 _symmetry_equiv_pos_site_id
 _symmetry_equiv_pos_as_xyz
  1  'x, y, z'
loop_
 _atom_site_type_symbol
 _atom_site_label
 _atom_site_symmetry_multiplicity
 _atom_site_fract_x
 _atom_site_fract_y
 _atom_site_fract_z
 _atom_site_occupancy
  Hg  Hg0  1  0.06623000  0.34572000  0.17514000  1.0
  Hg  Hg1  1  0.93377000  0.65428000  0.82485000  1.0
  H  H2  1  0.91484000  0.64081000  0.30942000  1.0
  H  H3  1  0.08517000  0.35919000  0.69058000  1.0
  H  H4  1  0.57500000  0.33512000  0.67268000  1.0
  H  H5  1  0.42500000  0.66488000  0.32732000  1.0
  H  H6  1  0.05312000  0.75712000  0.12143000  1.0
  H  H7  1  0.94689000  0.24288000  0.87857000  1.0
  H  H8  1  0.36382000  0.77163000  0.21251000  1.0
  H  H9  1  0.63619000  0.22836000  0.78749000  1.0
  H  H10  1  0.75663000  0.62103000  0.15673000  1.0
  H  H11  1  0.24337000  0.37897000  0.84327000  1.0
  H  H12  1  0.11865000  0.58022000  0.11289000  1.0
  H  H13  1  0.88134000  0.41978000  0.88711000  1.0
  H  H14  1  0.82167000  0.20125000  0.51790000  1.0
  H  H15  1  0.17833000  0.79875000  0.48210000  1.0
  H  H16  1  0.71781000  0.21015000  0.40414000  1.0
  H  H17  1  0.28219000  0.78985000  0.59586000  1.0
  H  H18  1  0.60792000  0.37883000  0.54480000  1.0
  H  H19  1  0.39209000  0.62117000  0.45520000  1.0
  H  H20  1  0.24489000  0.30611000  0.48795000  1.0
  H  H21  1  0.75512000  0.69389000  0.51205000  1.0
  C  C22  1  0.94872000  0.08170000  0.16493000  1.0
  C  C23  1  0.05126000  0.91830000  0.83507000  1.0
  C  C24  1  0.19111000  0.05600000  0.31823000  1.0
  C  C25  1  0.80890000  0.94400000  0.68177000  1.0
  C  C26  1  0.99235000  0.96406000  0.26164000  1.0
  C  C27  1  0.00766000  0.03594000  0.73836000  1.0
  C  C28  1  0.11357000  0.75279000  0.19284000  1.0
  C  C29  1  0.88644000  0.24721000  0.80716000  1.0
  C  C30  1  0.00664000  0.63924000  0.17768000  1.0
  C  C31  1  0.99336000  0.36076000  0.82232000  1.0
  C  C32  1  0.62526000  0.20548000  0.47017000  1.0
  C  C33  1  0.37475000  0.79452000  0.52983000  1.0
  C  C34  1  0.45744000  0.30535000  0.53101000  1.0
  C  C35  1  0.54257000  0.69465000  0.46899000  1.0
  S  S36  1  0.84962000  0.12864000  0.08201000  1.0
  S  S37  1  0.15036000  0.87136000  0.91800000  1.0
  S  S38  1  0.21063000  0.15147000  0.27111000  1.0
  S  S39  1  0.78936000  0.84853000  0.72889000  1.0
  S  S40  1  0.79413000  0.95908000  0.15337000  1.0
  S  S41  1  0.20587000  0.04092000  0.84663000  1.0
  S  S42  1  0.92414000  0.85851000  0.29421000  1.0
  S  S43  1  0.07586000  0.14149000  0.70579000  1.0
  S  S44  1  0.40282000  0.07479000  0.42940000  1.0
  S  S45  1  0.59718000  0.92521000  0.57060000  1.0
  I  I46  1  0.86680000  0.41990000  0.36190000  1.0
  I  I47  1  0.13319000  0.58010000  0.63810000  1.0
  I  I48  1  0.47899000  0.36773000  0.05128000  1.0
  I  I49  1  0.52100000  0.63227000  0.94871000  1.0
  O  O50  1  0.08711000  0.62060000  0.26361000  1.0
  O  O51  1  0.91288000  0.37940000  0.73639000  1.0
  O  O52  1  0.37922000  0.30982000  0.62552000  1.0
  O  O53  1  0.62078000  0.69018000  0.37448000  1.0
