# generated using pymatgen
data_CsH10C15NO4
_symmetry_space_group_name_H-M   'P 1'
_cell_length_a   6.58576000
_cell_length_b   9.14423000
_cell_length_c   11.28440000
_cell_angle_alpha   95.70560000
_cell_angle_beta   89.99980000
_cell_angle_gamma   89.99970000
_symmetry_Int_Tables_number   1
_chemical_formula_structural   CsH10C15NO4
_chemical_formula_sum   'Cs2 H20 C30 N2 O8'
_cell_volume   676.19913290
_cell_formula_units_Z   2
loop_
 _symmetry_equiv_pos_site_id
 _symmetry_equiv_pos_as_xyz
  1  'x, y, z'
loop_
 _atom_site_type_symbol
 _atom_site_label
 _atom_site_symmetry_multiplicity
 _atom_site_fract_x
 _atom_site_fract_y
 _atom_site_fract_z
 _atom_site_occupancy
  Cs  Cs0  1  0.47466000  0.37695000  0.90637000  1.0
  Cs  Cs1  1  0.97466000  0.62305000  0.09363000  1.0
  H  H2  1  0.47797000  0.19819000  0.54530000  1.0
  H  H3  1  0.97797000  0.80181000  0.45470000  1.0
  H  H4  1  0.46460000  0.17855000  0.32067000  1.0
  H  H5  1  0.96460000  0.82146000  0.67933000  1.0
  H  H6  1  0.45892000  0.93328000  0.20619000  1.0
  H  H7  1  0.95892000  0.06672000  0.79381000  1.0
  H  H8  1  0.44662000  0.66303000  0.20089000  1.0
  H  H9  1  0.94662000  0.33697000  0.79911000  1.0
  H  H10  1  0.39673000  0.44065000  0.30648000  1.0
  H  H11  1  0.89672000  0.55935000  0.69353000  1.0
  H  H12  1  0.38465000  0.46461000  0.53151000  1.0
  H  H13  1  0.88464000  0.53539000  0.46849000  1.0
  H  H14  1  0.55458000  0.96369000  0.89369000  1.0
  H  H15  1  0.05458000  0.03631000  0.10631000  1.0
  H  H16  1  0.19226000  0.98655000  0.90319000  1.0
  H  H17  1  0.69226000  0.01345000  0.09682000  1.0
  H  H18  1  0.26852000  0.88215000  0.02062000  1.0
  H  H19  1  0.76852000  0.11785000  0.97938000  1.0
  H  H20  1  0.15465000  0.79266000  0.88897000  1.0
  H  H21  1  0.65465000  0.20734000  0.11103000  1.0
  C  C22  1  0.47247000  0.97880000  0.68403000  1.0
  C  C23  1  0.97247000  0.02120000  0.31596000  1.0
  C  C24  1  0.46576000  0.96609000  0.55332000  1.0
  C  C25  1  0.96576000  0.03390000  0.44668000  1.0
  C  C26  1  0.45212000  0.82533000  0.48866000  1.0
  C  C27  1  0.95212000  0.17468000  0.51134000  1.0
  C  C28  1  0.42879000  0.69722000  0.54838000  1.0
  C  C29  1  0.92879000  0.30278000  0.45162000  1.0
  C  C30  1  0.41967000  0.70992000  0.67939000  1.0
  C  C31  1  0.91966000  0.29008000  0.32061000  1.0
  C  C32  1  0.47083000  0.09136000  0.49323000  1.0
  C  C33  1  0.97084000  0.90863000  0.50677000  1.0
  C  C34  1  0.46671000  0.07998000  0.36776000  1.0
  C  C35  1  0.96672000  0.92002000  0.63224000  1.0
  C  C36  1  0.46168000  0.94329000  0.30329000  1.0
  C  C37  1  0.96168000  0.05671000  0.69671000  1.0
  C  C38  1  0.45347000  0.81298000  0.36149000  1.0
  C  C39  1  0.95347000  0.18702000  0.63851000  1.0
  C  C40  1  0.43857000  0.67154000  0.29805000  1.0
  C  C41  1  0.93858000  0.32846000  0.70195000  1.0
  C  C42  1  0.41414000  0.54752000  0.35778000  1.0
  C  C43  1  0.91414000  0.45248000  0.64222000  1.0
  C  C44  1  0.40726000  0.56074000  0.48315000  1.0
  C  C45  1  0.90726000  0.43926000  0.51686000  1.0
  C  C46  1  0.46891000  0.86199000  0.87038000  1.0
  C  C47  1  0.96891000  0.13801000  0.12962000  1.0
  C  C48  1  0.25719000  0.88143000  0.92362000  1.0
  C  C49  1  0.75719000  0.11857000  0.07638000  1.0
  C  C50  1  0.59949000  0.73976000  0.91835000  1.0
  C  C51  1  0.09948000  0.26024000  0.08164000  1.0
  N  N52  1  0.46138000  0.84840000  0.73920000  1.0
  N  N53  1  0.96138000  0.15160000  0.26079000  1.0
  O  O54  1  0.48730000  0.09876000  0.74534000  1.0
  O  O55  1  0.98730000  0.90124000  0.25466000  1.0
  O  O56  1  0.37674000  0.60520000  0.73646000  1.0
  O  O57  1  0.87672000  0.39480000  0.26354000  1.0
  O  O58  1  0.53822000  0.69143000  0.01442000  1.0
  O  O59  1  0.03821000  0.30857000  0.98558000  1.0
  O  O60  1  0.76268000  0.70389000  0.86382000  1.0
  O  O61  1  0.26267000  0.29612000  0.13618000  1.0
