# generated using pymatgen
data_AlH16C25N3ClO8
_symmetry_space_group_name_H-M   'P 1'
_cell_length_a   6.58831000
_cell_length_b   28.22470000
_cell_length_c   31.76800000
_cell_angle_alpha   77.95180000
_cell_angle_beta   89.37880000
_cell_angle_gamma   89.99900000
_symmetry_Int_Tables_number   1
_chemical_formula_structural   AlH16C25N3ClO8
_chemical_formula_sum   'Al4 H64 C100 N12 Cl4 O32'
_cell_volume   5776.87724845
_cell_formula_units_Z   4
loop_
 _symmetry_equiv_pos_site_id
 _symmetry_equiv_pos_as_xyz
  1  'x, y, z'
loop_
 _atom_site_type_symbol
 _atom_site_label
 _atom_site_symmetry_multiplicity
 _atom_site_fract_x
 _atom_site_fract_y
 _atom_site_fract_z
 _atom_site_occupancy
  Al  Al0  1  0.09929000  0.50166000  0.50078000  1.0
  Al  Al1  1  0.59845000  0.49745000  0.50166000  1.0
  Al  Al2  1  0.71299000  0.99763000  0.99962000  1.0
  Al  Al3  1  0.21263000  0.00261000  0.99773000  1.0
  H  H4  1  0.18963000  0.39555000  0.60337000  1.0
  H  H5  1  0.20839000  0.32905000  0.66980000  1.0
  H  H6  1  0.55681000  0.32708000  0.67946000  1.0
  H  H7  1  0.53949000  0.39187000  0.61170000  1.0
  H  H8  1  0.21886000  0.19454000  0.83699000  1.0
  H  H9  1  0.24505000  0.12659000  0.90164000  1.0
  H  H10  1  0.64597000  0.07887000  0.87714000  1.0
  H  H11  1  0.80821000  0.18008000  0.35648000  1.0
  H  H12  1  0.82443000  0.12525000  0.30286000  1.0
  H  H13  1  0.97769000  0.31951000  0.14224000  1.0
  H  H14  1  0.95134000  0.37448000  0.19565000  1.0
  H  H15  1  0.25334000  0.15394000  0.13287000  1.0
  H  H16  1  0.27238000  0.10111000  0.07850000  1.0
  H  H17  1  0.63154000  0.07403000  0.09308000  1.0
  H  H18  1  0.61300000  0.12497000  0.14903000  1.0
  H  H19  1  0.56153000  0.33480000  0.37954000  1.0
  H  H20  1  0.56276000  0.38898000  0.43219000  1.0
  H  H21  1  0.15761000  0.38772000  0.33569000  1.0
  H  H22  1  0.78864000  0.78665000  0.66519000  1.0
  H  H23  1  0.06799000  0.71031000  0.83635000  1.0
  H  H24  1  0.06657000  0.66507000  0.62224000  1.0
  H  H25  1  0.05386000  0.60769000  0.57193000  1.0
  H  H26  1  0.67718000  0.56945000  0.59864000  1.0
  H  H27  1  0.68944000  0.62461000  0.65084000  1.0
  H  H28  1  0.15661000  0.88335000  0.83962000  1.0
  H  H29  1  0.15449000  0.93680000  0.89362000  1.0
  H  H30  1  0.74784000  0.88483000  0.93558000  1.0
  H  H31  1  0.66461000  0.69678000  0.34457000  1.0
  H  H32  1  0.07089000  0.65251000  0.31126000  1.0
  H  H33  1  0.06643000  0.58841000  0.37870000  1.0
  H  H34  1  0.74865000  0.90603000  0.11940000  1.0
  H  H35  1  0.12493000  0.80711000  0.15482000  1.0
  H  H36  1  0.75168000  0.68600000  0.75743000  1.0
  H  H37  1  0.77539000  0.68313000  0.81396000  1.0
  H  H38  1  0.72406000  0.59358000  0.82798000  1.0
  H  H39  1  0.51537000  0.62615000  0.80231000  1.0
  H  H40  1  0.63507000  0.60968000  0.73061000  1.0
  H  H41  1  0.59351000  0.55495000  0.76880000  1.0
  H  H42  1  0.84503000  0.57726000  0.75609000  1.0
  H  H43  1  0.58441000  0.63585000  0.47378000  1.0
  H  H44  1  0.62579000  0.69292000  0.43766000  1.0
  H  H45  1  0.96029000  0.62330000  0.47978000  1.0
  H  H46  1  0.00154000  0.67823000  0.44224000  1.0
  H  H47  1  0.83230000  0.72416000  0.49391000  1.0
  H  H48  1  0.04090000  0.68966000  0.51840000  1.0
  H  H49  1  0.78923000  0.66872000  0.53114000  1.0
  H  H50  1  0.67792000  0.87730000  0.23543000  1.0
  H  H51  1  0.84350000  0.90990000  0.19412000  1.0
  H  H52  1  0.96529000  0.82090000  0.26218000  1.0
  H  H53  1  0.12944000  0.85661000  0.22358000  1.0
  H  H54  1  0.06269000  0.92924000  0.25736000  1.0
  H  H55  1  0.16784000  0.88003000  0.29477000  1.0
  H  H56  1  0.90407000  0.89257000  0.29670000  1.0
  H  H57  1  0.87765000  0.84161000  0.05619000  1.0
  H  H58  1  0.06776000  0.80097000  0.08194000  1.0
  H  H59  1  0.12917000  0.88033000  0.00018000  1.0
  H  H60  1  0.32289000  0.84194000  0.02585000  1.0
  H  H61  1  0.13622000  0.76885000  0.01118000  1.0
  H  H62  1  0.18348000  0.81169000  0.96258000  1.0
  H  H63  1  0.93805000  0.80698000  0.98632000  1.0
  H  H64  1  0.33780000  0.44374000  0.48681000  1.0
  H  H65  1  0.83723000  0.55678000  0.47011000  1.0
  H  H66  1  0.47594000  0.06351000  0.99768000  1.0
  H  H67  1  0.97753000  0.94279000  0.03022000  1.0
  C  C68  1  0.35881000  0.55192000  0.55189000  1.0
  C  C69  1  0.35067000  0.56485000  0.43722000  1.0
  C  C70  1  0.84947000  0.44707000  0.44886000  1.0
  C  C71  1  0.85674000  0.43698000  0.56504000  1.0
  C  C72  1  0.05285000  0.37983000  0.62027000  1.0
  C  C73  1  0.06304000  0.34323000  0.65690000  1.0
  C  C74  1  0.88372000  0.32453000  0.67856000  1.0
  C  C75  1  0.69415000  0.34199000  0.66228000  1.0
  C  C76  1  0.68455000  0.37792000  0.62503000  1.0
  C  C77  1  0.86379000  0.39743000  0.60421000  1.0
  C  C78  1  0.91028000  0.21722000  0.78474000  1.0
  C  C79  1  0.89596000  0.28761000  0.71856000  1.0
  C  C80  1  0.09454000  0.16891000  0.84617000  1.0
  C  C81  1  0.10908000  0.13139000  0.88201000  1.0
  C  C82  1  0.94512000  0.09961000  0.89361000  1.0
  C  C83  1  0.77088000  0.10437000  0.86825000  1.0
  C  C84  1  0.75919000  0.14132000  0.83168000  1.0
  C  C85  1  0.91887000  0.17512000  0.82083000  1.0
  C  C86  1  0.88994000  0.34885000  0.28021000  1.0
  C  C87  1  0.84694000  0.27599000  0.34065000  1.0
  C  C88  1  0.85353000  0.24469000  0.30853000  1.0
  C  C89  1  0.88477000  0.26523000  0.26434000  1.0
  C  C90  1  0.90453000  0.31593000  0.24955000  1.0
  C  C91  1  0.83207000  0.19482000  0.32224000  1.0
  C  C92  1  0.84159000  0.16438000  0.29248000  1.0
  C  C93  1  0.87416000  0.18365000  0.24896000  1.0
  C  C94  1  0.89666000  0.23433000  0.23422000  1.0
  C  C95  1  0.93101000  0.25492000  0.19012000  1.0
  C  C96  1  0.95112000  0.30480000  0.17640000  1.0
  C  C97  1  0.93699000  0.33529000  0.20604000  1.0
  C  C98  1  0.88559000  0.15081000  0.21812000  1.0
  C  C99  1  0.94545000  0.22345000  0.15822000  1.0
  C  C100  1  0.11855000  0.13576000  0.12442000  1.0
  C  C101  1  0.12885000  0.10678000  0.09403000  1.0
  C  C102  1  0.95278000  0.08499000  0.08245000  1.0
  C  C103  1  0.76666000  0.09164000  0.10216000  1.0
  C  C104  1  0.75634000  0.12003000  0.13306000  1.0
  C  C105  1  0.93221000  0.14225000  0.14368000  1.0
  C  C106  1  0.69167000  0.35793000  0.38157000  1.0
  C  C107  1  0.69315000  0.38792000  0.41108000  1.0
  C  C108  1  0.86002000  0.41759000  0.41487000  1.0
  C  C109  1  0.02766000  0.41721000  0.38703000  1.0
  C  C110  1  0.02801000  0.38711000  0.35732000  1.0
  C  C111  1  0.86101000  0.35758000  0.35491000  1.0
  C  C112  1  0.31691000  0.78257000  0.83648000  1.0
  C  C113  1  0.57591000  0.83589000  0.79105000  1.0
  C  C114  1  0.57364000  0.80358000  0.75957000  1.0
  C  C115  1  0.42722000  0.76559000  0.76464000  1.0
  C  C116  1  0.29912000  0.75523000  0.80165000  1.0
  C  C117  1  0.70633000  0.80996000  0.72394000  1.0
  C  C118  1  0.68688000  0.78106000  0.69306000  1.0
  C  C119  1  0.54093000  0.74509000  0.69734000  1.0
  C  C120  1  0.40850000  0.73594000  0.73357000  1.0
  C  C121  1  0.26355000  0.69773000  0.73888000  1.0
  C  C122  1  0.13903000  0.68887000  0.77599000  1.0
  C  C123  1  0.15904000  0.71804000  0.80684000  1.0
  C  C124  1  0.53317000  0.71555000  0.66385000  1.0
  C  C125  1  0.24563000  0.66818000  0.70555000  1.0
  C  C126  1  0.19941000  0.64382000  0.61726000  1.0
  C  C127  1  0.19233000  0.61205000  0.58916000  1.0
  C  C128  1  0.36445000  0.58530000  0.58251000  1.0
  C  C129  1  0.54433000  0.59031000  0.60439000  1.0
  C  C130  1  0.55105000  0.62111000  0.63327000  1.0
  C  C131  1  0.37847000  0.64774000  0.63948000  1.0
  C  C132  1  0.28473000  0.88376000  0.86097000  1.0
  C  C133  1  0.28357000  0.91353000  0.89075000  1.0
  C  C134  1  0.45158000  0.91409000  0.91732000  1.0
  C  C135  1  0.61808000  0.88402000  0.91478000  1.0
  C  C136  1  0.61567000  0.85303000  0.88589000  1.0
  C  C137  1  0.45008000  0.85354000  0.85843000  1.0
  C  C138  1  0.53463000  0.63598000  0.38838000  1.0
  C  C139  1  0.53382000  0.67266000  0.35136000  1.0
  C  C140  1  0.36834000  0.67870000  0.32343000  1.0
  C  C141  1  0.19976000  0.64764000  0.33288000  1.0
  C  C142  1  0.19811000  0.61190000  0.37020000  1.0
  C  C143  1  0.36380000  0.60497000  0.39838000  1.0
  C  C144  1  0.40253000  0.78428000  0.21559000  1.0
  C  C145  1  0.37026000  0.71846000  0.28534000  1.0
  C  C146  1  0.60528000  0.84827000  0.16476000  1.0
  C  C147  1  0.61038000  0.88481000  0.12783000  1.0
  C  C148  1  0.44300000  0.89489000  0.10051000  1.0
  C  C149  1  0.26684000  0.86555000  0.10992000  1.0
  C  C150  1  0.26315000  0.82833000  0.14655000  1.0
  C  C151  1  0.42725000  0.81996000  0.17495000  1.0
  C  C152  1  0.46049000  0.93609000  0.06274000  1.0
  C  C153  1  0.45231000  0.94668000  0.94881000  1.0
  C  C154  1  0.95324000  0.06084000  0.93338000  1.0
  C  C155  1  0.96352000  0.05482000  0.04905000  1.0
  C  C156  1  0.79606000  0.66263000  0.78822000  1.0
  C  C157  1  0.67406000  0.61607000  0.79727000  1.0
  C  C158  1  0.68794000  0.58774000  0.76128000  1.0
  C  C159  1  0.68963000  0.65641000  0.44935000  1.0
  C  C160  1  0.89865000  0.65983000  0.46805000  1.0
  C  C161  1  0.88971000  0.68709000  0.50486000  1.0
  C  C162  1  0.81437000  0.87443000  0.21571000  1.0
  C  C163  1  0.99505000  0.85800000  0.24409000  1.0
  C  C164  1  0.03443000  0.89186000  0.27491000  1.0
  C  C165  1  0.04184000  0.83722000  0.06164000  1.0
  C  C166  1  0.15891000  0.84378000  0.01915000  1.0
  C  C167  1  0.10123000  0.80572000  0.99350000  1.0
  N  N168  1  0.72938000  0.27922000  0.74445000  1.0
  N  N169  1  0.73664000  0.24326000  0.77836000  1.0
  N  N170  1  0.08620000  0.23108000  0.76331000  1.0
  N  N171  1  0.07894000  0.26711000  0.72957000  1.0
  N  N172  1  0.86545000  0.32650000  0.32425000  1.0
  N  N173  1  0.92078000  0.17317000  0.17453000  1.0
  N  N174  1  0.44690000  0.82274000  0.82764000  1.0
  N  N175  1  0.38566000  0.67881000  0.67021000  1.0
  N  N176  1  0.23911000  0.71660000  0.25320000  1.0
  N  N177  1  0.25829000  0.74967000  0.21741000  1.0
  N  N178  1  0.50308000  0.79145000  0.25077000  1.0
  N  N179  1  0.48931000  0.75742000  0.28606000  1.0
  Cl  Cl180  1  0.23597000  0.45467000  0.38603000  1.0
  Cl  Cl181  1  0.90171000  0.85133000  0.71525000  1.0
  Cl  Cl182  1  0.81657000  0.81425000  0.88432000  1.0
  Cl  Cl183  1  0.55003000  0.14301000  0.79905000  1.0
  O  O184  1  0.51451000  0.55079000  0.45665000  1.0
  O  O185  1  0.19070000  0.54674000  0.53384000  1.0
  O  O186  1  0.02225000  0.45915000  0.55311000  1.0
  O  O187  1  0.17497000  0.54721000  0.44835000  1.0
  O  O188  1  0.01418000  0.45483000  0.46673000  1.0
  O  O189  1  0.52459000  0.53136000  0.54534000  1.0
  O  O190  1  0.34528000  0.46916000  0.50312000  1.0
  O  O191  1  0.67339000  0.46087000  0.45813000  1.0
  O  O192  1  0.68734000  0.44564000  0.54605000  1.0
  O  O193  1  0.84622000  0.52998000  0.49491000  1.0
  O  O194  1  0.89868000  0.39310000  0.26861000  1.0
  O  O195  1  0.82809000  0.25957000  0.37943000  1.0
  O  O196  1  0.86689000  0.10666000  0.22917000  1.0
  O  O197  1  0.97622000  0.23943000  0.11969000  1.0
  O  O198  1  0.22308000  0.77152000  0.87079000  1.0
  O  O199  1  0.67896000  0.87277000  0.78673000  1.0
  O  O200  1  0.64903000  0.72261000  0.63253000  1.0
  O  O201  1  0.12016000  0.63585000  0.70689000  1.0
  O  O202  1  0.28538000  0.96718000  0.95450000  1.0
  O  O203  1  0.63753000  0.95351000  0.05241000  1.0
  O  O204  1  0.79648000  0.04549000  0.03254000  1.0
  O  O205  1  0.61793000  0.95100000  0.96799000  1.0
  O  O206  1  0.78946000  0.03812000  0.94566000  1.0
  O  O207  1  0.29901000  0.95126000  0.04312000  1.0
  O  O208  1  0.46734000  0.03024000  0.99447000  1.0
  O  O209  1  0.12226000  0.05367000  0.95277000  1.0
  O  O210  1  0.13916000  0.04111000  0.03944000  1.0
  O  O211  1  0.96600000  0.96947000  0.00534000  1.0
  O  O212  1  0.00897000  0.65084000  0.78401000  1.0
  O  O213  1  0.70605000  0.63234000  0.41335000  1.0
  O  O214  1  0.77447000  0.83861000  0.19001000  1.0
  O  O215  1  0.09508000  0.87414000  0.08526000  1.0
