# generated using pymatgen
data_EuH24C25S2N3O8
_symmetry_space_group_name_H-M   'P 1'
_cell_length_a   16.12110000
_cell_length_b   16.12110000
_cell_length_c   27.93270000
_cell_angle_alpha   80.16930000
_cell_angle_beta   80.16900000
_cell_angle_gamma   62.96420000
_symmetry_Int_Tables_number   1
_chemical_formula_structural   EuH24C25S2N3O8
_chemical_formula_sum   'Eu4 H96 C100 S8 N12 O32'
_cell_volume   6335.21485177
_cell_formula_units_Z   4
loop_
 _symmetry_equiv_pos_site_id
 _symmetry_equiv_pos_as_xyz
  1  'x, y, z'
loop_
 _atom_site_type_symbol
 _atom_site_label
 _atom_site_symmetry_multiplicity
 _atom_site_fract_x
 _atom_site_fract_y
 _atom_site_fract_z
 _atom_site_occupancy
  Eu  Eu0  1  0.93401000  0.46964000  0.95476000  1.0
  Eu  Eu1  1  0.53036000  0.06599000  0.54524000  1.0
  Eu  Eu2  1  0.06599000  0.53036000  0.04524000  1.0
  Eu  Eu3  1  0.46964000  0.93401000  0.45476000  1.0
  H  H4  1  0.93675000  0.37091000  0.79569000  1.0
  H  H5  1  0.62909000  0.06325000  0.70431000  1.0
  H  H6  1  0.06325000  0.62909000  0.20431000  1.0
  H  H7  1  0.37091000  0.93675000  0.29569000  1.0
  H  H8  1  0.89287000  0.29222000  0.74025000  1.0
  H  H9  1  0.70778000  0.10713000  0.75975000  1.0
  H  H10  1  0.10713000  0.70778000  0.25975000  1.0
  H  H11  1  0.29222000  0.89287000  0.24025000  1.0
  H  H12  1  0.79596000  0.15270000  0.86594000  1.0
  H  H13  1  0.84730000  0.20404000  0.63406000  1.0
  H  H14  1  0.20404000  0.84730000  0.13406000  1.0
  H  H15  1  0.15270000  0.79596000  0.36594000  1.0
  H  H16  1  0.84054000  0.23169000  0.92135000  1.0
  H  H17  1  0.76831000  0.15946000  0.57865000  1.0
  H  H18  1  0.15946000  0.76831000  0.07865000  1.0
  H  H19  1  0.23169000  0.84054000  0.42135000  1.0
  H  H20  1  0.83287000  0.31584000  0.08314000  1.0
  H  H21  1  0.68416000  0.16713000  0.41686000  1.0
  H  H22  1  0.16713000  0.68416000  0.91686000  1.0
  H  H23  1  0.31584000  0.83287000  0.58314000  1.0
  H  H24  1  0.76758000  0.24491000  0.15874000  1.0
  H  H25  1  0.75509000  0.23242000  0.34126000  1.0
  H  H26  1  0.23242000  0.75509000  0.84126000  1.0
  H  H27  1  0.24491000  0.76758000  0.65874000  1.0
  H  H28  1  0.85502000  0.37623000  0.24830000  1.0
  H  H29  1  0.62377000  0.14498000  0.25170000  1.0
  H  H30  1  0.14498000  0.62377000  0.75170000  1.0
  H  H31  1  0.37623000  0.85502000  0.74830000  1.0
  H  H32  1  0.91912000  0.44814000  0.17203000  1.0
  H  H33  1  0.55185000  0.08088000  0.32797000  1.0
  H  H34  1  0.08088000  0.55185000  0.82797000  1.0
  H  H35  1  0.44814000  0.91912000  0.67203000  1.0
  H  H36  1  0.79844000  0.83427000  0.05562000  1.0
  H  H37  1  0.16573000  0.20156000  0.44438000  1.0
  H  H38  1  0.20156000  0.16573000  0.94438000  1.0
  H  H39  1  0.83427000  0.79844000  0.55562000  1.0
  H  H40  1  0.63804000  0.96697000  0.04492000  1.0
  H  H41  1  0.03303000  0.36196000  0.45508000  1.0
  H  H42  1  0.36196000  0.03303000  0.95508000  1.0
  H  H43  1  0.96697000  0.63804000  0.54492000  1.0
  H  H44  1  0.58284000  0.80344000  0.95964000  1.0
  H  H45  1  0.19656000  0.41716000  0.54036000  1.0
  H  H46  1  0.41716000  0.19656000  0.04036000  1.0
  H  H47  1  0.80344000  0.58284000  0.45964000  1.0
  H  H48  1  0.74404000  0.67148000  0.96938000  1.0
  H  H49  1  0.32852000  0.25596000  0.53062000  1.0
  H  H50  1  0.25596000  0.32852000  0.03062000  1.0
  H  H51  1  0.67148000  0.74404000  0.46938000  1.0
  H  H52  1  0.64680000  0.71623000  0.88720000  1.0
  H  H53  1  0.28377000  0.35320000  0.61280000  1.0
  H  H54  1  0.35320000  0.28377000  0.11280000  1.0
  H  H55  1  0.71623000  0.64680000  0.38720000  1.0
  H  H56  1  0.65659000  0.71384000  0.82235000  1.0
  H  H57  1  0.28616000  0.34341000  0.67765000  1.0
  H  H58  1  0.34341000  0.28616000  0.17765000  1.0
  H  H59  1  0.71384000  0.65659000  0.32235000  1.0
  H  H60  1  0.71555000  0.76697000  0.84727000  1.0
  H  H61  1  0.23303000  0.28445000  0.65273000  1.0
  H  H62  1  0.28445000  0.23303000  0.15273000  1.0
  H  H63  1  0.76697000  0.71555000  0.34727000  1.0
  H  H64  1  0.86833000  0.67308000  0.79783000  1.0
  H  H65  1  0.32692000  0.13168000  0.70217000  1.0
  H  H66  1  0.13168000  0.32692000  0.20217000  1.0
  H  H67  1  0.67308000  0.86833000  0.29783000  1.0
  H  H68  1  0.81871000  0.61258000  0.77144000  1.0
  H  H69  1  0.38742000  0.18129000  0.72856000  1.0
  H  H70  1  0.18129000  0.38742000  0.22856000  1.0
  H  H71  1  0.61258000  0.81871000  0.27144000  1.0
  H  H72  1  0.92448000  0.54663000  0.80094000  1.0
  H  H73  1  0.45337000  0.07552000  0.69906000  1.0
  H  H74  1  0.07552000  0.45337000  0.19906000  1.0
  H  H75  1  0.54663000  0.92448000  0.30094000  1.0
  H  H76  1  0.59937000  0.53024000  0.94466000  1.0
  H  H77  1  0.46976000  0.40063000  0.55534000  1.0
  H  H78  1  0.40063000  0.46976000  0.05534000  1.0
  H  H79  1  0.53024000  0.59937000  0.44466000  1.0
  H  H80  1  0.60327000  0.42049000  0.97602000  1.0
  H  H81  1  0.57951000  0.39673000  0.52398000  1.0
  H  H82  1  0.39673000  0.57951000  0.02398000  1.0
  H  H83  1  0.42049000  0.60327000  0.47602000  1.0
  H  H84  1  0.69076000  0.41994000  0.92648000  1.0
  H  H85  1  0.58006000  0.30924000  0.57352000  1.0
  H  H86  1  0.30924000  0.58006000  0.07352000  1.0
  H  H87  1  0.41994000  0.69076000  0.42648000  1.0
  H  H88  1  0.66741000  0.53201000  0.07021000  1.0
  H  H89  1  0.46799000  0.33259000  0.42979000  1.0
  H  H90  1  0.33259000  0.46799000  0.92979000  1.0
  H  H91  1  0.53200000  0.66741000  0.57021000  1.0
  H  H92  1  0.59169000  0.48330000  0.06108000  1.0
  H  H93  1  0.51670000  0.40831000  0.43892000  1.0
  H  H94  1  0.40831000  0.51670000  0.93892000  1.0
  H  H95  1  0.48330000  0.59169000  0.56108000  1.0
  H  H96  1  0.58456000  0.59147000  0.02568000  1.0
  H  H97  1  0.40853000  0.41544000  0.47432000  1.0
  H  H98  1  0.41544000  0.40853000  0.97432000  1.0
  H  H99  1  0.59147000  0.58456000  0.52568000  1.0
  C  C100  1  0.90909000  0.35882000  0.89409000  1.0
  C  C101  1  0.64118000  0.09091000  0.60591000  1.0
  C  C102  1  0.09091000  0.64118000  0.10591000  1.0
  C  C103  1  0.35882000  0.90909000  0.39409000  1.0
  C  C104  1  0.88964000  0.30662000  0.86146000  1.0
  C  C105  1  0.69338000  0.11036000  0.63854000  1.0
  C  C106  1  0.11036000  0.69338000  0.13854000  1.0
  C  C107  1  0.30662000  0.88964000  0.36146000  1.0
  C  C108  1  0.90595000  0.32282000  0.81043000  1.0
  C  C109  1  0.67718000  0.09405000  0.68957000  1.0
  C  C110  1  0.09405000  0.67718000  0.18957000  1.0
  C  C111  1  0.32282000  0.90595000  0.31043000  1.0
  C  C112  1  0.88222000  0.27952000  0.77988000  1.0
  C  C113  1  0.72048000  0.11778000  0.72012000  1.0
  C  C114  1  0.11779000  0.72048000  0.22012000  1.0
  C  C115  1  0.27952000  0.88221000  0.27988000  1.0
  C  C116  1  0.84137000  0.21879000  0.80036000  1.0
  C  C117  1  0.78121000  0.15863000  0.69964000  1.0
  C  C118  1  0.15863000  0.78121000  0.19964000  1.0
  C  C119  1  0.21879000  0.84137000  0.30036000  1.0
  C  C120  1  0.82710000  0.20060000  0.85133000  1.0
  C  C121  1  0.79940000  0.17290000  0.64867000  1.0
  C  C122  1  0.17290000  0.79940000  0.14867000  1.0
  C  C123  1  0.20060000  0.82710000  0.35133000  1.0
  C  C124  1  0.85128000  0.24425000  0.88170000  1.0
  C  C125  1  0.75575000  0.14872000  0.61830000  1.0
  C  C126  1  0.14872000  0.75575000  0.11830000  1.0
  C  C127  1  0.24425000  0.85128000  0.38170000  1.0
  C  C128  1  0.91628000  0.43005000  0.07900000  1.0
  C  C129  1  0.56995000  0.08372000  0.42100000  1.0
  C  C130  1  0.08372000  0.56995000  0.92100000  1.0
  C  C131  1  0.43005000  0.91628000  0.57900000  1.0
  C  C132  1  0.87799000  0.38699000  0.12375000  1.0
  C  C133  1  0.61301000  0.12201000  0.37625000  1.0
  C  C134  1  0.12201000  0.61301000  0.87625000  1.0
  C  C135  1  0.38699000  0.87799000  0.62375000  1.0
  C  C136  1  0.83583000  0.32934000  0.11962000  1.0
  C  C137  1  0.67066000  0.16417000  0.38038000  1.0
  C  C138  1  0.16417000  0.67066000  0.88038000  1.0
  C  C139  1  0.32934000  0.83583000  0.61962000  1.0
  C  C140  1  0.80019000  0.29008000  0.16107000  1.0
  C  C141  1  0.70992000  0.19981000  0.33893000  1.0
  C  C142  1  0.19981000  0.70992000  0.83893000  1.0
  C  C143  1  0.29008000  0.80019000  0.66107000  1.0
  C  C144  1  0.80660000  0.30815000  0.20760000  1.0
  C  C145  1  0.69185000  0.19340000  0.29239000  1.0
  C  C146  1  0.19340000  0.69185000  0.79239000  1.0
  C  C147  1  0.30814000  0.80660000  0.70761000  1.0
  C  C148  1  0.85015000  0.36447000  0.21177000  1.0
  C  C149  1  0.63553000  0.14985000  0.28823000  1.0
  C  C150  1  0.14985000  0.63553000  0.78823000  1.0
  C  C151  1  0.36447000  0.85015000  0.71177000  1.0
  C  C152  1  0.88536000  0.40382000  0.17007000  1.0
  C  C153  1  0.59618000  0.11464000  0.32993000  1.0
  C  C154  1  0.11464000  0.59617000  0.82993000  1.0
  C  C155  1  0.40382000  0.88536000  0.67007000  1.0
  C  C156  1  0.87623000  0.66881000  0.01873000  1.0
  C  C157  1  0.33119000  0.12377000  0.48127000  1.0
  C  C158  1  0.12377000  0.33119000  0.98127000  1.0
  C  C159  1  0.66881000  0.87623000  0.51873000  1.0
  C  C160  1  0.78041000  0.74599000  0.01275000  1.0
  C  C161  1  0.25401000  0.21959000  0.48726000  1.0
  C  C162  1  0.21959000  0.25401000  0.98726000  1.0
  C  C163  1  0.74599000  0.78041000  0.51274000  1.0
  C  C164  1  0.75045000  0.82900000  0.03446000  1.0
  C  C165  1  0.17100000  0.24955000  0.46554000  1.0
  C  C166  1  0.24955000  0.17100000  0.96554000  1.0
  C  C167  1  0.82900000  0.75045000  0.53446000  1.0
  C  C168  1  0.66229000  0.90194000  0.02869000  1.0
  C  C169  1  0.09806000  0.33771000  0.47131000  1.0
  C  C170  1  0.33771000  0.09806000  0.97131000  1.0
  C  C171  1  0.90194000  0.66229000  0.52869000  1.0
  C  C172  1  0.60228000  0.89216000  0.00113000  1.0
  C  C173  1  0.10784000  0.39772000  0.49887000  1.0
  C  C174  1  0.39772000  0.10784000  0.99887000  1.0
  C  C175  1  0.89216000  0.60228000  0.50113000  1.0
  C  C176  1  0.63162000  0.80863000  0.98035000  1.0
  C  C177  1  0.19138000  0.36838000  0.51965000  1.0
  C  C178  1  0.36838000  0.19138000  0.01965000  1.0
  C  C179  1  0.80862000  0.63162000  0.48035000  1.0
  C  C180  1  0.72036000  0.73608000  0.98578000  1.0
  C  C181  1  0.26392000  0.27964000  0.51422000  1.0
  C  C182  1  0.27964000  0.26392000  0.01422000  1.0
  C  C183  1  0.73608000  0.72036000  0.48578000  1.0
  C  C184  1  0.69281000  0.71105000  0.85294000  1.0
  C  C185  1  0.28895000  0.30719000  0.64706000  1.0
  C  C186  1  0.30719000  0.28895000  0.14706000  1.0
  C  C187  1  0.71105000  0.69281000  0.35294000  1.0
  C  C188  1  0.85758000  0.60977000  0.80084000  1.0
  C  C189  1  0.39023000  0.14242000  0.69916000  1.0
  C  C190  1  0.14242000  0.39023000  0.19916000  1.0
  C  C191  1  0.60977000  0.85758000  0.30084000  1.0
  C  C192  1  0.64470000  0.45723000  0.95722000  1.0
  C  C193  1  0.54277000  0.35530000  0.54278000  1.0
  C  C194  1  0.35530000  0.54277000  0.04278000  1.0
  C  C195  1  0.45723000  0.64470000  0.45722000  1.0
  C  C196  1  0.63079000  0.52305000  0.04325000  1.0
  C  C197  1  0.47695000  0.36921000  0.45675000  1.0
  C  C198  1  0.36921000  0.47695000  0.95675000  1.0
  C  C199  1  0.52305000  0.63079000  0.54325000  1.0
  S  S200  1  0.79302000  0.59826000  0.85902000  1.0
  S  S201  1  0.40174000  0.20698000  0.64098000  1.0
  S  S202  1  0.20698000  0.40174000  0.14098000  1.0
  S  S203  1  0.59826000  0.79302000  0.35902000  1.0
  S  S204  1  0.72070000  0.45589000  0.99834000  1.0
  S  S205  1  0.54411000  0.27930000  0.50166000  1.0
  S  S206  1  0.27930000  0.54411000  0.00166000  1.0
  S  S207  1  0.45589000  0.72070000  0.49834000  1.0
  N  N208  1  0.80775000  0.17683000  0.77297000  1.0
  N  N209  1  0.82317000  0.19225000  0.72703000  1.0
  N  N210  1  0.19225000  0.82317000  0.22703000  1.0
  N  N211  1  0.17684000  0.80775000  0.27297000  1.0
  N  N212  1  0.77178000  0.27324000  0.25222000  1.0
  N  N213  1  0.72676000  0.22822000  0.24778000  1.0
  N  N214  1  0.22822000  0.72676000  0.74778000  1.0
  N  N215  1  0.27324000  0.77178000  0.75222000  1.0
  N  N216  1  0.51167000  0.96117000  0.99211000  1.0
  N  N217  1  0.03883000  0.48833000  0.50789000  1.0
  N  N218  1  0.48833000  0.03883000  0.00789000  1.0
  N  N219  1  0.96117000  0.51167000  0.49211000  1.0
  O  O220  1  0.94395000  0.41574000  0.87502000  1.0
  O  O221  1  0.58426000  0.05605000  0.62498000  1.0
  O  O222  1  0.05605000  0.58427000  0.12498000  1.0
  O  O223  1  0.41574000  0.94395000  0.37502000  1.0
  O  O224  1  0.88723000  0.34800000  0.94004000  1.0
  O  O225  1  0.65200000  0.11277000  0.55996000  1.0
  O  O226  1  0.11277000  0.65200000  0.05996000  1.0
  O  O227  1  0.34800000  0.88723000  0.44004000  1.0
  O  O228  1  0.90477000  0.41593000  0.03761000  1.0
  O  O229  1  0.58407000  0.09523000  0.46239000  1.0
  O  O230  1  0.09523000  0.58407000  0.96239000  1.0
  O  O231  1  0.41593000  0.90477000  0.53761000  1.0
  O  O232  1  0.95675000  0.47771000  0.08624000  1.0
  O  O233  1  0.52229000  0.04325000  0.41376000  1.0
  O  O234  1  0.04325000  0.52229000  0.91376000  1.0
  O  O235  1  0.47771000  0.95675000  0.58624000  1.0
  O  O236  1  0.90519000  0.59587000  0.99633000  1.0
  O  O237  1  0.40413000  0.09481000  0.50367000  1.0
  O  O238  1  0.09481000  0.40413000  0.00367000  1.0
  O  O239  1  0.59587000  0.90519000  0.49633000  1.0
  O  O240  1  0.92674000  0.67713000  0.04597000  1.0
  O  O241  1  0.32286000  0.07326000  0.45403000  1.0
  O  O242  1  0.07326000  0.32286000  0.95403000  1.0
  O  O243  1  0.67714000  0.92674000  0.54597000  1.0
  O  O244  1  0.84526000  0.60673000  0.89676000  1.0
  O  O245  1  0.39327000  0.15474000  0.60324000  1.0
  O  O246  1  0.15474000  0.39327000  0.10324000  1.0
  O  O247  1  0.60673000  0.84526000  0.39676000  1.0
  O  O248  1  0.75960000  0.52321000  0.97162000  1.0
  O  O249  1  0.47679000  0.24040000  0.52838000  1.0
  O  O250  1  0.24040000  0.47679000  0.02838000  1.0
  O  O251  1  0.52321000  0.75960000  0.47162000  1.0
