# generated using pymatgen
data_ZnH10C16(NO)4
_symmetry_space_group_name_H-M   'P 1'
_cell_length_a   14.53050000
_cell_length_b   14.52990000
_cell_length_c   14.53000000
_cell_angle_alpha   107.37000000
_cell_angle_beta   107.37200000
_cell_angle_gamma   107.37100000
_symmetry_Int_Tables_number   1
_chemical_formula_structural   ZnH10C16(NO)4
_chemical_formula_sum   'Zn6 H60 C96 N24 O24'
_cell_volume   2528.48471120
_cell_formula_units_Z   6
loop_
 _symmetry_equiv_pos_site_id
 _symmetry_equiv_pos_as_xyz
  1  'x, y, z'
loop_
 _atom_site_type_symbol
 _atom_site_label
 _atom_site_symmetry_multiplicity
 _atom_site_fract_x
 _atom_site_fract_y
 _atom_site_fract_z
 _atom_site_occupancy
  Zn  Zn0  1  0.26579000  0.73174000  0.00515000  1.0
  Zn  Zn1  1  0.73175000  0.00514000  0.26579000  1.0
  Zn  Zn2  1  0.00514000  0.26579000  0.73175000  1.0
  Zn  Zn3  1  0.73420000  0.26825000  0.99484000  1.0
  Zn  Zn4  1  0.26825000  0.99486000  0.73422000  1.0
  Zn  Zn5  1  0.99486000  0.73421000  0.26825000  1.0
  H  H6  1  0.49658000  0.91649000  0.09602000  1.0
  H  H7  1  0.91650000  0.09602000  0.49659000  1.0
  H  H8  1  0.09603000  0.49659000  0.91650000  1.0
  H  H9  1  0.50342000  0.08351000  0.90399000  1.0
  H  H10  1  0.08350000  0.90399000  0.50340000  1.0
  H  H11  1  0.90398000  0.50340000  0.08349000  1.0
  H  H12  1  0.30728000  0.61477000  0.16863000  1.0
  H  H13  1  0.61477000  0.16860000  0.30726000  1.0
  H  H14  1  0.16859000  0.30726000  0.61477000  1.0
  H  H15  1  0.69271000  0.38523000  0.83137000  1.0
  H  H16  1  0.38522000  0.83141000  0.69274000  1.0
  H  H17  1  0.83140000  0.69273000  0.38523000  1.0
  H  H18  1  0.41265000  0.58080000  0.31441000  1.0
  H  H19  1  0.58081000  0.31439000  0.41262000  1.0
  H  H20  1  0.31438000  0.41261000  0.58081000  1.0
  H  H21  1  0.58734000  0.41920000  0.68559000  1.0
  H  H22  1  0.41918000  0.68561000  0.58738000  1.0
  H  H23  1  0.68561000  0.58737000  0.41919000  1.0
  H  H24  1  0.60348000  0.69582000  0.42576000  1.0
  H  H25  1  0.69583000  0.42575000  0.60346000  1.0
  H  H26  1  0.42575000  0.60345000  0.69583000  1.0
  H  H27  1  0.39651000  0.30418000  0.57424000  1.0
  H  H28  1  0.30417000  0.57425000  0.39655000  1.0
  H  H29  1  0.57424000  0.39654000  0.30416000  1.0
  H  H30  1  0.70044000  0.84821000  0.39401000  1.0
  H  H31  1  0.84820000  0.39400000  0.70043000  1.0
  H  H32  1  0.39400000  0.70042000  0.84821000  1.0
  H  H33  1  0.29955000  0.15179000  0.60600000  1.0
  H  H34  1  0.15179000  0.60600000  0.29958000  1.0
  H  H35  1  0.60599000  0.29957000  0.15178000  1.0
  H  H36  1  0.23477000  0.77650000  0.78357000  1.0
  H  H37  1  0.77650000  0.78356000  0.23476000  1.0
  H  H38  1  0.78356000  0.23476000  0.77649000  1.0
  H  H39  1  0.76523000  0.22351000  0.21643000  1.0
  H  H40  1  0.22350000  0.21644000  0.76524000  1.0
  H  H41  1  0.21644000  0.76524000  0.22351000  1.0
  H  H42  1  0.38603000  0.17573000  0.96547000  1.0
  H  H43  1  0.17571000  0.96545000  0.38601000  1.0
  H  H44  1  0.96544000  0.38601000  0.17572000  1.0
  H  H45  1  0.61399000  0.82428000  0.03455000  1.0
  H  H46  1  0.82428000  0.03454000  0.61399000  1.0
  H  H47  1  0.03456000  0.61399000  0.82429000  1.0
  H  H48  1  0.35859000  0.96089000  0.17902000  1.0
  H  H49  1  0.96090000  0.17901000  0.35858000  1.0
  H  H50  1  0.17900000  0.35859000  0.96091000  1.0
  H  H51  1  0.64140000  0.03910000  0.82099000  1.0
  H  H52  1  0.03911000  0.82099000  0.64141000  1.0
  H  H53  1  0.82100000  0.64141000  0.03910000  1.0
  H  H54  1  0.44082000  0.26376000  0.16060000  1.0
  H  H55  1  0.26375000  0.16058000  0.44081000  1.0
  H  H56  1  0.16056000  0.44082000  0.26376000  1.0
  H  H57  1  0.55919000  0.73624000  0.83942000  1.0
  H  H58  1  0.73626000  0.83942000  0.55918000  1.0
  H  H59  1  0.83944000  0.55919000  0.73625000  1.0
  H  H60  1  0.42739000  0.15757000  0.26594000  1.0
  H  H61  1  0.15757000  0.26593000  0.42737000  1.0
  H  H62  1  0.26592000  0.42739000  0.15758000  1.0
  H  H63  1  0.57261000  0.84242000  0.73407000  1.0
  H  H64  1  0.84243000  0.73407000  0.57261000  1.0
  H  H65  1  0.73408000  0.57261000  0.84242000  1.0
  C  C66  1  0.49805000  0.87091000  0.14299000  1.0
  C  C67  1  0.87092000  0.14299000  0.49805000  1.0
  C  C68  1  0.14299000  0.49805000  0.87092000  1.0
  C  C69  1  0.50195000  0.12909000  0.85701000  1.0
  C  C70  1  0.12908000  0.85702000  0.50195000  1.0
  C  C71  1  0.85701000  0.50195000  0.12908000  1.0
  C  C72  1  0.44574000  0.75220000  0.20070000  1.0
  C  C73  1  0.75221000  0.20070000  0.44572000  1.0
  C  C74  1  0.20069000  0.44572000  0.75221000  1.0
  C  C75  1  0.55426000  0.24779000  0.79929000  1.0
  C  C76  1  0.24779000  0.79931000  0.55428000  1.0
  C  C77  1  0.79931000  0.55427000  0.24779000  1.0
  C  C78  1  0.39178000  0.66645000  0.21808000  1.0
  C  C79  1  0.66645000  0.21807000  0.39176000  1.0
  C  C80  1  0.21806000  0.39175000  0.66645000  1.0
  C  C81  1  0.60822000  0.33355000  0.78191000  1.0
  C  C82  1  0.33354000  0.78194000  0.60825000  1.0
  C  C83  1  0.78194000  0.60824000  0.33354000  1.0
  C  C84  1  0.45116000  0.64815000  0.29968000  1.0
  C  C85  1  0.64815000  0.29966000  0.45114000  1.0
  C  C86  1  0.29966000  0.45113000  0.64816000  1.0
  C  C87  1  0.54883000  0.35184000  0.70031000  1.0
  C  C88  1  0.35184000  0.70033000  0.54887000  1.0
  C  C89  1  0.70034000  0.54886000  0.35184000  1.0
  C  C90  1  0.56056000  0.71371000  0.36304000  1.0
  C  C91  1  0.71372000  0.36303000  0.56054000  1.0
  C  C92  1  0.36303000  0.56053000  0.71372000  1.0
  C  C93  1  0.43944000  0.28628000  0.63696000  1.0
  C  C94  1  0.28628000  0.63697000  0.43947000  1.0
  C  C95  1  0.63697000  0.43946000  0.28627000  1.0
  C  C96  1  0.55668000  0.81741000  0.26352000  1.0
  C  C97  1  0.81741000  0.26351000  0.55667000  1.0
  C  C98  1  0.26351000  0.55667000  0.81742000  1.0
  C  C99  1  0.44332000  0.18258000  0.73648000  1.0
  C  C100  1  0.18258000  0.73650000  0.44333000  1.0
  C  C101  1  0.73649000  0.44333000  0.18258000  1.0
  C  C102  1  0.61525000  0.79902000  0.34608000  1.0
  C  C103  1  0.79902000  0.34607000  0.61524000  1.0
  C  C104  1  0.34607000  0.61523000  0.79903000  1.0
  C  C105  1  0.38474000  0.20097000  0.65392000  1.0
  C  C106  1  0.20097000  0.65393000  0.38477000  1.0
  C  C107  1  0.65392000  0.38476000  0.20096000  1.0
  C  C108  1  0.26945000  0.84948000  0.85569000  1.0
  C  C109  1  0.84948000  0.85568000  0.26944000  1.0
  C  C110  1  0.85568000  0.26945000  0.84947000  1.0
  C  C111  1  0.73055000  0.15052000  0.14431000  1.0
  C  C112  1  0.15052000  0.14432000  0.73056000  1.0
  C  C113  1  0.14432000  0.73055000  0.15053000  1.0
  C  C114  1  0.33880000  0.01770000  0.96213000  1.0
  C  C115  1  0.01769000  0.96212000  0.33878000  1.0
  C  C116  1  0.96211000  0.33879000  0.01769000  1.0
  C  C117  1  0.66120000  0.98231000  0.03788000  1.0
  C  C118  1  0.98231000  0.03788000  0.66121000  1.0
  C  C119  1  0.03788000  0.66121000  0.98231000  1.0
  C  C120  1  0.38037000  0.12902000  0.01142000  1.0
  C  C121  1  0.12901000  0.01141000  0.38035000  1.0
  C  C122  1  0.01139000  0.38036000  0.12902000  1.0
  C  C123  1  0.61964000  0.87098000  0.98859000  1.0
  C  C124  1  0.87098000  0.98859000  0.61965000  1.0
  C  C125  1  0.98860000  0.61964000  0.87098000  1.0
  C  C126  1  0.33174000  0.95726000  0.02255000  1.0
  C  C127  1  0.95726000  0.02254000  0.33174000  1.0
  C  C128  1  0.02254000  0.33174000  0.95726000  1.0
  C  C129  1  0.66826000  0.04274000  0.97746000  1.0
  C  C130  1  0.04274000  0.97746000  0.66827000  1.0
  C  C131  1  0.97747000  0.66826000  0.04274000  1.0
  C  C132  1  0.36481000  0.00708000  0.13268000  1.0
  C  C133  1  0.00708000  0.13268000  0.36480000  1.0
  C  C134  1  0.13267000  0.36480000  0.00708000  1.0
  C  C135  1  0.63519000  0.99292000  0.86732000  1.0
  C  C136  1  0.99293000  0.86732000  0.63519000  1.0
  C  C137  1  0.86733000  0.63519000  0.99292000  1.0
  C  C138  1  0.41131000  0.17754000  0.12086000  1.0
  C  C139  1  0.17753000  0.12085000  0.41128000  1.0
  C  C140  1  0.12083000  0.41130000  0.17753000  1.0
  C  C141  1  0.58870000  0.82246000  0.87915000  1.0
  C  C142  1  0.82247000  0.87915000  0.58870000  1.0
  C  C143  1  0.87916000  0.58870000  0.82247000  1.0
  C  C144  1  0.40357000  0.11745000  0.18066000  1.0
  C  C145  1  0.11744000  0.18065000  0.40355000  1.0
  C  C146  1  0.18063000  0.40356000  0.11745000  1.0
  C  C147  1  0.59643000  0.88255000  0.81935000  1.0
  C  C148  1  0.88256000  0.81935000  0.59644000  1.0
  C  C149  1  0.81937000  0.59644000  0.88256000  1.0
  C  C150  1  0.60998000  0.00455000  0.59031000  1.0
  C  C151  1  0.00450000  0.59029000  0.60997000  1.0
  C  C152  1  0.59034000  0.60999000  0.00453000  1.0
  C  C153  1  0.39003000  0.99551000  0.40972000  1.0
  C  C154  1  0.99552000  0.40970000  0.39004000  1.0
  C  C155  1  0.40969000  0.39002000  0.99546000  1.0
  C  C156  1  0.88532000  0.01412000  0.82827000  1.0
  C  C157  1  0.01411000  0.82826000  0.88531000  1.0
  C  C158  1  0.82825000  0.88531000  0.01412000  1.0
  C  C159  1  0.11467000  0.98587000  0.17172000  1.0
  C  C160  1  0.98587000  0.17173000  0.11467000  1.0
  C  C161  1  0.17175000  0.11468000  0.98588000  1.0
  N  N162  1  0.41052000  0.78885000  0.12490000  1.0
  N  N163  1  0.78887000  0.12490000  0.41052000  1.0
  N  N164  1  0.12489000  0.41052000  0.78887000  1.0
  N  N165  1  0.58948000  0.21114000  0.87509000  1.0
  N  N166  1  0.21113000  0.87511000  0.58948000  1.0
  N  N167  1  0.87511000  0.58948000  0.21113000  1.0
  N  N168  1  0.58773000  0.89207000  0.22434000  1.0
  N  N169  1  0.89208000  0.22434000  0.58773000  1.0
  N  N170  1  0.22434000  0.58773000  0.89208000  1.0
  N  N171  1  0.41227000  0.10792000  0.77566000  1.0
  N  N172  1  0.10792000  0.77567000  0.41227000  1.0
  N  N173  1  0.77566000  0.41227000  0.10791000  1.0
  N  N174  1  0.28773000  0.84996000  0.95279000  1.0
  N  N175  1  0.84995000  0.95278000  0.28773000  1.0
  N  N176  1  0.95278000  0.28773000  0.84995000  1.0
  N  N177  1  0.71226000  0.15004000  0.04721000  1.0
  N  N178  1  0.15004000  0.04722000  0.71228000  1.0
  N  N179  1  0.04722000  0.71227000  0.15005000  1.0
  N  N180  1  0.29730000  0.94700000  0.85554000  1.0
  N  N181  1  0.94699000  0.85553000  0.29728000  1.0
  N  N182  1  0.85552000  0.29729000  0.94699000  1.0
  N  N183  1  0.70271000  0.05301000  0.14447000  1.0
  N  N184  1  0.05301000  0.14448000  0.70271000  1.0
  N  N185  1  0.14448000  0.70271000  0.05301000  1.0
  O  O186  1  0.67299000  0.08475000  0.60145000  1.0
  O  O187  1  0.08474000  0.60144000  0.67294000  1.0
  O  O188  1  0.60142000  0.67292000  0.08475000  1.0
  O  O189  1  0.32704000  0.91526000  0.39852000  1.0
  O  O190  1  0.91527000  0.39854000  0.32707000  1.0
  O  O191  1  0.39860000  0.32707000  0.91524000  1.0
  O  O192  1  0.54665000  0.92453000  0.57896000  1.0
  O  O193  1  0.92444000  0.57892000  0.54669000  1.0
  O  O194  1  0.57905000  0.54674000  0.92449000  1.0
  O  O195  1  0.45335000  0.07557000  0.42112000  1.0
  O  O196  1  0.07558000  0.42107000  0.45332000  1.0
  O  O197  1  0.42098000  0.45327000  0.07549000  1.0
  O  O198  1  0.95030000  0.98116000  0.84250000  1.0
  O  O199  1  0.98114000  0.84249000  0.95028000  1.0
  O  O200  1  0.84249000  0.95029000  0.98116000  1.0
  O  O201  1  0.04969000  0.01883000  0.15748000  1.0
  O  O202  1  0.01885000  0.15750000  0.04970000  1.0
  O  O203  1  0.15751000  0.04970000  0.01883000  1.0
  O  O204  1  0.82040000  0.04738000  0.81463000  1.0
  O  O205  1  0.04739000  0.81463000  0.82040000  1.0
  O  O206  1  0.81462000  0.82040000  0.04739000  1.0
  O  O207  1  0.17958000  0.95261000  0.18536000  1.0
  O  O208  1  0.95259000  0.18535000  0.17957000  1.0
  O  O209  1  0.18537000  0.17960000  0.95262000  1.0
