# generated using pymatgen
data_Zn4H70C93(N8O)2
_symmetry_space_group_name_H-M   'P 1'
_cell_length_a   18.89790000
_cell_length_b   19.02290000
_cell_length_c   20.41680000
_cell_angle_alpha   106.20100000
_cell_angle_beta   107.13700000
_cell_angle_gamma   111.81100000
_symmetry_Int_Tables_number   1
_chemical_formula_structural   Zn4H70C93(N8O)2
_chemical_formula_sum   'Zn4 H70 C93 N16 O2'
_cell_volume   5854.27053619
_cell_formula_units_Z   1
loop_
 _symmetry_equiv_pos_site_id
 _symmetry_equiv_pos_as_xyz
  1  'x, y, z'
loop_
 _atom_site_type_symbol
 _atom_site_label
 _atom_site_symmetry_multiplicity
 _atom_site_fract_x
 _atom_site_fract_y
 _atom_site_fract_z
 _atom_site_occupancy
  Zn  Zn0  1  0.89340000  0.89951000  0.51355000  1.0
  Zn  Zn1  1  0.09938000  0.09768000  0.49210000  1.0
  Zn  Zn2  1  0.10094000  0.00032000  0.60278000  1.0
  Zn  Zn3  1  0.89170000  0.99200000  0.40163000  1.0
  H  H4  1  0.85523000  0.02540000  0.62049000  1.0
  H  H5  1  0.44992000  0.96737000  0.27918000  1.0
  H  H6  1  0.56511000  0.93730000  0.32998000  1.0
  H  H7  1  0.53376000  0.76724000  0.43522000  1.0
  H  H8  1  0.40338000  0.70709000  0.45270000  1.0
  H  H9  1  0.27477000  0.71050000  0.45445000  1.0
  H  H10  1  0.86021000  0.61478000  0.52353000  1.0
  H  H11  1  0.10235000  0.75022000  0.72333000  1.0
  H  H12  1  0.16253000  0.67151000  0.77688000  1.0
  H  H13  1  0.15661000  0.53639000  0.76481000  1.0
  H  H14  1  0.08901000  0.38245000  0.68968000  1.0
  H  H15  1  0.12711000  0.98299000  0.36517000  1.0
  H  H16  1  0.30142000  0.12883000  0.73997000  1.0
  H  H17  1  0.85102000  0.24944000  0.48689000  1.0
  H  H18  1  0.77782000  0.46009000  0.46596000  1.0
  H  H19  1  0.89821000  0.75546000  0.17893000  1.0
  H  H20  1  0.45896000  0.20260000  0.78478000  1.0
  H  H21  1  0.41785000  0.39034000  0.72786000  1.0
  H  H22  1  0.68407000  0.54772000  0.94738000  1.0
  H  H23  1  0.70088000  0.47262000  0.14039000  1.0
  H  H24  1  0.59708000  0.31355000  0.89321000  1.0
  H  H25  1  0.68201000  0.93680000  0.32878000  1.0
  H  H26  1  0.13809000  0.17109000  0.36502000  1.0
  H  H27  1  0.65984000  0.41524000  0.00968000  1.0
  H  H28  1  0.81945000  0.63661000  0.05079000  1.0
  H  H29  1  0.55735000  0.50157000  0.83540000  1.0
  H  H30  1  0.12269000  0.24284000  0.84964000  1.0
  H  H31  1  0.87449000  0.07144000  0.14682000  1.0
  H  H32  1  0.13724000  0.25712000  0.30175000  1.0
  H  H33  1  0.09713000  0.27779000  0.07151000  1.0
  H  H34  1  0.88561000  0.12200000  0.05163000  1.0
  H  H35  1  0.84921000  0.09105000  0.72707000  1.0
  H  H36  1  0.30220000  0.26007000  0.59788000  1.0
  H  H37  1  0.85347000  0.73894000  0.55832000  1.0
  H  H38  1  0.90184000  0.17505000  0.97919000  1.0
  H  H39  1  0.11253000  0.28294000  0.97000000  1.0
  H  H40  1  0.14923000  0.30620000  0.20416000  1.0
  H  H41  1  0.84575000  0.12093000  0.49603000  1.0
  H  H42  1  0.13135000  0.16155000  0.74239000  1.0
  H  H43  1  0.87878000  0.72587000  0.40119000  1.0
  H  H44  1  0.17979000  0.89348000  0.73764000  1.0
  H  H45  1  0.16584000  0.81837000  0.65368000  1.0
  H  H46  1  0.19315000  0.92270000  0.66489000  1.0
  H  H47  1  0.82298000  0.08545000  0.23664000  1.0
  H  H48  1  0.88783000  0.86058000  0.26131000  1.0
  H  H49  1  0.80972000  0.98416000  0.19104000  1.0
  H  H50  1  0.80076000  0.01332000  0.27735000  1.0
  H  H51  1  0.14765000  0.35634000  0.60969000  1.0
  H  H52  1  0.18032000  0.30602000  0.66427000  1.0
  H  H53  1  0.17916000  0.28286000  0.57363000  1.0
  H  H54  1  0.70049000  0.31438000  0.40277000  1.0
  H  H55  1  0.76585000  0.26878000  0.39293000  1.0
  H  H56  1  0.72067000  0.25888000  0.45671000  1.0
  H  H57  1  0.73144000  0.46581000  0.25262000  1.0
  H  H58  1  0.65411000  0.49870000  0.22862000  1.0
  H  H59  1  0.13113000  0.85401000  0.50993000  1.0
  H  H60  1  0.69835000  0.57737000  0.36815000  1.0
  H  H61  1  0.66536000  0.46879000  0.34266000  1.0
  H  H62  1  0.77592000  0.54484000  0.39182000  1.0
  H  H63  1  0.75880000  0.01247000  0.75806000  1.0
  H  H64  1  0.73473000  0.09102000  0.74356000  1.0
  H  H65  1  0.66802000  0.08757000  0.83386000  1.0
  H  H66  1  0.61802000  0.98602000  0.75675000  1.0
  H  H67  1  0.69237000  0.00938000  0.84800000  1.0
  H  H68  1  0.66393000  0.84962000  0.54203000  1.0
  H  H69  1  0.65594000  0.75671000  0.48167000  1.0
  H  H70  1  0.18621000  0.78059000  0.44337000  1.0
  H  H71  1  0.75745000  0.84224000  0.55308000  1.0
  H  H72  1  0.21619000  0.94451000  0.33191000  1.0
  H  H73  1  0.31961000  0.96889000  0.27889000  1.0
  C  C74  1  0.92347000  0.05052000  0.64108000  1.0
  C  C75  1  0.92157000  0.78078000  0.58205000  1.0
  C  C76  1  0.88982000  0.83947000  0.30573000  1.0
  C  C77  1  0.05504000  0.22764000  0.56851000  1.0
  C  C78  1  0.12472000  0.89222000  0.48021000  1.0
  C  C79  1  0.87371000  0.75984000  0.30285000  1.0
  C  C80  1  0.14539000  0.89896000  0.42058000  1.0
  C  C81  1  0.98969000  0.76951000  0.61775000  1.0
  C  C82  1  0.00100000  0.12437000  0.28736000  1.0
  C  C83  1  0.21728000  0.81154000  0.41416000  1.0
  C  C84  1  0.19566000  0.86750000  0.39237000  1.0
  C  C85  1  0.97998000  0.23162000  0.56145000  1.0
  C  C86  1  0.23338000  0.90249000  0.35106000  1.0
  C  C87  1  0.29845000  0.89120000  0.33935000  1.0
  C  C88  1  0.32640000  0.84156000  0.36904000  1.0
  C  C89  1  0.28800000  0.14992000  0.69585000  1.0
  C  C90  1  0.28213000  0.79808000  0.40360000  1.0
  C  C91  1  0.34309000  0.93355000  0.30399000  1.0
  C  C92  1  0.41510000  0.93279000  0.30423000  1.0
  C  C93  1  0.44840000  0.88893000  0.33924000  1.0
  C  C94  1  0.40084000  0.84021000  0.36874000  1.0
  C  C95  1  0.43183000  0.79445000  0.40202000  1.0
  C  C96  1  0.34031000  0.22267000  0.69241000  1.0
  C  C97  1  0.38184000  0.74498000  0.43002000  1.0
  C  C98  1  0.31042000  0.74681000  0.43090000  1.0
  C  C99  1  0.52761000  0.89611000  0.34912000  1.0
  C  C100  1  0.56170000  0.85592000  0.38641000  1.0
  C  C101  1  0.69933000  0.91603000  0.37246000  1.0
  C  C102  1  0.51110000  0.80247000  0.40943000  1.0
  C  C103  1  0.91045000  0.61492000  0.56705000  1.0
  C  C104  1  0.98289000  0.69217000  0.62260000  1.0
  C  C105  1  0.04711000  0.69115000  0.67793000  1.0
  C  C106  1  0.04243000  0.61508000  0.67610000  1.0
  C  C107  1  0.64918000  0.87446000  0.40308000  1.0
  C  C108  1  0.97045000  0.53715000  0.61707000  1.0
  C  C109  1  0.90272000  0.53773000  0.56327000  1.0
  C  C110  1  0.10846000  0.61220000  0.73035000  1.0
  C  C111  1  0.10514000  0.53736000  0.72367000  1.0
  C  C112  1  0.03607000  0.45872000  0.66180000  1.0
  C  C113  1  0.28780000  0.21761000  0.62416000  1.0
  C  C114  1  0.96712000  0.45942000  0.60949000  1.0
  C  C115  1  0.89679000  0.38177000  0.54788000  1.0
  C  C116  1  0.82593000  0.38304000  0.49668000  1.0
  C  C117  1  0.83051000  0.45882000  0.50525000  1.0
  C  C118  1  0.88392000  0.77033000  0.37688000  1.0
  C  C119  1  0.03637000  0.38239000  0.64913000  1.0
  C  C120  1  0.97206000  0.30736000  0.58451000  1.0
  C  C121  1  0.90141000  0.30785000  0.53664000  1.0
  C  C122  1  0.84187000  0.68510000  0.23337000  1.0
  C  C123  1  0.85371000  0.69346000  0.17040000  1.0
  C  C124  1  0.80942000  0.62665000  0.09811000  1.0
  C  C125  1  0.70587000  0.86317000  0.45677000  1.0
  C  C126  1  0.75086000  0.54655000  0.08578000  1.0
  C  C127  1  0.74482000  0.53507000  0.14958000  1.0
  C  C128  1  0.78881000  0.60260000  0.22193000  1.0
  C  C129  1  0.12344000  0.95839000  0.40680000  1.0
  C  C130  1  0.55755000  0.33105000  0.85788000  1.0
  C  C131  1  0.47967000  0.26852000  0.79693000  1.0
  C  C132  1  0.45747000  0.37308000  0.76347000  1.0
  C  C133  1  0.53594000  0.43575000  0.82422000  1.0
  C  C134  1  0.58612000  0.41678000  0.87501000  1.0
  C  C135  1  0.69005000  0.47728000  0.01063000  1.0
  C  C136  1  0.65942000  0.48489000  0.94559000  1.0
  C  C137  1  0.91410000  0.14772000  0.51560000  1.0
  C  C138  1  0.42637000  0.28824000  0.74995000  1.0
  C  C139  1  0.98660000  0.15990000  0.77932000  1.0
  C  C140  1  0.06276000  0.84493000  0.63784000  1.0
  C  C141  1  0.06006000  0.21850000  0.84864000  1.0
  C  C142  1  0.05410000  0.24130000  0.91678000  1.0
  C  C143  1  0.97570000  0.20775000  0.91999000  1.0
  C  C144  1  0.90113000  0.15715000  0.84879000  1.0
  C  C145  1  0.90696000  0.13390000  0.78035000  1.0
  C  C146  1  0.94114000  0.15339000  0.10680000  1.0
  C  C147  1  0.93474000  0.12452000  0.16123000  1.0
  C  C148  1  0.08169000  0.22674000  0.24667000  1.0
  C  C149  1  0.06423000  0.12030000  0.70280000  1.0
  C  C150  1  0.08836000  0.25500000  0.19173000  1.0
  C  C151  1  0.92913000  0.07133000  0.29276000  1.0
  C  C152  1  0.01876000  0.21816000  0.11947000  1.0
  C  C153  1  0.96746000  0.21005000  0.98882000  1.0
  C  C154  1  0.03069000  0.24019000  0.05923000  1.0
  C  C155  1  0.00523000  0.15908000  0.23232000  1.0
  C  C156  1  0.99162000  0.11745000  0.71054000  1.0
  C  C157  1  0.15503000  0.87123000  0.67549000  1.0
  C  C158  1  0.83610000  0.03689000  0.24692000  1.0
  C  C159  1  0.14517000  0.29680000  0.60618000  1.0
  C  C160  1  0.74918000  0.30212000  0.43403000  1.0
  C  C161  1  0.71608000  0.51594000  0.27278000  1.0
  C  C162  1  0.07033000  0.13571000  0.34805000  1.0
  C  C163  1  0.71392000  0.52764000  0.34849000  1.0
  C  C164  1  0.74895000  0.06493000  0.78461000  1.0
  C  C165  1  0.67774000  0.03542000  0.80735000  1.0
  C  C166  1  0.69494000  0.82584000  0.51089000  1.0
  N  N167  1  0.95370000  0.01621000  0.59730000  1.0
  N  N168  1  0.21121000  0.10580000  0.63499000  1.0
  N  N169  1  0.77864000  0.92855000  0.40446000  1.0
  N  N170  1  0.21084000  0.14769000  0.59000000  1.0
  N  N171  1  0.78252000  0.89574000  0.45648000  1.0
  N  N172  1  0.94709000  0.09793000  0.49695000  1.0
  N  N173  1  0.04005000  0.05893000  0.63496000  1.0
  N  N174  1  0.90357000  0.84946000  0.41894000  1.0
  N  N175  1  0.09410000  0.98538000  0.45554000  1.0
  N  N176  1  0.03812000  0.89571000  0.61496000  1.0
  N  N177  1  0.95556000  0.05373000  0.35203000  1.0
  N  N178  1  0.04298000  0.09344000  0.38635000  1.0
  N  N179  1  0.95063000  0.85599000  0.58049000  1.0
  N  N180  1  0.90685000  0.89162000  0.37504000  1.0
  N  N181  1  0.09483000  0.94468000  0.50061000  1.0
  N  N182  1  0.03329000  0.14673000  0.52931000  1.0
  O  O183  1  0.78043000  0.59464000  0.28434000  1.0
  O  O184  1  0.82506000  0.12883000  0.85262000  1.0
