# generated using pymatgen
data_CdH14C8(NO3)2
_symmetry_space_group_name_H-M   'P 1'
_cell_length_a   8.08496000
_cell_length_b   10.50340000
_cell_length_c   15.07730000
_cell_angle_alpha   89.99970000
_cell_angle_beta   90.00000000
_cell_angle_gamma   90.00000000
_symmetry_Int_Tables_number   1
_chemical_formula_structural   CdH14C8(NO3)2
_chemical_formula_sum   'Cd4 H56 C32 N8 O24'
_cell_volume   1280.35781562
_cell_formula_units_Z   4
loop_
 _symmetry_equiv_pos_site_id
 _symmetry_equiv_pos_as_xyz
  1  'x, y, z'
loop_
 _atom_site_type_symbol
 _atom_site_label
 _atom_site_symmetry_multiplicity
 _atom_site_fract_x
 _atom_site_fract_y
 _atom_site_fract_z
 _atom_site_occupancy
  Cd  Cd0  1  0.16777000  0.25000000  0.50000000  1.0
  Cd  Cd1  1  0.33223000  0.75000000  0.00000000  1.0
  Cd  Cd2  1  0.83223000  0.75000000  0.50000000  1.0
  Cd  Cd3  1  0.66778000  0.25000000  0.00000000  1.0
  H  H4  1  0.47952000  0.12317000  0.41943000  1.0
  H  H5  1  0.02049000  0.62317000  0.08057000  1.0
  H  H6  1  0.47952000  0.37684000  0.58057000  1.0
  H  H7  1  0.02049000  0.87683000  0.91943000  1.0
  H  H8  1  0.52048000  0.87683000  0.58057000  1.0
  H  H9  1  0.97952000  0.37683000  0.91943000  1.0
  H  H10  1  0.52048000  0.62317000  0.41943000  1.0
  H  H11  1  0.97952000  0.12317000  0.08057000  1.0
  H  H12  1  0.69727000  0.04513000  0.35734000  1.0
  H  H13  1  0.80273000  0.54513000  0.14266000  1.0
  H  H14  1  0.69727000  0.45487000  0.64266000  1.0
  H  H15  1  0.80273000  0.95487000  0.85734000  1.0
  H  H16  1  0.30273000  0.95487000  0.64266000  1.0
  H  H17  1  0.19727000  0.45487000  0.85734000  1.0
  H  H18  1  0.30273000  0.54513000  0.35734000  1.0
  H  H19  1  0.19727000  0.04513000  0.14266000  1.0
  H  H20  1  0.85569000  0.16024000  0.33518000  1.0
  H  H21  1  0.64432000  0.66024000  0.16482000  1.0
  H  H22  1  0.85569000  0.33976000  0.66482000  1.0
  H  H23  1  0.64432000  0.83976000  0.83518000  1.0
  H  H24  1  0.14431000  0.83976000  0.66482000  1.0
  H  H25  1  0.35569000  0.33976000  0.83518000  1.0
  H  H26  1  0.14432000  0.66024000  0.33518000  1.0
  H  H27  1  0.35569000  0.16024000  0.16482000  1.0
  H  H28  1  0.72975000  0.10078000  0.24642000  1.0
  H  H29  1  0.77025000  0.60078000  0.25358000  1.0
  H  H30  1  0.72975000  0.39922000  0.75358000  1.0
  H  H31  1  0.77025000  0.89922000  0.74642000  1.0
  H  H32  1  0.27025000  0.89922000  0.75358000  1.0
  H  H33  1  0.22975000  0.39922000  0.74642000  1.0
  H  H34  1  0.27025000  0.60078000  0.24642000  1.0
  H  H35  1  0.22975000  0.10078000  0.25358000  1.0
  H  H36  1  0.53861000  0.41359000  0.29655000  1.0
  H  H37  1  0.96139000  0.91359000  0.20344000  1.0
  H  H38  1  0.53861000  0.08641000  0.70345000  1.0
  H  H39  1  0.96140000  0.58641000  0.79656000  1.0
  H  H40  1  0.46139000  0.58641000  0.70345000  1.0
  H  H41  1  0.03861000  0.08641000  0.79656000  1.0
  H  H42  1  0.46139000  0.91359000  0.29655000  1.0
  H  H43  1  0.03861000  0.41359000  0.20344000  1.0
  H  H44  1  0.65182000  0.33013000  0.21283000  1.0
  H  H45  1  0.84818000  0.83013000  0.28717000  1.0
  H  H46  1  0.65182000  0.16987000  0.78717000  1.0
  H  H47  1  0.84819000  0.66987000  0.71283000  1.0
  H  H48  1  0.34818000  0.66987000  0.78717000  1.0
  H  H49  1  0.15182000  0.16987000  0.71283000  1.0
  H  H50  1  0.34818000  0.83013000  0.21283000  1.0
  H  H51  1  0.15182000  0.33013000  0.28717000  1.0
  H  H52  1  0.75742000  0.39219000  0.30845000  1.0
  H  H53  1  0.74258000  0.89219000  0.19155000  1.0
  H  H54  1  0.75742000  0.10781000  0.69155000  1.0
  H  H55  1  0.74259000  0.60781000  0.80845000  1.0
  H  H56  1  0.24258000  0.60781000  0.69155000  1.0
  H  H57  1  0.25742000  0.10781000  0.80845000  1.0
  H  H58  1  0.24258000  0.89219000  0.30845000  1.0
  H  H59  1  0.25742000  0.39219000  0.19155000  1.0
  C  C60  1  0.48723000  0.21764000  0.38767000  1.0
  C  C61  1  0.01277000  0.71764000  0.11233000  1.0
  C  C62  1  0.48723000  0.28236000  0.61233000  1.0
  C  C63  1  0.01277000  0.78236000  0.88767000  1.0
  C  C64  1  0.51277000  0.78236000  0.61233000  1.0
  C  C65  1  0.98723000  0.28236000  0.88766000  1.0
  C  C66  1  0.51277000  0.71764000  0.38767000  1.0
  C  C67  1  0.98723000  0.21764000  0.11234000  1.0
  C  C68  1  0.04787000  0.98087000  0.45633000  1.0
  C  C69  1  0.45212000  0.48088000  0.04367000  1.0
  C  C70  1  0.04788000  0.51913000  0.54367000  1.0
  C  C71  1  0.45212000  0.01913000  0.95633000  1.0
  C  C72  1  0.95212000  0.01913000  0.54367000  1.0
  C  C73  1  0.54787000  0.51913000  0.95633000  1.0
  C  C74  1  0.95212000  0.48087000  0.45633000  1.0
  C  C75  1  0.54787000  0.98087000  0.04367000  1.0
  C  C76  1  0.73098000  0.12801000  0.31685000  1.0
  C  C77  1  0.76902000  0.62801000  0.18315000  1.0
  C  C78  1  0.73099000  0.37199000  0.68315000  1.0
  C  C79  1  0.76902000  0.87199000  0.81685000  1.0
  C  C80  1  0.26902000  0.87199000  0.68315000  1.0
  C  C81  1  0.23098000  0.37199000  0.81685000  1.0
  C  C82  1  0.26902000  0.62801000  0.31685000  1.0
  C  C83  1  0.23098000  0.12801000  0.18315000  1.0
  C  C84  1  0.64224000  0.34923000  0.28416000  1.0
  C  C85  1  0.85776000  0.84923000  0.21584000  1.0
  C  C86  1  0.64224000  0.15078000  0.71584000  1.0
  C  C87  1  0.85776000  0.65077000  0.78416000  1.0
  C  C88  1  0.35776000  0.65078000  0.71584000  1.0
  C  C89  1  0.14225000  0.15077000  0.78416000  1.0
  C  C90  1  0.35776000  0.84923000  0.28416000  1.0
  C  C91  1  0.14225000  0.34923000  0.21584000  1.0
  N  N92  1  0.61316000  0.23065000  0.33162000  1.0
  N  N93  1  0.88684000  0.73065000  0.16838000  1.0
  N  N94  1  0.61316000  0.26935000  0.66838000  1.0
  N  N95  1  0.88684000  0.76935000  0.83162000  1.0
  N  N96  1  0.38684000  0.76935000  0.66838000  1.0
  N  N97  1  0.11316000  0.26935000  0.83162000  1.0
  N  N98  1  0.38684000  0.73065000  0.33162000  1.0
  N  N99  1  0.11316000  0.23065000  0.16838000  1.0
  O  O100  1  0.14700000  0.06156000  0.42315000  1.0
  O  O101  1  0.35299000  0.56156000  0.07685000  1.0
  O  O102  1  0.14700000  0.43844000  0.57685000  1.0
  O  O103  1  0.35300000  0.93844000  0.92315000  1.0
  O  O104  1  0.85300000  0.93844000  0.57685000  1.0
  O  O105  1  0.64700000  0.43844000  0.92315000  1.0
  O  O106  1  0.85300000  0.56156000  0.42315000  1.0
  O  O107  1  0.64700000  0.06156000  0.07685000  1.0
  O  O108  1  0.02057000  0.87185000  0.42365000  1.0
  O  O109  1  0.47943000  0.37185000  0.07635000  1.0
  O  O110  1  0.02057000  0.62815000  0.57635000  1.0
  O  O111  1  0.47943000  0.12815000  0.92365000  1.0
  O  O112  1  0.97943000  0.12815000  0.57635000  1.0
  O  O113  1  0.52057000  0.62815000  0.92365000  1.0
  O  O114  1  0.97943000  0.37185000  0.42365000  1.0
  O  O115  1  0.52057000  0.87185000  0.07635000  1.0
  O  O116  1  0.38304000  0.30403000  0.40398000  1.0
  O  O117  1  0.11696000  0.80403000  0.09602000  1.0
  O  O118  1  0.38304000  0.19597000  0.59602000  1.0
  O  O119  1  0.11696000  0.69597000  0.90398000  1.0
  O  O120  1  0.61696000  0.69597000  0.59602000  1.0
  O  O121  1  0.88304000  0.19596000  0.90398000  1.0
  O  O122  1  0.61696000  0.80403000  0.40398000  1.0
  O  O123  1  0.88304000  0.30404000  0.09602000  1.0
