# generated using pymatgen
data_Zn2H12PdC14N2Cl2O11
_symmetry_space_group_name_H-M   'P 1'
_cell_length_a   12.90440000
_cell_length_b   15.04760000
_cell_length_c   22.81080000
_cell_angle_alpha   89.99990000
_cell_angle_beta   89.99940000
_cell_angle_gamma   90.00000000
_symmetry_Int_Tables_number   1
_chemical_formula_structural   Zn2H12PdC14N2Cl2O11
_chemical_formula_sum   'Zn8 H48 Pd4 C56 N8 Cl8 O44'
_cell_volume   4429.40683368
_cell_formula_units_Z   4
loop_
 _symmetry_equiv_pos_site_id
 _symmetry_equiv_pos_as_xyz
  1  'x, y, z'
loop_
 _atom_site_type_symbol
 _atom_site_label
 _atom_site_symmetry_multiplicity
 _atom_site_fract_x
 _atom_site_fract_y
 _atom_site_fract_z
 _atom_site_occupancy
  Zn  Zn0  1  0.75624000  0.55754000  0.01730000  1.0
  Zn  Zn1  1  0.25624000  0.05754000  0.48270000  1.0
  Zn  Zn2  1  0.74376000  0.55754000  0.51731000  1.0
  Zn  Zn3  1  0.24376000  0.05754000  0.98269000  1.0
  Zn  Zn4  1  0.16771000  0.18020000  0.09641000  1.0
  Zn  Zn5  1  0.66770000  0.68020000  0.40359000  1.0
  Zn  Zn6  1  0.33230000  0.18020000  0.59641000  1.0
  Zn  Zn7  1  0.83229000  0.68020000  0.90359000  1.0
  H  H8  1  0.51053000  0.35907000  0.49245000  1.0
  H  H9  1  0.01052000  0.85907000  0.00755000  1.0
  H  H10  1  0.98948000  0.35907000  0.99245000  1.0
  H  H11  1  0.48948000  0.85907000  0.50755000  1.0
  H  H12  1  0.37702000  0.21638000  0.34690000  1.0
  H  H13  1  0.87702000  0.71638000  0.15310000  1.0
  H  H14  1  0.12298000  0.21638000  0.84689000  1.0
  H  H15  1  0.62297000  0.71638000  0.65310000  1.0
  H  H16  1  0.54190000  0.44870000  0.31395000  1.0
  H  H17  1  0.04189000  0.94870000  0.18605000  1.0
  H  H18  1  0.95810000  0.44871000  0.81395000  1.0
  H  H19  1  0.45810000  0.94871000  0.68606000  1.0
  H  H20  1  0.38227000  0.19681000  0.13980000  1.0
  H  H21  1  0.88227000  0.69681000  0.36020000  1.0
  H  H22  1  0.11773000  0.19681000  0.63980000  1.0
  H  H23  1  0.61772000  0.69681000  0.86020000  1.0
  H  H24  1  0.51089000  0.30508000  0.98076000  1.0
  H  H25  1  0.01091000  0.80508000  0.51924000  1.0
  H  H26  1  0.98910000  0.30508000  0.48076000  1.0
  H  H27  1  0.48911000  0.80509000  0.01925000  1.0
  H  H28  1  0.58446000  0.41093000  0.15118000  1.0
  H  H29  1  0.08447000  0.91093000  0.34881000  1.0
  H  H30  1  0.91552000  0.41093000  0.65119000  1.0
  H  H31  1  0.41553000  0.91094000  0.84882000  1.0
  H  H32  1  0.21714000  0.36135000  0.07885000  1.0
  H  H33  1  0.71714000  0.86135000  0.42115000  1.0
  H  H34  1  0.28286000  0.36135000  0.57885000  1.0
  H  H35  1  0.78286000  0.86135000  0.92115000  1.0
  H  H36  1  0.23805000  0.33817000  0.14500000  1.0
  H  H37  1  0.73804000  0.83817000  0.35500000  1.0
  H  H38  1  0.26196000  0.33817000  0.64500000  1.0
  H  H39  1  0.76195000  0.83818000  0.85500000  1.0
  H  H40  1  0.16692000  0.17609000  0.21578000  1.0
  H  H41  1  0.66692000  0.67609000  0.28422000  1.0
  H  H42  1  0.33308000  0.17609000  0.71578000  1.0
  H  H43  1  0.83308000  0.67609000  0.78422000  1.0
  H  H44  1  0.28875000  0.16614000  0.20914000  1.0
  H  H45  1  0.78875000  0.66614000  0.29086000  1.0
  H  H46  1  0.21125000  0.16615000  0.70914000  1.0
  H  H47  1  0.71125000  0.66615000  0.79086000  1.0
  H  H48  1  0.97813000  0.25376000  0.12862000  1.0
  H  H49  1  0.47813000  0.75376000  0.37138000  1.0
  H  H50  1  0.52187000  0.25376000  0.62862000  1.0
  H  H51  1  0.02187000  0.75376000  0.87138000  1.0
  H  H52  1  0.98632000  0.15224000  0.14352000  1.0
  H  H53  1  0.48632000  0.65224000  0.35648000  1.0
  H  H54  1  0.51369000  0.15225000  0.64353000  1.0
  H  H55  1  0.01369000  0.65225000  0.85647000  1.0
  Pd  Pd56  1  0.45663000  0.31573000  0.23734000  1.0
  Pd  Pd57  1  0.95663000  0.81573000  0.26266000  1.0
  Pd  Pd58  1  0.04336000  0.31573000  0.73734000  1.0
  Pd  Pd59  1  0.54337000  0.81573000  0.76267000  1.0
  C  C60  1  0.55888000  0.36351000  0.06299000  1.0
  C  C61  1  0.05889000  0.86350000  0.43701000  1.0
  C  C62  1  0.94112000  0.36350000  0.56298000  1.0
  C  C63  1  0.44112000  0.86351000  0.93702000  1.0
  C  C64  1  0.54450000  0.36311000  0.12361000  1.0
  C  C65  1  0.04452000  0.86310000  0.37639000  1.0
  C  C66  1  0.95549000  0.36310000  0.62361000  1.0
  C  C67  1  0.45549000  0.86311000  0.87640000  1.0
  C  C68  1  0.63013000  0.43094000  0.03606000  1.0
  C  C69  1  0.13014000  0.93094000  0.46394000  1.0
  C  C70  1  0.86986000  0.43094000  0.53606000  1.0
  C  C71  1  0.36987000  0.93094000  0.96394000  1.0
  C  C72  1  0.50302000  0.30401000  0.02833000  1.0
  C  C73  1  0.00303000  0.80400000  0.47166000  1.0
  C  C74  1  0.99698000  0.30400000  0.52834000  1.0
  C  C75  1  0.49698000  0.80400000  0.97167000  1.0
  C  C76  1  0.37344000  0.17846000  0.02277000  1.0
  C  C77  1  0.87344000  0.67846000  0.47723000  1.0
  C  C78  1  0.12656000  0.17845000  0.52278000  1.0
  C  C79  1  0.62656000  0.67846000  0.97723000  1.0
  C  C80  1  0.53326000  0.41387000  0.40586000  1.0
  C  C81  1  0.03326000  0.91387000  0.09413000  1.0
  C  C82  1  0.96674000  0.41387000  0.90586000  1.0
  C  C83  1  0.46674000  0.91387000  0.59414000  1.0
  C  C84  1  0.49504000  0.35176000  0.44579000  1.0
  C  C85  1  0.99504000  0.85176000  0.05421000  1.0
  C  C86  1  0.00497000  0.35177000  0.94579000  1.0
  C  C87  1  0.50496000  0.85176000  0.55422000  1.0
  C  C88  1  0.39044000  0.21332000  0.46617000  1.0
  C  C89  1  0.89044000  0.71332000  0.03384000  1.0
  C  C90  1  0.10956000  0.21332000  0.96616000  1.0
  C  C91  1  0.60956000  0.71331000  0.53384000  1.0
  C  C92  1  0.43651000  0.28064000  0.42499000  1.0
  C  C93  1  0.93651000  0.78065000  0.07501000  1.0
  C  C94  1  0.06350000  0.28065000  0.92499000  1.0
  C  C95  1  0.56349000  0.78065000  0.57501000  1.0
  C  C96  1  0.42877000  0.24559000  0.11699000  1.0
  C  C97  1  0.92877000  0.74559000  0.38301000  1.0
  C  C98  1  0.07123000  0.24559000  0.61699000  1.0
  C  C99  1  0.57122000  0.74559000  0.88301000  1.0
  C  C100  1  0.42009000  0.27233000  0.36466000  1.0
  C  C101  1  0.92009000  0.77233000  0.13534000  1.0
  C  C102  1  0.07991000  0.27234000  0.86466000  1.0
  C  C103  1  0.57990000  0.77233000  0.63534000  1.0
  C  C104  1  0.43681000  0.24389000  0.05615000  1.0
  C  C105  1  0.93681000  0.74389000  0.44385000  1.0
  C  C106  1  0.06319000  0.24388000  0.55615000  1.0
  C  C107  1  0.56319000  0.74388000  0.94385000  1.0
  C  C108  1  0.51366000  0.40172000  0.34641000  1.0
  C  C109  1  0.01366000  0.90172000  0.15359000  1.0
  C  C110  1  0.98633000  0.40172000  0.84641000  1.0
  C  C111  1  0.48633000  0.90172000  0.65359000  1.0
  C  C112  1  0.59558000  0.49208000  0.42645000  1.0
  C  C113  1  0.09558000  0.99208000  0.07355000  1.0
  C  C114  1  0.90442000  0.49209000  0.92644000  1.0
  C  C115  1  0.40442000  0.99208000  0.57356000  1.0
  N  N116  1  0.47926000  0.30547000  0.14999000  1.0
  N  N117  1  0.97927000  0.80547000  0.35000000  1.0
  N  N118  1  0.02073000  0.30547000  0.65000000  1.0
  N  N119  1  0.52073000  0.80547000  0.85001000  1.0
  N  N120  1  0.45893000  0.33152000  0.32615000  1.0
  N  N121  1  0.95893000  0.83152000  0.17385000  1.0
  N  N122  1  0.04107000  0.33153000  0.82615000  1.0
  N  N123  1  0.54107000  0.83153000  0.67385000  1.0
  Cl  Cl124  1  0.43111000  0.46648000  0.22409000  1.0
  Cl  Cl125  1  0.93112000  0.96648000  0.27591000  1.0
  Cl  Cl126  1  0.06888000  0.46648000  0.72409000  1.0
  Cl  Cl127  1  0.56889000  0.96648000  0.77591000  1.0
  Cl  Cl128  1  0.44733000  0.16156000  0.24558000  1.0
  Cl  Cl129  1  0.94734000  0.66156000  0.25442000  1.0
  Cl  Cl130  1  0.05266000  0.16155000  0.74558000  1.0
  Cl  Cl131  1  0.55266000  0.66156000  0.75443000  1.0
  O  O132  1  0.34430000  0.14851000  0.44218000  1.0
  O  O133  1  0.84431000  0.64851000  0.05783000  1.0
  O  O134  1  0.15570000  0.14850000  0.94217000  1.0
  O  O135  1  0.65569000  0.64850000  0.55783000  1.0
  O  O136  1  0.62986000  0.48724000  0.47820000  1.0
  O  O137  1  0.12986000  0.98724000  0.02180000  1.0
  O  O138  1  0.87014000  0.48725000  0.97820000  1.0
  O  O139  1  0.37015000  0.98724000  0.52180000  1.0
  O  O140  1  0.69234000  0.47125000  0.07191000  1.0
  O  O141  1  0.19235000  0.97125000  0.42809000  1.0
  O  O142  1  0.80765000  0.47125000  0.57191000  1.0
  O  O143  1  0.30766000  0.97126000  0.92809000  1.0
  O  O144  1  0.29701000  0.13933000  0.05136000  1.0
  O  O145  1  0.79701000  0.63933000  0.44864000  1.0
  O  O146  1  0.20299000  0.13933000  0.55136000  1.0
  O  O147  1  0.70299000  0.63933000  0.94864000  1.0
  O  O148  1  0.39200000  0.16079000  0.97075000  1.0
  O  O149  1  0.89201000  0.66079000  0.52925000  1.0
  O  O150  1  0.10800000  0.16077000  0.47075000  1.0
  O  O151  1  0.60800000  0.66078000  0.02925000  1.0
  O  O152  1  0.62575000  0.44594000  0.98219000  1.0
  O  O153  1  0.12575000  0.94594000  0.51781000  1.0
  O  O154  1  0.87425000  0.44594000  0.48219000  1.0
  O  O155  1  0.37425000  0.94595000  0.01781000  1.0
  O  O156  1  0.60715000  0.55615000  0.39020000  1.0
  O  O157  1  0.10715000  0.05615000  0.10980000  1.0
  O  O158  1  0.89284000  0.55615000  0.89020000  1.0
  O  O159  1  0.39285000  0.05615000  0.60980000  1.0
  O  O160  1  0.40159000  0.22851000  0.52087000  1.0
  O  O161  1  0.90159000  0.72851000  0.97913000  1.0
  O  O162  1  0.09842000  0.22852000  0.02087000  1.0
  O  O163  1  0.59841000  0.72851000  0.47913000  1.0
  O  O164  1  0.22423000  0.18466000  0.18867000  1.0
  O  O165  1  0.72423000  0.68466000  0.31133000  1.0
  O  O166  1  0.27577000  0.18467000  0.68867000  1.0
  O  O167  1  0.77577000  0.68467000  0.81133000  1.0
  O  O168  1  0.19538000  0.32334000  0.11105000  1.0
  O  O169  1  0.69538000  0.82334000  0.38895000  1.0
  O  O170  1  0.30461000  0.32334000  0.61105000  1.0
  O  O171  1  0.80461000  0.82334000  0.88895000  1.0
  O  O172  1  0.02232000  0.20911000  0.14675000  1.0
  O  O173  1  0.52232000  0.70912000  0.35325000  1.0
  O  O174  1  0.47769000  0.20912000  0.64675000  1.0
  O  O175  1  0.97769000  0.70912000  0.85325000  1.0
