# generated using pymatgen
data_GdH15C22S2N2O7
_symmetry_space_group_name_H-M   'P 1'
_cell_length_a   8.92168000
_cell_length_b   11.31390000
_cell_length_c   12.14400000
_cell_angle_alpha   117.06100000
_cell_angle_beta   92.10120000
_cell_angle_gamma   101.70200000
_symmetry_Int_Tables_number   1
_chemical_formula_structural   GdH15C22S2N2O7
_chemical_formula_sum   'Gd2 H30 C44 S4 N4 O14'
_cell_volume   1057.16806514
_cell_formula_units_Z   2
loop_
 _symmetry_equiv_pos_site_id
 _symmetry_equiv_pos_as_xyz
  1  'x, y, z'
loop_
 _atom_site_type_symbol
 _atom_site_label
 _atom_site_symmetry_multiplicity
 _atom_site_fract_x
 _atom_site_fract_y
 _atom_site_fract_z
 _atom_site_occupancy
  Gd  Gd0  1  0.14204000  0.40567000  0.49620000  1.0
  Gd  Gd1  1  0.85796000  0.59433000  0.50380000  1.0
  H  H2  1  0.80392000  0.35832000  0.53399000  1.0
  H  H3  1  0.19608000  0.64168000  0.46601000  1.0
  H  H4  1  0.28063000  0.17371000  0.25295000  1.0
  H  H5  1  0.71936000  0.82629000  0.74705000  1.0
  H  H6  1  0.39278000  0.96947000  0.18503000  1.0
  H  H7  1  0.60722000  0.03052000  0.81497000  1.0
  H  H8  1  0.39303000  0.85709000  0.32216000  1.0
  H  H9  1  0.60696000  0.14291000  0.67784000  1.0
  H  H10  1  0.19887000  0.94002000  0.70657000  1.0
  H  H11  1  0.80113000  0.05998000  0.29343000  1.0
  H  H12  1  0.32532000  0.85136000  0.51639000  1.0
  H  H13  1  0.67468000  0.14864000  0.48361000  1.0
  H  H14  1  0.98917000  0.42191000  0.75400000  1.0
  H  H15  1  0.01083000  0.57809000  0.24600000  1.0
  H  H16  1  0.96186000  0.31799000  0.89940000  1.0
  H  H17  1  0.03814000  0.68201000  0.10060000  1.0
  H  H18  1  0.06507000  0.11400000  0.85022000  1.0
  H  H19  1  0.93493000  0.88600000  0.14978000  1.0
  H  H20  1  0.58882000  0.27996000  0.16608000  1.0
  H  H21  1  0.41118000  0.72004000  0.83392000  1.0
  H  H22  1  0.90527000  0.01932000  0.06221000  1.0
  H  H23  1  0.09473000  0.98068000  0.93779000  1.0
  H  H24  1  0.68845000  0.81553000  0.93177000  1.0
  H  H25  1  0.31155000  0.18447000  0.06823000  1.0
  H  H26  1  0.32784000  0.50989000  0.80895000  1.0
  H  H27  1  0.67216000  0.49011000  0.19105000  1.0
  H  H28  1  0.78229000  0.43459000  0.78897000  1.0
  H  H29  1  0.21771000  0.56542000  0.21103000  1.0
  H  H30  1  0.79242000  0.44865000  0.00009000  1.0
  H  H31  1  0.20758000  0.55135000  0.99991000  1.0
  C  C32  1  0.28089000  0.12139000  0.30924000  1.0
  C  C33  1  0.71911000  0.87860000  0.69076000  1.0
  C  C34  1  0.34445000  0.00734000  0.27208000  1.0
  C  C35  1  0.65554000  0.99266000  0.72792000  1.0
  C  C36  1  0.34457000  0.94565000  0.34741000  1.0
  C  C37  1  0.65543000  0.05435000  0.65259000  1.0
  C  C38  1  0.27932000  0.99763000  0.45902000  1.0
  C  C39  1  0.72068000  0.00237000  0.54098000  1.0
  C  C40  1  0.21686000  0.11280000  0.48857000  1.0
  C  C41  1  0.78314000  0.88721000  0.51143000  1.0
  C  C42  1  0.14839000  0.16767000  0.60146000  1.0
  C  C43  1  0.85161000  0.83233000  0.39854000  1.0
  C  C44  1  0.14190000  0.10379000  0.67937000  1.0
  C  C45  1  0.85810000  0.89621000  0.32063000  1.0
  C  C46  1  0.20587000  0.98792000  0.64620000  1.0
  C  C47  1  0.79413000  0.01208000  0.35380000  1.0
  C  C48  1  0.27353000  0.93773000  0.54070000  1.0
  C  C49  1  0.72647000  0.06227000  0.45930000  1.0
  C  C50  1  0.02779000  0.32979000  0.73358000  1.0
  C  C51  1  0.97221000  0.67021000  0.26642000  1.0
  C  C52  1  0.01445000  0.27275000  0.81516000  1.0
  C  C53  1  0.98554000  0.72725000  0.18484000  1.0
  C  C54  1  0.07233000  0.15988000  0.78822000  1.0
  C  C55  1  0.92767000  0.84012000  0.21178000  1.0
  C  C56  1  0.60981000  0.17912000  0.11136000  1.0
  C  C57  1  0.39019000  0.82088000  0.88864000  1.0
  C  C58  1  0.78722000  0.02966000  0.05337000  1.0
  C  C59  1  0.21278000  0.97034000  0.94663000  1.0
  C  C60  1  0.48540000  0.06674000  0.03305000  1.0
  C  C61  1  0.51461000  0.93326000  0.96695000  1.0
  C  C62  1  0.75707000  0.16060000  0.11927000  1.0
  C  C63  1  0.24293000  0.83940000  0.88073000  1.0
  C  C64  1  0.66730000  0.91752000  0.98057000  1.0
  C  C65  1  0.33270000  0.08248000  0.01943000  1.0
  C  C66  1  0.55391000  0.47189000  0.78874000  1.0
  C  C67  1  0.44608000  0.52811000  0.21126000  1.0
  C  C68  1  0.42927000  0.49797000  0.85180000  1.0
  C  C69  1  0.57073000  0.50202000  0.14820000  1.0
  C  C70  1  0.68597000  0.45357000  0.84120000  1.0
  C  C71  1  0.31403000  0.54643000  0.15880000  1.0
  C  C72  1  0.43331000  0.50912000  0.97294000  1.0
  C  C73  1  0.56669000  0.49088000  0.02706000  1.0
  C  C74  1  0.69158000  0.46239000  0.95808000  1.0
  C  C75  1  0.30842000  0.53761000  0.04192000  1.0
  S  S76  1  0.55068000  0.45690000  0.63663000  1.0
  S  S77  1  0.44932000  0.54310000  0.36337000  1.0
  S  S78  1  0.91389000  0.30541000  0.20800000  1.0
  S  S79  1  0.08611000  0.69459000  0.79200000  1.0
  N  N80  1  0.09254000  0.27975000  0.62985000  1.0
  N  N81  1  0.90746000  0.72025000  0.37015000  1.0
  N  N82  1  0.21880000  0.17340000  0.41404000  1.0
  N  N83  1  0.78120000  0.82660000  0.58596000  1.0
  O  O84  1  0.00588000  0.26498000  0.28347000  1.0
  O  O85  1  0.99412000  0.73502000  0.71653000  1.0
  O  O86  1  0.83962000  0.41528000  0.28441000  1.0
  O  O87  1  0.16038000  0.58472000  0.71559000  1.0
  O  O88  1  0.99763000  0.33092000  0.11696000  1.0
  O  O89  1  0.00237000  0.66908000  0.88304000  1.0
  O  O90  1  0.39487000  0.46743000  0.60456000  1.0
  O  O91  1  0.60513000  0.53257000  0.39544000  1.0
  O  O92  1  0.67185000  0.57380000  0.64810000  1.0
  O  O93  1  0.32815000  0.42620000  0.35190000  1.0
  O  O94  1  0.58177000  0.32425000  0.55610000  1.0
  O  O95  1  0.41823000  0.67575000  0.44389000  1.0
  O  O96  1  0.89626000  0.41269000  0.52321000  1.0
  O  O97  1  0.10374000  0.58731000  0.47679000  1.0
