# generated using pymatgen
data_Zn2H14C24Br4N4O9
_symmetry_space_group_name_H-M   'P 1'
_cell_length_a   11.35980000
_cell_length_b   11.35980000
_cell_length_c   14.66910000
_cell_angle_alpha   109.49900000
_cell_angle_beta   109.49900000
_cell_angle_gamma   97.76950000
_symmetry_Int_Tables_number   1
_chemical_formula_structural   Zn2H14C24Br4N4O9
_chemical_formula_sum   'Zn4 H28 C48 Br8 N8 O18'
_cell_volume   1615.99286177
_cell_formula_units_Z   2
loop_
 _symmetry_equiv_pos_site_id
 _symmetry_equiv_pos_as_xyz
  1  'x, y, z'
loop_
 _atom_site_type_symbol
 _atom_site_label
 _atom_site_symmetry_multiplicity
 _atom_site_fract_x
 _atom_site_fract_y
 _atom_site_fract_z
 _atom_site_occupancy
  Zn  Zn0  1  0.00108000  0.26414000  0.28649000  1.0
  Zn  Zn1  1  0.73587000  0.99892000  0.21351000  1.0
  Zn  Zn2  1  0.99892000  0.73587000  0.71351000  1.0
  Zn  Zn3  1  0.26413000  0.00108000  0.78649000  1.0
  H  H4  1  0.00099000  0.05575000  0.31716000  1.0
  H  H5  1  0.94426000  0.99901000  0.18285000  1.0
  H  H6  1  0.99901000  0.94425000  0.68284000  1.0
  H  H7  1  0.05574000  0.00099000  0.81715000  1.0
  H  H8  1  0.03720000  0.16213000  0.08290000  1.0
  H  H9  1  0.83786000  0.96280000  0.41710000  1.0
  H  H10  1  0.96280000  0.83786000  0.91710000  1.0
  H  H11  1  0.16213000  0.03720000  0.58290000  1.0
  H  H12  1  0.30444000  0.34791000  0.39505000  1.0
  H  H13  1  0.65209000  0.69557000  0.10495000  1.0
  H  H14  1  0.69556000  0.65209000  0.60495000  1.0
  H  H15  1  0.34791000  0.30443000  0.89505000  1.0
  H  H16  1  0.44483000  0.24932000  0.14568000  1.0
  H  H17  1  0.75067000  0.55517000  0.35431000  1.0
  H  H18  1  0.55517000  0.75068000  0.85432000  1.0
  H  H19  1  0.24932000  0.44483000  0.64569000  1.0
  H  H20  1  0.12164000  0.84359000  0.42459000  1.0
  H  H21  1  0.15641000  0.87836000  0.07541000  1.0
  H  H22  1  0.87836000  0.15641000  0.57541000  1.0
  H  H23  1  0.84359000  0.12164000  0.92459000  1.0
  H  H24  1  0.98322000  0.45316000  0.17830000  1.0
  H  H25  1  0.54684000  0.01678000  0.32171000  1.0
  H  H26  1  0.01678000  0.54684000  0.82171000  1.0
  H  H27  1  0.45316000  0.98322000  0.67830000  1.0
  H  H28  1  0.11253000  0.50000000  0.49097000  1.0
  H  H29  1  0.50000000  0.88747000  0.00903000  1.0
  H  H30  1  0.88747000  0.50000000  0.50903000  1.0
  H  H31  1  0.50000000  0.11253000  0.99097000  1.0
  C  C32  1  0.23660000  0.20072000  0.09966000  1.0
  C  C33  1  0.79928000  0.76340000  0.40034000  1.0
  C  C34  1  0.76340000  0.79928000  0.90034000  1.0
  C  C35  1  0.20072000  0.23660000  0.59966000  1.0
  C  C36  1  0.13885000  0.20337000  0.13738000  1.0
  C  C37  1  0.79663000  0.86115000  0.36261000  1.0
  C  C38  1  0.86115000  0.79663000  0.86262000  1.0
  C  C39  1  0.20337000  0.13885000  0.63738000  1.0
  C  C40  1  0.28815000  0.30718000  0.31180000  1.0
  C  C41  1  0.69281000  0.71185000  0.18820000  1.0
  C  C42  1  0.71185000  0.69282000  0.68820000  1.0
  C  C43  1  0.30718000  0.28815000  0.81180000  1.0
  C  C44  1  0.39074000  0.30558000  0.27967000  1.0
  C  C45  1  0.69442000  0.60926000  0.22032000  1.0
  C  C46  1  0.60926000  0.69442000  0.72033000  1.0
  C  C47  1  0.30558000  0.39074000  0.77968000  1.0
  C  C48  1  0.36628000  0.25218000  0.17253000  1.0
  C  C49  1  0.74782000  0.63371000  0.32747000  1.0
  C  C50  1  0.63372000  0.74782000  0.82747000  1.0
  C  C51  1  0.25218000  0.36628000  0.67253000  1.0
  C  C52  1  0.19787000  0.13824000  0.98189000  1.0
  C  C53  1  0.86176000  0.80213000  0.51811000  1.0
  C  C54  1  0.80213000  0.86176000  0.01811000  1.0
  C  C55  1  0.13824000  0.19787000  0.48189000  1.0
  C  C56  1  0.12521000  0.68251000  0.47288000  1.0
  C  C57  1  0.31749000  0.87479000  0.02712000  1.0
  C  C58  1  0.87479000  0.31749000  0.52712000  1.0
  C  C59  1  0.68251000  0.12522000  0.97288000  1.0
  C  C60  1  0.10261000  0.73850000  0.39910000  1.0
  C  C61  1  0.26150000  0.89739000  0.10090000  1.0
  C  C62  1  0.89739000  0.26150000  0.60090000  1.0
  C  C63  1  0.73850000  0.10261000  0.89910000  1.0
  C  C64  1  0.04949000  0.65495000  0.29186000  1.0
  C  C65  1  0.34506000  0.95052000  0.20814000  1.0
  C  C66  1  0.95051000  0.34506000  0.70815000  1.0
  C  C67  1  0.65494000  0.04949000  0.79186000  1.0
  C  C68  1  0.02575000  0.52094000  0.26124000  1.0
  C  C69  1  0.47906000  0.97425000  0.23876000  1.0
  C  C70  1  0.97425000  0.47907000  0.73876000  1.0
  C  C71  1  0.52094000  0.02576000  0.76124000  1.0
  C  C72  1  0.09789000  0.54730000  0.43625000  1.0
  C  C73  1  0.45270000  0.90211000  0.06375000  1.0
  C  C74  1  0.90211000  0.45270000  0.56375000  1.0
  C  C75  1  0.54730000  0.09789000  0.93625000  1.0
  C  C76  1  0.16488000  0.75978000  0.58962000  1.0
  C  C77  1  0.24022000  0.83512000  0.91038000  1.0
  C  C78  1  0.83512000  0.24022000  0.41038000  1.0
  C  C79  1  0.75978000  0.16488000  0.08963000  1.0
  Br  Br80  1  0.00125000  0.71896000  0.18465000  1.0
  Br  Br81  1  0.28103000  0.99875000  0.31535000  1.0
  Br  Br82  1  0.99874000  0.28104000  0.81535000  1.0
  Br  Br83  1  0.71896000  0.00125000  0.68465000  1.0
  Br  Br84  1  0.56385000  0.37333000  0.38474000  1.0
  Br  Br85  1  0.62667000  0.43615000  0.11525000  1.0
  Br  Br86  1  0.43615000  0.62667000  0.61525000  1.0
  Br  Br87  1  0.37333000  0.56385000  0.88475000  1.0
  N  N88  1  0.16396000  0.25589000  0.24077000  1.0
  N  N89  1  0.74410000  0.83604000  0.25923000  1.0
  N  N90  1  0.83604000  0.74410000  0.75923000  1.0
  N  N91  1  0.25589000  0.16396000  0.74077000  1.0
  N  N92  1  0.05143000  0.46906000  0.33333333  1.0
  N  N93  1  0.53094000  0.94857000  0.16671000  1.0
  N  N94  1  0.94857000  0.53094000  0.66671000  1.0
  N  N95  1  0.46906000  0.05143000  0.83329000  1.0
  O  O96  1  0.07607000  0.09224000  0.92506000  1.0
  O  O97  1  0.90776000  0.92393000  0.57494000  1.0
  O  O98  1  0.92394000  0.90775000  0.07494000  1.0
  O  O99  1  0.09225000  0.07607000  0.42506000  1.0
  O  O100  1  0.28799000  0.13426000  0.94879000  1.0
  O  O101  1  0.86573000  0.71201000  0.55120000  1.0
  O  O102  1  0.71202000  0.86574000  0.05121000  1.0
  O  O103  1  0.13427000  0.28799000  0.44880000  1.0
  O  O104  1  0.12915000  0.69782000  0.63758000  1.0
  O  O105  1  0.30217000  0.87085000  0.86242000  1.0
  O  O106  1  0.87085000  0.30218000  0.36242000  1.0
  O  O107  1  0.69783000  0.12915000  0.13758000  1.0
  O  O108  1  0.22652000  0.87955000  0.62894000  1.0
  O  O109  1  0.12045000  0.77349000  0.87106000  1.0
  O  O110  1  0.77349000  0.12045000  0.37106000  1.0
  O  O111  1  0.87955000  0.22651000  0.12894000  1.0
  O  O112  1  0.93792000  0.06208000  0.25000000  1.0
  O  O113  1  0.06208000  0.93791000  0.75000000  1.0
