# generated using pymatgen
data_CdH16C14(NO3)2
_symmetry_space_group_name_H-M   'P 1'
_cell_length_a   8.80536000
_cell_length_b   9.38231000
_cell_length_c   9.67589000
_cell_angle_alpha   109.51900000
_cell_angle_beta   90.00000000
_cell_angle_gamma   90.00000000
_symmetry_Int_Tables_number   1
_chemical_formula_structural   CdH16C14(NO3)2
_chemical_formula_sum   'Cd2 H32 C28 N4 O12'
_cell_volume   753.43075262
_cell_formula_units_Z   2
loop_
 _symmetry_equiv_pos_site_id
 _symmetry_equiv_pos_as_xyz
  1  'x, y, z'
loop_
 _atom_site_type_symbol
 _atom_site_label
 _atom_site_symmetry_multiplicity
 _atom_site_fract_x
 _atom_site_fract_y
 _atom_site_fract_z
 _atom_site_occupancy
  Cd  Cd0  1  0.00000000  0.50000000  0.50000000  1.0
  Cd  Cd1  1  0.50000000  0.00000000  0.00000000  1.0
  H  H2  1  0.01563000  0.28905000  0.19941000  1.0
  H  H3  1  0.51563000  0.21095000  0.30059000  1.0
  H  H4  1  0.98437000  0.71095000  0.80059000  1.0
  H  H5  1  0.48437000  0.78905000  0.69941000  1.0
  H  H6  1  0.84856000  0.30020000  0.27947000  1.0
  H  H7  1  0.34856000  0.19980000  0.22053000  1.0
  H  H8  1  0.15144000  0.69980000  0.72053000  1.0
  H  H9  1  0.65144000  0.80020000  0.77947000  1.0
  H  H10  1  0.02654000  0.63352000  0.23272000  1.0
  H  H11  1  0.52654000  0.86648000  0.26728000  1.0
  H  H12  1  0.97346000  0.36648000  0.76728000  1.0
  H  H13  1  0.47345000  0.13352000  0.73272000  1.0
  H  H14  1  0.82414000  0.81434000  0.64023000  1.0
  H  H15  1  0.32415000  0.68566000  0.85977000  1.0
  H  H16  1  0.17585000  0.18566000  0.35977000  1.0
  H  H17  1  0.67585000  0.31434000  0.14023000  1.0
  H  H18  1  0.73129000  0.03921000  0.58265000  1.0
  H  H19  1  0.23129000  0.46079000  0.91735000  1.0
  H  H20  1  0.26871000  0.96079000  0.41734000  1.0
  H  H21  1  0.76871000  0.53921000  0.08265000  1.0
  H  H22  1  0.79781000  0.06395000  0.33958000  1.0
  H  H23  1  0.29781000  0.43605000  0.16042000  1.0
  H  H24  1  0.20219000  0.93605000  0.66042000  1.0
  H  H25  1  0.70219000  0.56395000  0.83958000  1.0
  H  H26  1  0.03299000  0.75725000  0.05770000  1.0
  H  H27  1  0.53299000  0.74275000  0.44230000  1.0
  H  H28  1  0.96701000  0.24276000  0.94230000  1.0
  H  H29  1  0.46701000  0.25724000  0.55770000  1.0
  H  H30  1  0.04369000  0.95621000  0.13657000  1.0
  H  H31  1  0.54369000  0.54379000  0.36343000  1.0
  H  H32  1  0.95631000  0.04379000  0.86343000  1.0
  H  H33  1  0.45631000  0.45621000  0.63657000  1.0
  C  C34  1  0.96166000  0.72709000  0.30694000  1.0
  C  C35  1  0.46166000  0.77291000  0.19306000  1.0
  C  C36  1  0.03834000  0.27291000  0.69306000  1.0
  C  C37  1  0.53834000  0.22709000  0.80694000  1.0
  C  C38  1  0.84770000  0.82663000  0.53443000  1.0
  C  C39  1  0.34770000  0.67337000  0.96557000  1.0
  C  C40  1  0.15230000  0.17337000  0.46557000  1.0
  C  C41  1  0.65230000  0.32663000  0.03443000  1.0
  C  C42  1  0.79726000  0.95243000  0.50164000  1.0
  C  C43  1  0.29726000  0.54757000  0.99836000  1.0
  C  C44  1  0.20274000  0.04757000  0.49836000  1.0
  C  C45  1  0.70274000  0.45243000  0.00164000  1.0
  C  C46  1  0.83467000  0.96580000  0.36684000  1.0
  C  C47  1  0.33467000  0.53420000  0.13316000  1.0
  C  C48  1  0.16533000  0.03420000  0.63316000  1.0
  C  C49  1  0.66533000  0.46579000  0.86684000  1.0
  C  C50  1  0.91939000  0.85070000  0.26555000  1.0
  C  C51  1  0.41939000  0.64930000  0.23445000  1.0
  C  C52  1  0.08061000  0.14930000  0.73445000  1.0
  C  C53  1  0.58061000  0.35070000  0.76555000  1.0
  C  C54  1  0.96771000  0.85820000  0.11870000  1.0
  C  C55  1  0.46771000  0.64181000  0.38130000  1.0
  C  C56  1  0.03229000  0.14180000  0.88130000  1.0
  C  C57  1  0.53229000  0.35819000  0.61870000  1.0
  C  C58  1  0.83599000  0.88016000  0.02358000  1.0
  C  C59  1  0.33599000  0.61984000  0.47642000  1.0
  C  C60  1  0.16401000  0.11984000  0.97642000  1.0
  C  C61  1  0.66401000  0.38016000  0.52358000  1.0
  N  N62  1  0.92799000  0.71561000  0.43849000  1.0
  N  N63  1  0.42799000  0.78438000  0.06151000  1.0
  N  N64  1  0.07201000  0.28439000  0.56151000  1.0
  N  N65  1  0.57201000  0.21561000  0.93849000  1.0
  O  O66  1  0.74036000  0.98201000  0.08657000  1.0
  O  O67  1  0.24036000  0.51799000  0.41343000  1.0
  O  O68  1  0.25964000  0.01798000  0.91343000  1.0
  O  O69  1  0.75964000  0.48202000  0.58657000  1.0
  O  O70  1  0.83225000  0.79774000  0.88865000  1.0
  O  O71  1  0.33226000  0.70226000  0.61135000  1.0
  O  O72  1  0.16775000  0.20226000  0.11135000  1.0
  O  O73  1  0.66775000  0.29774000  0.38865000  1.0
  O  O74  1  0.93477000  0.35761000  0.25973000  1.0
  O  O75  1  0.43477000  0.14239000  0.24027000  1.0
  O  O76  1  0.06523000  0.64239000  0.74027000  1.0
  O  O77  1  0.56523000  0.85761000  0.75973000  1.0
