# generated using pymatgen
data_Ni4H27C48(N4O)3
_symmetry_space_group_name_H-M   'P 1'
_cell_length_a   23.00280000
_cell_length_b   23.00277185
_cell_length_c   23.00283708
_cell_angle_alpha   60.00201286
_cell_angle_beta   60.00195998
_cell_angle_gamma   60.00147856
_symmetry_Int_Tables_number   1
_chemical_formula_structural   Ni4H27C48(N4O)3
_chemical_formula_sum   'Ni8 H54 C96 N24 O6'
_cell_volume   8606.86860680
_cell_formula_units_Z   2
loop_
 _symmetry_equiv_pos_site_id
 _symmetry_equiv_pos_as_xyz
  1  'x, y, z'
loop_
 _atom_site_type_symbol
 _atom_site_label
 _atom_site_symmetry_multiplicity
 _atom_site_fract_x
 _atom_site_fract_y
 _atom_site_fract_z
 _atom_site_occupancy
  Ni  Ni0  1  0.95409000  0.95408000  0.95405000  1.0
  Ni  Ni1  1  0.95405000  0.95405000  0.13783000  1.0
  Ni  Ni2  1  0.13781000  0.95407000  0.95403000  1.0
  Ni  Ni3  1  0.95407000  0.13780000  0.95404000  1.0
  Ni  Ni4  1  0.04595000  0.04595000  0.86217000  1.0
  Ni  Ni5  1  0.04591000  0.04592000  0.04595000  1.0
  Ni  Ni6  1  0.86220000  0.04593000  0.04596000  1.0
  Ni  Ni7  1  0.04592000  0.86220000  0.04597000  1.0
  H  H8  1  0.90793000  0.09206000  0.90791000  1.0
  H  H9  1  0.09205000  0.90794000  0.09211000  1.0
  H  H10  1  0.09204000  0.90793000  0.90791000  1.0
  H  H11  1  0.90794000  0.09207000  0.09209000  1.0
  H  H12  1  0.90792000  0.90792000  0.09207000  1.0
  H  H13  1  0.09206000  0.09210000  0.90793000  1.0
  H  H14  1  0.06628000  0.06629000  0.37974000  1.0
  H  H15  1  0.06657000  0.06657000  0.16915000  1.0
  H  H16  1  0.06629000  0.06629000  0.48769000  1.0
  H  H17  1  0.06657000  0.06656000  0.69773000  1.0
  H  H18  1  0.48768000  0.37974000  0.06629000  1.0
  H  H19  1  0.69772000  0.16915000  0.06656000  1.0
  H  H20  1  0.37974000  0.48769000  0.06628000  1.0
  H  H21  1  0.16917000  0.69770000  0.06656000  1.0
  H  H22  1  0.06629000  0.37973000  0.06629000  1.0
  H  H23  1  0.06658000  0.16916000  0.06657000  1.0
  H  H24  1  0.06629000  0.48769000  0.06629000  1.0
  H  H25  1  0.06656000  0.69772000  0.06656000  1.0
  H  H26  1  0.37974000  0.06628000  0.48769000  1.0
  H  H27  1  0.16916000  0.06657000  0.69770000  1.0
  H  H28  1  0.48768000  0.06629000  0.37974000  1.0
  H  H29  1  0.69773000  0.06656000  0.16915000  1.0
  H  H30  1  0.37973000  0.06629000  0.06629000  1.0
  H  H31  1  0.16917000  0.06658000  0.06658000  1.0
  H  H32  1  0.48769000  0.06629000  0.06629000  1.0
  H  H33  1  0.69772000  0.06656000  0.06656000  1.0
  H  H34  1  0.06628000  0.48769000  0.37974000  1.0
  H  H35  1  0.06656000  0.69773000  0.16915000  1.0
  H  H36  1  0.06629000  0.37973000  0.48769000  1.0
  H  H37  1  0.06656000  0.16915000  0.69772000  1.0
  H  H38  1  0.93371000  0.93371000  0.51231000  1.0
  H  H39  1  0.93344000  0.93343000  0.30227000  1.0
  H  H40  1  0.93371000  0.93371000  0.62026000  1.0
  H  H41  1  0.93342000  0.93343000  0.83086000  1.0
  H  H42  1  0.51232000  0.62026000  0.93371000  1.0
  H  H43  1  0.30229000  0.83084000  0.93344000  1.0
  H  H44  1  0.62027000  0.51231000  0.93371000  1.0
  H  H45  1  0.83086000  0.30229000  0.93343000  1.0
  H  H46  1  0.93372000  0.62026000  0.51231000  1.0
  H  H47  1  0.93342000  0.83086000  0.30229000  1.0
  H  H48  1  0.93372000  0.51231000  0.62026000  1.0
  H  H49  1  0.93344000  0.30228000  0.83085000  1.0
  H  H50  1  0.62027000  0.93371000  0.93371000  1.0
  H  H51  1  0.83084000  0.93342000  0.93342000  1.0
  H  H52  1  0.51231000  0.93371000  0.93371000  1.0
  H  H53  1  0.30228000  0.93344000  0.93344000  1.0
  H  H54  1  0.62027000  0.93371000  0.51231000  1.0
  H  H55  1  0.83086000  0.93343000  0.30229000  1.0
  H  H56  1  0.51232000  0.93371000  0.62026000  1.0
  H  H57  1  0.30227000  0.93344000  0.83085000  1.0
  H  H58  1  0.93371000  0.51231000  0.93371000  1.0
  H  H59  1  0.93343000  0.30228000  0.93344000  1.0
  H  H60  1  0.93372000  0.62026000  0.93371000  1.0
  H  H61  1  0.93341000  0.83085000  0.93342000  1.0
  C  C62  1  1.00000000  0.00000000  0.43837000  1.0
  C  C63  1  0.00000000  0.00000000  0.37697000  1.0
  C  C64  1  0.00000000  0.00000000  0.32383000  1.0
  C  C65  1  0.00000000  0.00000000  0.26284000  1.0
  C  C66  1  0.00000000  0.00000000  0.56163000  1.0
  C  C67  1  0.00000000  0.00000000  0.62303000  1.0
  C  C68  1  0.00000000  0.99999000  0.67617000  1.0
  C  C69  1  0.99999000  0.00000000  0.73716000  1.0
  C  C70  1  0.56164000  0.43836000  0.00000000  1.0
  C  C71  1  0.62303000  0.37697000  0.00000000  1.0
  C  C72  1  0.67617000  0.32383000  0.00000000  1.0
  C  C73  1  0.73715000  0.26285000  0.00000000  1.0
  C  C74  1  0.43836000  0.56164000  0.00000000  1.0
  C  C75  1  0.37697000  0.62303000  0.00000000  1.0
  C  C76  1  0.32383000  0.67617000  0.00000000  1.0
  C  C77  1  0.26285000  0.73715000  0.00000000  1.0
  C  C78  1  0.00000000  0.43837000  0.00000000  1.0
  C  C79  1  0.00000000  0.37698000  0.00000000  1.0
  C  C80  1  0.00000000  0.32384000  0.00000000  1.0
  C  C81  1  0.00000000  0.26286000  0.00000000  1.0
  C  C82  1  1.00000000  0.56163000  0.00000000  1.0
  C  C83  1  0.00000000  0.62302000  0.00000000  1.0
  C  C84  1  0.00000000  0.67616000  0.99999000  1.0
  C  C85  1  0.99999000  0.73715000  0.99999000  1.0
  C  C86  1  0.43836000  0.00000000  0.56164000  1.0
  C  C87  1  0.37696000  0.00000000  0.62304000  1.0
  C  C88  1  0.32383000  0.00000000  0.67617000  1.0
  C  C89  1  0.26283000  0.00001000  0.73715000  1.0
  C  C90  1  0.56164000  0.00000000  0.43836000  1.0
  C  C91  1  0.62304000  0.00000000  0.37696000  1.0
  C  C92  1  0.67618000  0.00000000  0.32383000  1.0
  C  C93  1  0.73718000  0.99999000  0.26284000  1.0
  C  C94  1  0.43837000  0.00000000  1.00000000  1.0
  C  C95  1  0.37698000  1.00000000  1.00000000  1.0
  C  C96  1  0.32384000  1.00000000  1.00000000  1.0
  C  C97  1  0.26285000  0.00001000  0.00001000  1.0
  C  C98  1  0.56163000  0.00000000  0.00000000  1.0
  C  C99  1  0.62302000  0.00000000  0.00000000  1.0
  C  C100  1  0.67616000  0.00000000  1.00000000  1.0
  C  C101  1  0.73715000  0.99999000  0.99999000  1.0
  C  C102  1  0.00001000  0.56163000  0.43836000  1.0
  C  C103  1  0.00000000  0.62304000  0.37696000  1.0
  C  C104  1  0.00000000  0.67617000  0.32383000  1.0
  C  C105  1  0.99999000  0.73717000  0.26285000  1.0
  C  C106  1  0.00000000  0.43836000  0.56164000  1.0
  C  C107  1  0.00000000  0.37696000  0.62304000  1.0
  C  C108  1  0.00000000  0.32383000  0.67617000  1.0
  C  C109  1  0.00000000  0.26284000  0.73716000  1.0
  C  C110  1  0.03733000  0.03733000  0.43254000  1.0
  C  C111  1  0.03416000  0.03416000  0.19079000  1.0
  C  C112  1  0.03733000  0.03733000  0.49281000  1.0
  C  C113  1  0.03416000  0.03415000  0.74090000  1.0
  C  C114  1  0.49280000  0.43254000  0.03733000  1.0
  C  C115  1  0.74091000  0.19078000  0.03416000  1.0
  C  C116  1  0.43254000  0.49280000  0.03733000  1.0
  C  C117  1  0.19079000  0.74089000  0.03416000  1.0
  C  C118  1  0.03734000  0.43253000  0.03733000  1.0
  C  C119  1  0.03416000  0.19080000  0.03417000  1.0
  C  C120  1  0.03734000  0.49280000  0.03733000  1.0
  C  C121  1  0.03415000  0.74089000  0.03415000  1.0
  C  C122  1  0.43254000  0.03733000  0.49280000  1.0
  C  C123  1  0.19077000  0.03417000  0.74089000  1.0
  C  C124  1  0.49280000  0.03733000  0.43254000  1.0
  C  C125  1  0.74092000  0.03415000  0.19078000  1.0
  C  C126  1  0.43254000  0.03733000  0.03733000  1.0
  C  C127  1  0.19080000  0.03417000  0.03417000  1.0
  C  C128  1  0.49281000  0.03733000  0.03733000  1.0
  C  C129  1  0.74090000  0.03415000  0.03415000  1.0
  C  C130  1  0.03733000  0.49280000  0.43254000  1.0
  C  C131  1  0.03415000  0.74091000  0.19079000  1.0
  C  C132  1  0.03732000  0.43254000  0.49281000  1.0
  C  C133  1  0.03416000  0.19078000  0.74090000  1.0
  C  C134  1  0.96267000  0.96267000  0.50719000  1.0
  C  C135  1  0.96584000  0.96584000  0.25910000  1.0
  C  C136  1  0.96267000  0.96267000  0.56746000  1.0
  C  C137  1  0.96583000  0.96584000  0.80922000  1.0
  C  C138  1  0.50720000  0.56746000  0.96267000  1.0
  C  C139  1  0.25910000  0.80921000  0.96584000  1.0
  C  C140  1  0.56747000  0.50719000  0.96267000  1.0
  C  C141  1  0.80922000  0.25911000  0.96583000  1.0
  C  C142  1  0.96268000  0.56746000  0.50719000  1.0
  C  C143  1  0.96583000  0.80923000  0.25911000  1.0
  C  C144  1  0.96267000  0.50720000  0.56746000  1.0
  C  C145  1  0.96584000  0.25910000  0.80922000  1.0
  C  C146  1  0.56746000  0.96267000  0.96267000  1.0
  C  C147  1  0.80921000  0.96583000  0.96583000  1.0
  C  C148  1  0.50720000  0.96267000  0.96267000  1.0
  C  C149  1  0.25910000  0.96585000  0.96585000  1.0
  C  C150  1  0.56747000  0.96267000  0.50719000  1.0
  C  C151  1  0.80923000  0.96583000  0.25911000  1.0
  C  C152  1  0.50720000  0.96267000  0.56746000  1.0
  C  C153  1  0.25908000  0.96585000  0.80922000  1.0
  C  C154  1  0.96266000  0.50720000  0.96267000  1.0
  C  C155  1  0.96584000  0.25911000  0.96585000  1.0
  C  C156  1  0.96267000  0.56746000  0.96267000  1.0
  C  C157  1  0.96582000  0.80921000  0.96583000  1.0
  N  N158  1  0.02080000  0.02080000  0.14892000  1.0
  N  N159  1  0.02080000  0.02080000  0.80948000  1.0
  N  N160  1  0.80948000  0.14892000  0.02080000  1.0
  N  N161  1  0.14892000  0.80947000  0.02081000  1.0
  N  N162  1  0.02080000  0.14893000  0.02081000  1.0
  N  N163  1  0.02079000  0.80947000  0.02080000  1.0
  N  N164  1  0.14890000  0.02082000  0.80947000  1.0
  N  N165  1  0.80950000  0.02079000  0.14892000  1.0
  N  N166  1  0.14893000  0.02081000  0.02081000  1.0
  N  N167  1  0.80948000  0.02079000  0.02080000  1.0
  N  N168  1  0.02079000  0.80949000  0.14893000  1.0
  N  N169  1  0.02081000  0.14891000  0.80947000  1.0
  N  N170  1  0.97919000  0.97920000  0.19053000  1.0
  N  N171  1  0.97920000  0.97920000  0.85108000  1.0
  N  N172  1  0.19052000  0.85108000  0.97920000  1.0
  N  N173  1  0.85108000  0.19053000  0.97919000  1.0
  N  N174  1  0.97919000  0.85109000  0.19053000  1.0
  N  N175  1  0.97920000  0.19052000  0.85108000  1.0
  N  N176  1  0.85108000  0.97919000  0.97919000  1.0
  N  N177  1  0.19052000  0.97921000  0.97920000  1.0
  N  N178  1  0.85109000  0.97919000  0.19053000  1.0
  N  N179  1  0.19050000  0.97921000  0.85108000  1.0
  N  N180  1  0.97920000  0.19053000  0.97920000  1.0
  N  N181  1  0.97919000  0.85108000  0.97919000  1.0
  O  O182  1  0.93798000  0.06207000  0.93794000  1.0
  O  O183  1  0.06202000  0.93793000  0.06207000  1.0
  O  O184  1  0.06206000  0.93799000  0.93794000  1.0
  O  O185  1  0.93793000  0.06201000  0.06207000  1.0
  O  O186  1  0.93795000  0.93796000  0.06210000  1.0
  O  O187  1  0.06205000  0.06204000  0.93790000  1.0
