# generated using pymatgen
data_Zn4H54C83N20
_symmetry_space_group_name_H-M   'P 1'
_cell_length_a   18.72990000
_cell_length_b   19.18940000
_cell_length_c   21.37840000
_cell_angle_alpha   106.49700000
_cell_angle_beta   105.38800000
_cell_angle_gamma   110.94200000
_symmetry_Int_Tables_number   1
_chemical_formula_structural   Zn4H54C83N20
_chemical_formula_sum   'Zn4 H54 C83 N20'
_cell_volume   6276.88444663
_cell_formula_units_Z   1
loop_
 _symmetry_equiv_pos_site_id
 _symmetry_equiv_pos_as_xyz
  1  'x, y, z'
loop_
 _atom_site_type_symbol
 _atom_site_label
 _atom_site_symmetry_multiplicity
 _atom_site_fract_x
 _atom_site_fract_y
 _atom_site_fract_z
 _atom_site_occupancy
  Zn  Zn0  1  0.86728000  0.89253000  0.46559000  1.0
  Zn  Zn1  1  0.10054000  0.09941000  0.49558000  1.0
  Zn  Zn2  1  0.07990000  0.03019000  0.62885000  1.0
  Zn  Zn3  1  0.89515000  0.00746000  0.37811000  1.0
  H  H4  1  0.87055000  0.91613000  0.70802000  1.0
  H  H5  1  0.21686000  0.03081000  0.46079000  1.0
  H  H6  1  0.09812000  0.88261000  0.62175000  1.0
  H  H7  1  0.91155000  0.87634000  0.26300000  1.0
  H  H8  1  0.17294000  0.05717000  0.36200000  1.0
  H  H9  1  0.75666000  0.85099000  0.20888000  1.0
  H  H10  1  0.27490000  0.04839000  0.67622000  1.0
  H  H11  1  0.36933000  0.13363000  0.51376000  1.0
  H  H12  1  0.39213000  0.01581000  0.65686000  1.0
  H  H13  1  0.52505000  0.01107000  0.70922000  1.0
  H  H14  1  0.08669000  0.25383000  0.57970000  1.0
  H  H15  1  0.65797000  0.02069000  0.70335000  1.0
  H  H16  1  0.75050000  0.03834000  0.63850000  1.0
  H  H17  1  0.72838000  0.15771000  0.49617000  1.0
  H  H18  1  0.62162000  0.20595000  0.47681000  1.0
  H  H19  1  0.48771000  0.19467000  0.48136000  1.0
  H  H20  1  0.10251000  0.75344000  0.58151000  1.0
  H  H21  1  0.85588000  0.64732000  0.57922000  1.0
  H  H22  1  0.79402000  0.50743000  0.57586000  1.0
  H  H23  1  0.79655000  0.37502000  0.55432000  1.0
  H  H24  1  0.86398000  0.28682000  0.52057000  1.0
  H  H25  1  0.18621000  0.18983000  0.75683000  1.0
  H  H26  1  0.11593000  0.39889000  0.53574000  1.0
  H  H27  1  0.19261000  0.54954000  0.57287000  1.0
  H  H28  1  0.18789000  0.68064000  0.59030000  1.0
  H  H29  1  0.31963000  0.26926000  0.84841000  1.0
  H  H30  1  0.46076000  0.36033000  0.94748000  1.0
  H  H31  1  0.67189000  0.47413000  0.12566000  1.0
  H  H32  1  0.74126000  0.60256000  0.23681000  1.0
  H  H33  1  0.42126000  0.32562000  0.69933000  1.0
  H  H34  1  0.66840000  0.61248000  0.99930000  1.0
  H  H35  1  0.56106000  0.41914000  0.79952000  1.0
  H  H36  1  0.79076000  0.09736000  0.43964000  1.0
  H  H37  1  0.73731000  0.74180000  0.10974000  1.0
  H  H38  1  0.92270000  0.81667000  0.16364000  1.0
  H  H39  1  0.92704000  0.77009000  0.04504000  1.0
  H  H40  1  0.86674000  0.77153000  0.85563000  1.0
  H  H41  1  0.86600000  0.82665000  0.76332000  1.0
  H  H42  1  0.18840000  0.98274000  0.25897000  1.0
  H  H43  1  0.13537000  0.88143000  0.94084000  1.0
  H  H44  1  0.19143000  0.93338000  0.13922000  1.0
  H  H45  1  0.13581000  0.93661000  0.84925000  1.0
  H  H46  1  0.28902000  0.25088000  0.60897000  1.0
  H  H47  1  0.84821000  0.00555000  0.60033000  1.0
  H  H48  1  0.88875000  0.18765000  0.38012000  1.0
  H  H49  1  0.13700000  0.99987000  0.77175000  1.0
  H  H50  1  0.81237000  0.72592000  0.33995000  1.0
  H  H51  1  0.63139000  0.64777000  0.44259000  1.0
  H  H52  1  0.66300000  0.58821000  0.48246000  1.0
  H  H53  1  0.62826000  0.65444000  0.52626000  1.0
  H  H54  1  0.78608000  0.71838000  0.58372000  1.0
  H  H55  1  0.75488000  0.77809000  0.54540000  1.0
  H  H56  1  0.77526000  0.71541000  0.43711000  1.0
  H  H57  1  0.80257000  0.65027000  0.47087000  1.0
  C  C58  1  0.93587000  0.94362000  0.71583000  1.0
  C  C59  1  0.98619000  0.25335000  0.49361000  1.0
  C  C60  1  0.27497000  0.24358000  0.70916000  1.0
  C  C61  1  0.79924000  0.06699000  0.53528000  1.0
  C  C62  1  0.80271000  0.76765000  0.31754000  1.0
  C  C63  1  0.21747000  0.03359000  0.51235000  1.0
  C  C64  1  0.03187000  0.85589000  0.58840000  1.0
  C  C65  1  0.97368000  0.92707000  0.29732000  1.0
  C  C66  1  0.10704000  0.01906000  0.34771000  1.0
  C  C67  1  0.89478000  0.77613000  0.52506000  1.0
  C  C68  1  0.77474000  0.83186000  0.25113000  1.0
  C  C69  1  0.03849000  0.22504000  0.52579000  1.0
  C  C70  1  0.24673000  0.04060000  0.62162000  1.0
  C  C71  1  0.77111000  0.75554000  0.24588000  1.0
  C  C72  1  0.28349000  0.04879000  0.57297000  1.0
  C  C73  1  0.96739000  0.77622000  0.56609000  1.0
  C  C74  1  0.04732000  0.94693000  0.28571000  1.0
  C  C75  1  0.40560000  0.11336000  0.54648000  1.0
  C  C76  1  0.37010000  0.07047000  0.58292000  1.0
  C  C77  1  0.41887000  0.04856000  0.62783000  1.0
  C  C78  1  0.49974000  0.06361000  0.63324000  1.0
  C  C79  1  0.53305000  0.10221000  0.59206000  1.0
  C  C80  1  0.19897000  0.19727000  0.71177000  1.0
  C  C81  1  0.48607000  0.12978000  0.55009000  1.0
  C  C82  1  0.54893000  0.03754000  0.67554000  1.0
  C  C83  1  0.62250000  0.04294000  0.67236000  1.0
  C  C84  1  0.65365000  0.07502000  0.62663000  1.0
  C  C85  1  0.60981000  0.10842000  0.58922000  1.0
  C  C86  1  0.64053000  0.14247000  0.54465000  1.0
  C  C87  1  0.59625000  0.17691000  0.50856000  1.0
  C  C88  1  0.52210000  0.17053000  0.51096000  1.0
  C  C89  1  0.72076000  0.06854000  0.61302000  1.0
  C  C90  1  0.74547000  0.09371000  0.56322000  1.0
  C  C91  1  0.81032000  0.06835000  0.47274000  1.0
  C  C92  1  0.70824000  0.13506000  0.53315000  1.0
  C  C93  1  0.05132000  0.70323000  0.58170000  1.0
  C  C94  1  0.97682000  0.70754000  0.57689000  1.0
  C  C95  1  0.91195000  0.64282000  0.57805000  1.0
  C  C96  1  0.91657000  0.57087000  0.57617000  1.0
  C  C97  1  0.99000000  0.56459000  0.57529000  1.0
  C  C98  1  0.05966000  0.63358000  0.58166000  1.0
  C  C99  1  0.84843000  0.50123000  0.57145000  1.0
  C  C100  1  0.84984000  0.42794000  0.55949000  1.0
  C  C101  1  0.92006000  0.41807000  0.55214000  1.0
  C  C102  1  0.25124000  0.22774000  0.63625000  1.0
  C  C103  1  0.99210000  0.48892000  0.56404000  1.0
  C  C104  1  0.06473000  0.48235000  0.56066000  1.0
  C  C105  1  0.13640000  0.55446000  0.57321000  1.0
  C  C106  1  0.13384000  0.62683000  0.58293000  1.0
  C  C107  1  0.91953000  0.34143000  0.53115000  1.0
  C  C108  1  0.98876000  0.33394000  0.52325000  1.0
  C  C109  1  0.06175000  0.40488000  0.54098000  1.0
  C  C110  1  0.74140000  0.68162000  0.18165000  1.0
  C  C111  1  0.72367000  0.68342000  0.11388000  1.0
  C  C112  1  0.68597000  0.61177000  0.05188000  1.0
  C  C113  1  0.83722000  0.02069000  0.55451000  1.0
  C  C114  1  0.66426000  0.53524000  0.05569000  1.0
  C  C115  1  0.68780000  0.53352000  0.12322000  1.0
  C  C116  1  0.72621000  0.60563000  0.18507000  1.0
  C  C117  1  0.45096000  0.35122000  0.89260000  1.0
  C  C118  1  0.37243000  0.30099000  0.83701000  1.0
  C  C119  1  0.51942000  0.39632000  0.87992000  1.0
  C  C120  1  0.35882000  0.29252000  0.76644000  1.0
  C  C121  1  0.42904000  0.33333333  0.75364000  1.0
  C  C122  1  0.50771000  0.38517000  0.80930000  1.0
  C  C123  1  0.00120000  0.89033000  0.80201000  1.0
  C  C124  1  0.93714000  0.19082000  0.42399000  1.0
  C  C125  1  0.07641000  0.90024000  0.85019000  1.0
  C  C126  1  0.07684000  0.86923000  0.90118000  1.0
  C  C127  1  0.00104000  0.82604000  0.90585000  1.0
  C  C128  1  0.92513000  0.80710000  0.85281000  1.0
  C  C129  1  0.92533000  0.83876000  0.80192000  1.0
  C  C130  1  0.98397000  0.81593000  0.09241000  1.0
  C  C131  1  0.98219000  0.84318000  0.15904000  1.0
  C  C132  1  0.05921000  0.85173000  0.08446000  1.0
  C  C133  1  0.05442000  0.90723000  0.21998000  1.0
  C  C134  1  0.13079000  0.93567000  0.21260000  1.0
  C  C135  1  0.07181000  0.98657000  0.74968000  1.0
  C  C136  1  0.13329000  0.90802000  0.14603000  1.0
  C  C137  1  0.00281000  0.93549000  0.75774000  1.0
  C  C138  1  0.80533000  0.71131000  0.48698000  1.0
  C  C139  1  0.75424000  0.71796000  0.53216000  1.0
  C  C140  1  0.66430000  0.64840000  0.49388000  1.0
  N  N141  1  0.96159000  0.99394000  0.68527000  1.0
  N  N142  1  0.14681000  0.01860000  0.52403000  1.0
  N  N143  1  0.00134000  0.90111000  0.56420000  1.0
  N  N144  1  0.98786000  0.98296000  0.36025000  1.0
  N  N145  1  0.07092000  0.04018000  0.39146000  1.0
  N  N146  1  0.91712000  0.85164000  0.52527000  1.0
  N  N147  1  0.80651000  0.88516000  0.31996000  1.0
  N  N148  1  0.16605000  0.02305000  0.59186000  1.0
  N  N149  1  0.60755000  0.45980000  0.99662000  1.0
  N  N150  1  0.59477000  0.46116000  0.93557000  1.0
  N  N151  1  0.99539000  0.81193000  0.96571000  1.0
  N  N152  1  0.02189000  0.15129000  0.47886000  1.0
  N  N153  1  0.06559000  0.84603000  0.01927000  1.0
  N  N154  1  0.13558000  0.15549000  0.64564000  1.0
  N  N155  1  0.84967000  0.02483000  0.45524000  1.0
  N  N156  1  0.16904000  0.17578000  0.59947000  1.0
  N  N157  1  0.86681000  0.99552000  0.50568000  1.0
  N  N158  1  0.95964000  0.13041000  0.41505000  1.0
  N  N159  1  0.04667000  0.02108000  0.70686000  1.0
  N  N160  1  0.82355000  0.84473000  0.36119000  1.0
