# generated using pymatgen
data_MnH12C18(NO2)2
_symmetry_space_group_name_H-M   'P 1'
_cell_length_a   8.64535000
_cell_length_b   9.96078000
_cell_length_c   11.48475458
_cell_angle_alpha   71.50426342
_cell_angle_beta   68.58557578
_cell_angle_gamma   67.09700000
_symmetry_Int_Tables_number   1
_chemical_formula_structural   MnH12C18(NO2)2
_chemical_formula_sum   'Mn2 H24 C36 N4 O8'
_cell_volume   830.26421458
_cell_formula_units_Z   2
loop_
 _symmetry_equiv_pos_site_id
 _symmetry_equiv_pos_as_xyz
  1  'x, y, z'
loop_
 _atom_site_type_symbol
 _atom_site_label
 _atom_site_symmetry_multiplicity
 _atom_site_fract_x
 _atom_site_fract_y
 _atom_site_fract_z
 _atom_site_occupancy
  Mn  Mn0  1  0.85626000  0.37872000  0.64827000  1.0
  Mn  Mn1  1  0.14374000  0.62127000  0.35173000  1.0
  H  H2  1  0.65688000  0.55190000  0.85772000  1.0
  H  H3  1  0.34310000  0.44808000  0.14229000  1.0
  H  H4  1  0.62053000  0.53812000  0.08552000  1.0
  H  H5  1  0.37946000  0.46187000  0.91448000  1.0
  H  H6  1  0.10959000  0.17654000  0.05421000  1.0
  H  H7  1  0.89042000  0.82350000  0.94578000  1.0
  H  H8  1  0.12034000  0.20530000  0.82838000  1.0
  H  H9  1  0.87965000  0.79473000  0.17162000  1.0
  H  H10  1  0.64529000  0.56314000  0.23879000  1.0
  H  H11  1  0.35470000  0.43687000  0.76121000  1.0
  H  H12  1  0.63208000  0.55022000  0.45874000  1.0
  H  H13  1  0.36791000  0.44977000  0.54127000  1.0
  H  H14  1  0.01042000  0.13772000  0.47876000  1.0
  H  H15  1  0.98961000  0.86231000  0.52121000  1.0
  H  H16  1  0.03463000  0.12505000  0.26075000  1.0
  H  H17  1  0.96539000  0.87498000  0.73923000  1.0
  H  H18  1  0.52638000  0.22016000  0.04005000  1.0
  H  H19  1  0.47363000  0.77980000  0.95994000  1.0
  H  H20  1  0.64213000  0.93620000  0.78437000  1.0
  H  H21  1  0.35788000  0.06378000  0.21561000  1.0
  H  H22  1  0.79389000  0.95092000  0.34246000  1.0
  H  H23  1  0.20612000  0.04907000  0.65756000  1.0
  H  H24  1  0.42652000  0.79425000  0.67839000  1.0
  H  H25  1  0.57349000  0.20574000  0.32163000  1.0
  C  C26  1  0.75367000  0.47039000  0.90586000  1.0
  C  C27  1  0.24630000  0.52961000  0.09414000  1.0
  C  C28  1  0.73510000  0.46219000  0.03281000  1.0
  C  C29  1  0.26486000  0.53783000  0.96718000  1.0
  C  C30  1  0.86324000  0.35561000  0.09125000  1.0
  C  C31  1  0.13675000  0.64441000  0.90874000  1.0
  C  C32  1  0.00446000  0.26103000  0.01601000  1.0
  C  C33  1  0.99554000  0.73899000  0.98398000  1.0
  C  C34  1  0.01210000  0.27679000  0.88928000  1.0
  C  C35  1  0.98790000  0.72322000  0.11071000  1.0
  C  C36  1  0.84890000  0.34811000  0.22522000  1.0
  C  C37  1  0.15109000  0.65191000  0.77479000  1.0
  C  C38  1  0.73190000  0.46624000  0.28585000  1.0
  C  C39  1  0.26809000  0.53378000  0.71416000  1.0
  C  C40  1  0.72322000  0.45993000  0.41019000  1.0
  C  C41  1  0.27677000  0.54008000  0.58981000  1.0
  C  C42  1  0.93346000  0.23017000  0.42087000  1.0
  C  C43  1  0.06656000  0.76984000  0.57912000  1.0
  C  C44  1  0.94876000  0.22570000  0.29725000  1.0
  C  C45  1  0.05126000  0.77431000  0.70275000  1.0
  C  C46  1  0.51342000  0.12382000  0.02315000  1.0
  C  C47  1  0.48658000  0.87616000  0.97686000  1.0
  C  C48  1  0.59432000  0.08766000  0.90196000  1.0
  C  C49  1  0.40567000  0.91233000  0.09806000  1.0
  C  C50  1  0.58047000  0.96326000  0.87905000  1.0
  C  C51  1  0.41954000  0.03673000  0.12095000  1.0
  C  C52  1  0.69564000  0.18208000  0.79929000  1.0
  C  C53  1  0.30436000  0.81790000  0.20069000  1.0
  C  C54  1  0.66454000  0.97357000  0.41046000  1.0
  C  C55  1  0.33548000  0.02643000  0.58955000  1.0
  C  C56  1  0.62248000  0.85821000  0.51177000  1.0
  C  C57  1  0.37753000  0.14179000  0.48825000  1.0
  C  C58  1  0.45743000  0.88547000  0.60121000  1.0
  C  C59  1  0.54259000  0.11452000  0.39880000  1.0
  C  C60  1  0.75147000  0.70582000  0.52095000  1.0
  C  C61  1  0.24854000  0.29416000  0.47907000  1.0
  N  N62  1  0.88948000  0.37978000  0.83402000  1.0
  N  N63  1  0.11049000  0.62023000  0.16599000  1.0
  N  N64  1  0.82462000  0.34600000  0.47714000  1.0
  N  N65  1  0.17539000  0.65401000  0.52284000  1.0
  O  O66  1  0.85022000  0.12263000  0.73626000  1.0
  O  O67  1  0.14979000  0.87735000  0.26372000  1.0
  O  O68  1  0.62170000  0.32360000  0.78139000  1.0
  O  O69  1  0.37829000  0.67638000  0.21861000  1.0
  O  O70  1  0.72441000  0.61011000  0.62454000  1.0
  O  O71  1  0.27561000  0.38988000  0.37547000  1.0
  O  O72  1  0.87841000  0.67842000  0.42192000  1.0
  O  O73  1  0.12160000  0.32157000  0.57809000  1.0
