# generated using pymatgen
data_CoH22C28N4(O5F4)2
_symmetry_space_group_name_H-M   'P 1'
_cell_length_a   9.54668000
_cell_length_b   10.84180000
_cell_length_c   10.90083844
_cell_angle_alpha   61.47280432
_cell_angle_beta   64.46900542
_cell_angle_gamma   86.16650000
_symmetry_Int_Tables_number   1
_chemical_formula_structural   CoH22C28N4(O5F4)2
_chemical_formula_sum   'Co1 H22 C28 N4 O10 F8'
_cell_volume   880.64049149
_cell_formula_units_Z   1
loop_
 _symmetry_equiv_pos_site_id
 _symmetry_equiv_pos_as_xyz
  1  'x, y, z'
loop_
 _atom_site_type_symbol
 _atom_site_label
 _atom_site_symmetry_multiplicity
 _atom_site_fract_x
 _atom_site_fract_y
 _atom_site_fract_z
 _atom_site_occupancy
  Co  Co0  1  1.00000000  0.50000000  0.49999000  1.0
  H  H1  1  0.18009000  0.69562000  0.41381000  1.0
  H  H2  1  0.81990000  0.30436000  0.58620000  1.0
  H  H3  1  0.08489000  0.60833000  0.60705000  1.0
  H  H4  1  0.91510000  0.39164000  0.39296000  1.0
  H  H5  1  0.09313000  0.36797000  0.84684000  1.0
  H  H6  1  0.90688000  0.63202000  0.15319000  1.0
  H  H7  1  0.12659000  0.47900000  0.91184000  1.0
  H  H8  1  0.87340000  0.52099000  0.08818000  1.0
  H  H9  1  0.99207000  0.31461000  0.05053000  1.0
  H  H10  1  0.00797000  0.68538000  0.94948000  1.0
  H  H11  1  0.37523000  0.03861000  0.16009000  1.0
  H  H12  1  0.62482000  0.96143000  0.83992000  1.0
  H  H13  1  0.59527000  0.24516000  0.86172000  1.0
  H  H14  1  0.40476000  0.75484000  0.13827000  1.0
  H  H15  1  0.57562000  0.49780000  0.67618000  1.0
  H  H16  1  0.42439000  0.50221000  0.32382000  1.0
  H  H17  1  0.38591000  0.54570000  0.71145000  1.0
  H  H18  1  0.61408000  0.45430000  0.28855000  1.0
  H  H19  1  0.52083000  0.34397000  0.58284000  1.0
  H  H20  1  0.47918000  0.65605000  0.41715000  1.0
  H  H21  1  0.33772000  0.40226000  0.60487000  1.0
  H  H22  1  0.66232000  0.59775000  0.39511000  1.0
  C  C23  1  0.93105000  0.21156000  0.74776000  1.0
  C  C24  1  0.06894000  0.78843000  0.25225000  1.0
  C  C25  1  0.96786000  0.10337000  0.87653000  1.0
  C  C26  1  0.03215000  0.89664000  0.12347000  1.0
  C  C27  1  0.84990000  0.03071000  0.03173000  1.0
  C  C28  1  0.15011000  0.96931000  0.96827000  1.0
  C  C29  1  0.88120000  0.92990000  0.15264000  1.0
  C  C30  1  0.11881000  0.07011000  0.84736000  1.0
  C  C31  1  0.17743000  0.44842000  0.24324000  1.0
  C  C32  1  0.82253000  0.55158000  0.75676000  1.0
  C  C33  1  0.34241000  0.47057000  0.11705000  1.0
  C  C34  1  0.65756000  0.52945000  0.88293000  1.0
  C  C35  1  0.44900000  0.38150000  0.14848000  1.0
  C  C36  1  0.55096000  0.61850000  0.85150000  1.0
  C  C37  1  0.39573000  0.58870000  0.96673000  1.0
  C  C38  1  0.60422000  0.41130000  0.03325000  1.0
  C  C39  1  0.10382000  0.36704000  0.94389000  1.0
  C  C40  1  0.89617000  0.63297000  0.05613000  1.0
  C  C41  1  0.22961000  0.29019000  0.97229000  1.0
  C  C42  1  0.77041000  0.70983000  0.02770000  1.0
  C  C43  1  0.35591000  0.13436000  0.07494000  1.0
  C  C44  1  0.64411000  0.86564000  0.92509000  1.0
  C  C45  1  0.46914000  0.23758000  0.92537000  1.0
  C  C46  1  0.53090000  0.76243000  0.07462000  1.0
  C  C47  1  0.45504000  0.46164000  0.70570000  1.0
  C  C48  1  0.54498000  0.53835000  0.29427000  1.0
  C  C49  1  0.45809000  0.43340000  0.58056000  1.0
  C  C50  1  0.54193000  0.56658000  0.41943000  1.0
  N  N51  1  0.38778000  0.33563000  0.86236000  1.0
  N  N52  1  0.61223000  0.66437000  0.13762000  1.0
  N  N53  1  0.20993000  0.16804000  0.10169000  1.0
  N  N54  1  0.79014000  0.83196000  0.89834000  1.0
  O  O55  1  0.02731000  0.33160000  0.65838000  1.0
  O  O56  1  0.97269000  0.66841000  0.34161000  1.0
  O  O57  1  0.81312000  0.17945000  0.73920000  1.0
  O  O58  1  0.18688000  0.82054000  0.26083000  1.0
  O  O59  1  0.17938000  0.48606000  0.33848000  1.0
  O  O60  1  0.82060000  0.51392000  0.66152000  1.0
  O  O61  1  0.06188000  0.40207000  0.24275000  1.0
  O  O62  1  0.93809000  0.59792000  0.75725000  1.0
  O  O63  1  0.15217000  0.59766000  0.51173000  1.0
  O  O64  1  0.84781000  0.40231000  0.48828000  1.0
  F  F65  1  0.70129000  0.05824000  0.06884000  1.0
  F  F66  1  0.29871000  0.94176000  0.93117000  1.0
  F  F67  1  0.76236000  0.86761000  0.30039000  1.0
  F  F68  1  0.23764000  0.13240000  0.69962000  1.0
  F  F69  1  0.40424000  0.26672000  0.29245000  1.0
  F  F70  1  0.59572000  0.73330000  0.70754000  1.0
  F  F71  1  0.29524000  0.67702000  0.93106000  1.0
  F  F72  1  0.70471000  0.32296000  0.06890000  1.0
