# generated using pymatgen
data_CdH20C20(NO)4
_symmetry_space_group_name_H-M   'P 1'
_cell_length_a   7.83790000
_cell_length_b   10.34770000
_cell_length_c   13.59420000
_cell_angle_alpha   91.84130000
_cell_angle_beta   91.00390000
_cell_angle_gamma   99.01720000
_symmetry_Int_Tables_number   1
_chemical_formula_structural   CdH20C20(NO)4
_chemical_formula_sum   'Cd2 H40 C40 N8 O8'
_cell_volume   1088.07478630
_cell_formula_units_Z   2
loop_
 _symmetry_equiv_pos_site_id
 _symmetry_equiv_pos_as_xyz
  1  'x, y, z'
loop_
 _atom_site_type_symbol
 _atom_site_label
 _atom_site_symmetry_multiplicity
 _atom_site_fract_x
 _atom_site_fract_y
 _atom_site_fract_z
 _atom_site_occupancy
  Cd  Cd0  1  0.54706000  0.42033000  0.27391000  1.0
  Cd  Cd1  1  0.45293000  0.57967000  0.72608000  1.0
  H  H2  1  0.03686000  0.83196000  0.38929000  1.0
  H  H3  1  0.96313000  0.16802000  0.61072000  1.0
  H  H4  1  0.06548000  0.69584000  0.68478000  1.0
  H  H5  1  0.93449000  0.30415000  0.31522000  1.0
  H  H6  1  0.27418000  0.88889000  0.73083000  1.0
  H  H7  1  0.72581000  0.11111000  0.26918000  1.0
  H  H8  1  0.36521000  0.06133000  0.61027000  1.0
  H  H9  1  0.63479000  0.93868000  0.38974000  1.0
  H  H10  1  0.23967000  0.18222000  0.20047000  1.0
  H  H11  1  0.76035000  0.81776000  0.79954000  1.0
  H  H12  1  0.45953000  0.21249000  0.48665000  1.0
  H  H13  1  0.54046000  0.78753000  0.51336000  1.0
  H  H14  1  0.62677000  0.37980000  0.53682000  1.0
  H  H15  1  0.37321000  0.62020000  0.46317000  1.0
  H  H16  1  0.85044000  0.65850000  0.33904000  1.0
  H  H17  1  0.14955000  0.34151000  0.66096000  1.0
  H  H18  1  0.64113000  0.16275000  0.71658000  1.0
  H  H19  1  0.35887000  0.83726000  0.28341000  1.0
  H  H20  1  0.83329000  0.14735000  0.86062000  1.0
  H  H21  1  0.16672000  0.85267000  0.13938000  1.0
  H  H22  1  0.88333000  0.30427000  0.80868000  1.0
  H  H23  1  0.11668000  0.69574000  0.19131000  1.0
  H  H24  1  0.71127000  0.39943000  0.93714000  1.0
  H  H25  1  0.28873000  0.60057000  0.06285000  1.0
  H  H26  1  0.87459000  0.32464000  0.99278000  1.0
  H  H27  1  0.12542000  0.67538000  0.00722000  1.0
  H  H28  1  0.67060000  0.12813000  0.02542000  1.0
  H  H29  1  0.32942000  0.87187000  0.97457000  1.0
  H  H30  1  0.38438000  0.26367000  0.93810000  1.0
  H  H31  1  0.61563000  0.73633000  0.06189000  1.0
  H  H32  1  0.35831000  0.10576000  0.98538000  1.0
  H  H33  1  0.64170000  0.89425000  0.01461000  1.0
  H  H34  1  0.35601000  0.10422000  0.80045000  1.0
  H  H35  1  0.64401000  0.89578000  0.19955000  1.0
  H  H36  1  0.52256000  0.02522000  0.84846000  1.0
  H  H37  1  0.47745000  0.97479000  0.15154000  1.0
  H  H38  1  0.09933000  0.98346000  0.29372000  1.0
  H  H39  1  0.90069000  0.01653000  0.70628000  1.0
  H  H40  1  0.83310000  0.53612000  0.63485000  1.0
  H  H41  1  0.16687000  0.46387000  0.36515000  1.0
  C  C42  1  0.20874000  0.95840000  0.49006000  1.0
  C  C43  1  0.79126000  0.04159000  0.50994000  1.0
  C  C44  1  0.09013000  0.84649000  0.46414000  1.0
  C  C45  1  0.90987000  0.15350000  0.53586000  1.0
  C  C46  1  0.03245000  0.75182000  0.53299000  1.0
  C  C47  1  0.96754000  0.24818000  0.46701000  1.0
  C  C48  1  0.10146000  0.76847000  0.62942000  1.0
  C  C49  1  0.89852000  0.23153000  0.37058000  1.0
  C  C50  1  0.22083000  0.87954000  0.65595000  1.0
  C  C51  1  0.77915000  0.12046000  0.34406000  1.0
  C  C52  1  0.27307000  0.97476000  0.58796000  1.0
  C  C53  1  0.72692000  0.02525000  0.41205000  1.0
  C  C54  1  0.26744000  0.16016000  0.27609000  1.0
  C  C55  1  0.73256000  0.83983000  0.72392000  1.0
  C  C56  1  0.37750000  0.17290000  0.42456000  1.0
  C  C57  1  0.62250000  0.82710000  0.57545000  1.0
  C  C58  1  0.26142000  0.05729000  0.41825000  1.0
  C  C59  1  0.73859000  0.94270000  0.58175000  1.0
  C  C60  1  0.70678000  0.46215000  0.50549000  1.0
  C  C61  1  0.29321000  0.53784000  0.49450000  1.0
  C  C62  1  0.82873000  0.60918000  0.40786000  1.0
  C  C63  1  0.17125000  0.39081000  0.59213000  1.0
  C  C64  1  0.90253000  0.64180000  0.50066000  1.0
  C  C65  1  0.09746000  0.35820000  0.49934000  1.0
  C  C66  1  0.61553000  0.21161000  0.78706000  1.0
  C  C67  1  0.38448000  0.78841000  0.21294000  1.0
  C  C68  1  0.78468000  0.24043000  0.84866000  1.0
  C  C69  1  0.21532000  0.75958000  0.15134000  1.0
  C  C70  1  0.75418000  0.30434000  0.94854000  1.0
  C  C71  1  0.24583000  0.69567000  0.05146000  1.0
  C  C72  1  0.61591000  0.21650000  0.00635000  1.0
  C  C73  1  0.38410000  0.78349000  0.99365000  1.0
  C  C74  1  0.44823000  0.17723000  0.94548000  1.0
  C  C75  1  0.55178000  0.82277000  0.05451000  1.0
  C  C76  1  0.47878000  0.12115000  0.84275000  1.0
  C  C77  1  0.52124000  0.87886000  0.15725000  1.0
  C  C78  1  0.55689000  0.34042000  0.75870000  1.0
  C  C79  1  0.44311000  0.65959000  0.24130000  1.0
  C  C80  1  0.58689000  0.28716000  0.10323000  1.0
  C  C81  1  0.41312000  0.71284000  0.89677000  1.0
  N  N82  1  0.19543000  0.05184000  0.32255000  1.0
  N  N83  1  0.80457000  0.94816000  0.67746000  1.0
  N  N84  1  0.37967000  0.23528000  0.33667000  1.0
  N  N85  1  0.62032000  0.76471000  0.66334000  1.0
  N  N86  1  0.82195000  0.54620000  0.56057000  1.0
  N  N87  1  0.17804000  0.45379000  0.43943000  1.0
  N  N88  1  0.70825000  0.49762000  0.41211000  1.0
  N  N89  1  0.29174000  0.50238000  0.58788000  1.0
  O  O90  1  0.66872000  0.42941000  0.72292000  1.0
  O  O91  1  0.33128000  0.57060000  0.27708000  1.0
  O  O92  1  0.40074000  0.35564000  0.77101000  1.0
  O  O93  1  0.59925000  0.64436000  0.22898000  1.0
  O  O94  1  0.44297000  0.32673000  0.11745000  1.0
  O  O95  1  0.55702000  0.67327000  0.88255000  1.0
  O  O96  1  0.71092000  0.30704000  0.16756000  1.0
  O  O97  1  0.28908000  0.69296000  0.83244000  1.0
