# generated using pymatgen
data_NiH28C36Br4(N2O)4
_symmetry_space_group_name_H-M   'P 1'
_cell_length_a   8.77499000
_cell_length_b   9.41578000
_cell_length_c   12.30930000
_cell_angle_alpha   68.08840000
_cell_angle_beta   75.57740000
_cell_angle_gamma   89.12120000
_symmetry_Int_Tables_number   1
_chemical_formula_structural   NiH28C36Br4(N2O)4
_chemical_formula_sum   'Ni1 H28 C36 Br4 N8 O4'
_cell_volume   910.41419320
_cell_formula_units_Z   1
loop_
 _symmetry_equiv_pos_site_id
 _symmetry_equiv_pos_as_xyz
  1  'x, y, z'
loop_
 _atom_site_type_symbol
 _atom_site_label
 _atom_site_symmetry_multiplicity
 _atom_site_fract_x
 _atom_site_fract_y
 _atom_site_fract_z
 _atom_site_occupancy
  Ni  Ni0  1  0.50000000  0.00000000  0.00000000  1.0
  H  H1  1  0.60377000  0.87437000  0.80191000  1.0
  H  H2  1  0.39622000  0.12563000  0.19809000  1.0
  H  H3  1  0.62838000  0.69934000  0.16605000  1.0
  H  H4  1  0.37162000  0.30068000  0.83395000  1.0
  H  H5  1  0.77653000  0.50580000  0.05331000  1.0
  H  H6  1  0.22346000  0.49421000  0.94670000  1.0
  H  H7  1  0.73426000  0.68108000  0.72591000  1.0
  H  H8  1  0.26573000  0.31892000  0.27409000  1.0
  H  H9  1  0.73043000  0.49512000  0.83700000  1.0
  H  H10  1  0.26957000  0.50488000  0.16301000  1.0
  H  H11  1  0.98205000  0.79772000  0.84542000  1.0
  H  H12  1  0.01795000  0.20227000  0.15459000  1.0
  H  H13  1  0.27412000  0.82225000  0.78322000  1.0
  H  H14  1  0.72588000  0.17774000  0.21679000  1.0
  H  H15  1  0.41771000  0.66778000  0.66827000  1.0
  H  H16  1  0.58229000  0.33222000  0.33173000  1.0
  H  H17  1  0.26831000  0.49233000  0.61803000  1.0
  H  H18  1  0.73169000  0.50766000  0.38198000  1.0
  H  H19  1  0.85637000  0.48154000  0.63381000  1.0
  H  H20  1  0.14364000  0.51847000  0.36619000  1.0
  H  H21  1  0.03426000  0.39216000  0.61147000  1.0
  H  H22  1  0.96574000  0.60784000  0.38853000  1.0
  H  H23  1  0.65135000  0.26906000  0.75035000  1.0
  H  H24  1  0.34865000  0.73095000  0.24964000  1.0
  H  H25  1  0.05671000  0.25386000  0.88393000  1.0
  H  H26  1  0.94329000  0.74612000  0.11607000  1.0
  H  H27  1  0.82287000  0.02745000  0.05665000  1.0
  H  H28  1  0.17713000  0.97255000  0.94335000  1.0
  C  C29  1  0.47959000  0.15547000  0.67129000  1.0
  C  C30  1  0.52043000  0.84454000  0.32869000  1.0
  C  C31  1  0.49393000  0.08095000  0.57801000  1.0
  C  C32  1  0.50608000  0.91904000  0.42198000  1.0
  C  C33  1  0.36443000  0.06547000  0.53524000  1.0
  C  C34  1  0.63557000  0.93452000  0.46476000  1.0
  C  C35  1  0.36868000  0.98433000  0.45987000  1.0
  C  C36  1  0.63133000  0.01567000  0.54013000  1.0
  C  C37  1  0.63308000  0.80162000  0.88449000  1.0
  C  C38  1  0.36691000  0.19838000  0.11551000  1.0
  C  C39  1  0.64810000  0.70635000  0.07337000  1.0
  C  C40  1  0.35190000  0.29367000  0.92663000  1.0
  C  C41  1  0.71986000  0.61025000  0.01872000  1.0
  C  C42  1  0.28014000  0.38975000  0.98128000  1.0
  C  C43  1  0.77803000  0.61505000  0.80521000  1.0
  C  C44  1  0.22197000  0.38495000  0.19480000  1.0
  C  C45  1  0.95729000  0.62919000  0.76946000  1.0
  C  C46  1  0.04271000  0.37081000  0.23055000  1.0
  C  C47  1  0.04380000  0.72914000  0.79653000  1.0
  C  C48  1  0.95619000  0.27086000  0.20348000  1.0
  C  C49  1  0.20896000  0.74303000  0.76145000  1.0
  C  C50  1  0.79103000  0.25697000  0.23856000  1.0
  C  C51  1  0.28910000  0.65754000  0.69729000  1.0
  C  C52  1  0.71090000  0.34245000  0.30271000  1.0
  C  C53  1  0.20431000  0.55835000  0.66865000  1.0
  C  C54  1  0.79568000  0.44165000  0.33136000  1.0
  C  C55  1  0.03902000  0.54305000  0.70460000  1.0
  C  C56  1  0.96098000  0.45695000  0.29540000  1.0
  C  C57  1  0.95149000  0.43073000  0.67578000  1.0
  C  C58  1  0.04851000  0.56927000  0.32421000  1.0
  C  C59  1  0.72845000  0.23189000  0.81147000  1.0
  C  C60  1  0.27154000  0.76812000  0.18853000  1.0
  C  C61  1  0.93972000  0.22076000  0.88257000  1.0
  C  C62  1  0.06028000  0.77924000  0.11743000  1.0
  C  C63  1  0.82481000  0.10939000  0.96668000  1.0
  C  C64  1  0.17518000  0.89061000  0.03331000  1.0
  Br  Br65  1  0.18354000  0.95174000  0.41538000  1.0
  Br  Br66  1  0.81646000  0.04826000  0.58462000  1.0
  Br  Br67  1  0.17875000  0.15744000  0.58564000  1.0
  Br  Br68  1  0.82125000  0.84254000  0.41437000  1.0
  N  N69  1  0.59594000  0.82505000  0.98773000  1.0
  N  N70  1  0.40405000  0.17496000  0.01226000  1.0
  N  N71  1  0.70950000  0.67221000  0.89990000  1.0
  N  N72  1  0.29049000  0.32779000  0.10010000  1.0
  N  N73  1  0.87692000  0.29654000  0.78565000  1.0
  N  N74  1  0.12308000  0.70346000  0.21434000  1.0
  N  N75  1  0.69473000  0.11839000  0.92084000  1.0
  N  N76  1  0.30526000  0.88162000  0.07915000  1.0
  O  O77  1  0.42919000  0.06020000  0.77982000  1.0
  O  O78  1  0.57085000  0.93982000  0.22018000  1.0
  O  O79  1  0.51823000  0.29706000  0.63327000  1.0
  O  O80  1  0.48179000  0.70296000  0.36669000  1.0
