# generated using pymatgen
data_MnH4C5N2O3
_symmetry_space_group_name_H-M   'P 1'
_cell_length_a   13.93860000
_cell_length_b   14.21670000
_cell_length_c   15.03920000
_cell_angle_alpha   89.99990000
_cell_angle_beta   75.31500000
_cell_angle_gamma   89.99980000
_symmetry_Int_Tables_number   1
_chemical_formula_structural   MnH4C5N2O3
_chemical_formula_sum   'Mn12 H48 C60 N24 O36'
_cell_volume   2882.83118001
_cell_formula_units_Z   12
loop_
 _symmetry_equiv_pos_site_id
 _symmetry_equiv_pos_as_xyz
  1  'x, y, z'
loop_
 _atom_site_type_symbol
 _atom_site_label
 _atom_site_symmetry_multiplicity
 _atom_site_fract_x
 _atom_site_fract_y
 _atom_site_fract_z
 _atom_site_occupancy
  Mn  Mn0  1  0.50000000  0.00000000  0.00000000  1.0
  Mn  Mn1  1  0.50000000  0.50000000  0.50000000  1.0
  Mn  Mn2  1  0.33346000  0.14029000  0.15767000  1.0
  Mn  Mn3  1  0.66655000  0.64029000  0.34232000  1.0
  Mn  Mn4  1  0.66654000  0.85971000  0.84232000  1.0
  Mn  Mn5  1  0.33345000  0.35971000  0.65767000  1.0
  Mn  Mn6  1  0.24643000  0.96950000  0.01899000  1.0
  Mn  Mn7  1  0.75357000  0.46951000  0.48101000  1.0
  Mn  Mn8  1  0.75356000  0.03049000  0.98101000  1.0
  Mn  Mn9  1  0.24643000  0.53049000  0.51899000  1.0
  Mn  Mn10  1  0.00000000  0.00000000  0.00000000  1.0
  Mn  Mn11  1  0.00000000  0.50000000  0.50000000  1.0
  H  H12  1  0.35302000  0.10870000  0.97255000  1.0
  H  H13  1  0.64698000  0.60870000  0.52745000  1.0
  H  H14  1  0.64698000  0.89130000  0.02745000  1.0
  H  H15  1  0.35302000  0.39130000  0.47255000  1.0
  H  H16  1  0.25814000  0.29814000  0.07720000  1.0
  H  H17  1  0.74187000  0.79814000  0.42280000  1.0
  H  H18  1  0.74187000  0.70187000  0.92280000  1.0
  H  H19  1  0.25814000  0.20187000  0.57719000  1.0
  H  H20  1  0.37196000  0.31727000  0.05566000  1.0
  H  H21  1  0.62804000  0.81726000  0.44434000  1.0
  H  H22  1  0.62805000  0.68274000  0.94434000  1.0
  H  H23  1  0.37196000  0.18274000  0.55566000  1.0
  H  H24  1  0.28970000  0.26913000  0.32239000  1.0
  H  H25  1  0.71030000  0.76913000  0.17761000  1.0
  H  H26  1  0.71030000  0.73087000  0.67761000  1.0
  H  H27  1  0.28970000  0.23087000  0.82239000  1.0
  H  H28  1  0.27844000  0.15817000  0.34395000  1.0
  H  H29  1  0.72156000  0.65817000  0.15604000  1.0
  H  H30  1  0.72156000  0.84183000  0.65605000  1.0
  H  H31  1  0.27844000  0.34184000  0.84395000  1.0
  H  H32  1  0.81360000  0.25047000  0.07020000  1.0
  H  H33  1  0.18640000  0.75047000  0.42980000  1.0
  H  H34  1  0.18639000  0.74953000  0.92980000  1.0
  H  H35  1  0.81361000  0.24953000  0.57020000  1.0
  H  H36  1  0.78166000  0.38733000  0.17950000  1.0
  H  H37  1  0.21834000  0.88734000  0.32050000  1.0
  H  H38  1  0.21834000  0.61267000  0.82050000  1.0
  H  H39  1  0.78166000  0.11267000  0.67950000  1.0
  H  H40  1  0.46794000  0.32964000  0.25883000  1.0
  H  H41  1  0.53206000  0.82965000  0.24118000  1.0
  H  H42  1  0.53206000  0.67035000  0.74118000  1.0
  H  H43  1  0.46794000  0.17036000  0.75882000  1.0
  H  H44  1  0.84738000  0.12999000  0.18243000  1.0
  H  H45  1  0.15261000  0.62999000  0.31757000  1.0
  H  H46  1  0.15261000  0.87001000  0.81757000  1.0
  H  H47  1  0.84738000  0.37001000  0.68244000  1.0
  H  H48  1  0.80850000  0.24998000  0.30910000  1.0
  H  H49  1  0.19149000  0.74998000  0.19090000  1.0
  H  H50  1  0.19149000  0.75002000  0.69090000  1.0
  H  H51  1  0.80851000  0.25001000  0.80910000  1.0
  H  H52  1  0.11499000  0.26699000  0.31601000  1.0
  H  H53  1  0.88501000  0.76699000  0.18399000  1.0
  H  H54  1  0.88500000  0.73301000  0.68399000  1.0
  H  H55  1  0.11499000  0.23301000  0.81601000  1.0
  H  H56  1  0.16446000  0.08448000  0.80762000  1.0
  H  H57  1  0.83555000  0.58448000  0.69237000  1.0
  H  H58  1  0.83555000  0.91552000  0.19237000  1.0
  H  H59  1  0.16445000  0.41552000  0.30763000  1.0
  C  C60  1  0.55853000  0.23936000  0.15208000  1.0
  C  C61  1  0.44147000  0.73937000  0.34792000  1.0
  C  C62  1  0.44147000  0.76064000  0.84792000  1.0
  C  C63  1  0.55853000  0.26064000  0.65208000  1.0
  C  C64  1  0.65639000  0.21533000  0.10203000  1.0
  C  C65  1  0.34361000  0.71533000  0.39797000  1.0
  C  C66  1  0.34361000  0.78467000  0.89797000  1.0
  C  C67  1  0.65639000  0.28467000  0.60203000  1.0
  C  C68  1  0.73902000  0.26829000  0.10975000  1.0
  C  C69  1  0.26099000  0.76830000  0.39025000  1.0
  C  C70  1  0.26098000  0.73170000  0.89025000  1.0
  C  C71  1  0.73902000  0.23170000  0.60975000  1.0
  C  C72  1  0.72087000  0.34351000  0.17007000  1.0
  C  C73  1  0.27913000  0.84352000  0.32993000  1.0
  C  C74  1  0.27912000  0.65649000  0.82993000  1.0
  C  C75  1  0.72087000  0.15649000  0.67007000  1.0
  C  C76  1  0.62384000  0.36438000  0.22429000  1.0
  C  C77  1  0.37616000  0.86439000  0.27572000  1.0
  C  C78  1  0.37615000  0.63561000  0.77572000  1.0
  C  C79  1  0.62384000  0.13561000  0.72428000  1.0
  C  C80  1  0.54149000  0.31309000  0.21608000  1.0
  C  C81  1  0.45851000  0.81309000  0.28392000  1.0
  C  C82  1  0.45851000  0.68691000  0.78392000  1.0
  C  C83  1  0.54149000  0.18691000  0.71608000  1.0
  C  C84  1  0.61038000  0.44167000  0.29405000  1.0
  C  C85  1  0.38963000  0.94168000  0.20596000  1.0
  C  C86  1  0.38962000  0.55833000  0.70595000  1.0
  C  C87  1  0.61038000  0.05833000  0.79405000  1.0
  C  C88  1  0.08068000  0.17287000  0.21353000  1.0
  C  C89  1  0.91932000  0.67287000  0.28647000  1.0
  C  C90  1  0.91932000  0.82712000  0.78648000  1.0
  C  C91  1  0.08068000  0.32712000  0.71353000  1.0
  C  C92  1  0.00475000  0.13418000  0.17692000  1.0
  C  C93  1  0.99526000  0.63418000  0.32307000  1.0
  C  C94  1  0.99525000  0.86582000  0.82308000  1.0
  C  C95  1  0.00474000  0.36582000  0.67693000  1.0
  C  C96  1  0.90487000  0.16006000  0.21092000  1.0
  C  C97  1  0.09513000  0.66006000  0.28908000  1.0
  C  C98  1  0.09513000  0.83994000  0.78908000  1.0
  C  C99  1  0.90487000  0.33993000  0.71092000  1.0
  C  C100  1  0.88408000  0.22563000  0.28080000  1.0
  C  C101  1  0.11592000  0.72563000  0.21920000  1.0
  C  C102  1  0.11592000  0.77436000  0.71920000  1.0
  C  C103  1  0.88408000  0.27436000  0.78080000  1.0
  C  C104  1  0.95941000  0.26466000  0.31825000  1.0
  C  C105  1  0.04059000  0.76466000  0.18175000  1.0
  C  C106  1  0.04058000  0.73534000  0.68175000  1.0
  C  C107  1  0.95941000  0.23534000  0.81825000  1.0
  C  C108  1  0.05825000  0.23808000  0.28589000  1.0
  C  C109  1  0.94174000  0.73809000  0.21411000  1.0
  C  C110  1  0.94174000  0.76191000  0.71411000  1.0
  C  C111  1  0.05826000  0.26191000  0.78589000  1.0
  C  C112  1  0.92961000  0.33791000  0.39152000  1.0
  C  C113  1  0.07039000  0.83791000  0.10848000  1.0
  C  C114  1  0.07039000  0.66209000  0.60848000  1.0
  C  C115  1  0.92961000  0.16209000  0.89152000  1.0
  C  C116  1  0.20104000  0.07337000  0.86407000  1.0
  C  C117  1  0.79895000  0.57338000  0.63593000  1.0
  C  C118  1  0.79897000  0.92663000  0.13593000  1.0
  C  C119  1  0.20103000  0.42663000  0.36407000  1.0
  N  N120  1  0.64860000  0.13761000  0.05066000  1.0
  N  N121  1  0.35140000  0.63761000  0.44934000  1.0
  N  N122  1  0.35140000  0.86239000  0.94935000  1.0
  N  N123  1  0.64861000  0.36240000  0.55066000  1.0
  N  N124  1  0.55232000  0.11794000  0.06662000  1.0
  N  N125  1  0.44768000  0.61794000  0.43338000  1.0
  N  N126  1  0.44768000  0.88206000  0.93338000  1.0
  N  N127  1  0.55232000  0.38206000  0.56663000  1.0
  N  N128  1  0.49540000  0.17674000  0.12633000  1.0
  N  N129  1  0.50460000  0.67674000  0.37367000  1.0
  N  N130  1  0.50460000  0.82326000  0.87367000  1.0
  N  N131  1  0.49540000  0.32326000  0.62633000  1.0
  N  N132  1  0.16876000  0.13446000  0.16470000  1.0
  N  N133  1  0.83124000  0.63446000  0.33530000  1.0
  N  N134  1  0.83123000  0.86554000  0.83530000  1.0
  N  N135  1  0.16876000  0.36554000  0.66469000  1.0
  N  N136  1  0.14647000  0.07596000  0.10365000  1.0
  N  N137  1  0.85353000  0.57596000  0.39635000  1.0
  N  N138  1  0.85353000  0.92405000  0.89635000  1.0
  N  N139  1  0.14647000  0.42404000  0.60365000  1.0
  N  N140  1  0.04953000  0.07379000  0.10853000  1.0
  N  N141  1  0.95047000  0.57379000  0.39147000  1.0
  N  N142  1  0.95047000  0.92621000  0.89147000  1.0
  N  N143  1  0.04953000  0.42621000  0.60853000  1.0
  O  O144  1  0.35622000  0.07009000  0.02574000  1.0
  O  O145  1  0.64378000  0.57009000  0.47425000  1.0
  O  O146  1  0.64378000  0.92991000  0.97426000  1.0
  O  O147  1  0.35622000  0.42991000  0.52574000  1.0
  O  O148  1  0.16923000  0.00228000  0.91679000  1.0
  O  O149  1  0.83077000  0.50228000  0.58321000  1.0
  O  O150  1  0.83078000  0.99772000  0.08321000  1.0
  O  O151  1  0.16922000  0.49772000  0.41679000  1.0
  O  O152  1  0.26890000  0.12808000  0.87254000  1.0
  O  O153  1  0.73111000  0.62807000  0.62746000  1.0
  O  O154  1  0.73111000  0.87192000  0.12746000  1.0
  O  O155  1  0.26889000  0.37192000  0.37254000  1.0
  O  O156  1  0.83995000  0.36618000  0.40753000  1.0
  O  O157  1  0.16005000  0.86618000  0.09247000  1.0
  O  O158  1  0.16005000  0.63382000  0.59247000  1.0
  O  O159  1  0.83995000  0.13382000  0.90753000  1.0
  O  O160  1  0.99311000  0.36793000  0.43266000  1.0
  O  O161  1  0.00690000  0.86793000  0.06733000  1.0
  O  O162  1  0.00689000  0.63207000  0.56734000  1.0
  O  O163  1  0.99310000  0.13207000  0.93266000  1.0
  O  O164  1  0.54170000  0.43191000  0.36697000  1.0
  O  O165  1  0.45830000  0.93191000  0.13303000  1.0
  O  O166  1  0.45829000  0.56810000  0.63303000  1.0
  O  O167  1  0.54170000  0.06809000  0.86697000  1.0
  O  O168  1  0.67038000  0.51154000  0.27497000  1.0
  O  O169  1  0.32963000  0.01155000  0.22503000  1.0
  O  O170  1  0.32962000  0.48845000  0.72503000  1.0
  O  O171  1  0.67038000  0.98846000  0.77497000  1.0
  O  O172  1  0.31532000  0.29501000  0.10323000  1.0
  O  O173  1  0.68468000  0.79501000  0.39677000  1.0
  O  O174  1  0.68468000  0.70499000  0.89677000  1.0
  O  O175  1  0.31532000  0.20499000  0.60323000  1.0
  O  O176  1  0.30597000  0.20388000  0.29637000  1.0
  O  O177  1  0.69403000  0.70388000  0.20363000  1.0
  O  O178  1  0.69403000  0.79612000  0.70363000  1.0
  O  O179  1  0.30597000  0.29612000  0.79637000  1.0
