# generated using pymatgen
data_CaH28PbC32(S2O7)2
_symmetry_space_group_name_H-M   'P 1'
_cell_length_a   8.24455000
_cell_length_b   8.80539000
_cell_length_c   13.05160000
_cell_angle_alpha   106.84500000
_cell_angle_beta   105.39800000
_cell_angle_gamma   98.51170000
_symmetry_Int_Tables_number   1
_chemical_formula_structural   CaH28PbC32(S2O7)2
_chemical_formula_sum   'Ca1 H28 Pb1 C32 S4 O14'
_cell_volume   847.91407547
_cell_formula_units_Z   1
loop_
 _symmetry_equiv_pos_site_id
 _symmetry_equiv_pos_as_xyz
  1  'x, y, z'
loop_
 _atom_site_type_symbol
 _atom_site_label
 _atom_site_symmetry_multiplicity
 _atom_site_fract_x
 _atom_site_fract_y
 _atom_site_fract_z
 _atom_site_occupancy
  Ca  Ca0  1  0.00000000  0.50001000  0.99999000  1.0
  H  H1  1  0.89605000  0.25722000  0.74938000  1.0
  H  H2  1  0.85370000  0.49192000  0.74932000  1.0
  H  H3  1  0.10395000  0.74280000  0.25059000  1.0
  H  H4  1  0.14632000  0.50810000  0.25072000  1.0
  H  H5  1  0.93622000  0.04330000  0.59414000  1.0
  H  H6  1  0.65818000  0.55056000  0.59400000  1.0
  H  H7  1  0.06377000  0.95671000  0.40583000  1.0
  H  H8  1  0.34183000  0.44949000  0.40607000  1.0
  H  H9  1  0.42122000  0.75385000  0.52018000  1.0
  H  H10  1  0.09893000  0.76701000  0.51992000  1.0
  H  H11  1  0.57880000  0.24614000  0.47983000  1.0
  H  H12  1  0.90106000  0.23302000  0.48010000  1.0
  H  H13  1  0.37937000  0.97710000  0.67663000  1.0
  H  H14  1  0.29727000  0.70001000  0.67630000  1.0
  H  H15  1  0.62063000  0.02292000  0.32335000  1.0
  H  H16  1  0.70272000  0.29996000  0.32369000  1.0
  H  H17  1  0.30112000  0.98641000  0.88595000  1.0
  H  H18  1  0.58531000  0.89964000  0.88569000  1.0
  H  H19  1  0.69884000  0.01358000  0.11408000  1.0
  H  H20  1  0.41465000  0.10034000  0.11429000  1.0
  H  H21  1  0.11933000  0.03814000  0.80662000  1.0
  H  H22  1  0.68811000  0.76867000  0.80665000  1.0
  H  H23  1  0.88065000  0.96189000  0.19339000  1.0
  H  H24  1  0.31191000  0.23136000  0.19336000  1.0
  H  H25  1  0.08862000  0.91677000  0.89485000  1.0
  H  H26  1  0.80680000  0.97811000  0.89475000  1.0
  H  H27  1  0.91131000  0.08327000  0.10516000  1.0
  H  H28  1  0.19317000  0.02193000  0.10528000  1.0
  Pb  Pb29  1  0.50000000  0.49998000  0.00001000  1.0
  C  C30  1  0.60883000  0.25432000  0.81952000  1.0
  C  C31  1  0.21092000  0.56519000  0.81934000  1.0
  C  C32  1  0.39117000  0.74570000  0.18047000  1.0
  C  C33  1  0.78913000  0.43470000  0.18062000  1.0
  C  C34  1  0.63422000  0.12867000  0.72274000  1.0
  C  C35  1  0.08865000  0.59414000  0.72252000  1.0
  C  C36  1  0.36577000  0.87136000  0.27724000  1.0
  C  C37  1  0.91135000  0.40582000  0.27748000  1.0
  C  C38  1  0.79056000  0.14877000  0.69887000  1.0
  C  C39  1  0.90854000  0.55002000  0.69873000  1.0
  C  C40  1  0.20943000  0.85126000  0.30110000  1.0
  C  C41  1  0.09149000  0.44999000  0.30130000  1.0
  C  C42  1  0.81404000  0.02809000  0.61188000  1.0
  C  C43  1  0.79807000  0.58368000  0.61170000  1.0
  C  C44  1  0.18595000  0.97192000  0.38809000  1.0
  C  C45  1  0.20196000  0.41635000  0.38834000  1.0
  C  C46  1  0.68025000  0.88708000  0.54940000  1.0
  C  C47  1  0.86919000  0.66247000  0.54916000  1.0
  C  C48  1  0.31976000  0.11294000  0.45059000  1.0
  C  C49  1  0.13080000  0.33754000  0.45087000  1.0
  C  C50  1  0.52309000  0.86492000  0.57099000  1.0
  C  C51  1  0.04790000  0.70648000  0.57075000  1.0
  C  C52  1  0.47692000  0.13507000  0.42899000  1.0
  C  C53  1  0.95210000  0.29354000  0.42928000  1.0
  C  C54  1  0.50053000  0.98764000  0.65754000  1.0
  C  C55  1  0.15706000  0.67016000  0.65726000  1.0
  C  C56  1  0.49947000  0.01238000  0.34243000  1.0
  C  C57  1  0.84294000  0.32982000  0.34274000  1.0
  C  C58  1  0.17554000  0.01436000  0.88475000  1.0
  C  C59  1  0.70977000  0.87051000  0.88470000  1.0
  C  C60  1  0.82442000  0.98566000  0.11526000  1.0
  C  C61  1  0.29020000  0.12951000  0.11532000  1.0
  S  S62  1  0.72530000  0.72562000  0.45073000  1.0
  S  S63  1  0.27471000  0.27437000  0.54929000  1.0
  S  S64  1  0.21669000  0.20132000  0.99995000  1.0
  S  S65  1  0.78329000  0.79869000  0.00005000  1.0
  O  O66  1  0.47746000  0.21763000  0.84806000  1.0
  O  O67  1  0.37077000  0.63014000  0.84769000  1.0
  O  O68  1  0.52254000  0.78237000  0.15192000  1.0
  O  O69  1  0.62929000  0.36967000  0.15222000  1.0
  O  O70  1  0.72275000  0.39188000  0.86896000  1.0
  O  O71  1  0.14654000  0.47719000  0.86899000  1.0
  O  O72  1  0.27723000  0.60814000  0.13102000  1.0
  O  O73  1  0.85350000  0.52276000  0.13100000  1.0
  O  O74  1  0.56743000  0.59681000  0.38927000  1.0
  O  O75  1  0.82150000  0.79306000  0.38904000  1.0
  O  O76  1  0.43260000  0.40317000  0.61074000  1.0
  O  O77  1  0.17854000  0.20690000  0.61096000  1.0
  O  O78  1  0.04015000  0.23571000  0.99976000  1.0
  O  O79  1  0.95983000  0.76432000  0.00025000  1.0
