# generated using pymatgen
data_ZnH13C19N5O4
_symmetry_space_group_name_H-M   'P 1'
_cell_length_a   15.90930000
_cell_length_b   24.34420000
_cell_length_c   24.47080000
_cell_angle_alpha   89.98000000
_cell_angle_beta   89.81510000
_cell_angle_gamma   93.09280000
_symmetry_Int_Tables_number   1
_chemical_formula_structural   ZnH13C19N5O4
_chemical_formula_sum   'Zn4 H52 C76 N20 O16'
_cell_volume   9463.66581680
_cell_formula_units_Z   4
loop_
 _symmetry_equiv_pos_site_id
 _symmetry_equiv_pos_as_xyz
  1  'x, y, z'
loop_
 _atom_site_type_symbol
 _atom_site_label
 _atom_site_symmetry_multiplicity
 _atom_site_fract_x
 _atom_site_fract_y
 _atom_site_fract_z
 _atom_site_occupancy
  Zn  Zn0  1  0.41221000  0.50145000  0.99993000  1.0
  Zn  Zn1  1  0.58777000  0.49859000  0.99964000  1.0
  Zn  Zn2  1  0.41221000  0.00157000  0.49992000  1.0
  Zn  Zn3  1  0.58789000  0.99849000  0.49945000  1.0
  H  H4  1  0.37943000  0.60904000  0.13700000  1.0
  H  H5  1  0.61541000  0.32308000  0.78472000  1.0
  H  H6  1  0.60685000  0.27868000  0.17080000  1.0
  H  H7  1  0.39316000  0.72158000  0.82895000  1.0
  H  H8  1  0.39318000  0.22153000  0.67127000  1.0
  H  H9  1  0.60631000  0.77810000  0.32890000  1.0
  H  H10  1  0.61552000  0.82360000  0.71482000  1.0
  H  H11  1  0.38495000  0.17669000  0.28523000  1.0
  H  H12  1  0.34525000  0.31630000  0.79114000  1.0
  H  H13  1  0.65448000  0.68351000  0.20877000  1.0
  H  H14  1  0.65807000  0.70192000  0.80843000  1.0
  H  H15  1  0.62048000  0.39073000  0.86270000  1.0
  H  H16  1  0.34193000  0.29825000  0.19137000  1.0
  H  H17  1  0.34163000  0.79822000  0.30880000  1.0
  H  H18  1  0.65787000  0.20131000  0.69113000  1.0
  H  H19  1  0.65514000  0.18396000  0.29043000  1.0
  H  H20  1  0.34536000  0.81624000  0.70885000  1.0
  H  H21  1  0.35072000  0.38403000  0.86950000  1.0
  H  H22  1  0.64919000  0.61597000  0.13025000  1.0
  H  H23  1  0.65077000  0.62451000  0.87741000  1.0
  H  H24  1  0.34911000  0.37558000  0.12231000  1.0
  H  H25  1  0.34886000  0.87565000  0.37767000  1.0
  H  H26  1  0.61385000  0.35623000  0.10250000  1.0
  H  H27  1  0.65054000  0.12409000  0.62201000  1.0
  H  H28  1  0.65003000  0.11614000  0.36876000  1.0
  H  H29  1  0.35096000  0.88383000  0.63031000  1.0
  H  H30  1  0.26470000  0.42152000  0.99785000  1.0
  H  H31  1  0.73534000  0.57844000  0.00184000  1.0
  H  H32  1  0.26465000  0.92202000  0.49642000  1.0
  H  H33  1  0.73539000  0.07824000  0.49770000  1.0
  H  H34  1  0.10585000  0.42506000  0.99799000  1.0
  H  H35  1  0.89417000  0.57486000  0.00192000  1.0
  H  H36  1  0.10583000  0.92548000  0.49823000  1.0
  H  H37  1  0.38604000  0.64392000  0.89713000  1.0
  H  H38  1  0.89419000  0.07479000  0.49969000  1.0
  H  H39  1  0.70359000  0.40872000  0.99710000  1.0
  H  H40  1  0.29636000  0.59125000  0.00254000  1.0
  H  H41  1  0.70368000  0.90857000  0.50391000  1.0
  H  H42  1  0.29635000  0.09151000  0.50633000  1.0
  H  H43  1  0.82957000  0.35278000  0.99147000  1.0
  H  H44  1  0.93079000  0.38421000  0.99406000  1.0
  H  H45  1  0.17031000  0.64714000  0.00858000  1.0
  H  H46  1  0.06912000  0.61566000  0.00611000  1.0
  H  H47  1  0.82946000  0.85239000  0.50816000  1.0
  H  H48  1  0.38605000  0.14404000  0.60299000  1.0
  H  H49  1  0.93092000  0.88402000  0.50850000  1.0
  H  H50  1  0.17041000  0.14767000  0.50886000  1.0
  H  H51  1  0.06906000  0.11605000  0.50936000  1.0
  H  H52  1  0.61334000  0.85578000  0.39698000  1.0
  H  H53  1  0.62070000  0.89110000  0.63667000  1.0
  H  H54  1  0.38024000  0.10902000  0.36322000  1.0
  H  H55  1  0.38429000  0.67651000  0.21511000  1.0
  C  C56  1  0.48738000  0.41714000  0.06874000  1.0
  C  C57  1  0.10992000  0.51370000  0.00050000  1.0
  C  C58  1  0.89012000  0.98620000  0.50347000  1.0
  C  C59  1  0.10988000  0.01397000  0.50382000  1.0
  C  C60  1  0.83622000  0.43748000  0.99799000  1.0
  C  C61  1  0.16374000  0.56246000  0.00190000  1.0
  C  C62  1  0.83629000  0.93742000  0.50486000  1.0
  C  C63  1  0.16370000  0.06268000  0.50624000  1.0
  C  C64  1  0.74851000  0.44425000  0.99809000  1.0
  C  C65  1  0.25145000  0.55571000  0.00162000  1.0
  C  C66  1  0.74857000  0.94412000  0.50315000  1.0
  C  C67  1  0.51251000  0.58292000  0.93086000  1.0
  C  C68  1  0.25143000  0.05600000  0.50465000  1.0
  C  C69  1  0.48597000  0.39051000  0.87096000  1.0
  C  C70  1  0.51395000  0.60936000  0.12877000  1.0
  C  C71  1  0.51789000  0.62976000  0.89094000  1.0
  C  C72  1  0.48198000  0.37032000  0.10869000  1.0
  C  C73  1  0.48162000  0.87018000  0.39098000  1.0
  C  C74  1  0.51780000  0.12968000  0.60875000  1.0
  C  C75  1  0.51478000  0.10941000  0.37085000  1.0
  C  C76  1  0.48621000  0.89062000  0.62864000  1.0
  C  C77  1  0.56072000  0.37370000  0.84677000  1.0
  C  C78  1  0.50982000  0.56995000  0.08158000  1.0
  C  C79  1  0.43916000  0.62605000  0.15299000  1.0
  C  C80  1  0.44523000  0.65728000  0.87747000  1.0
  C  C81  1  0.55468000  0.34286000  0.12217000  1.0
  C  C82  1  0.55423000  0.84253000  0.37742000  1.0
  C  C83  1  0.44521000  0.15728000  0.62249000  1.0
  C  C84  1  0.43993000  0.12611000  0.34700000  1.0
  C  C85  1  0.56091000  0.87401000  0.65275000  1.0
  C  C86  1  0.55813000  0.33657000  0.80381000  1.0
  C  C87  1  0.44164000  0.66308000  0.19604000  1.0
  C  C88  1  0.44887000  0.69993000  0.83985000  1.0
  C  C89  1  0.49022000  0.43003000  0.91805000  1.0
  C  C90  1  0.55110000  0.30027000  0.15984000  1.0
  C  C91  1  0.55062000  0.79986000  0.33988000  1.0
  C  C92  1  0.44886000  0.19983000  0.66016000  1.0
  C  C93  1  0.44232000  0.16328000  0.30403000  1.0
  C  C94  1  0.55826000  0.83695000  0.69581000  1.0
  C  C95  1  0.47970000  0.31540000  0.78433000  1.0
  C  C96  1  0.52002000  0.68429000  0.21559000  1.0
  C  C97  1  0.52616000  0.71547000  0.81452000  1.0
  C  C98  1  0.47385000  0.28472000  0.18522000  1.0
  C  C99  1  0.47344000  0.78445000  0.31467000  1.0
  C  C100  1  0.49061000  0.93011000  0.58149000  1.0
  C  C101  1  0.52610000  0.21518000  0.68531000  1.0
  C  C102  1  0.52066000  0.18464000  0.28421000  1.0
  C  C103  1  0.47981000  0.81563000  0.71547000  1.0
  C  C104  1  0.40493000  0.33301000  0.80756000  1.0
  C  C105  1  0.59483000  0.66677000  0.19232000  1.0
  C  C106  1  0.59913000  0.68873000  0.82855000  1.0
  C  C107  1  0.40084000  0.31142000  0.17119000  1.0
  C  C108  1  0.40051000  0.81132000  0.32880000  1.0
  C  C109  1  0.59899000  0.18832000  0.67108000  1.0
  C  C110  1  0.59553000  0.16713000  0.30711000  1.0
  C  C111  1  0.51069000  0.06986000  0.41796000  1.0
  C  C112  1  0.40509000  0.83304000  0.69230000  1.0
  C  C113  1  0.40806000  0.37021000  0.85073000  1.0
  C  C114  1  0.59180000  0.62968000  0.14906000  1.0
  C  C115  1  0.59500000  0.64612000  0.86648000  1.0
  C  C116  1  0.40491000  0.35399000  0.13321000  1.0
  C  C117  1  0.40459000  0.85394000  0.36668000  1.0
  C  C118  1  0.59484000  0.14580000  0.63307000  1.0
  C  C119  1  0.59259000  0.12986000  0.35027000  1.0
  C  C120  1  0.40827000  0.87017000  0.64903000  1.0
  C  C121  1  0.76700000  0.53989000  0.00094000  1.0
  C  C122  1  0.51226000  0.08296000  0.56873000  1.0
  C  C123  1  0.23301000  0.46007000  0.99880000  1.0
  C  C124  1  0.76706000  0.03975000  0.49957000  1.0
  C  C125  1  0.23297000  0.96047000  0.49930000  1.0
  C  C126  1  0.85343000  0.53754000  0.00098000  1.0
  C  C127  1  0.14658000  0.46239000  0.99889000  1.0
  C  C128  1  0.85347000  0.03746000  0.50086000  1.0
  C  C129  1  0.14654000  0.96276000  0.50038000  1.0
  C  C130  1  0.48694000  0.91706000  0.43086000  1.0
  C  C131  1  0.89006000  0.48623000  0.99944000  1.0
  N  N132  1  0.46916000  0.27578000  0.74245000  1.0
  N  N133  1  0.28391000  0.50654000  0.00013000  1.0
  N  N134  1  0.71616000  0.99326000  0.50061000  1.0
  N  N135  1  0.28390000  0.00691000  0.50136000  1.0
  N  N136  1  0.97596000  0.47810000  0.99854000  1.0
  N  N137  1  0.02402000  0.52181000  0.00145000  1.0
  N  N138  1  0.97601000  0.97815000  0.50440000  1.0
  N  N139  1  0.02397000  0.02203000  0.50436000  1.0
  N  N140  1  0.86768000  0.38678000  0.99745000  1.0
  N  N141  1  0.13223000  0.61314000  0.00253000  1.0
  N  N142  1  0.86770000  0.88687000  0.50779000  1.0
  N  N143  1  0.53048000  0.72388000  0.25751000  1.0
  N  N144  1  0.13227000  0.11317000  0.51058000  1.0
  N  N145  1  0.53697000  0.75641000  0.77383000  1.0
  N  N146  1  0.46315000  0.24380000  0.22594000  1.0
  N  N147  1  0.46271000  0.74356000  0.27401000  1.0
  N  N148  1  0.53690000  0.25603000  0.72599000  1.0
  N  N149  1  0.53101000  0.22433000  0.24230000  1.0
  N  N150  1  0.46922000  0.77600000  0.75744000  1.0
  N  N151  1  0.71607000  0.49344000  0.99951000  1.0
  O  O152  1  0.41839000  0.43691000  0.05417000  1.0
  O  O153  1  0.43914000  0.56628000  0.94681000  1.0
  O  O154  1  0.43680000  0.55590000  0.06343000  1.0
  O  O155  1  0.56326000  0.44422000  0.93603000  1.0
  O  O156  1  0.56365000  0.94384000  0.56292000  1.0
  O  O157  1  0.43766000  0.05535000  0.43608000  1.0
  O  O158  1  0.43887000  0.06671000  0.55280000  1.0
  O  O159  1  0.56033000  0.93389000  0.44626000  1.0
  O  O160  1  0.58151000  0.56323000  0.94549000  1.0
  O  O161  1  0.57927000  0.55367000  0.06327000  1.0
  O  O162  1  0.42077000  0.44625000  0.93645000  1.0
  O  O163  1  0.42129000  0.94681000  0.56365000  1.0
  O  O164  1  0.58023000  0.05393000  0.43626000  1.0
  O  O165  1  0.58111000  0.06296000  0.55400000  1.0
  O  O166  1  0.41789000  0.93655000  0.44598000  1.0
  O  O167  1  0.56073000  0.43372000  0.05271000  1.0
