# generated using pymatgen
data_CuH4C8(NO2)3
_symmetry_space_group_name_H-M   'P 1'
_cell_length_a   4.78368000
_cell_length_b   10.72430000
_cell_length_c   20.36900000
_cell_angle_alpha   89.99950000
_cell_angle_beta   89.99950000
_cell_angle_gamma   84.04420000
_symmetry_Int_Tables_number   1
_chemical_formula_structural   CuH4C8(NO2)3
_chemical_formula_sum   'Cu4 H16 C32 N12 O24'
_cell_volume   1039.32222443
_cell_formula_units_Z   4
loop_
 _symmetry_equiv_pos_site_id
 _symmetry_equiv_pos_as_xyz
  1  'x, y, z'
loop_
 _atom_site_type_symbol
 _atom_site_label
 _atom_site_symmetry_multiplicity
 _atom_site_fract_x
 _atom_site_fract_y
 _atom_site_fract_z
 _atom_site_occupancy
  Cu  Cu0  1  0.63372000  0.97078000  0.16276000  1.0
  Cu  Cu1  1  0.36609000  0.52922000  0.66275000  1.0
  Cu  Cu2  1  0.36608000  0.02922000  0.83725000  1.0
  Cu  Cu3  1  0.63373000  0.47077000  0.33724000  1.0
  H  H4  1  0.64297000  0.95458000  0.41593000  1.0
  H  H5  1  0.35729000  0.54573000  0.91595000  1.0
  H  H6  1  0.35729000  0.04574000  0.58405000  1.0
  H  H7  1  0.64299000  0.45459000  0.08407000  1.0
  H  H8  1  0.47253000  0.05036000  0.30774000  1.0
  H  H9  1  0.52736000  0.44971000  0.80777000  1.0
  H  H10  1  0.52734000  0.94972000  0.69223000  1.0
  H  H11  1  0.47255000  0.55036000  0.19227000  1.0
  H  H12  1  0.30565000  0.84221000  0.06752000  1.0
  H  H13  1  0.69435000  0.65775000  0.56753000  1.0
  H  H14  1  0.69438000  0.15775000  0.93247000  1.0
  H  H15  1  0.30562000  0.34221000  0.43249000  1.0
  H  H16  1  0.77530000  0.14778000  0.05576000  1.0
  H  H17  1  0.22477000  0.35214000  0.55577000  1.0
  H  H18  1  0.22482000  0.85213000  0.94424000  1.0
  H  H19  1  0.77530000  0.64778000  0.44424000  1.0
  C  C20  1  0.87596000  0.80255000  0.25508000  1.0
  C  C21  1  0.12383000  0.69746000  0.75506000  1.0
  C  C22  1  0.12381000  0.19747000  0.74494000  1.0
  C  C23  1  0.87597000  0.30255000  0.24492000  1.0
  C  C24  1  0.97639000  0.75329000  0.31510000  1.0
  C  C25  1  0.02340000  0.74677000  0.81508000  1.0
  C  C26  1  0.02340000  0.24678000  0.68492000  1.0
  C  C27  1  0.97641000  0.25328000  0.18490000  1.0
  C  C28  1  0.71439000  0.91147000  0.36953000  1.0
  C  C29  1  0.28565000  0.58869000  0.86953000  1.0
  C  C30  1  0.28565000  0.08870000  0.63047000  1.0
  C  C31  1  0.71441000  0.41147000  0.13047000  1.0
  C  C32  1  0.61838000  0.96541000  0.31011000  1.0
  C  C33  1  0.38159000  0.53469000  0.81013000  1.0
  C  C34  1  0.38156000  0.03469000  0.68987000  1.0
  C  C35  1  0.61839000  0.46541000  0.18989000  1.0
  C  C36  1  0.93112000  0.74055000  0.18941000  1.0
  C  C37  1  0.06866000  0.75942000  0.68939000  1.0
  C  C38  1  0.06863000  0.25942000  0.81061000  1.0
  C  C39  1  0.93112000  0.24055000  0.31059000  1.0
  C  C40  1  0.16828000  0.63281000  0.32189000  1.0
  C  C41  1  0.83150000  0.86722000  0.82187000  1.0
  C  C42  1  0.83151000  0.36723000  0.67813000  1.0
  C  C43  1  0.16828000  0.13281000  0.17810000  1.0
  C  C44  1  0.39371000  0.91189000  0.03702000  1.0
  C  C45  1  0.60633000  0.58806000  0.53703000  1.0
  C  C46  1  0.60636000  0.08806000  0.96297000  1.0
  C  C47  1  0.39368000  0.41190000  0.46298000  1.0
  C  C48  1  0.65236000  0.08200000  0.03047000  1.0
  C  C49  1  0.34764000  0.41795000  0.53049000  1.0
  C  C50  1  0.34768000  0.91795000  0.96952000  1.0
  C  C51  1  0.65235000  0.58200000  0.46953000  1.0
  N  N52  1  0.70025000  0.90912000  0.25384000  1.0
  N  N53  1  0.29959000  0.59091000  0.75385000  1.0
  N  N54  1  0.29955000  0.09090000  0.74615000  1.0
  N  N55  1  0.70026000  0.40912000  0.24616000  1.0
  N  N56  1  0.89268000  0.80732000  0.37238000  1.0
  N  N57  1  0.10728000  0.69282000  0.87236000  1.0
  N  N58  1  0.10728000  0.19283000  0.62764000  1.0
  N  N59  1  0.89269000  0.30732000  0.12762000  1.0
  N  N60  1  0.54598000  0.99377000  0.06689000  1.0
  N  N61  1  0.45404000  0.50617000  0.56691000  1.0
  N  N62  1  0.45406000  0.00618000  0.93309000  1.0
  N  N63  1  0.54596000  0.49377000  0.43311000  1.0
  O  O64  1  0.81220000  0.80112000  0.14005000  1.0
  O  O65  1  0.18758000  0.69885000  0.64002000  1.0
  O  O66  1  0.18756000  0.19885000  0.85998000  1.0
  O  O67  1  0.81219000  0.30111000  0.35996000  1.0
  O  O68  1  0.07254000  0.63680000  0.18582000  1.0
  O  O69  1  0.92722000  0.86317000  0.68579000  1.0
  O  O70  1  0.92720000  0.36317000  0.81421000  1.0
  O  O71  1  0.07253000  0.13679000  0.31418000  1.0
  O  O72  1  0.43117000  0.63821000  0.31226000  1.0
  O  O73  1  0.56861000  0.86178000  0.81224000  1.0
  O  O74  1  0.56862000  0.36179000  0.68775000  1.0
  O  O75  1  0.43117000  0.13821000  0.18773000  1.0
  O  O76  1  0.06383000  0.53702000  0.34183000  1.0
  O  O77  1  0.93589000  0.96304000  0.84179000  1.0
  O  O78  1  0.93590000  0.46305000  0.65822000  1.0
  O  O79  1  0.06384000  0.03702000  0.15817000  1.0
  O  O80  1  0.17160000  0.87212000  0.51067000  1.0
  O  O81  1  0.82910000  0.62766000  0.01078000  1.0
  O  O82  1  0.82914000  0.12766000  0.48922000  1.0
  O  O83  1  0.17162000  0.37212000  0.98933000  1.0
  O  O84  1  0.92297000  0.87503000  0.52672000  1.0
  O  O85  1  0.07820000  0.62457000  0.02653000  1.0
  O  O86  1  0.07820000  0.12457000  0.47347000  1.0
  O  O87  1  0.92294000  0.37503000  0.97328000  1.0
