# generated using pymatgen
data_MnH22C16S2(NO4)2
_symmetry_space_group_name_H-M   'P 1'
_cell_length_a   9.63014000
_cell_length_b   9.73896000
_cell_length_c   10.34230000
_cell_angle_alpha   89.36910000
_cell_angle_beta   78.83950000
_cell_angle_gamma   87.59680000
_symmetry_Int_Tables_number   1
_chemical_formula_structural   MnH22C16S2(NO4)2
_chemical_formula_sum   'Mn2 H44 C32 S4 N4 O16'
_cell_volume   950.79440213
_cell_formula_units_Z   2
loop_
 _symmetry_equiv_pos_site_id
 _symmetry_equiv_pos_as_xyz
  1  'x, y, z'
loop_
 _atom_site_type_symbol
 _atom_site_label
 _atom_site_symmetry_multiplicity
 _atom_site_fract_x
 _atom_site_fract_y
 _atom_site_fract_z
 _atom_site_occupancy
  Mn  Mn0  1  0.49647000  0.00356000  0.75039000  1.0
  Mn  Mn1  1  0.50348000  0.99645000  0.24965000  1.0
  H  H2  1  0.15171000  0.86598000  0.81699000  1.0
  H  H3  1  0.84811000  0.13340000  0.18218000  1.0
  H  H4  1  0.08602000  0.03617000  0.20802000  1.0
  H  H5  1  0.91387000  0.96343000  0.79103000  1.0
  H  H6  1  0.83633000  0.86826000  0.39514000  1.0
  H  H7  1  0.16378000  0.13199000  0.60579000  1.0
  H  H8  1  0.92690000  0.23706000  0.58143000  1.0
  H  H9  1  0.07314000  0.76315000  0.41957000  1.0
  H  H10  1  0.51425000  0.37655000  0.67609000  1.0
  H  H11  1  0.48563000  0.62308000  0.32369000  1.0
  H  H12  1  0.55328000  0.36419000  0.83476000  1.0
  H  H13  1  0.44700000  0.63559000  0.16487000  1.0
  H  H14  1  0.43690000  0.61390000  0.73649000  1.0
  H  H15  1  0.56323000  0.38588000  0.26338000  1.0
  H  H16  1  0.42157000  0.57495000  0.90582000  1.0
  H  H17  1  0.57873000  0.42478000  0.09402000  1.0
  H  H18  1  0.17976000  0.57492000  0.91251000  1.0
  H  H19  1  0.82057000  0.42487000  0.08764000  1.0
  H  H20  1  0.20059000  0.55781000  0.73879000  1.0
  H  H21  1  0.79939000  0.44213000  0.26136000  1.0
  H  H22  1  0.03021000  0.33486000  0.78625000  1.0
  H  H23  1  0.96989000  0.66474000  0.21378000  1.0
  H  H24  1  0.02202000  0.35137000  0.95821000  1.0
  H  H25  1  0.97813000  0.64810000  0.04185000  1.0
  H  H26  1  0.10342000  0.20040000  0.87447000  1.0
  H  H27  1  0.89696000  0.79929000  0.12540000  1.0
  H  H28  1  0.62732000  0.67418000  0.90265000  1.0
  H  H29  1  0.37249000  0.32590000  0.09742000  1.0
  H  H30  1  0.75095000  0.80384000  0.88154000  1.0
  H  H31  1  0.24880000  0.19629000  0.11853000  1.0
  H  H32  1  0.83575000  0.52200000  0.89656000  1.0
  H  H33  1  0.16422000  0.47818000  0.10348000  1.0
  H  H34  1  0.94716000  0.64434000  0.80434000  1.0
  H  H35  1  0.05267000  0.35595000  0.19574000  1.0
  H  H36  1  0.93353000  0.50421000  0.62216000  1.0
  H  H37  1  0.06646000  0.49604000  0.37788000  1.0
  H  H38  1  0.77384000  0.43006000  0.70416000  1.0
  H  H39  1  0.22618000  0.57006000  0.29582000  1.0
  H  H40  1  0.81981000  0.61534000  0.41932000  1.0
  H  H41  1  0.17979000  0.38510000  0.58063000  1.0
  H  H42  1  0.64591000  0.69109000  0.47438000  1.0
  H  H43  1  0.35384000  0.30946000  0.52592000  1.0
  H  H44  1  0.67846000  0.50760000  0.48478000  1.0
  H  H45  1  0.32106000  0.49291000  0.51518000  1.0
  C  C46  1  0.13147000  0.94618000  0.01392000  1.0
  C  C47  1  0.86841000  0.05347000  0.98518000  1.0
  C  C48  1  0.08434000  0.92362000  0.89664000  1.0
  C  C49  1  0.91555000  0.07595000  0.10246000  1.0
  C  C50  1  0.04802000  0.02175000  0.11676000  1.0
  C  C51  1  0.95185000  0.97788000  0.88231000  1.0
  C  C52  1  0.86906000  0.05735000  0.48728000  1.0
  C  C53  1  0.13118000  0.94303000  0.51331000  1.0
  C  C54  1  0.90875000  0.92420000  0.44172000  1.0
  C  C55  1  0.09143000  0.07613000  0.55903000  1.0
  C  C56  1  0.95988000  0.13359000  0.54593000  1.0
  C  C57  1  0.04028000  0.86671000  0.45488000  1.0
  C  C58  1  0.34770000  0.29781000  0.81767000  1.0
  C  C59  1  0.65238000  0.70200000  0.18245000  1.0
  C  C60  1  0.46862000  0.39315000  0.78107000  1.0
  C  C61  1  0.53149000  0.60661000  0.21875000  1.0
  C  C62  1  0.40064000  0.53732000  0.81226000  1.0
  C  C63  1  0.59951000  0.46245000  0.18760000  1.0
  C  C64  1  0.24040000  0.52019000  0.82594000  1.0
  C  C65  1  0.75971000  0.47965000  0.17410000  1.0
  C  C66  1  0.08765000  0.31169000  0.86655000  1.0
  C  C67  1  0.91252000  0.68799000  0.13344000  1.0
  C  C68  1  0.69122000  0.73257000  0.70338000  1.0
  C  C69  1  0.30859000  0.26752000  0.29666000  1.0
  C  C70  1  0.72476000  0.70840000  0.83864000  1.0
  C  C71  1  0.27504000  0.29170000  0.16143000  1.0
  C  C72  1  0.84403000  0.59680000  0.81613000  1.0
  C  C73  1  0.15586000  0.40336000  0.18389000  1.0
  C  C74  1  0.83013000  0.52663000  0.68680000  1.0
  C  C75  1  0.16982000  0.47351000  0.31318000  1.0
  C  C76  1  0.72125000  0.60928000  0.49313000  1.0
  C  C77  1  0.27844000  0.39110000  0.50692000  1.0
  S  S78  1  0.29572000  0.86810000  0.03636000  1.0
  S  S79  1  0.70415000  0.13164000  0.96306000  1.0
  S  S80  1  0.70238000  0.13346000  0.46724000  1.0
  S  S81  1  0.29793000  0.86706000  0.53328000  1.0
  N  N82  1  0.74884000  0.62797000  0.62401000  1.0
  N  N83  1  0.25106000  0.37216000  0.37601000  1.0
  N  N84  1  0.22436000  0.37220000  0.84157000  1.0
  N  N85  1  0.77573000  0.62764000  0.15843000  1.0
  O  O86  1  0.38920000  0.86399000  0.90516000  1.0
  O  O87  1  0.61086000  0.13589000  0.09438000  1.0
  O  O88  1  0.26253000  0.73056000  0.08847000  1.0
  O  O89  1  0.73724000  0.26914000  0.91080000  1.0
  O  O90  1  0.34557000  0.95871000  0.12971000  1.0
  O  O91  1  0.65416000  0.04086000  0.86998000  1.0
  O  O92  1  0.61074000  0.13853000  0.59961000  1.0
  O  O93  1  0.38939000  0.86124000  0.40082000  1.0
  O  O94  1  0.65281000  0.03955000  0.37679000  1.0
  O  O95  1  0.34768000  0.96160000  0.62303000  1.0
  O  O96  1  0.73244000  0.27086000  0.41420000  1.0
  O  O97  1  0.26789000  0.72998000  0.58717000  1.0
  O  O98  1  0.61859000  0.82929000  0.66592000  1.0
  O  O99  1  0.38120000  0.17067000  0.33404000  1.0
  O  O100  1  0.35457000  0.16899000  0.82474000  1.0
  O  O101  1  0.64541000  0.83087000  0.17571000  1.0
