# generated using pymatgen
data_CdH34C32(NO)4
_symmetry_space_group_name_H-M   'P 1'
_cell_length_a   10.14030000
_cell_length_b   12.11370000
_cell_length_c   13.28710000
_cell_angle_alpha   105.49400000
_cell_angle_beta   98.27700000
_cell_angle_gamma   108.09400000
_symmetry_Int_Tables_number   1
_chemical_formula_structural   CdH34C32(NO)4
_chemical_formula_sum   'Cd2 H68 C64 N8 O8'
_cell_volume   1448.44427398
_cell_formula_units_Z   2
loop_
 _symmetry_equiv_pos_site_id
 _symmetry_equiv_pos_as_xyz
  1  'x, y, z'
loop_
 _atom_site_type_symbol
 _atom_site_label
 _atom_site_symmetry_multiplicity
 _atom_site_fract_x
 _atom_site_fract_y
 _atom_site_fract_z
 _atom_site_occupancy
  Cd  Cd0  1  0.24094000  0.47333000  0.73981000  1.0
  Cd  Cd1  1  0.75906000  0.52667000  0.26019000  1.0
  H  H2  1  0.21519000  0.86181000  0.88243000  1.0
  H  H3  1  0.78481000  0.13819000  0.11757000  1.0
  H  H4  1  0.38248000  0.85517000  0.86907000  1.0
  H  H5  1  0.61752000  0.14483000  0.13093000  1.0
  H  H6  1  0.30246000  0.07407000  0.84822000  1.0
  H  H7  1  0.69754000  0.92593000  0.15178000  1.0
  H  H8  1  0.37557000  0.06988000  0.97413000  1.0
  H  H9  1  0.62443000  0.93012000  0.02587000  1.0
  H  H10  1  0.52506000  0.04890000  0.78873000  1.0
  H  H11  1  0.47494000  0.95110000  0.21127000  1.0
  H  H12  1  0.59345000  0.05477000  0.92077000  1.0
  H  H13  1  0.40655000  0.94523000  0.07923000  1.0
  H  H14  1  0.57084000  0.26485000  0.99201000  1.0
  H  H15  1  0.42916000  0.73515000  0.00799000  1.0
  H  H16  1  0.70104000  0.26032000  0.91680000  1.0
  H  H17  1  0.29896000  0.73968000  0.08320000  1.0
  H  H18  1  0.70066000  0.18004000  0.71727000  1.0
  H  H19  1  0.29934000  0.81996000  0.28273000  1.0
  H  H20  1  0.71698000  0.21176000  0.54221000  1.0
  H  H21  1  0.28301000  0.78824000  0.45779000  1.0
  H  H22  1  0.58226000  0.32396000  0.46831000  1.0
  H  H23  1  0.41774000  0.67604000  0.53169000  1.0
  H  H24  1  0.41971000  0.40241000  0.56530000  1.0
  H  H25  1  0.58029000  0.59759000  0.43470000  1.0
  H  H26  1  0.30750000  0.41692000  0.94841000  1.0
  H  H27  1  0.69251000  0.58308000  0.05159000  1.0
  H  H28  1  0.44787000  0.38884000  0.02450000  1.0
  H  H29  1  0.55213000  0.61116000  0.97550000  1.0
  H  H30  1  0.28816000  0.26685000  0.94878000  1.0
  H  H31  1  0.71184000  0.73315000  0.05122000  1.0
  H  H32  1  0.32138000  0.88423000  0.68124000  1.0
  H  H33  1  0.67862000  0.11577000  0.31876000  1.0
  H  H34  1  0.22758000  0.74135000  0.69490000  1.0
  H  H35  1  0.77242000  0.25865000  0.30510000  1.0
  H  H36  1  0.11110000  0.95080000  0.71846000  1.0
  H  H37  1  0.88890000  0.04920000  0.28154000  1.0
  H  H38  1  0.02164000  0.80200000  0.72295000  1.0
  H  H39  1  0.97835000  0.19799000  0.27705000  1.0
  H  H40  1  0.24546000  0.05689000  0.60393000  1.0
  H  H41  1  0.75454000  0.94311000  0.39608000  1.0
  H  H42  1  0.27310000  0.12527000  0.44578000  1.0
  H  H43  1  0.72691000  0.87474000  0.55422000  1.0
  H  H44  1  0.13140000  0.98938000  0.26114000  1.0
  H  H45  1  0.86860000  0.01062000  0.73886000  1.0
  H  H46  1  0.95890000  0.77626000  0.22845000  1.0
  H  H47  1  0.04110000  0.22374000  0.77155000  1.0
  H  H48  1  0.95728000  0.58505000  0.60971000  1.0
  H  H49  1  0.04272000  0.41495000  0.39029000  1.0
  H  H50  1  0.80610000  0.62709000  0.60232000  1.0
  H  H51  1  0.19390000  0.37291000  0.39768000  1.0
  H  H52  1  0.81425000  0.51441000  0.48916000  1.0
  H  H53  1  0.18574000  0.48558000  0.51084000  1.0
  H  H54  1  0.81016000  0.44485000  0.81539000  1.0
  H  H55  1  0.18984000  0.55515000  0.18461000  1.0
  H  H56  1  0.91025000  0.50540000  0.95164000  1.0
  H  H57  1  0.08975000  0.49461000  0.04836000  1.0
  H  H58  1  0.03563000  0.73857000  0.03804000  1.0
  H  H59  1  0.96438000  0.26144000  0.96196000  1.0
  H  H60  1  0.98725000  0.93248000  0.06372000  1.0
  H  H61  1  0.01275000  0.06752000  0.93628000  1.0
  H  H62  1  0.79869000  0.94259000  0.92921000  1.0
  H  H63  1  0.20131000  0.05741000  0.07079000  1.0
  H  H64  1  0.70690000  0.56607000  0.74209000  1.0
  H  H65  1  0.29310000  0.43393000  0.25791000  1.0
  H  H66  1  0.63365000  0.73265000  0.66336000  1.0
  H  H67  1  0.36635000  0.26735000  0.33664000  1.0
  H  H68  1  0.61558000  0.85045000  0.76686000  1.0
  H  H69  1  0.38442000  0.14955000  0.23314000  1.0
  C  C70  1  0.30334000  0.89401000  0.84492000  1.0
  C  C71  1  0.69666000  0.10599000  0.15508000  1.0
  C  C72  1  0.37099000  0.03492000  0.88779000  1.0
  C  C73  1  0.62901000  0.96508000  0.11221000  1.0
  C  C74  1  0.52259000  0.08559000  0.87349000  1.0
  C  C75  1  0.47741000  0.91441000  0.12651000  1.0
  C  C76  1  0.58536000  0.22637000  0.91151000  1.0
  C  C77  1  0.41464000  0.77363000  0.08849000  1.0
  C  C78  1  0.54723000  0.27208000  0.73806000  1.0
  C  C79  1  0.45277000  0.72792000  0.26194000  1.0
  C  C80  1  0.63783000  0.22647000  0.68448000  1.0
  C  C81  1  0.36217000  0.77352000  0.31552000  1.0
  C  C82  1  0.64668000  0.24509000  0.58617000  1.0
  C  C83  1  0.35332000  0.75491000  0.41383000  1.0
  C  C84  1  0.56861000  0.30712000  0.54347000  1.0
  C  C85  1  0.43139000  0.69288000  0.45653000  1.0
  C  C86  1  0.47692000  0.35120000  0.59673000  1.0
  C  C87  1  0.52308000  0.64880000  0.40327000  1.0
  C  C88  1  0.46612000  0.33265000  0.69526000  1.0
  C  C89  1  0.53388000  0.66735000  0.30474000  1.0
  C  C90  1  0.42401000  0.33457000  0.85294000  1.0
  C  C91  1  0.57599000  0.66543000  0.14706000  1.0
  C  C92  1  0.36494000  0.35395000  0.94892000  1.0
  C  C93  1  0.63506000  0.64605000  0.05108000  1.0
  C  C94  1  0.24437000  0.83968000  0.72224000  1.0
  C  C95  1  0.75563000  0.16032000  0.27776000  1.0
  C  C96  1  0.10158000  0.85412000  0.68858000  1.0
  C  C97  1  0.89842000  0.14587000  0.31142000  1.0
  C  C98  1  0.08516000  0.87773000  0.50397000  1.0
  C  C99  1  0.91484000  0.12227000  0.49603000  1.0
  C  C100  1  0.18268000  0.99605000  0.52328000  1.0
  C  C101  1  0.81732000  0.00395000  0.47672000  1.0
  C  C102  1  0.19707000  0.03375000  0.43371000  1.0
  C  C103  1  0.80293000  0.96625000  0.56629000  1.0
  C  C104  1  0.11649000  0.95604000  0.32889000  1.0
  C  C105  1  0.88351000  0.04396000  0.67111000  1.0
  C  C106  1  0.01911000  0.83768000  0.30963000  1.0
  C  C107  1  0.98089000  0.16232000  0.69037000  1.0
  C  C108  1  0.00416000  0.79870000  0.39889000  1.0
  C  C109  1  0.99584000  0.20130000  0.60111000  1.0
  C  C110  1  0.94596000  0.69735000  0.50980000  1.0
  C  C111  1  0.05404000  0.30265000  0.49020000  1.0
  C  C112  1  0.87825000  0.60047000  0.55464000  1.0
  C  C113  1  0.12175000  0.39953000  0.44536000  1.0
  C  C114  1  0.03244000  0.51751000  0.83248000  1.0
  C  C115  1  0.96756000  0.48249000  0.16752000  1.0
  C  C116  1  0.90154000  0.52256000  0.87431000  1.0
  C  C117  1  0.09846000  0.47744000  0.12569000  1.0
  C  C118  1  0.87640000  0.64059000  0.88662000  1.0
  C  C119  1  0.12361000  0.35941000  0.11338000  1.0
  C  C120  1  0.95590000  0.74467000  0.97730000  1.0
  C  C121  1  0.04410000  0.25533000  0.02270000  1.0
  C  C122  1  0.92832000  0.85270000  0.99194000  1.0
  C  C123  1  0.07168000  0.14730000  0.00806000  1.0
  C  C124  1  0.82208000  0.85860000  0.91605000  1.0
  C  C125  1  0.17792000  0.14140000  0.08394000  1.0
  C  C126  1  0.74225000  0.75636000  0.82500000  1.0
  C  C127  1  0.25775000  0.24364000  0.17500000  1.0
  C  C128  1  0.77110000  0.64802000  0.81136000  1.0
  C  C129  1  0.22890000  0.35198000  0.18864000  1.0
  C  C130  1  0.62059000  0.75780000  0.74610000  1.0
  C  C131  1  0.37941000  0.24220000  0.25390000  1.0
  C  C132  1  0.47722000  0.66810000  0.74838000  1.0
  C  C133  1  0.52278000  0.33190000  0.25162000  1.0
  N  N134  1  0.91891000  0.68765000  0.40580000  1.0
  N  N135  1  0.08109000  0.31235000  0.59420000  1.0
  N  N136  1  0.04519000  0.81098000  0.57202000  1.0
  N  N137  1  0.95481000  0.18902000  0.42798000  1.0
  N  N138  1  0.39007000  0.36927000  0.76848000  1.0
  N  N139  1  0.60993000  0.63073000  0.23152000  1.0
  N  N140  1  0.51930000  0.27580000  0.83805000  1.0
  N  N141  1  0.48070000  0.72420000  0.16195000  1.0
  O  O142  1  0.09899000  0.45368000  0.86413000  1.0
  O  O143  1  0.90101000  0.54632000  0.13587000  1.0
  O  O144  1  0.06808000  0.57133000  0.76516000  1.0
  O  O145  1  0.93192000  0.42867000  0.23484000  1.0
  O  O146  1  0.45016000  0.66929000  0.83877000  1.0
  O  O147  1  0.54984000  0.33072000  0.16123000  1.0
  O  O148  1  0.39139000  0.59313000  0.65846000  1.0
  O  O149  1  0.60861000  0.40687000  0.34154000  1.0
