# generated using pymatgen
data_CoH4(C2O)4
_symmetry_space_group_name_H-M   'P 1'
_cell_length_a   9.58389000
_cell_length_b   11.73280000
_cell_length_c   13.24510000
_cell_angle_alpha   94.32450000
_cell_angle_beta   102.26800000
_cell_angle_gamma   103.32300000
_symmetry_Int_Tables_number   1
_chemical_formula_structural   CoH4(C2O)4
_chemical_formula_sum   'Co6 H24 C48 O24'
_cell_volume   1404.01171899
_cell_formula_units_Z   6
loop_
 _symmetry_equiv_pos_site_id
 _symmetry_equiv_pos_as_xyz
  1  'x, y, z'
loop_
 _atom_site_type_symbol
 _atom_site_label
 _atom_site_symmetry_multiplicity
 _atom_site_fract_x
 _atom_site_fract_y
 _atom_site_fract_z
 _atom_site_occupancy
  Co  Co0  1  0.44542000  0.27074000  0.33108000  1.0
  Co  Co1  1  0.86786000  0.78357000  0.83972000  1.0
  Co  Co2  1  0.55491000  0.72953000  0.66904000  1.0
  Co  Co3  1  0.13201000  0.21659000  0.16020000  1.0
  Co  Co4  1  0.50007000  0.49996000  0.49993000  1.0
  Co  Co5  1  0.99994000  0.99996000  0.99993000  1.0
  H  H6  1  0.20457000  0.63675000  0.34746000  1.0
  H  H7  1  0.10868000  0.77620000  0.23237000  1.0
  H  H8  1  0.15749000  0.57152000  0.96496000  1.0
  H  H9  1  0.26092000  0.43605000  0.07955000  1.0
  H  H10  1  0.38055000  0.29803000  0.72622000  1.0
  H  H11  1  0.24864000  0.17433000  0.84017000  1.0
  H  H12  1  0.06224000  0.89545000  0.58390000  1.0
  H  H13  1  0.19808000  0.01784000  0.47029000  1.0
  H  H14  1  0.81959000  0.61362000  0.43004000  1.0
  H  H15  1  0.92249000  0.28003000  0.47517000  1.0
  H  H16  1  0.46361000  0.79357000  0.04239000  1.0
  H  H17  1  0.68946000  0.07692000  0.90288000  1.0
  H  H18  1  0.79488000  0.36305000  0.65233000  1.0
  H  H19  1  0.89072000  0.22352000  0.76736000  1.0
  H  H20  1  0.84224000  0.42825000  0.03486000  1.0
  H  H21  1  0.73888000  0.56381000  0.92032000  1.0
  H  H22  1  0.61982000  0.70187000  0.27384000  1.0
  H  H23  1  0.75156000  0.82559000  0.15981000  1.0
  H  H24  1  0.93773000  0.10463000  0.41598000  1.0
  H  H25  1  0.80200000  0.98223000  0.52964000  1.0
  H  H26  1  0.18080000  0.38637000  0.57040000  1.0
  H  H27  1  0.07789000  0.71998000  0.52531000  1.0
  H  H28  1  0.53632000  0.20660000  0.95771000  1.0
  H  H29  1  0.31043000  0.92323000  0.09717000  1.0
  C  C30  1  0.23349000  0.52626000  0.22003000  1.0
  C  C31  1  0.19408000  0.62383000  0.26368000  1.0
  C  C32  1  0.14113000  0.70078000  0.20024000  1.0
  C  C33  1  0.12499000  0.68003000  0.09209000  1.0
  C  C34  1  0.16953000  0.58539000  0.04893000  1.0
  C  C35  1  0.22530000  0.50927000  0.11256000  1.0
  C  C36  1  0.28510000  0.44546000  0.29084000  1.0
  C  C37  1  0.05391000  0.75612000  0.02368000  1.0
  C  C38  1  0.29791000  0.16441000  0.59194000  1.0
  C  C39  1  0.31190000  0.20921000  0.69609000  1.0
  C  C40  1  0.23881000  0.14058000  0.75937000  1.0
  C  C41  1  0.14956000  0.02688000  0.71858000  1.0
  C  C42  1  0.13455000  0.98275000  0.61439000  1.0
  C  C43  1  0.20920000  0.05055000  0.55150000  1.0
  C  C44  1  0.37283000  0.23950000  0.52374000  1.0
  C  C45  1  0.06860000  0.95419000  0.78530000  1.0
  C  C46  1  0.70271000  0.37904000  0.39520000  1.0
  C  C47  1  0.89948000  0.56493000  0.46115000  1.0
  C  C48  1  0.85667000  0.44078000  0.44701000  1.0
  C  C49  1  0.95803000  0.37615000  0.48615000  1.0
  C  C50  1  0.67910000  0.85207000  0.94240000  1.0
  C  C51  1  0.47856000  0.88417000  0.02462000  1.0
  C  C52  1  0.58567000  0.92846000  0.97031000  1.0
  C  C53  1  0.60605000  0.04434000  0.94526000  1.0
  C  C54  1  0.76625000  0.47362000  0.77982000  1.0
  C  C55  1  0.80549000  0.37599000  0.73613000  1.0
  C  C56  1  0.85839000  0.29899000  0.79952000  1.0
  C  C57  1  0.87468000  0.31978000  0.90769000  1.0
  C  C58  1  0.83018000  0.41442000  0.95089000  1.0
  C  C59  1  0.77445000  0.49058000  0.88730000  1.0
  C  C60  1  0.71486000  0.55455000  0.70910000  1.0
  C  C61  1  0.94587000  0.24376000  0.97612000  1.0
  C  C62  1  0.70231000  0.83559000  0.40805000  1.0
  C  C63  1  0.68838000  0.79073000  0.30392000  1.0
  C  C64  1  0.76137000  0.85937000  0.24060000  1.0
  C  C65  1  0.85050000  0.97313000  0.28134000  1.0
  C  C66  1  0.86551000  0.01729000  0.38552000  1.0
  C  C67  1  0.79092000  0.94949000  0.44844000  1.0
  C  C68  1  0.62735000  0.76054000  0.47625000  1.0
  C  C69  1  0.93136000  0.04587000  0.21460000  1.0
  C  C70  1  0.29771000  0.62100000  0.60512000  1.0
  C  C71  1  0.10091000  0.43508000  0.53931000  1.0
  C  C72  1  0.14370000  0.55924000  0.55345000  1.0
  C  C73  1  0.04235000  0.62386000  0.51432000  1.0
  C  C74  1  0.32074000  0.14804000  0.05761000  1.0
  C  C75  1  0.52136000  0.11598000  0.97546000  1.0
  C  C76  1  0.41422000  0.07168000  0.02975000  1.0
  C  C77  1  0.39385000  0.95581000  0.05481000  1.0
  O  O78  1  0.30163000  0.34390000  0.24973000  1.0
  O  O79  1  0.31264000  0.47317000  0.38748000  1.0
  O  O80  1  0.04603000  0.85503000  0.06457000  1.0
  O  O81  1  0.00153000  0.71328000  0.92722000  1.0
  O  O82  1  0.36394000  0.19059000  0.43053000  1.0
  O  O83  1  0.43828000  0.34575000  0.55880000  1.0
  O  O84  1  0.10351000  0.98603000  0.88319000  1.0
  O  O85  1  0.96656000  0.86161000  0.74021000  1.0
  O  O86  1  0.59965000  0.43467000  0.38973000  1.0
  O  O87  1  0.66234000  0.27025000  0.35555000  1.0
  O  O88  1  0.78442000  0.90259000  0.89618000  1.0
  O  O89  1  0.66168000  0.74755000  0.95901000  1.0
  O  O90  1  0.69835000  0.65607000  0.75031000  1.0
  O  O91  1  0.68751000  0.52704000  0.61245000  1.0
  O  O92  1  0.95385000  0.14487000  0.93526000  1.0
  O  O93  1  0.99821000  0.28664000  0.07257000  1.0
  O  O94  1  0.63610000  0.80953000  0.56941000  1.0
  O  O95  1  0.56196000  0.65428000  0.44121000  1.0
  O  O96  1  0.89650000  0.01398000  0.11671000  1.0
  O  O97  1  0.03323000  0.13855000  0.25967000  1.0
  O  O98  1  0.40080000  0.56548000  0.61022000  1.0
  O  O99  1  0.33805000  0.72973000  0.64499000  1.0
  O  O100  1  0.21532000  0.09748000  0.10371000  1.0
  O  O101  1  0.33823000  0.25260000  0.04107000  1.0
