# generated using pymatgen
data_SrH2C5(NO2)2
_symmetry_space_group_name_H-M   'P 1'
_cell_length_a   6.83537000
_cell_length_b   6.96612000
_cell_length_c   13.59510000
_cell_angle_alpha   90.00110000
_cell_angle_beta   90.00030000
_cell_angle_gamma   72.53200000
_symmetry_Int_Tables_number   1
_chemical_formula_structural   SrH2C5(NO2)2
_chemical_formula_sum   'Sr4 H8 C20 N8 O16'
_cell_volume   617.49193607
_cell_formula_units_Z   4
loop_
 _symmetry_equiv_pos_site_id
 _symmetry_equiv_pos_as_xyz
  1  'x, y, z'
loop_
 _atom_site_type_symbol
 _atom_site_label
 _atom_site_symmetry_multiplicity
 _atom_site_fract_x
 _atom_site_fract_y
 _atom_site_fract_z
 _atom_site_occupancy
  Sr  Sr0  1  0.77472000  0.38541000  0.45487000  1.0
  Sr  Sr1  1  0.72528000  0.61459000  0.95487000  1.0
  Sr  Sr2  1  0.22528000  0.61458000  0.54513000  1.0
  Sr  Sr3  1  0.27472000  0.38542000  0.04513000  1.0
  H  H4  1  0.64138000  0.85237000  0.74523000  1.0
  H  H5  1  0.85862000  0.14763000  0.24523000  1.0
  H  H6  1  0.35862000  0.14763000  0.25477000  1.0
  H  H7  1  0.14138000  0.85237000  0.75477000  1.0
  H  H8  1  0.63494000  0.92210000  0.56346000  1.0
  H  H9  1  0.86506000  0.07790000  0.06346000  1.0
  H  H10  1  0.36506000  0.07790000  0.43654000  1.0
  H  H11  1  0.13494000  0.92210000  0.93654000  1.0
  C  C12  1  0.62996000  0.03449000  0.61915000  1.0
  C  C13  1  0.87004000  0.96552000  0.11915000  1.0
  C  C14  1  0.37004000  0.96552000  0.38085000  1.0
  C  C15  1  0.12996000  0.03448000  0.88085000  1.0
  C  C16  1  0.63046000  0.16390000  0.76794000  1.0
  C  C17  1  0.86954000  0.83610000  0.26794000  1.0
  C  C18  1  0.36955000  0.83610000  0.23206000  1.0
  C  C19  1  0.13046000  0.16390000  0.73206000  1.0
  C  C20  1  0.62053000  0.31015000  0.69587000  1.0
  C  C21  1  0.87947000  0.68986000  0.19587000  1.0
  C  C22  1  0.37947000  0.68985000  0.30413000  1.0
  C  C23  1  0.12053000  0.31014000  0.80413000  1.0
  C  C24  1  0.61772000  0.52387000  0.69649000  1.0
  C  C25  1  0.88228000  0.47613000  0.19648000  1.0
  C  C26  1  0.38228000  0.47613000  0.30351000  1.0
  C  C27  1  0.11772000  0.52387000  0.80352000  1.0
  C  C28  1  0.62397000  0.15264000  0.87709000  1.0
  C  C29  1  0.87602000  0.84738000  0.37709000  1.0
  C  C30  1  0.37603000  0.84737000  0.12291000  1.0
  C  C31  1  0.12398000  0.15261000  0.62291000  1.0
  N  N32  1  0.61896000  0.22597000  0.60384000  1.0
  N  N33  1  0.88104000  0.77403000  0.10384000  1.0
  N  N34  1  0.38104000  0.77403000  0.39616000  1.0
  N  N35  1  0.11896000  0.22597000  0.89616000  1.0
  N  N36  1  0.63733000  0.99252000  0.71587000  1.0
  N  N37  1  0.86267000  0.00749000  0.21587000  1.0
  N  N38  1  0.36267000  0.00748000  0.28413000  1.0
  N  N39  1  0.13733000  0.99251000  0.78413000  1.0
  O  O40  1  0.58503000  0.61185000  0.61247000  1.0
  O  O41  1  0.91496000  0.38816000  0.11248000  1.0
  O  O42  1  0.41496000  0.38815000  0.38753000  1.0
  O  O43  1  0.08504000  0.61184000  0.88752000  1.0
  O  O44  1  0.64863000  0.60914000  0.77504000  1.0
  O  O45  1  0.85137000  0.39085000  0.27505000  1.0
  O  O46  1  0.35137000  0.39086000  0.22496000  1.0
  O  O47  1  0.14864000  0.60915000  0.72495000  1.0
  O  O48  1  0.58503000  0.31537000  0.92828000  1.0
  O  O49  1  0.91497000  0.68463000  0.42828000  1.0
  O  O50  1  0.41497000  0.68464000  0.07172000  1.0
  O  O51  1  0.08503000  0.31537000  0.57172000  1.0
  O  O52  1  0.65087000  0.97984000  0.91287000  1.0
  O  O53  1  0.84913000  0.02016000  0.41287000  1.0
  O  O54  1  0.34913000  0.02016000  0.08713000  1.0
  O  O55  1  0.15087000  0.97984000  0.58713000  1.0
