# generated using pymatgen
data_Zn2H22C39N4(O4F3)2
_symmetry_space_group_name_H-M   'P 1'
_cell_length_a   13.04580000
_cell_length_b   13.13480000
_cell_length_c   13.04580000
_cell_angle_alpha   83.75660000
_cell_angle_beta   85.46700000
_cell_angle_gamma   83.75660000
_symmetry_Int_Tables_number   1
_chemical_formula_structural   Zn2H22C39N4(O4F3)2
_chemical_formula_sum   'Zn4 H44 C78 N8 O16 F12'
_cell_volume   2203.89609582
_cell_formula_units_Z   2
loop_
 _symmetry_equiv_pos_site_id
 _symmetry_equiv_pos_as_xyz
  1  'x, y, z'
loop_
 _atom_site_type_symbol
 _atom_site_label
 _atom_site_symmetry_multiplicity
 _atom_site_fract_x
 _atom_site_fract_y
 _atom_site_fract_z
 _atom_site_occupancy
  Zn  Zn0  1  0.27379000  0.17082000  0.16148000  1.0
  Zn  Zn1  1  0.83852000  0.32917000  0.72621000  1.0
  Zn  Zn2  1  0.72621000  0.82917000  0.83852000  1.0
  Zn  Zn3  1  0.16148000  0.67083000  0.27379000  1.0
  H  H4  1  0.26895000  0.39622000  0.19175000  1.0
  H  H5  1  0.80825000  0.10378000  0.73105000  1.0
  H  H6  1  0.73105000  0.60378000  0.80825000  1.0
  H  H7  1  0.19175000  0.89622000  0.26895000  1.0
  H  H8  1  0.36027000  0.54439000  0.12167000  1.0
  H  H9  1  0.87833000  0.95561000  0.63972000  1.0
  H  H10  1  0.63972000  0.45561000  0.87833000  1.0
  H  H11  1  0.12167000  0.04440000  0.36027000  1.0
  H  H12  1  0.55963000  0.33785000  0.93527000  1.0
  H  H13  1  0.06474000  0.16216000  0.44037000  1.0
  H  H14  1  0.44037000  0.66216000  0.06474000  1.0
  H  H15  1  0.93526000  0.83785000  0.55963000  1.0
  H  H16  1  0.45930000  0.19876000  0.01423000  1.0
  H  H17  1  0.98577000  0.30125000  0.54071000  1.0
  H  H18  1  0.54070000  0.80124000  0.98577000  1.0
  H  H19  1  0.01423000  0.69876000  0.45929000  1.0
  H  H20  1  0.41119000  0.97599000  0.21460000  1.0
  H  H21  1  0.78541000  0.52400000  0.58880000  1.0
  H  H22  1  0.58880000  0.02399000  0.78541000  1.0
  H  H23  1  0.21460000  0.47600000  0.41119000  1.0
  H  H24  1  0.51963000  0.90028000  0.35546000  1.0
  H  H25  1  0.64454000  0.59972000  0.48036000  1.0
  H  H26  1  0.48036000  0.09971000  0.64455000  1.0
  H  H27  1  0.35546000  0.40029000  0.51963000  1.0
  H  H28  1  0.39234000  0.15387000  0.52843000  1.0
  H  H29  1  0.47156000  0.34613000  0.60766000  1.0
  H  H30  1  0.60766000  0.84612000  0.47158000  1.0
  H  H31  1  0.52843000  0.65388000  0.39235000  1.0
  H  H32  1  0.28918000  0.21896000  0.37797000  1.0
  H  H33  1  0.62202000  0.28104000  0.71082000  1.0
  H  H34  1  0.71082000  0.78103000  0.62203000  1.0
  H  H35  1  0.37798000  0.71897000  0.28918000  1.0
  H  H36  1  0.30223000  0.06574000  0.85804000  1.0
  H  H37  1  0.14195000  0.43425000  0.69776000  1.0
  H  H38  1  0.69778000  0.93425000  0.14195000  1.0
  H  H39  1  0.85805000  0.56575000  0.30223000  1.0
  H  H40  1  0.30461000  0.96081000  0.71232000  1.0
  H  H41  1  0.28767000  0.53918000  0.69538000  1.0
  H  H42  1  0.69540000  0.03919000  0.28767000  1.0
  H  H43  1  0.71233000  0.46081000  0.30462000  1.0
  H  H44  1  0.23134000  0.70065000  0.92794000  1.0
  H  H45  1  0.07206000  0.79934000  0.76865000  1.0
  H  H46  1  0.76865000  0.29935000  0.07206000  1.0
  H  H47  1  0.92795000  0.20065000  0.23135000  1.0
  C  C48  1  0.33522000  0.38603000  0.13629000  1.0
  C  C49  1  0.86370000  0.11398000  0.66477000  1.0
  C  C50  1  0.66477000  0.61398000  0.86371000  1.0
  C  C51  1  0.13629000  0.88603000  0.33522000  1.0
  C  C52  1  0.38712000  0.46968000  0.09527000  1.0
  C  C53  1  0.90473000  0.03033000  0.61288000  1.0
  C  C54  1  0.61288000  0.53033000  0.90473000  1.0
  C  C55  1  0.09527000  0.96968000  0.38712000  1.0
  C  C56  1  0.47061000  0.45651000  0.02163000  1.0
  C  C57  1  0.97837000  0.04349000  0.52939000  1.0
  C  C58  1  0.52938000  0.54349000  0.97837000  1.0
  C  C59  1  0.02163000  0.95652000  0.47062000  1.0
  C  C60  1  0.49644000  0.35662000  0.99191000  1.0
  C  C61  1  0.00810000  0.14339000  0.50357000  1.0
  C  C62  1  0.50356000  0.64338000  0.00810000  1.0
  C  C63  1  0.99191000  0.85662000  0.49643000  1.0
  C  C64  1  0.44100000  0.27675000  0.03620000  1.0
  C  C65  1  0.96381000  0.22325000  0.55901000  1.0
  C  C66  1  0.55901000  0.72325000  0.96381000  1.0
  C  C67  1  0.03619000  0.77675000  0.44099000  1.0
  C  C68  1  0.41030000  0.01346000  0.28539000  1.0
  C  C69  1  0.71462000  0.48654000  0.58970000  1.0
  C  C70  1  0.58969000  0.98653000  0.71462000  1.0
  C  C71  1  0.28539000  0.51347000  0.41030000  1.0
  C  C72  1  0.47059000  0.97145000  0.36574000  1.0
  C  C73  1  0.63427000  0.52855000  0.52941000  1.0
  C  C74  1  0.52941000  0.02854000  0.63427000  1.0
  C  C75  1  0.36574000  0.47146000  0.47058000  1.0
  C  C76  1  0.46783000  0.02060000  0.45657000  1.0
  C  C77  1  0.54343000  0.47940000  0.53216000  1.0
  C  C78  1  0.53216000  0.97939000  0.54344000  1.0
  C  C79  1  0.45657000  0.52061000  0.46783000  1.0
  C  C80  1  0.40064000  0.11119000  0.46076000  1.0
  C  C81  1  0.53924000  0.38881000  0.59936000  1.0
  C  C82  1  0.59935000  0.88880000  0.53925000  1.0
  C  C83  1  0.46076000  0.61120000  0.40064000  1.0
  C  C84  1  0.34303000  0.14929000  0.37748000  1.0
  C  C85  1  0.62252000  0.35071000  0.65697000  1.0
  C  C86  1  0.65697000  0.85069000  0.62253000  1.0
  C  C87  1  0.37748000  0.64930000  0.34303000  1.0
  C  C88  1  0.26627000  0.01255000  0.05844000  1.0
  C  C89  1  0.94156000  0.48744000  0.73373000  1.0
  C  C90  1  0.73374000  0.98745000  0.94156000  1.0
  C  C91  1  0.05844000  0.51256000  0.26626000  1.0
  C  C92  1  0.27084000  0.94301000  0.97430000  1.0
  C  C93  1  0.02569000  0.55698000  0.72916000  1.0
  C  C94  1  0.72917000  0.05699000  0.02570000  1.0
  C  C95  1  0.97431000  0.44302000  0.27083000  1.0
  C  C96  1  0.28818000  0.98499000  0.87217000  1.0
  C  C97  1  0.12782000  0.51501000  0.71182000  1.0
  C  C98  1  0.71183000  0.01501000  0.12783000  1.0
  C  C99  1  0.87218000  0.48499000  0.28818000  1.0
  C  C100  1  0.28801000  0.92558000  0.79026000  1.0
  C  C101  1  0.20973000  0.57441000  0.71197000  1.0
  C  C102  1  0.71199000  0.07442000  0.20973000  1.0
  C  C103  1  0.79027000  0.42558000  0.28802000  1.0
  C  C104  1  0.26735000  0.82254000  0.80902000  1.0
  C  C105  1  0.19098000  0.67745000  0.73265000  1.0
  C  C106  1  0.73265000  0.17746000  0.19098000  1.0
  C  C107  1  0.80902000  0.32255000  0.26735000  1.0
  C  C108  1  0.24803000  0.78056000  0.91132000  1.0
  C  C109  1  0.08868000  0.71943000  0.75196000  1.0
  C  C110  1  0.75197000  0.21944000  0.08869000  1.0
  C  C111  1  0.91132000  0.28056000  0.24804000  1.0
  C  C112  1  0.25218000  0.83897000  0.99402000  1.0
  C  C113  1  0.00598000  0.66102000  0.74781000  1.0
  C  C114  1  0.74782000  0.16103000  0.00598000  1.0
  C  C115  1  0.99402000  0.33898000  0.25218000  1.0
  C  C116  1  0.24878000  0.78573000  0.10235000  1.0
  C  C117  1  0.89766000  0.71427000  0.75121000  1.0
  C  C118  1  0.75122000  0.21428000  0.89765000  1.0
  C  C119  1  0.10235000  0.28573000  0.24878000  1.0
  C  C120  1  0.27687000  0.75000000  0.72313000  1.0
  C  C121  1  0.72313000  0.25000000  0.27687000  1.0
  C  C122  1  0.27077000  0.80991000  0.61354000  1.0
  C  C123  1  0.38645000  0.69008000  0.72923000  1.0
  C  C124  1  0.72922000  0.19008000  0.38646000  1.0
  C  C125  1  0.61355000  0.30992000  0.27077000  1.0
  N  N126  1  0.36163000  0.29075000  0.10765000  1.0
  N  N127  1  0.89235000  0.20925000  0.63837000  1.0
  N  N128  1  0.63837000  0.70925000  0.89235000  1.0
  N  N129  1  0.10765000  0.79076000  0.36163000  1.0
  N  N130  1  0.34781000  0.10172000  0.29049000  1.0
  N  N131  1  0.70951000  0.39828000  0.65219000  1.0
  N  N132  1  0.65219000  0.89828000  0.70951000  1.0
  N  N133  1  0.29049000  0.60173000  0.34781000  1.0
  O  O134  1  0.20793000  0.99871000  0.13869000  1.0
  O  O135  1  0.86131000  0.50129000  0.79206000  1.0
  O  O136  1  0.79210000  0.00128000  0.86132000  1.0
  O  O137  1  0.13869000  0.49872000  0.20791000  1.0
  O  O138  1  0.32209000  0.08944000  0.04159000  1.0
  O  O139  1  0.95841000  0.41055000  0.67790000  1.0
  O  O140  1  0.67790000  0.91057000  0.95840000  1.0
  O  O141  1  0.04160000  0.58944000  0.32210000  1.0
  O  O142  1  0.32561000  0.78778000  0.15410000  1.0
  O  O143  1  0.84590000  0.71221000  0.67438000  1.0
  O  O144  1  0.67439000  0.21219000  0.84589000  1.0
  O  O145  1  0.15411000  0.28781000  0.32561000  1.0
  O  O146  1  0.16912000  0.73708000  0.13134000  1.0
  O  O147  1  0.86865000  0.76291000  0.83088000  1.0
  O  O148  1  0.83086000  0.26294000  0.86866000  1.0
  O  O149  1  0.13135000  0.23707000  0.16912000  1.0
  F  F150  1  0.18960000  0.88401000  0.61114000  1.0
  F  F151  1  0.38886000  0.61599000  0.81041000  1.0
  F  F152  1  0.81040000  0.11599000  0.38887000  1.0
  F  F153  1  0.61114000  0.38401000  0.18960000  1.0
  F  F154  1  0.35763000  0.85781000  0.58133000  1.0
  F  F155  1  0.41867000  0.64217000  0.64237000  1.0
  F  F156  1  0.64236000  0.14219000  0.41867000  1.0
  F  F157  1  0.58133000  0.35782000  0.35763000  1.0
  F  F158  1  0.25881000  0.74721000  0.53993000  1.0
  F  F159  1  0.46006000  0.75278000  0.74119000  1.0
  F  F160  1  0.74118000  0.25278000  0.46007000  1.0
  F  F161  1  0.53993000  0.24722000  0.25881000  1.0
