# generated using pymatgen
data_Al2H14C17O11
_symmetry_space_group_name_H-M   'P 1'
_cell_length_a   6.65705000
_cell_length_b   14.04290000
_cell_length_c   16.08380000
_cell_angle_alpha   90.34010000
_cell_angle_beta   90.67070000
_cell_angle_gamma   90.87760000
_symmetry_Int_Tables_number   1
_chemical_formula_structural   Al2H14C17O11
_chemical_formula_sum   'Al4 H28 C34 O22'
_cell_volume   1503.27508536
_cell_formula_units_Z   2
loop_
 _symmetry_equiv_pos_site_id
 _symmetry_equiv_pos_as_xyz
  1  'x, y, z'
loop_
 _atom_site_type_symbol
 _atom_site_label
 _atom_site_symmetry_multiplicity
 _atom_site_fract_x
 _atom_site_fract_y
 _atom_site_fract_z
 _atom_site_occupancy
  Al  Al0  1  0.11114000  0.49857000  0.49882000  1.0
  Al  Al1  1  0.61132000  0.50262000  0.50050000  1.0
  Al  Al2  1  0.61661000  0.00474000  0.99574000  1.0
  Al  Al3  1  0.11651000  0.00405000  0.99725000  1.0
  H  H4  1  0.56113000  0.70162000  0.31141000  1.0
  H  H5  1  0.01870000  0.68754000  0.28811000  1.0
  H  H6  1  0.16613000  0.78720000  0.83798000  1.0
  H  H7  1  0.56390000  0.72105000  0.66203000  1.0
  H  H8  1  0.54890000  0.84283000  0.77502000  1.0
  H  H9  1  0.06820000  0.17139000  0.19761000  1.0
  H  H10  1  0.68152000  0.34554000  0.29369000  1.0
  H  H11  1  0.05021000  0.26905000  0.66049000  1.0
  H  H12  1  0.04983000  0.15377000  0.77947000  1.0
  H  H13  1  0.67097000  0.22147000  0.82974000  1.0
  H  H14  1  0.56320000  0.79703000  0.18158000  1.0
  H  H15  1  0.66020000  0.26665000  0.04836000  1.0
  H  H16  1  0.92181000  0.25351000  0.07074000  1.0
  H  H17  1  0.92969000  0.40609000  0.15098000  1.0
  H  H18  1  0.84355000  0.42404000  0.04685000  1.0
  H  H19  1  0.66892000  0.42260000  0.12973000  1.0
  H  H20  1  0.67228000  0.33605000  0.70988000  1.0
  H  H21  1  0.01811000  0.82122000  0.21410000  1.0
  H  H22  1  0.14679000  0.51319000  0.72744000  1.0
  H  H23  1  0.14242000  0.57079000  0.82697000  1.0
  H  H24  1  0.44656000  0.46886000  0.81362000  1.0
  H  H25  1  0.52423000  0.53517000  0.72521000  1.0
  H  H26  1  0.51712000  0.59156000  0.82456000  1.0
  H  H27  1  0.04894000  0.28477000  0.31663000  1.0
  H  H28  1  0.35754000  0.61238000  0.54367000  1.0
  H  H29  1  0.85331000  0.37949000  0.52489000  1.0
  H  H30  1  0.36683000  0.88709000  0.03067000  1.0
  H  H31  1  0.87034000  0.11589000  0.04010000  1.0
  C  C32  1  0.35942000  0.38982000  0.38453000  1.0
  C  C33  1  0.35995000  0.37944000  0.60915000  1.0
  C  C34  1  0.86879000  0.61535000  0.61495000  1.0
  C  C35  1  0.86493000  0.61299000  0.38725000  1.0
  C  C36  1  0.70671000  0.78320000  0.21265000  1.0
  C  C37  1  0.87175000  0.82858000  0.18380000  1.0
  C  C38  1  0.70553000  0.71872000  0.28290000  1.0
  C  C39  1  0.87022000  0.67674000  0.31474000  1.0
  C  C40  1  0.03405000  0.77342000  0.79881000  1.0
  C  C41  1  0.04350000  0.70484000  0.73592000  1.0
  C  C42  1  0.87280000  0.68612000  0.68476000  1.0
  C  C43  1  0.69646000  0.73711000  0.70010000  1.0
  C  C44  1  0.68698000  0.80466000  0.76328000  1.0
  C  C45  1  0.85737000  0.82315000  0.81308000  1.0
  C  C46  1  0.19069000  0.27329000  0.28527000  1.0
  C  C47  1  0.20216000  0.21025000  0.21864000  1.0
  C  C48  1  0.38376000  0.19445000  0.17735000  1.0
  C  C49  1  0.55815000  0.24499000  0.20504000  1.0
  C  C50  1  0.54645000  0.30743000  0.27252000  1.0
  C  C51  1  0.36438000  0.32200000  0.31278000  1.0
  C  C52  1  0.18534000  0.25812000  0.69790000  1.0
  C  C53  1  0.18476000  0.19444000  0.76380000  1.0
  C  C54  1  0.36009000  0.18175000  0.81141000  1.0
  C  C55  1  0.53652000  0.23230000  0.79181000  1.0
  C  C56  1  0.53725000  0.29534000  0.72541000  1.0
  C  C57  1  0.36120000  0.30914000  0.67849000  1.0
  C  C58  1  0.35817000  0.11508000  0.88336000  1.0
  C  C59  1  0.38262000  0.12290000  0.10809000  1.0
  C  C60  1  0.87124000  0.89134000  0.11064000  1.0
  C  C61  1  0.85281000  0.89284000  0.88339000  1.0
  C  C62  1  0.78124000  0.28376000  0.09366000  1.0
  C  C63  1  0.80695000  0.39049000  0.10649000  1.0
  C  C64  1  0.22513000  0.56562000  0.76808000  1.0
  C  C65  1  0.44148000  0.53892000  0.78372000  1.0
  O  O66  1  0.52993000  0.40667000  0.58152000  1.0
  O  O67  1  0.18901000  0.41012000  0.41437000  1.0
  O  O68  1  0.03521000  0.58259000  0.41175000  1.0
  O  O69  1  0.18843000  0.40702000  0.58342000  1.0
  O  O70  1  0.03463000  0.58990000  0.58384000  1.0
  O  O71  1  0.52811000  0.42192000  0.41099000  1.0
  O  O72  1  0.36152000  0.55858000  0.50555000  1.0
  O  O73  1  0.69504000  0.58642000  0.59019000  1.0
  O  O74  1  0.69615000  0.59371000  0.42020000  1.0
  O  O75  1  0.85803000  0.44228000  0.50036000  1.0
  O  O76  1  0.21256000  0.10350000  0.07362000  1.0
  O  O77  1  0.52494000  0.10030000  0.92032000  1.0
  O  O78  1  0.68494000  0.92967000  0.90114000  1.0
  O  O79  1  0.54873000  0.08573000  0.08848000  1.0
  O  O80  1  0.70508000  0.90681000  0.07286000  1.0
  O  O81  1  0.18930000  0.07892000  0.90332000  1.0
  O  O82  1  0.36519000  0.94511000  0.99835000  1.0
  O  O83  1  0.04391000  0.92492000  0.09058000  1.0
  O  O84  1  0.01800000  0.90906000  0.92189000  1.0
  O  O85  1  0.86883000  0.06377000  0.00017000  1.0
  O  O86  1  0.74450000  0.23366000  0.17050000  1.0
  O  O87  1  0.22263000  0.65815000  0.72827000  1.0
