# generated using pymatgen
data_CuH5C7N2
_symmetry_space_group_name_H-M   'P 1'
_cell_length_a   11.50310000
_cell_length_b   14.43090000
_cell_length_c   14.43095000
_cell_angle_alpha   60.00034384
_cell_angle_beta   89.99970000
_cell_angle_gamma   89.99990000
_symmetry_Int_Tables_number   1
_chemical_formula_structural   CuH5C7N2
_chemical_formula_sum   'Cu12 H60 C84 N24'
_cell_volume   2074.60476407
_cell_formula_units_Z   12
loop_
 _symmetry_equiv_pos_site_id
 _symmetry_equiv_pos_as_xyz
  1  'x, y, z'
loop_
 _atom_site_type_symbol
 _atom_site_label
 _atom_site_symmetry_multiplicity
 _atom_site_fract_x
 _atom_site_fract_y
 _atom_site_fract_z
 _atom_site_occupancy
  Cu  Cu0  1  0.74981000  0.56917000  0.57437000  1.0
  Cu  Cu1  1  0.74982000  0.14354000  0.43083000  1.0
  Cu  Cu2  1  0.74981000  0.57437000  0.85647000  1.0
  Cu  Cu3  1  0.74982000  0.43083000  0.42563000  1.0
  Cu  Cu4  1  0.74981000  0.85647000  0.56917000  1.0
  Cu  Cu5  1  0.74981000  0.42563000  0.14353000  1.0
  Cu  Cu6  1  0.25019000  0.43083000  0.42563000  1.0
  Cu  Cu7  1  0.25018000  0.85646000  0.56917000  1.0
  Cu  Cu8  1  0.25019000  0.42563000  0.14353000  1.0
  Cu  Cu9  1  0.25018000  0.56917000  0.57437000  1.0
  Cu  Cu10  1  0.25019000  0.14354000  0.43083000  1.0
  Cu  Cu11  1  0.25019000  0.57437000  0.85647000  1.0
  H  H12  1  0.00000000  0.54506000  0.67383000  1.0
  H  H13  1  0.00000000  0.21889000  0.45494000  1.0
  H  H14  1  0.00000000  0.67382000  0.78112000  1.0
  H  H15  1  0.00000000  0.45494000  0.32617000  1.0
  H  H16  1  0.99999000  0.78111000  0.54506000  1.0
  H  H17  1  0.00000000  0.32617000  0.21889000  1.0
  H  H18  1  0.50000000  0.63803000  0.48039000  1.0
  H  H19  1  0.50000000  0.11842000  0.36196000  1.0
  H  H20  1  0.50000000  0.48038000  0.88158000  1.0
  H  H21  1  0.50000000  0.36197000  0.51961000  1.0
  H  H22  1  0.50000000  0.88158000  0.63804000  1.0
  H  H23  1  0.50000000  0.51962000  0.11842000  1.0
  H  H24  1  0.78075000  0.68040000  0.32936000  1.0
  H  H25  1  0.78075000  0.00976000  0.31960000  1.0
  H  H26  1  0.78075000  0.32935000  0.99025000  1.0
  H  H27  1  0.78074000  0.31961000  0.67064000  1.0
  H  H28  1  0.78074000  0.99025000  0.68040000  1.0
  H  H29  1  0.78075000  0.67065000  0.00975000  1.0
  H  H30  1  0.21925000  0.31961000  0.67064000  1.0
  H  H31  1  0.21925000  0.99024000  0.68040000  1.0
  H  H32  1  0.21925000  0.67065000  0.00975000  1.0
  H  H33  1  0.21926000  0.68039000  0.32936000  1.0
  H  H34  1  0.21925000  0.00975000  0.31960000  1.0
  H  H35  1  0.21925000  0.32935000  0.99025000  1.0
  H  H36  1  0.71946000  0.37473000  0.80760000  1.0
  H  H37  1  0.71946000  0.18233000  0.62527000  1.0
  H  H38  1  0.71946000  0.80760000  0.81767000  1.0
  H  H39  1  0.71946000  0.62527000  0.19240000  1.0
  H  H40  1  0.71946000  0.81767000  0.37473000  1.0
  H  H41  1  0.71946000  0.19240000  0.18233000  1.0
  H  H42  1  0.28054000  0.62527000  0.19240000  1.0
  H  H43  1  0.28054000  0.81767000  0.37473000  1.0
  H  H44  1  0.28054000  0.19240000  0.18233000  1.0
  H  H45  1  0.28054000  0.37473000  0.80760000  1.0
  H  H46  1  0.28054000  0.18232000  0.62527000  1.0
  H  H47  1  0.28054000  0.80760000  0.81767000  1.0
  H  H48  1  0.89321000  0.74518000  0.15890000  1.0
  H  H49  1  0.89321000  0.90408000  0.25482000  1.0
  H  H50  1  0.89321000  0.15890000  0.09592000  1.0
  H  H51  1  0.89321000  0.25482000  0.84110000  1.0
  H  H52  1  0.89321000  0.09592000  0.74518000  1.0
  H  H53  1  0.89321000  0.84110000  0.90408000  1.0
  H  H54  1  0.10679000  0.25482000  0.84110000  1.0
  H  H55  1  0.10679000  0.09592000  0.74518000  1.0
  H  H56  1  0.10679000  0.84110000  0.90408000  1.0
  H  H57  1  0.10679000  0.74518000  0.15890000  1.0
  H  H58  1  0.10679000  0.90408000  0.25482000  1.0
  H  H59  1  0.10679000  0.15890000  0.09592000  1.0
  H  H60  1  0.60672000  0.24114000  0.96851000  1.0
  H  H61  1  0.60672000  0.20965000  0.75886000  1.0
  H  H62  1  0.60672000  0.96851000  0.79035000  1.0
  H  H63  1  0.60672000  0.75886000  0.03149000  1.0
  H  H64  1  0.60672000  0.79035000  0.24114000  1.0
  H  H65  1  0.60672000  0.03149000  0.20965000  1.0
  H  H66  1  0.39328000  0.75886000  0.03149000  1.0
  H  H67  1  0.39328000  0.79035000  0.24114000  1.0
  H  H68  1  0.39328000  0.03149000  0.20965000  1.0
  H  H69  1  0.39328000  0.24114000  0.96851000  1.0
  H  H70  1  0.39328000  0.20965000  0.75886000  1.0
  H  H71  1  0.39328000  0.96851000  0.79035000  1.0
  C  C72  1  1.00000000  0.58198000  0.58734000  1.0
  C  C73  1  1.00000000  0.16932000  0.41802000  1.0
  C  C74  1  0.00000000  0.58735000  0.83068000  1.0
  C  C75  1  0.00000000  0.41802000  0.41266000  1.0
  C  C76  1  0.00000000  0.83068000  0.58198000  1.0
  C  C77  1  1.00000000  0.41266000  0.16932000  1.0
  C  C78  1  0.50000000  0.57285000  0.56252000  1.0
  C  C79  1  0.50000000  0.13537000  0.42714000  1.0
  C  C80  1  0.50000000  0.56252000  0.86463000  1.0
  C  C81  1  0.50000000  0.42715000  0.43748000  1.0
  C  C82  1  0.50000000  0.86463000  0.57286000  1.0
  C  C83  1  0.50000000  0.43748000  0.13537000  1.0
  C  C84  1  0.93843000  0.64852000  0.42317000  1.0
  C  C85  1  0.93843000  0.07169000  0.35148000  1.0
  C  C86  1  0.93843000  0.42317000  0.92831000  1.0
  C  C87  1  0.93843000  0.35148000  0.57683000  1.0
  C  C88  1  0.93843000  0.92831000  0.64852000  1.0
  C  C89  1  0.93843000  0.57683000  0.07169000  1.0
  C  C90  1  0.06157000  0.35148000  0.57683000  1.0
  C  C91  1  0.06157000  0.92831000  0.64852000  1.0
  C  C92  1  0.06157000  0.57683000  0.07169000  1.0
  C  C93  1  0.06157000  0.64852000  0.42317000  1.0
  C  C94  1  0.06157000  0.07169000  0.35148000  1.0
  C  C95  1  0.06157000  0.42317000  0.92831000  1.0
  C  C96  1  0.87551000  0.68272000  0.32855000  1.0
  C  C97  1  0.87551000  0.01127000  0.31728000  1.0
  C  C98  1  0.87551000  0.32855000  0.98873000  1.0
  C  C99  1  0.87551000  0.31728000  0.67145000  1.0
  C  C100  1  0.87551000  0.98873000  0.68272000  1.0
  C  C101  1  0.87551000  0.67145000  0.01127000  1.0
  C  C102  1  0.12449000  0.31728000  0.67145000  1.0
  C  C103  1  0.12449000  0.98873000  0.68272000  1.0
  C  C104  1  0.12449000  0.67145000  0.01127000  1.0
  C  C105  1  0.12449000  0.68272000  0.32855000  1.0
  C  C106  1  0.12449000  0.01127000  0.31728000  1.0
  C  C107  1  0.12449000  0.32855000  0.98873000  1.0
  C  C108  1  0.56170000  0.44650000  0.71743000  1.0
  C  C109  1  0.56170000  0.16393000  0.55350000  1.0
  C  C110  1  0.56170000  0.71743000  0.83607000  1.0
  C  C111  1  0.56170000  0.55350000  0.28257000  1.0
  C  C112  1  0.56170000  0.83607000  0.44650000  1.0
  C  C113  1  0.56170000  0.28257000  0.16393000  1.0
  C  C114  1  0.43830000  0.55350000  0.28257000  1.0
  C  C115  1  0.43830000  0.83607000  0.44650000  1.0
  C  C116  1  0.43830000  0.28257000  0.16393000  1.0
  C  C117  1  0.43830000  0.44650000  0.71743000  1.0
  C  C118  1  0.43830000  0.16393000  0.55350000  1.0
  C  C119  1  0.43830000  0.71743000  0.83607000  1.0
  C  C120  1  0.62466000  0.37345000  0.80753000  1.0
  C  C121  1  0.62466000  0.18097000  0.62656000  1.0
  C  C122  1  0.62466000  0.80754000  0.81902000  1.0
  C  C123  1  0.62466000  0.62655000  0.19247000  1.0
  C  C124  1  0.62466000  0.81903000  0.37344000  1.0
  C  C125  1  0.62466000  0.19247000  0.18097000  1.0
  C  C126  1  0.37534000  0.62655000  0.19247000  1.0
  C  C127  1  0.37534000  0.81903000  0.37344000  1.0
  C  C128  1  0.37534000  0.19246000  0.18098000  1.0
  C  C129  1  0.37534000  0.37344000  0.80753000  1.0
  C  C130  1  0.37534000  0.18097000  0.62656000  1.0
  C  C131  1  0.37534000  0.80754000  0.81902000  1.0
  C  C132  1  0.93863000  0.71793000  0.23444000  1.0
  C  C133  1  0.93863000  0.95236000  0.28207000  1.0
  C  C134  1  0.93862000  0.23444000  0.04763000  1.0
  C  C135  1  0.93862000  0.28207000  0.76556000  1.0
  C  C136  1  0.93863000  0.04764000  0.71793000  1.0
  C  C137  1  0.93863000  0.76556000  0.95237000  1.0
  C  C138  1  0.06137000  0.28207000  0.76556000  1.0
  C  C139  1  0.06137000  0.04764000  0.71793000  1.0
  C  C140  1  0.06138000  0.76556000  0.95237000  1.0
  C  C141  1  0.06138000  0.71793000  0.23444000  1.0
  C  C142  1  0.06137000  0.95237000  0.28206000  1.0
  C  C143  1  0.06137000  0.23444000  0.04763000  1.0
  C  C144  1  0.56141000  0.29970000  0.89653000  1.0
  C  C145  1  0.56141000  0.19623000  0.70030000  1.0
  C  C146  1  0.56141000  0.89654000  0.80377000  1.0
  C  C147  1  0.56141000  0.70030000  0.10347000  1.0
  C  C148  1  0.56140000  0.80377000  0.29970000  1.0
  C  C149  1  0.56141000  0.10346000  0.19623000  1.0
  C  C150  1  0.43860000  0.70030000  0.10347000  1.0
  C  C151  1  0.43859000  0.80377000  0.29970000  1.0
  C  C152  1  0.43860000  0.10346000  0.19623000  1.0
  C  C153  1  0.43859000  0.29970000  0.89653000  1.0
  C  C154  1  0.43860000  0.19623000  0.70030000  1.0
  C  C155  1  0.43860000  0.89654000  0.80377000  1.0
  N  N156  1  0.59836000  0.52801000  0.61813000  1.0
  N  N157  1  0.59836000  0.14613000  0.47200000  1.0
  N  N158  1  0.59836000  0.61813000  0.85387000  1.0
  N  N159  1  0.59836000  0.47199000  0.38187000  1.0
  N  N160  1  0.59836000  0.85386000  0.52801000  1.0
  N  N161  1  0.59836000  0.38187000  0.14613000  1.0
  N  N162  1  0.40164000  0.47199000  0.38187000  1.0
  N  N163  1  0.40164000  0.85387000  0.52800000  1.0
  N  N164  1  0.40164000  0.38187000  0.14613000  1.0
  N  N165  1  0.40164000  0.52801000  0.61813000  1.0
  N  N166  1  0.40164000  0.14613000  0.47200000  1.0
  N  N167  1  0.40164000  0.61813000  0.85387000  1.0
  N  N168  1  0.90160000  0.60611000  0.52854000  1.0
  N  N169  1  0.90160000  0.13465000  0.39389000  1.0
  N  N170  1  0.90160000  0.52854000  0.86535000  1.0
  N  N171  1  0.90160000  0.39389000  0.47145000  1.0
  N  N172  1  0.90160000  0.86535000  0.60611000  1.0
  N  N173  1  0.90160000  0.47146000  0.13465000  1.0
  N  N174  1  0.09840000  0.39389000  0.47146000  1.0
  N  N175  1  0.09839000  0.86535000  0.60611000  1.0
  N  N176  1  0.09840000  0.47146000  0.13465000  1.0
  N  N177  1  0.09840000  0.60610000  0.52855000  1.0
  N  N178  1  0.09840000  0.13465000  0.39389000  1.0
  N  N179  1  0.09840000  0.52854000  0.86535000  1.0
