# generated using pymatgen
data_Cr2CuH16C12N8O7
_symmetry_space_group_name_H-M   'P 1'
_cell_length_a   9.52418000
_cell_length_b   9.84484000
_cell_length_c   13.21730000
_cell_angle_alpha   69.26300000
_cell_angle_beta   80.27460000
_cell_angle_gamma   62.39170000
_symmetry_Int_Tables_number   1
_chemical_formula_structural   Cr2CuH16C12N8O7
_chemical_formula_sum   'Cr4 Cu2 H32 C24 N16 O14'
_cell_volume   1027.03191254
_cell_formula_units_Z   2
loop_
 _symmetry_equiv_pos_site_id
 _symmetry_equiv_pos_as_xyz
  1  'x, y, z'
loop_
 _atom_site_type_symbol
 _atom_site_label
 _atom_site_symmetry_multiplicity
 _atom_site_fract_x
 _atom_site_fract_y
 _atom_site_fract_z
 _atom_site_occupancy
  Cr  Cr0  1  0.24096000  0.65561000  0.61286000  1.0
  Cr  Cr1  1  0.75904000  0.34439000  0.38714000  1.0
  Cr  Cr2  1  0.29473000  0.48664000  0.87222000  1.0
  Cr  Cr3  1  0.70526000  0.51336000  0.12778000  1.0
  Cu  Cu4  1  0.50000000  0.00000000  0.00000000  1.0
  Cu  Cu5  1  0.00000000  0.50000000  0.50000000  1.0
  H  H6  1  0.07203000  0.12171000  0.28771000  1.0
  H  H7  1  0.92798000  0.87829000  0.71229000  1.0
  H  H8  1  0.82794000  0.21258000  0.10666000  1.0
  H  H9  1  0.17206000  0.78742000  0.89333000  1.0
  H  H10  1  0.67318000  0.10643000  0.41470000  1.0
  H  H11  1  0.32683000  0.89357000  0.58529000  1.0
  H  H12  1  0.39459000  0.47980000  0.18830000  1.0
  H  H13  1  0.60540000  0.52020000  0.81170000  1.0
  H  H14  1  0.17883000  0.23411000  0.09958000  1.0
  H  H15  1  0.82117000  0.76588000  0.90043000  1.0
  H  H16  1  0.25546000  0.82625000  0.37879000  1.0
  H  H17  1  0.74454000  0.17375000  0.62122000  1.0
  H  H18  1  0.50519000  0.74693000  0.23446000  1.0
  H  H19  1  0.49481000  0.25307000  0.76554000  1.0
  H  H20  1  0.56280000  0.27772000  0.03633000  1.0
  H  H21  1  0.43721000  0.72229000  0.96367000  1.0
  H  H22  1  0.01361000  0.90897000  0.15839000  1.0
  H  H23  1  0.98639000  0.09103000  0.84161000  1.0
  H  H24  1  0.84429000  0.77556000  0.10620000  1.0
  H  H25  1  0.15571000  0.22444000  0.89380000  1.0
  H  H26  1  0.93689000  0.85900000  0.48500000  1.0
  H  H27  1  0.06311000  0.14100000  0.51500000  1.0
  H  H28  1  0.49409000  0.03287000  0.34263000  1.0
  H  H29  1  0.50592000  0.96713000  0.65737000  1.0
  H  H30  1  0.66199000  0.70158000  0.37774000  1.0
  H  H31  1  0.33801000  0.29842000  0.62226000  1.0
  H  H32  1  0.34279000  0.45883000  0.38908000  1.0
  H  H33  1  0.65720000  0.54117000  0.61092000  1.0
  H  H34  1  0.15031000  0.52972000  0.09751000  1.0
  H  H35  1  0.84969000  0.47028000  0.90249000  1.0
  H  H36  1  0.92078000  0.54691000  0.26042000  1.0
  H  H37  1  0.07921000  0.45309000  0.73957000  1.0
  C  C38  1  0.23578000  0.11279000  0.15501000  1.0
  C  C39  1  0.76422000  0.88720000  0.84499000  1.0
  C  C40  1  0.27767000  0.89763000  0.29986000  1.0
  C  C41  1  0.72233000  0.10236000  0.70015000  1.0
  C  C42  1  0.40025000  0.85964000  0.22749000  1.0
  C  C43  1  0.59975000  0.14035000  0.77251000  1.0
  C  C44  1  0.66004000  0.15820000  0.06282000  1.0
  C  C45  1  0.33996000  0.84181000  0.93718000  1.0
  C  C46  1  0.89583000  0.96368000  0.12572000  1.0
  C  C47  1  0.10417000  0.03633000  0.87427000  1.0
  C  C48  1  0.81123000  0.89887000  0.10032000  1.0
  C  C49  1  0.18878000  0.10114000  0.89968000  1.0
  C  C50  1  0.84154000  0.85917000  0.45020000  1.0
  C  C51  1  0.15846000  0.14083000  0.54980000  1.0
  C  C52  1  0.61024000  0.94699000  0.37663000  1.0
  C  C53  1  0.38976000  0.05301000  0.62337000  1.0
  C  C54  1  0.69455000  0.78357000  0.39376000  1.0
  C  C55  1  0.30545000  0.21642000  0.60624000  1.0
  C  C56  1  0.25741000  0.48122000  0.33326000  1.0
  C  C57  1  0.74259000  0.51877000  0.66674000  1.0
  C  C58  1  0.15495000  0.51646000  0.18206000  1.0
  C  C59  1  0.84505000  0.48353000  0.81794000  1.0
  C  C60  1  0.04247000  0.52537000  0.26288000  1.0
  C  C61  1  0.95753000  0.47463000  0.73711000  1.0
  N  N62  1  0.37255000  0.99475000  0.13786000  1.0
  N  N63  1  0.62745000  0.00525000  0.86214000  1.0
  N  N64  1  0.17596000  0.05731000  0.25261000  1.0
  N  N65  1  0.82404000  0.94268000  0.74739000  1.0
  N  N66  1  0.66483000  0.02131000  0.06154000  1.0
  N  N67  1  0.33517000  0.97870000  0.93846000  1.0
  N  N68  1  0.79856000  0.12679000  0.10144000  1.0
  N  N69  1  0.20144000  0.87321000  0.89856000  1.0
  N  N70  1  0.83825000  0.73074000  0.43960000  1.0
  N  N71  1  0.16175000  0.26926000  0.56040000  1.0
  N  N72  1  0.70477000  0.99179000  0.41268000  1.0
  N  N73  1  0.29523000  0.00821000  0.58732000  1.0
  N  N74  1  0.10783000  0.50337000  0.35625000  1.0
  N  N75  1  0.89217000  0.49663000  0.64375000  1.0
  N  N76  1  0.28890000  0.48873000  0.22832000  1.0
  N  N77  1  0.71110000  0.51127000  0.77168000  1.0
  O  O78  1  0.09013000  0.81566000  0.63040000  1.0
  O  O79  1  0.90987000  0.18434000  0.36960000  1.0
  O  O80  1  0.19762000  0.59968000  0.52559000  1.0
  O  O81  1  0.80238000  0.40032000  0.47441000  1.0
  O  O82  1  0.39150000  0.69783000  0.57189000  1.0
  O  O83  1  0.60851000  0.30217000  0.42811000  1.0
  O  O84  1  0.28845000  0.49284000  0.73684000  1.0
  O  O85  1  0.71155000  0.50716000  0.26316000  1.0
  O  O86  1  0.32902000  0.30508000  0.94987000  1.0
  O  O87  1  0.67097000  0.69492000  0.05014000  1.0
  O  O88  1  0.12714000  0.61953000  0.90353000  1.0
  O  O89  1  0.87286000  0.38048000  0.09647000  1.0
  O  O90  1  0.43685000  0.52866000  0.88295000  1.0
  O  O91  1  0.56315000  0.47134000  0.11705000  1.0
