# generated using pymatgen
data_NaH7C8O9
_symmetry_space_group_name_H-M   'P 1'
_cell_length_a   8.08160000
_cell_length_b   9.63890000
_cell_length_c   13.44670000
_cell_angle_alpha   89.99980000
_cell_angle_beta   90.00000000
_cell_angle_gamma   109.55100000
_symmetry_Int_Tables_number   1
_chemical_formula_structural   NaH7C8O9
_chemical_formula_sum   'Na4 H28 C32 O36'
_cell_volume   987.07466872
_cell_formula_units_Z   4
loop_
 _symmetry_equiv_pos_site_id
 _symmetry_equiv_pos_as_xyz
  1  'x, y, z'
loop_
 _atom_site_type_symbol
 _atom_site_label
 _atom_site_symmetry_multiplicity
 _atom_site_fract_x
 _atom_site_fract_y
 _atom_site_fract_z
 _atom_site_occupancy
  Na  Na0  1  0.83890000  0.60251000  0.98634000  1.0
  Na  Na1  1  0.16110000  0.89749000  0.48634000  1.0
  Na  Na2  1  0.16110000  0.39749000  0.01367000  1.0
  Na  Na3  1  0.83890000  0.10251000  0.51366000  1.0
  H  H4  1  0.26197000  0.46481000  0.78936000  1.0
  H  H5  1  0.73803000  0.03519000  0.28936000  1.0
  H  H6  1  0.73803000  0.53519000  0.21064000  1.0
  H  H7  1  0.26197000  0.96481000  0.71064000  1.0
  H  H8  1  0.67611000  0.63304000  0.47275000  1.0
  H  H9  1  0.32389000  0.86696000  0.97275000  1.0
  H  H10  1  0.32389000  0.36696000  0.52725000  1.0
  H  H11  1  0.67611000  0.13304000  0.02725000  1.0
  H  H12  1  0.50312000  0.18395000  0.50334000  1.0
  H  H13  1  0.49688000  0.31605000  0.00334000  1.0
  H  H14  1  0.49688000  0.81605000  0.49666000  1.0
  H  H15  1  0.50312000  0.68395000  0.99666000  1.0
  H  H16  1  0.02570000  0.70395000  0.71321000  1.0
  H  H17  1  0.97430000  0.79605000  0.21321000  1.0
  H  H18  1  0.97430000  0.29605000  0.28679000  1.0
  H  H19  1  0.02570000  0.20395000  0.78678000  1.0
  H  H20  1  0.93752000  0.42986000  0.62627000  1.0
  H  H21  1  0.06248000  0.07014000  0.12627000  1.0
  H  H22  1  0.06248000  0.57014000  0.37373000  1.0
  H  H23  1  0.93752000  0.92986000  0.87373000  1.0
  H  H24  1  0.71388000  0.31528000  0.74330000  1.0
  H  H25  1  0.28612000  0.18472000  0.24330000  1.0
  H  H26  1  0.28612000  0.68472000  0.25670000  1.0
  H  H27  1  0.71388000  0.81528000  0.75670000  1.0
  H  H28  1  0.55815000  0.56294000  0.72381000  1.0
  H  H29  1  0.44185000  0.93706000  0.22381000  1.0
  H  H30  1  0.44185000  0.43706000  0.27619000  1.0
  H  H31  1  0.55815000  0.06294000  0.77619000  1.0
  C  C32  1  0.94144000  0.59438000  0.73843000  1.0
  C  C33  1  0.05856000  0.90562000  0.23843000  1.0
  C  C34  1  0.05856000  0.40562000  0.26157000  1.0
  C  C35  1  0.94144000  0.09438000  0.76157000  1.0
  C  C36  1  0.85615000  0.49468000  0.65033000  1.0
  C  C37  1  0.14385000  0.00532000  0.15033000  1.0
  C  C38  1  0.14385000  0.50532000  0.34967000  1.0
  C  C39  1  0.85615000  0.99468000  0.84967000  1.0
  C  C40  1  0.68194000  0.39773000  0.69749000  1.0
  C  C41  1  0.31806000  0.10227000  0.19749000  1.0
  C  C42  1  0.31806000  0.60227000  0.30251000  1.0
  C  C43  1  0.68194000  0.89773000  0.80251000  1.0
  C  C44  1  0.63263000  0.50525000  0.76570000  1.0
  C  C45  1  0.36737000  0.99475000  0.26570000  1.0
  C  C46  1  0.36737000  0.49475000  0.23430000  1.0
  C  C47  1  0.63263000  0.00525000  0.73430000  1.0
  C  C48  1  0.05830000  0.53135000  0.80047000  1.0
  C  C49  1  0.94170000  0.96864000  0.30047000  1.0
  C  C50  1  0.94170000  0.46865000  0.19953000  1.0
  C  C51  1  0.05830000  0.03135000  0.69953000  1.0
  C  C52  1  0.84355000  0.58750000  0.56102000  1.0
  C  C53  1  0.15645000  0.91251000  0.06102000  1.0
  C  C54  1  0.15645000  0.41251000  0.43898000  1.0
  C  C55  1  0.84355000  0.08749000  0.93898000  1.0
  C  C56  1  0.54217000  0.31457000  0.62400000  1.0
  C  C57  1  0.45783000  0.18543000  0.12400000  1.0
  C  C58  1  0.45783000  0.68543000  0.37600000  1.0
  C  C59  1  0.54217000  0.81457000  0.87600000  1.0
  C  C60  1  0.52491000  0.43026000  0.85698000  1.0
  C  C61  1  0.47510000  0.06974000  0.35698000  1.0
  C  C62  1  0.47510000  0.56974000  0.14302000  1.0
  C  C63  1  0.52490000  0.93026000  0.64302000  1.0
  O  O64  1  0.79952000  0.61060000  0.79673000  1.0
  O  O65  1  0.20048000  0.88940000  0.29673000  1.0
  O  O66  1  0.20048000  0.38940000  0.20327000  1.0
  O  O67  1  0.79952000  0.11060000  0.70327000  1.0
  O  O68  1  0.03857000  0.51135000  0.89103000  1.0
  O  O69  1  0.96143000  0.98865000  0.39103000  1.0
  O  O70  1  0.96143000  0.48865000  0.10897000  1.0
  O  O71  1  0.03857000  0.01135000  0.60897000  1.0
  O  O72  1  0.17832000  0.50360000  0.74566000  1.0
  O  O73  1  0.82168000  0.99640000  0.24566000  1.0
  O  O74  1  0.82168000  0.49640000  0.25434000  1.0
  O  O75  1  0.17832000  0.00360000  0.75434000  1.0
  O  O76  1  0.97659000  0.66633000  0.51836000  1.0
  O  O77  1  0.02341000  0.83367000  0.01836000  1.0
  O  O78  1  0.02341000  0.33367000  0.48164000  1.0
  O  O79  1  0.97659000  0.16633000  0.98164000  1.0
  O  O80  1  0.68154000  0.57570000  0.53590000  1.0
  O  O81  1  0.31846000  0.92430000  0.03590000  1.0
  O  O82  1  0.31846000  0.42430000  0.46410000  1.0
  O  O83  1  0.68154000  0.07570000  0.96410000  1.0
  O  O84  1  0.38983000  0.31757000  0.62767000  1.0
  O  O85  1  0.61018000  0.18242000  0.12767000  1.0
  O  O86  1  0.61018000  0.68242000  0.37232000  1.0
  O  O87  1  0.38982000  0.81757000  0.87233000  1.0
  O  O88  1  0.59951000  0.23982000  0.55885000  1.0
  O  O89  1  0.40050000  0.26019000  0.05886000  1.0
  O  O90  1  0.40049000  0.76018000  0.44115000  1.0
  O  O91  1  0.59951000  0.73982000  0.94115000  1.0
  O  O92  1  0.60885000  0.39337000  0.92676000  1.0
  O  O93  1  0.39115000  0.10663000  0.42676000  1.0
  O  O94  1  0.39115000  0.60663000  0.07324000  1.0
  O  O95  1  0.60885000  0.89337000  0.57324000  1.0
  O  O96  1  0.36145000  0.40757000  0.85921000  1.0
  O  O97  1  0.63855000  0.09243000  0.35921000  1.0
  O  O98  1  0.63855000  0.59243000  0.14079000  1.0
  O  O99  1  0.36145000  0.90757000  0.64079000  1.0
