# generated using pymatgen
data_ZnH3C8NClO6
_symmetry_space_group_name_H-M   'P 1'
_cell_length_a   9.86643000
_cell_length_b   11.11960000
_cell_length_c   11.89710000
_cell_angle_alpha   94.12580000
_cell_angle_beta   103.66300000
_cell_angle_gamma   94.26470000
_symmetry_Int_Tables_number   1
_chemical_formula_structural   ZnH3C8NClO6
_chemical_formula_sum   'Zn2 H6 C16 N2 Cl2 O12'
_cell_volume   1259.38434460
_cell_formula_units_Z   2
loop_
 _symmetry_equiv_pos_site_id
 _symmetry_equiv_pos_as_xyz
  1  'x, y, z'
loop_
 _atom_site_type_symbol
 _atom_site_label
 _atom_site_symmetry_multiplicity
 _atom_site_fract_x
 _atom_site_fract_y
 _atom_site_fract_z
 _atom_site_occupancy
  Zn  Zn0  1  0.64306000  0.48223000  0.53747000  1.0
  Zn  Zn1  1  0.35863000  0.51589000  0.47986000  1.0
  H  H2  1  0.40148000  0.88354000  0.49314000  1.0
  H  H3  1  0.62084000  0.11017000  0.53391000  1.0
  H  H4  1  0.88747000  0.59517000  0.47998000  1.0
  H  H5  1  0.13224000  0.43544000  0.57682000  1.0
  H  H6  1  0.92337000  0.17067000  0.54477000  1.0
  H  H7  1  0.97887000  0.61974000  0.21241000  1.0
  C  C8  1  0.43713000  0.26688000  0.49689000  1.0
  C  C9  1  0.61423000  0.86289000  0.53428000  1.0
  C  C10  1  0.51694000  0.06136000  0.51528000  1.0
  C  C11  1  0.50542000  0.93294000  0.51358000  1.0
  C  C12  1  0.07674000  0.49444000  0.51524000  1.0
  C  C13  1  0.93068000  0.51313000  0.51344000  1.0
  C  C14  1  0.89267000  0.32899000  0.59787000  1.0
  C  C15  1  0.08706000  0.62668000  0.36750000  1.0
  C  C16  1  0.58883000  0.72771000  0.52864000  1.0
  C  C17  1  0.48938000  0.51183000  0.72627000  1.0
  C  C18  1  0.48797000  0.49775000  0.28655000  1.0
  C  C19  1  0.49068000  0.51265000  0.84786000  1.0
  C  C20  1  0.48980000  0.50245000  0.16597000  1.0
  C  C21  1  0.49090000  0.51027000  0.95054000  1.0
  C  C22  1  0.49099000  0.50667000  0.06372000  1.0
  C  C23  1  0.40878000  0.13220000  0.49467000  1.0
  N  N24  1  0.14598000  0.54554000  0.44998000  1.0
  N  N25  1  0.84916000  0.43924000  0.55120000  1.0
  Cl  Cl26  1  0.78752000  0.92181000  0.56869000  1.0
  Cl  Cl27  1  0.23649000  0.07397000  0.46456000  1.0
  O  O28  1  0.56574000  0.30596000  0.51282000  1.0
  O  O29  1  0.90479000  0.24805000  0.51191000  1.0
  O  O30  1  0.11413000  0.73545000  0.38517000  1.0
  O  O31  1  0.00834000  0.56303000  0.27091000  1.0
  O  O32  1  0.46062000  0.68563000  0.50167000  1.0
  O  O33  1  0.33393000  0.33071000  0.48296000  1.0
  O  O34  1  0.69424000  0.66621000  0.55047000  1.0
  O  O35  1  0.60496000  0.49670000  0.69974000  1.0
  O  O36  1  0.36885000  0.50129000  0.31043000  1.0
  O  O37  1  0.37243000  0.52565000  0.65723000  1.0
  O  O38  1  0.60540000  0.49097000  0.35742000  1.0
  O  O39  1  0.90816000  0.31486000  0.69985000  1.0
