# generated using pymatgen
data_DyH6C3(NO)6
_symmetry_space_group_name_H-M   'P 1'
_cell_length_a   8.84273000
_cell_length_b   10.08730000
_cell_length_c   12.68690000
_cell_angle_alpha   90.00030000
_cell_angle_beta   90.00020000
_cell_angle_gamma   73.15100000
_symmetry_Int_Tables_number   1
_chemical_formula_structural   DyH6C3(NO)6
_chemical_formula_sum   'Dy4 H24 C12 N24 O24'
_cell_volume   1083.08218632
_cell_formula_units_Z   4
loop_
 _symmetry_equiv_pos_site_id
 _symmetry_equiv_pos_as_xyz
  1  'x, y, z'
loop_
 _atom_site_type_symbol
 _atom_site_label
 _atom_site_symmetry_multiplicity
 _atom_site_fract_x
 _atom_site_fract_y
 _atom_site_fract_z
 _atom_site_occupancy
  Dy  Dy0  1  0.77834000  0.13072000  0.67698000  1.0
  Dy  Dy1  1  0.27833000  0.13071000  0.32302000  1.0
  Dy  Dy2  1  0.14990000  0.57979000  0.82369000  1.0
  Dy  Dy3  1  0.64990000  0.57979000  0.17631000  1.0
  H  H4  1  0.15209000  0.51577000  0.57850000  1.0
  H  H5  1  0.65208000  0.51577000  0.42151000  1.0
  H  H6  1  0.18923000  0.65880000  0.60546000  1.0
  H  H7  1  0.68923000  0.65880000  0.39455000  1.0
  H  H8  1  0.25743000  0.84341000  0.75957000  1.0
  H  H9  1  0.75744000  0.84341000  0.24043000  1.0
  H  H10  1  0.07987000  0.85536000  0.72739000  1.0
  H  H11  1  0.57988000  0.85536000  0.27262000  1.0
  H  H12  1  0.10196000  0.35994000  0.98987000  1.0
  H  H13  1  0.60196000  0.35994000  0.01013000  1.0
  H  H14  1  0.06548000  0.50565000  0.04287000  1.0
  H  H15  1  0.56546000  0.50566000  0.95712000  1.0
  H  H16  1  0.92381000  0.48502000  0.69103000  1.0
  H  H17  1  0.42380000  0.48501000  0.30897000  1.0
  H  H18  1  0.84272000  0.49195000  0.80211000  1.0
  H  H19  1  0.34272000  0.49195000  0.19789000  1.0
  H  H20  1  0.31220000  0.67455000  0.01103000  1.0
  H  H21  1  0.81220000  0.67456000  0.98897000  1.0
  H  H22  1  0.16982000  0.79437000  0.97354000  1.0
  H  H23  1  0.66981000  0.79437000  0.02646000  1.0
  H  H24  1  0.99984000  0.12096000  0.85784000  1.0
  H  H25  1  0.49984000  0.12094000  0.14217000  1.0
  H  H26  1  0.07687000  0.17478000  0.75997000  1.0
  H  H27  1  0.57687000  0.17475000  0.24004000  1.0
  C  C28  1  0.53920000  0.19391000  0.47978000  1.0
  C  C29  1  0.03920000  0.19392000  0.52022000  1.0
  C  C30  1  0.56322000  0.04381000  0.49653000  1.0
  C  C31  1  0.06323000  0.04382000  0.50346000  1.0
  C  C32  1  0.73313000  0.97306000  0.90446000  1.0
  C  C33  1  0.23313000  0.97306000  0.09553000  1.0
  C  C34  1  0.84713000  0.86559000  0.84148000  1.0
  C  C35  1  0.34712000  0.86558000  0.15851000  1.0
  C  C36  1  0.42723000  0.31101000  0.75433000  1.0
  C  C37  1  0.92722000  0.31101000  0.24567000  1.0
  C  C38  1  0.51840000  0.40886000  0.77834000  1.0
  C  C39  1  0.01840000  0.40885000  0.22166000  1.0
  N  N40  1  0.62402000  0.26819000  0.52553000  1.0
  N  N41  1  0.12403000  0.26819000  0.47447000  1.0
  N  N42  1  0.56884000  0.39584000  0.48506000  1.0
  N  N43  1  0.06885000  0.39584000  0.51494000  1.0
  N  N44  1  0.45297000  0.39717000  0.41842000  1.0
  N  N45  1  0.95297000  0.39718000  0.58158000  1.0
  N  N46  1  0.43283000  0.27136000  0.41335000  1.0
  N  N47  1  0.93283000  0.27136000  0.58664000  1.0
  N  N48  1  0.70720000  0.10711000  0.87916000  1.0
  N  N49  1  0.20720000  0.10711000  0.12084000  1.0
  N  N50  1  0.61047000  0.17829000  0.95392000  1.0
  N  N51  1  0.11047000  0.17829000  0.04608000  1.0
  N  N52  1  0.57651000  0.08912000  0.02010000  1.0
  N  N53  1  0.07651000  0.08912000  0.97990000  1.0
  N  N54  1  0.65308000  0.95962000  0.99173000  1.0
  N  N55  1  0.15309000  0.95962000  0.00827000  1.0
  N  N56  1  0.27307000  0.33620000  0.77411000  1.0
  N  N57  1  0.77306000  0.33620000  0.22589000  1.0
  N  N58  1  0.23967000  0.21997000  0.74529000  1.0
  N  N59  1  0.73967000  0.21997000  0.25471000  1.0
  N  N60  1  0.36851000  0.12734000  0.71080000  1.0
  N  N61  1  0.86850000  0.12734000  0.28919000  1.0
  N  N62  1  0.48834000  0.18360000  0.71565000  1.0
  N  N63  1  0.98834000  0.18359000  0.28435000  1.0
  O  O64  1  0.17909000  0.57303000  0.63585000  1.0
  O  O65  1  0.67908000  0.57303000  0.36416000  1.0
  O  O66  1  0.18441000  0.78979000  0.74529000  1.0
  O  O67  1  0.68442000  0.78978000  0.25472000  1.0
  O  O68  1  0.09990000  0.45746000  0.97564000  1.0
  O  O69  1  0.59990000  0.45746000  0.02436000  1.0
  O  O70  1  0.92704000  0.51869000  0.76619000  1.0
  O  O71  1  0.42703000  0.51870000  0.23381000  1.0
  O  O72  1  0.21415000  0.69006000  0.97027000  1.0
  O  O73  1  0.71415000  0.69007000  0.02973000  1.0
  O  O74  1  0.98746000  0.13618000  0.77976000  1.0
  O  O75  1  0.48748000  0.13614000  0.22025000  1.0
  O  O76  1  0.66237000  0.98612000  0.56617000  1.0
  O  O77  1  0.16236000  0.98613000  0.43382000  1.0
  O  O78  1  0.48127000  0.99040000  0.43649000  1.0
  O  O79  1  0.98126000  0.99040000  0.56351000  1.0
  O  O80  1  0.87185000  0.90203000  0.74879000  1.0
  O  O81  1  0.37184000  0.90202000  0.25122000  1.0
  O  O82  1  0.91992000  0.75049000  0.88382000  1.0
  O  O83  1  0.41992000  0.75049000  0.11617000  1.0
  O  O84  1  0.43967000  0.52148000  0.82405000  1.0
  O  O85  1  0.93966000  0.52148000  0.17595000  1.0
  O  O86  1  0.66399000  0.37119000  0.75628000  1.0
  O  O87  1  0.16397000  0.37119000  0.24371000  1.0
