# generated using pymatgen
data_CuH20C28S4(NO)4
_symmetry_space_group_name_H-M   'P 1'
_cell_length_a   10.62480000
_cell_length_b   11.02470000
_cell_length_c   12.26900000
_cell_angle_alpha   112.15800000
_cell_angle_beta   98.52040000
_cell_angle_gamma   90.57080000
_symmetry_Int_Tables_number   1
_chemical_formula_structural   CuH20C28S4(NO)4
_chemical_formula_sum   'Cu2 H40 C56 S8 N8 O8'
_cell_volume   1312.90055290
_cell_formula_units_Z   2
loop_
 _symmetry_equiv_pos_site_id
 _symmetry_equiv_pos_as_xyz
  1  'x, y, z'
loop_
 _atom_site_type_symbol
 _atom_site_label
 _atom_site_symmetry_multiplicity
 _atom_site_fract_x
 _atom_site_fract_y
 _atom_site_fract_z
 _atom_site_occupancy
  Cu  Cu0  1  0.25015000  0.75622000  0.50027000  1.0
  Cu  Cu1  1  0.74985000  0.24378000  0.49973000  1.0
  H  H2  1  0.34180000  0.51038000  0.11181000  1.0
  H  H3  1  0.65820000  0.48962000  0.88819000  1.0
  H  H4  1  0.23612000  0.62546000  0.08995000  1.0
  H  H5  1  0.76388000  0.37454000  0.91005000  1.0
  H  H6  1  0.47304000  0.10069000  0.25312000  1.0
  H  H7  1  0.52696000  0.89931000  0.74688000  1.0
  H  H8  1  0.37594000  0.88542000  0.23632000  1.0
  H  H9  1  0.62406000  0.11458000  0.76368000  1.0
  H  H10  1  0.14405000  0.82507000  0.16112000  1.0
  H  H11  1  0.85595000  0.17493000  0.83888000  1.0
  H  H12  1  0.00568000  0.97578000  0.09983000  1.0
  H  H13  1  0.99432000  0.02422000  0.90017000  1.0
  H  H14  1  0.15995000  0.83400000  0.88863000  1.0
  H  H15  1  0.84006000  0.16600000  0.11137000  1.0
  H  H16  1  0.26636000  0.96920000  0.91254000  1.0
  H  H17  1  0.73364000  0.03080000  0.08745000  1.0
  H  H18  1  0.02163000  0.30550000  0.74053000  1.0
  H  H19  1  0.97836000  0.69451000  0.25947000  1.0
  H  H20  1  0.11408000  0.10488000  0.75951000  1.0
  H  H21  1  0.88592000  0.89512000  0.24049000  1.0
  H  H22  1  0.34452000  0.10918000  0.83747000  1.0
  H  H23  1  0.65548000  0.89082000  0.16253000  1.0
  H  H24  1  0.48672000  0.31279000  0.89848000  1.0
  H  H25  1  0.51328000  0.68721000  0.10152000  1.0
  H  H26  1  0.42644000  0.61526000  0.60895000  1.0
  H  H27  1  0.57356000  0.38474000  0.39105000  1.0
  H  H28  1  0.43640000  0.39332000  0.61172000  1.0
  H  H29  1  0.56360000  0.60668000  0.38827000  1.0
  H  H30  1  0.06338000  0.29558000  0.38623000  1.0
  H  H31  1  0.93662000  0.70442000  0.61377000  1.0
  H  H32  1  0.07313000  0.52083000  0.39091000  1.0
  H  H33  1  0.92687000  0.47917000  0.60909000  1.0
  H  H34  1  0.06358000  0.90324000  0.41080000  1.0
  H  H35  1  0.93642000  0.09676000  0.58920000  1.0
  H  H36  1  0.05312000  0.12588000  0.40924000  1.0
  H  H37  1  0.94688000  0.87412000  0.59076000  1.0
  H  H38  1  0.44680000  0.20541000  0.58932000  1.0
  H  H39  1  0.55320000  0.79459000  0.41068000  1.0
  H  H40  1  0.43608000  0.98211000  0.58941000  1.0
  H  H41  1  0.56392000  0.01789000  0.41059000  1.0
  C  C42  1  0.27989000  0.64298000  0.27267000  1.0
  C  C43  1  0.72011000  0.35702000  0.72733000  1.0
  C  C44  1  0.25564000  0.56009000  0.13869000  1.0
  C  C45  1  0.74436000  0.43991000  0.86131000  1.0
  C  C46  1  0.17135000  0.31860000  0.12904000  1.0
  C  C47  1  0.82865000  0.68139000  0.87096000  1.0
  C  C48  1  0.15949000  0.12466000  0.14381000  1.0
  C  C49  1  0.84051000  0.87534000  0.85619000  1.0
  C  C50  1  0.29209000  0.15864000  0.18783000  1.0
  C  C51  1  0.70791000  0.84136000  0.81217000  1.0
  C  C52  1  0.37128000  0.07387000  0.22155000  1.0
  C  C53  1  0.62872000  0.92613000  0.77845000  1.0
  C  C54  1  0.31629000  0.95367000  0.21110000  1.0
  C  C55  1  0.68371000  0.04633000  0.78891000  1.0
  C  C56  1  0.18540000  0.91924000  0.16833000  1.0
  C  C57  1  0.81460000  0.08076000  0.83168000  1.0
  C  C58  1  0.10656000  0.00344000  0.13460000  1.0
  C  C59  1  0.89344000  0.99656000  0.86540000  1.0
  C  C60  1  0.22175000  0.83525000  0.72852000  1.0
  C  C61  1  0.77825000  0.16475000  0.27148000  1.0
  C  C62  1  0.24633000  0.86291000  0.86218000  1.0
  C  C63  1  0.75367000  0.13709000  0.13782000  1.0
  C  C64  1  0.32838000  0.62858000  0.86666000  1.0
  C  C65  1  0.67162000  0.37142000  0.13334000  1.0
  C  C66  1  0.33628000  0.42161000  0.85019000  1.0
  C  C67  1  0.66372000  0.57839000  0.14981000  1.0
  C  C68  1  0.20439000  0.41803000  0.80516000  1.0
  C  C69  1  0.79561000  0.58198000  0.19483000  1.0
  C  C70  1  0.12309000  0.30503000  0.77189000  1.0
  C  C71  1  0.87691000  0.69497000  0.22811000  1.0
  C  C72  1  0.17519000  0.19442000  0.78436000  1.0
  C  C73  1  0.82480000  0.80558000  0.21564000  1.0
  C  C74  1  0.30541000  0.19680000  0.82887000  1.0
  C  C75  1  0.69458000  0.80320000  0.17113000  1.0
  C  C76  1  0.38644000  0.30904000  0.86166000  1.0
  C  C77  1  0.61356000  0.69096000  0.13834000  1.0
  C  C78  1  0.34906000  0.54038000  0.55973000  1.0
  C  C79  1  0.65094000  0.45962000  0.44027000  1.0
  C  C80  1  0.35305000  0.41513000  0.56075000  1.0
  C  C81  1  0.64695000  0.58487000  0.43925000  1.0
  C  C82  1  0.24990000  0.32195000  0.49899000  1.0
  C  C83  1  0.75010000  0.67805000  0.50101000  1.0
  C  C84  1  0.14674000  0.36163000  0.43748000  1.0
  C  C85  1  0.85326000  0.63837000  0.56252000  1.0
  C  C86  1  0.15057000  0.48832000  0.43968000  1.0
  C  C87  1  0.84943000  0.51168000  0.56032000  1.0
  C  C88  1  0.14558000  0.97448000  0.45063000  1.0
  C  C89  1  0.85441000  0.02552000  0.54937000  1.0
  C  C90  1  0.14134000  0.09972000  0.44973000  1.0
  C  C91  1  0.85866000  0.90028000  0.55027000  1.0
  C  C92  1  0.24993000  0.18796000  0.49913000  1.0
  C  C93  1  0.75007000  0.81204000  0.50087000  1.0
  C  C94  1  0.35853000  0.14366000  0.54898000  1.0
  C  C95  1  0.64147000  0.85634000  0.45102000  1.0
  C  C96  1  0.35422000  0.01797000  0.54900000  1.0
  C  C97  1  0.64578000  0.98202000  0.45100000  1.0
  S  S98  1  0.33216000  0.31210000  0.18849000  1.0
  S  S99  1  0.66784000  0.68790000  0.81151000  1.0
  S  S100  1  0.11720000  0.44475000  0.08684000  1.0
  S  S101  1  0.88280000  0.55525000  0.91316000  1.0
  S  S102  1  0.16677000  0.57166000  0.80675000  1.0
  S  S103  1  0.83323000  0.42834000  0.19325000  1.0
  S  S104  1  0.38419000  0.79170000  0.91239000  1.0
  S  S105  1  0.61581000  0.20830000  0.08761000  1.0
  N  N106  1  0.09432000  0.21726000  0.11163000  1.0
  N  N107  1  0.90568000  0.78274000  0.88837000  1.0
  N  N108  1  0.40346000  0.54152000  0.88298000  1.0
  N  N109  1  0.59654000  0.45848000  0.11702000  1.0
  N  N110  1  0.24971000  0.57682000  0.50004000  1.0
  N  N111  1  0.75029000  0.42318000  0.49996000  1.0
  N  N112  1  0.24989000  0.93404000  0.50005000  1.0
  N  N113  1  0.75011000  0.06596000  0.49995000  1.0
  O  O114  1  0.18129000  0.67737000  0.32449000  1.0
  O  O115  1  0.81871000  0.32263000  0.67551000  1.0
  O  O116  1  0.39266000  0.67403000  0.32492000  1.0
  O  O117  1  0.60734000  0.32597000  0.67509000  1.0
  O  O118  1  0.32009000  0.82543000  0.67593000  1.0
  O  O119  1  0.67991000  0.17457000  0.32407000  1.0
  O  O120  1  0.10889000  0.82465000  0.67752000  1.0
  O  O121  1  0.89111000  0.17535000  0.32248000  1.0
