# generated using pymatgen
data_Ba3Li6H26C36(N7O13)2
_symmetry_space_group_name_H-M   'P 1'
_cell_length_a   9.27901000
_cell_length_b   10.90930000
_cell_length_c   28.58990000
_cell_angle_alpha   90.00010000
_cell_angle_beta   90.00030000
_cell_angle_gamma   89.99990000
_symmetry_Int_Tables_number   1
_chemical_formula_structural   Ba3Li6H26C36(N7O13)2
_chemical_formula_sum   'Ba6 Li12 H52 C72 N28 O52'
_cell_volume   2894.08421064
_cell_formula_units_Z   2
loop_
 _symmetry_equiv_pos_site_id
 _symmetry_equiv_pos_as_xyz
  1  'x, y, z'
loop_
 _atom_site_type_symbol
 _atom_site_label
 _atom_site_symmetry_multiplicity
 _atom_site_fract_x
 _atom_site_fract_y
 _atom_site_fract_z
 _atom_site_occupancy
  Ba  Ba0  1  0.96775000  0.14088000  0.55337000  1.0
  Ba  Ba1  1  0.96775000  0.85912000  0.44663000  1.0
  Ba  Ba2  1  0.03225000  0.64088000  0.94663000  1.0
  Ba  Ba3  1  0.03225000  0.35912000  0.05337000  1.0
  Ba  Ba4  1  0.18049000  0.50000000  0.50000000  1.0
  Ba  Ba5  1  0.81951000  0.00000000  0.00000000  1.0
  Li  Li6  1  0.14844000  0.40801000  0.83817000  1.0
  Li  Li7  1  0.14844000  0.59199000  0.16183000  1.0
  Li  Li8  1  0.85156000  0.90801000  0.66183000  1.0
  Li  Li9  1  0.85156000  0.09199000  0.33817000  1.0
  Li  Li10  1  0.05093000  0.41992000  0.61117000  1.0
  Li  Li11  1  0.05092000  0.58008000  0.38883000  1.0
  Li  Li12  1  0.94907000  0.91992000  0.88883000  1.0
  Li  Li13  1  0.94908000  0.08008000  0.11117000  1.0
  Li  Li14  1  0.90860000  0.72496000  0.56124000  1.0
  Li  Li15  1  0.90860000  0.27504000  0.43876000  1.0
  Li  Li16  1  0.09140000  0.22496000  0.93875000  1.0
  Li  Li17  1  0.09140000  0.77504000  0.06125000  1.0
  H  H18  1  0.06138000  0.38249000  0.71101000  1.0
  H  H19  1  0.06138000  0.61750000  0.28899000  1.0
  H  H20  1  0.93862000  0.88250000  0.78899000  1.0
  H  H21  1  0.93862000  0.11750000  0.21101000  1.0
  H  H22  1  0.57429000  0.13030000  0.57972000  1.0
  H  H23  1  0.57429000  0.86970000  0.42028000  1.0
  H  H24  1  0.42571000  0.63030000  0.92028000  1.0
  H  H25  1  0.42571000  0.36970000  0.07972000  1.0
  H  H26  1  0.61538000  0.66526000  0.53591000  1.0
  H  H27  1  0.61538000  0.33474000  0.46409000  1.0
  H  H28  1  0.38462000  0.16526000  0.96409000  1.0
  H  H29  1  0.38462000  0.83474000  0.03591000  1.0
  H  H30  1  0.89596000  0.04582000  0.75715000  1.0
  H  H31  1  0.89597000  0.95418000  0.24286000  1.0
  H  H32  1  0.10404000  0.54582000  0.74285000  1.0
  H  H33  1  0.10404000  0.45418000  0.25715000  1.0
  H  H34  1  0.48552000  0.51229000  0.57319000  1.0
  H  H35  1  0.48552000  0.48771000  0.42681000  1.0
  H  H36  1  0.51447000  0.01229000  0.92681000  1.0
  H  H37  1  0.51448000  0.98771000  0.07319000  1.0
  H  H38  1  0.39192000  0.00029000  0.55693000  1.0
  H  H39  1  0.39192000  0.99971000  0.44307000  1.0
  H  H40  1  0.60807000  0.50029000  0.94307000  1.0
  H  H41  1  0.60808000  0.49971000  0.05693000  1.0
  H  H42  1  0.37483000  0.59514000  0.80551000  1.0
  H  H43  1  0.37483000  0.40486000  0.19449000  1.0
  H  H44  1  0.62517000  0.09514000  0.69449000  1.0
  H  H45  1  0.62517000  0.90487000  0.30551000  1.0
  H  H46  1  0.56526000  0.69776000  0.79206000  1.0
  H  H47  1  0.56525000  0.30224000  0.20794000  1.0
  H  H48  1  0.43475000  0.19776000  0.70794000  1.0
  H  H49  1  0.43475000  0.80224000  0.29206000  1.0
  H  H50  1  0.71119000  0.60931000  0.76923000  1.0
  H  H51  1  0.71119000  0.39069000  0.23077000  1.0
  H  H52  1  0.28881000  0.10931000  0.73077000  1.0
  H  H53  1  0.28881000  0.89070000  0.26923000  1.0
  H  H54  1  0.71520000  0.66044000  0.82883000  1.0
  H  H55  1  0.71520000  0.33956000  0.17117000  1.0
  H  H56  1  0.28480000  0.16044000  0.67117000  1.0
  H  H57  1  0.28480000  0.83956000  0.32883000  1.0
  H  H58  1  0.59515000  0.33874000  0.84194000  1.0
  H  H59  1  0.59514000  0.66126000  0.15806000  1.0
  H  H60  1  0.40485000  0.83874000  0.65806000  1.0
  H  H61  1  0.40485000  0.16127000  0.34194000  1.0
  H  H62  1  0.73605000  0.44349000  0.85775000  1.0
  H  H63  1  0.73605000  0.55651000  0.14225000  1.0
  H  H64  1  0.26395000  0.94349000  0.64225000  1.0
  H  H65  1  0.26395000  0.05652000  0.35775000  1.0
  H  H66  1  0.72955000  0.38229000  0.79983000  1.0
  H  H67  1  0.72954000  0.61771000  0.20017000  1.0
  H  H68  1  0.27045000  0.88229000  0.70017000  1.0
  H  H69  1  0.27046000  0.11772000  0.29983000  1.0
  C  C70  1  0.95716000  0.18083000  0.66586000  1.0
  C  C71  1  0.95715000  0.81917000  0.33414000  1.0
  C  C72  1  0.04284000  0.68083000  0.83414000  1.0
  C  C73  1  0.04284000  0.31917000  0.16586000  1.0
  C  C74  1  0.97224000  0.20476000  0.71667000  1.0
  C  C75  1  0.97224000  0.79524000  0.28333000  1.0
  C  C76  1  0.02776000  0.70476000  0.78333000  1.0
  C  C77  1  0.02776000  0.29524000  0.21667000  1.0
  C  C78  1  0.94654000  0.13498000  0.75635000  1.0
  C  C79  1  0.94654000  0.86502000  0.24365000  1.0
  C  C80  1  0.05346000  0.63498000  0.74365000  1.0
  C  C81  1  0.05346000  0.36502000  0.25635000  1.0
  C  C82  1  0.99801000  0.20611000  0.79394000  1.0
  C  C83  1  0.99802000  0.79389000  0.20606000  1.0
  C  C84  1  0.00199000  0.70611000  0.70606000  1.0
  C  C85  1  0.00199000  0.29389000  0.29394000  1.0
  C  C86  1  0.00823000  0.17429000  0.84466000  1.0
  C  C87  1  0.00824000  0.82571000  0.15535000  1.0
  C  C88  1  0.99178000  0.67429000  0.65534000  1.0
  C  C89  1  0.99177000  0.32571000  0.34466000  1.0
  C  C90  1  0.80813000  0.47695000  0.55647000  1.0
  C  C91  1  0.80813000  0.52305000  0.44353000  1.0
  C  C92  1  0.19187000  0.97695000  0.94353000  1.0
  C  C93  1  0.19187000  0.02305000  0.05647000  1.0
  C  C94  1  0.68522000  0.39552000  0.56786000  1.0
  C  C95  1  0.68521000  0.60448000  0.43214000  1.0
  C  C96  1  0.31478000  0.89552000  0.93214000  1.0
  C  C97  1  0.31479000  0.10448000  0.06786000  1.0
  C  C98  1  0.53813000  0.42366000  0.57374000  1.0
  C  C99  1  0.53812000  0.57634000  0.42626000  1.0
  C  C100  1  0.46187000  0.92366000  0.92626000  1.0
  C  C101  1  0.46187000  0.07634000  0.07374000  1.0
  C  C102  1  0.47030000  0.31104000  0.58036000  1.0
  C  C103  1  0.47029000  0.68896000  0.41964000  1.0
  C  C104  1  0.52970000  0.81104000  0.91964000  1.0
  C  C105  1  0.52970000  0.18896000  0.08036000  1.0
  C  C106  1  0.31393000  0.28236000  0.58302000  1.0
  C  C107  1  0.31392000  0.71764000  0.41698000  1.0
  C  C108  1  0.68607000  0.78236000  0.91698000  1.0
  C  C109  1  0.68608000  0.21764000  0.08302000  1.0
  C  C110  1  0.16579000  0.82072000  0.53919000  1.0
  C  C111  1  0.16579000  0.17928000  0.46081000  1.0
  C  C112  1  0.83421000  0.32072000  0.96081000  1.0
  C  C113  1  0.83421000  0.67928000  0.03919000  1.0
  C  C114  1  0.32373000  0.80882000  0.54220000  1.0
  C  C115  1  0.32373000  0.19117000  0.45781000  1.0
  C  C116  1  0.67627000  0.30882000  0.95780000  1.0
  C  C117  1  0.67627000  0.69118000  0.04219000  1.0
  C  C118  1  0.42042000  0.90547000  0.55010000  1.0
  C  C119  1  0.42042000  0.09453000  0.44991000  1.0
  C  C120  1  0.57958000  0.40547000  0.94990000  1.0
  C  C121  1  0.57959000  0.59453000  0.05010000  1.0
  C  C122  1  0.55554000  0.85231000  0.54613000  1.0
  C  C123  1  0.55553000  0.14769000  0.45388000  1.0
  C  C124  1  0.44446000  0.35231000  0.95388000  1.0
  C  C125  1  0.44446000  0.64769000  0.04612000  1.0
  C  C126  1  0.69991000  0.90935000  0.54784000  1.0
  C  C127  1  0.69991000  0.09065000  0.45216000  1.0
  C  C128  1  0.30008000  0.40935000  0.95216000  1.0
  C  C129  1  0.30009000  0.59065000  0.04784000  1.0
  C  C130  1  0.42772000  0.50795000  0.81566000  1.0
  C  C131  1  0.42771000  0.49205000  0.18434000  1.0
  C  C132  1  0.57228000  0.00794000  0.68434000  1.0
  C  C133  1  0.57228000  0.99206000  0.31566000  1.0
  C  C134  1  0.64528000  0.62714000  0.80053000  1.0
  C  C135  1  0.64527000  0.37286000  0.19947000  1.0
  C  C136  1  0.35473000  0.12714000  0.69947000  1.0
  C  C137  1  0.35473000  0.87287000  0.30053000  1.0
  C  C138  1  0.66360000  0.41366000  0.82953000  1.0
  C  C139  1  0.66359000  0.58633000  0.17047000  1.0
  C  C140  1  0.33640000  0.91366000  0.67047000  1.0
  C  C141  1  0.33641000  0.08634000  0.32953000  1.0
  N  N142  1  0.03324000  0.31107000  0.73207000  1.0
  N  N143  1  0.03324000  0.68893000  0.26794000  1.0
  N  N144  1  0.96677000  0.81107000  0.76793000  1.0
  N  N145  1  0.96676000  0.18893000  0.23206000  1.0
  N  N146  1  0.05072000  0.31446000  0.77848000  1.0
  N  N147  1  0.05072000  0.68554000  0.22152000  1.0
  N  N148  1  0.94928000  0.81446000  0.72152000  1.0
  N  N149  1  0.94928000  0.18554000  0.27848000  1.0
  N  N150  1  0.70643000  0.27355000  0.57149000  1.0
  N  N151  1  0.70643000  0.72645000  0.42851000  1.0
  N  N152  1  0.29357000  0.77355000  0.92851000  1.0
  N  N153  1  0.29357000  0.22645000  0.07149000  1.0
  N  N154  1  0.57689000  0.22494000  0.57899000  1.0
  N  N155  1  0.57688000  0.77506000  0.42101000  1.0
  N  N156  1  0.42311000  0.72494000  0.92101000  1.0
  N  N157  1  0.42312000  0.27506000  0.07899000  1.0
  N  N158  1  0.39402000  0.70155000  0.53440000  1.0
  N  N159  1  0.39402000  0.29845000  0.46560000  1.0
  N  N160  1  0.60598000  0.20155000  0.96560000  1.0
  N  N161  1  0.60598000  0.79845000  0.03440000  1.0
  N  N162  1  0.53405000  0.73108000  0.53655000  1.0
  N  N163  1  0.53405000  0.26892000  0.46345000  1.0
  N  N164  1  0.46595000  0.23108000  0.96345000  1.0
  N  N165  1  0.46595000  0.76892000  0.03655000  1.0
  N  N166  1  0.57228000  0.51567000  0.81537000  1.0
  N  N167  1  0.57227000  0.48433000  0.18463000  1.0
  N  N168  1  0.42772000  0.01567000  0.68463000  1.0
  N  N169  1  0.42772000  0.98434000  0.31537000  1.0
  O  O170  1  0.92037000  0.07474000  0.65216000  1.0
  O  O171  1  0.92036000  0.92526000  0.34784000  1.0
  O  O172  1  0.07964000  0.57474000  0.84784000  1.0
  O  O173  1  0.07964000  0.42526000  0.15216000  1.0
  O  O174  1  0.98766000  0.27007000  0.63906000  1.0
  O  O175  1  0.98765000  0.72993000  0.36094000  1.0
  O  O176  1  0.01235000  0.77007000  0.86094000  1.0
  O  O177  1  0.01235000  0.22993000  0.13906000  1.0
  O  O178  1  0.96241000  0.06992000  0.85662000  1.0
  O  O179  1  0.96241000  0.93008000  0.14338000  1.0
  O  O180  1  0.03760000  0.56992000  0.64338000  1.0
  O  O181  1  0.03759000  0.43008000  0.35662000  1.0
  O  O182  1  0.06478000  0.25558000  0.87123000  1.0
  O  O183  1  0.06479000  0.74442000  0.12877000  1.0
  O  O184  1  0.93522000  0.75558000  0.62877000  1.0
  O  O185  1  0.93522000  0.24442000  0.37123000  1.0
  O  O186  1  0.93417000  0.42935000  0.55389000  1.0
  O  O187  1  0.93417000  0.57065000  0.44611000  1.0
  O  O188  1  0.06583000  0.92935000  0.94611000  1.0
  O  O189  1  0.06583000  0.07065000  0.05389000  1.0
  O  O190  1  0.78090000  0.58943000  0.54973000  1.0
  O  O191  1  0.78090000  0.41057000  0.45027000  1.0
  O  O192  1  0.21910000  0.08943000  0.95027000  1.0
  O  O193  1  0.21910000  0.91057000  0.04973000  1.0
  O  O194  1  0.27303000  0.17234000  0.58494000  1.0
  O  O195  1  0.27303000  0.82766000  0.41505000  1.0
  O  O196  1  0.72697000  0.67235000  0.91505000  1.0
  O  O197  1  0.72697000  0.32766000  0.08495000  1.0
  O  O198  1  0.23028000  0.37656000  0.58127000  1.0
  O  O199  1  0.23028000  0.62344000  0.41873000  1.0
  O  O200  1  0.76972000  0.87656000  0.91873000  1.0
  O  O201  1  0.76972000  0.12344000  0.08127000  1.0
  O  O202  1  0.09163000  0.72552000  0.52682000  1.0
  O  O203  1  0.09163000  0.27448000  0.47318000  1.0
  O  O204  1  0.90837000  0.22552000  0.97318000  1.0
  O  O205  1  0.90837000  0.77448000  0.02682000  1.0
  O  O206  1  0.11113000  0.92456000  0.54654000  1.0
  O  O207  1  0.11112000  0.07544000  0.45346000  1.0
  O  O208  1  0.88887000  0.42456000  0.95346000  1.0
  O  O209  1  0.88888000  0.57544000  0.04654000  1.0
  O  O210  1  0.80443000  0.85234000  0.52879000  1.0
  O  O211  1  0.80444000  0.14766000  0.47121000  1.0
  O  O212  1  0.19556000  0.35234000  0.97121000  1.0
  O  O213  1  0.19556000  0.64766000  0.02879000  1.0
  O  O214  1  0.71013000  0.01276000  0.56762000  1.0
  O  O215  1  0.71013000  0.98724000  0.43238000  1.0
  O  O216  1  0.28987000  0.51276000  0.93238000  1.0
  O  O217  1  0.28987000  0.48724000  0.06762000  1.0
  O  O218  1  0.35599000  0.41508000  0.82601000  1.0
  O  O219  1  0.35598000  0.58492000  0.17399000  1.0
  O  O220  1  0.64401000  0.91508000  0.67399000  1.0
  O  O221  1  0.64402000  0.08493000  0.32601000  1.0
