# generated using pymatgen
data_ZnH2C3N3O2
_symmetry_space_group_name_H-M   'P 1'
_cell_length_a   8.99557000
_cell_length_b   9.48507000
_cell_length_c   9.86834000
_cell_angle_alpha   90.00000000
_cell_angle_beta   90.00020000
_cell_angle_gamma   117.04400000
_symmetry_Int_Tables_number   1
_chemical_formula_structural   ZnH2C3N3O2
_chemical_formula_sum   'Zn4 H8 C12 N12 O8'
_cell_volume   749.93585938
_cell_formula_units_Z   4
loop_
 _symmetry_equiv_pos_site_id
 _symmetry_equiv_pos_as_xyz
  1  'x, y, z'
loop_
 _atom_site_type_symbol
 _atom_site_label
 _atom_site_symmetry_multiplicity
 _atom_site_fract_x
 _atom_site_fract_y
 _atom_site_fract_z
 _atom_site_occupancy
  Zn  Zn0  1  0.17385000  0.93795000  0.94278000  1.0
  Zn  Zn1  1  0.82615000  0.56205000  0.44278000  1.0
  Zn  Zn2  1  0.82615000  0.06205000  0.05722000  1.0
  Zn  Zn3  1  0.17385000  0.43795000  0.55722000  1.0
  H  H4  1  0.89741000  0.80034000  0.69087000  1.0
  H  H5  1  0.10259000  0.69966000  0.19087000  1.0
  H  H6  1  0.10259000  0.19966000  0.30914000  1.0
  H  H7  1  0.89741000  0.30035000  0.80914000  1.0
  H  H8  1  0.26751000  0.67121000  0.81086000  1.0
  H  H9  1  0.73249000  0.82879000  0.31087000  1.0
  H  H10  1  0.73250000  0.32879000  0.18914000  1.0
  H  H11  1  0.26750000  0.17121000  0.68914000  1.0
  C  C12  1  0.47318000  0.91592000  0.03024000  1.0
  C  C13  1  0.52682000  0.58408000  0.53024000  1.0
  C  C14  1  0.52682000  0.08408000  0.96975000  1.0
  C  C15  1  0.47318000  0.41592000  0.46975000  1.0
  C  C16  1  0.97900000  0.74452000  0.69692000  1.0
  C  C17  1  0.02100000  0.75548000  0.19692000  1.0
  C  C18  1  0.02100000  0.25548000  0.30308000  1.0
  C  C19  1  0.97900000  0.24453000  0.80308000  1.0
  C  C20  1  0.16618000  0.67789000  0.75653000  1.0
  C  C21  1  0.83382000  0.82211000  0.25653000  1.0
  C  C22  1  0.83382000  0.32211000  0.24347000  1.0
  C  C23  1  0.16618000  0.17789000  0.74347000  1.0
  N  N24  1  0.09965000  0.77564000  0.79057000  1.0
  N  N25  1  0.90035000  0.72436000  0.29057000  1.0
  N  N26  1  0.90035000  0.22436000  0.20943000  1.0
  N  N27  1  0.09965000  0.27564000  0.70944000  1.0
  N  N28  1  0.97092000  0.63357000  0.61001000  1.0
  N  N29  1  0.02908000  0.86642000  0.11001000  1.0
  N  N30  1  0.02908000  0.36642000  0.38999000  1.0
  N  N31  1  0.97092000  0.13358000  0.88999000  1.0
  N  N32  1  0.09184000  0.59118000  0.64805000  1.0
  N  N33  1  0.90816000  0.90882000  0.14805000  1.0
  N  N34  1  0.90817000  0.40882000  0.35195000  1.0
  N  N35  1  0.09183000  0.09118000  0.85195000  1.0
  O  O36  1  0.31948000  0.82155000  0.03117000  1.0
  O  O37  1  0.68052000  0.67845000  0.53116000  1.0
  O  O38  1  0.68052000  0.17845000  0.96883000  1.0
  O  O39  1  0.31947000  0.32154000  0.46884000  1.0
  O  O40  1  0.58889000  0.88580000  0.07393000  1.0
  O  O41  1  0.41110000  0.61420000  0.57393000  1.0
  O  O42  1  0.41111000  0.11420000  0.92607000  1.0
  O  O43  1  0.58889000  0.38580000  0.42607000  1.0
