# generated using pymatgen
data_CdH16C24I2(N4O)2
_symmetry_space_group_name_H-M   'P 1'
_cell_length_a   4.14675000
_cell_length_b   13.49070000
_cell_length_c   22.42660000
_cell_angle_alpha   89.99950000
_cell_angle_beta   91.30440000
_cell_angle_gamma   89.99990000
_symmetry_Int_Tables_number   1
_chemical_formula_structural   CdH16C24I2(N4O)2
_chemical_formula_sum   'Cd2 H32 C48 I4 N16 O4'
_cell_volume   1254.27630884
_cell_formula_units_Z   2
loop_
 _symmetry_equiv_pos_site_id
 _symmetry_equiv_pos_as_xyz
  1  'x, y, z'
loop_
 _atom_site_type_symbol
 _atom_site_label
 _atom_site_symmetry_multiplicity
 _atom_site_fract_x
 _atom_site_fract_y
 _atom_site_fract_z
 _atom_site_occupancy
  Cd  Cd0  1  0.00001000  0.50000000  0.50000000  1.0
  Cd  Cd1  1  0.99999000  0.00000000  1.00000000  1.0
  H  H2  1  0.23918000  0.35823000  0.39684000  1.0
  H  H3  1  0.23915000  0.14177000  0.89684000  1.0
  H  H4  1  0.76082000  0.64178000  0.60316000  1.0
  H  H5  1  0.76081000  0.85822000  0.10316000  1.0
  H  H6  1  0.21473000  0.18599000  0.35592000  1.0
  H  H7  1  0.21472000  0.31401000  0.85592000  1.0
  H  H8  1  0.78528000  0.81402000  0.64407000  1.0
  H  H9  1  0.78525000  0.68599000  0.14408000  1.0
  H  H10  1  0.63551000  0.10841000  0.50788000  1.0
  H  H11  1  0.63552000  0.39159000  0.00788000  1.0
  H  H12  1  0.36450000  0.89158000  0.49212000  1.0
  H  H13  1  0.36449000  0.60841000  0.99212000  1.0
  H  H14  1  0.70570000  0.28272000  0.54357000  1.0
  H  H15  1  0.70566000  0.21728000  0.04356000  1.0
  H  H16  1  0.29432000  0.71728000  0.45643000  1.0
  H  H17  1  0.29432000  0.78272000  0.95643000  1.0
  H  H18  1  0.51924000  0.85405000  0.18003000  1.0
  H  H19  1  0.51923000  0.64596000  0.68003000  1.0
  H  H20  1  0.48079000  0.14594000  0.81997000  1.0
  H  H21  1  0.48074000  0.35404000  0.31997000  1.0
  H  H22  1  0.28673000  0.96491000  0.25539000  1.0
  H  H23  1  0.28673000  0.53509000  0.75539000  1.0
  H  H24  1  0.71331000  0.03509000  0.74461000  1.0
  H  H25  1  0.71326000  0.46491000  0.24461000  1.0
  H  H26  1  0.93740000  0.70277000  0.34525000  1.0
  H  H27  1  0.93738000  0.79724000  0.84525000  1.0
  H  H28  1  0.06261000  0.29724000  0.65475000  1.0
  H  H29  1  0.06262000  0.20276000  0.15475000  1.0
  H  H30  1  0.19366000  0.60237000  0.26618000  1.0
  H  H31  1  0.19365000  0.89763000  0.76618000  1.0
  H  H32  1  0.80634000  0.39762000  0.73382000  1.0
  H  H33  1  0.80634000  0.10237000  0.23382000  1.0
  C  C34  1  0.11022000  0.29965000  0.41989000  1.0
  C  C35  1  0.11021000  0.20035000  0.91989000  1.0
  C  C36  1  0.88979000  0.70035000  0.58011000  1.0
  C  C37  1  0.88976000  0.79965000  0.08011000  1.0
  C  C38  1  0.09333000  0.20400000  0.39717000  1.0
  C  C39  1  0.09334000  0.29600000  0.89717000  1.0
  C  C40  1  0.90667000  0.79601000  0.60283000  1.0
  C  C41  1  0.90663000  0.70400000  0.10283000  1.0
  C  C42  1  0.91817000  0.13323000  0.42872000  1.0
  C  C43  1  0.91816000  0.36676000  0.92872000  1.0
  C  C44  1  0.08183000  0.86677000  0.57128000  1.0
  C  C45  1  0.08183000  0.63323000  0.07127000  1.0
  C  C46  1  0.77527000  0.16123000  0.48224000  1.0
  C  C47  1  0.77527000  0.33877000  0.98224000  1.0
  C  C48  1  0.22474000  0.83878000  0.51775000  1.0
  C  C49  1  0.22472000  0.66123000  0.01776000  1.0
  C  C50  1  0.81279000  0.25818000  0.50208000  1.0
  C  C51  1  0.81276000  0.24181000  0.00208000  1.0
  C  C52  1  0.18723000  0.74181000  0.49792000  1.0
  C  C53  1  0.18722000  0.75819000  0.99792000  1.0
  C  C54  1  0.88182000  0.03233000  0.40741000  1.0
  C  C55  1  0.88183000  0.46766000  0.90741000  1.0
  C  C56  1  0.11820000  0.96767000  0.59259000  1.0
  C  C57  1  0.11816000  0.53234000  0.09259000  1.0
  C  C58  1  0.95785000  0.90308000  0.35354000  1.0
  C  C59  1  0.95784000  0.59693000  0.85353000  1.0
  C  C60  1  0.04218000  0.09693000  0.64646000  1.0
  C  C61  1  0.04215000  0.40307000  0.14647000  1.0
  C  C62  1  0.39168000  0.82196000  0.21740000  1.0
  C  C63  1  0.39166000  0.67804000  0.71740000  1.0
  C  C64  1  0.60834000  0.17803000  0.78260000  1.0
  C  C65  1  0.60832000  0.32196000  0.28260000  1.0
  C  C66  1  0.26017000  0.88483000  0.25958000  1.0
  C  C67  1  0.26016000  0.61517000  0.75958000  1.0
  C  C68  1  0.73987000  0.11516000  0.74042000  1.0
  C  C69  1  0.73983000  0.38483000  0.24042000  1.0
  C  C70  1  0.09391000  0.84239000  0.30702000  1.0
  C  C71  1  0.09390000  0.65761000  0.80702000  1.0
  C  C72  1  0.90611000  0.15761000  0.69298000  1.0
  C  C73  1  0.90609000  0.34239000  0.19298000  1.0
  C  C74  1  0.06541000  0.73891000  0.30933000  1.0
  C  C75  1  0.06539000  0.76109000  0.80933000  1.0
  C  C76  1  0.93461000  0.26109000  0.69067000  1.0
  C  C77  1  0.93460000  0.23891000  0.19067000  1.0
  C  C78  1  0.20851000  0.68319000  0.26483000  1.0
  C  C79  1  0.20848000  0.81681000  0.76483000  1.0
  C  C80  1  0.79149000  0.31680000  0.73517000  1.0
  C  C81  1  0.79150000  0.18320000  0.23517000  1.0
  I  I82  1  0.51499000  0.54114000  0.40531000  1.0
  I  I83  1  0.51497000  0.95886000  0.90531000  1.0
  I  I84  1  0.48502000  0.45887000  0.59469000  1.0
  I  I85  1  0.48502000  0.04114000  0.09469000  1.0
  N  N86  1  0.97429000  0.32700000  0.47119000  1.0
  N  N87  1  0.97426000  0.17301000  0.97119000  1.0
  N  N88  1  0.02571000  0.67301000  0.52881000  1.0
  N  N89  1  0.02570000  0.82699000  0.02881000  1.0
  N  N90  1  0.70965000  0.96053000  0.43003000  1.0
  N  N91  1  0.70964000  0.53948000  0.93003000  1.0
  N  N92  1  0.29037000  0.03948000  0.56997000  1.0
  N  N93  1  0.29036000  0.46052000  0.06997000  1.0
  N  N94  1  0.75851000  0.87725000  0.39539000  1.0
  N  N95  1  0.75850000  0.62276000  0.89539000  1.0
  N  N96  1  0.24152000  0.12276000  0.60461000  1.0
  N  N97  1  0.24150000  0.37724000  0.10461000  1.0
  N  N98  1  0.37112000  0.72261000  0.21947000  1.0
  N  N99  1  0.37111000  0.77740000  0.71947000  1.0
  N  N100  1  0.62889000  0.27739000  0.78053000  1.0
  N  N101  1  0.62887000  0.22260000  0.28054000  1.0
  O  O102  1  0.04340000  0.00127000  0.35807000  1.0
  O  O103  1  0.04339000  0.49873000  0.85807000  1.0
  O  O104  1  0.95663000  0.99873000  0.64193000  1.0
  O  O105  1  0.95660000  0.50127000  0.14193000  1.0
