# generated using pymatgen
data_SnH11C9NO5
_symmetry_space_group_name_H-M   'P 1'
_cell_length_a   11.20110000
_cell_length_b   11.48490000
_cell_length_c   12.23140000
_cell_angle_alpha   90.00000000
_cell_angle_beta   90.00000000
_cell_angle_gamma   111.34600000
_symmetry_Int_Tables_number   1
_chemical_formula_structural   SnH11C9NO5
_chemical_formula_sum   'Sn4 H44 C36 N4 O20'
_cell_volume   1465.54772089
_cell_formula_units_Z   4
loop_
 _symmetry_equiv_pos_site_id
 _symmetry_equiv_pos_as_xyz
  1  'x, y, z'
loop_
 _atom_site_type_symbol
 _atom_site_label
 _atom_site_symmetry_multiplicity
 _atom_site_fract_x
 _atom_site_fract_y
 _atom_site_fract_z
 _atom_site_occupancy
  Sn  Sn0  1  0.59316000  0.24929000  0.08055000  1.0
  Sn  Sn1  1  0.90684000  0.75071000  0.58055000  1.0
  Sn  Sn2  1  0.40684000  0.75071000  0.91946000  1.0
  Sn  Sn3  1  0.09316000  0.24929000  0.41945000  1.0
  H  H4  1  0.51211000  0.06126000  0.89139000  1.0
  H  H5  1  0.98789000  0.93874000  0.39139000  1.0
  H  H6  1  0.48789000  0.93874000  0.10861000  1.0
  H  H7  1  0.01211000  0.06127000  0.60861000  1.0
  H  H8  1  0.53498000  0.20083000  0.86304000  1.0
  H  H9  1  0.96502000  0.79916000  0.36304000  1.0
  H  H10  1  0.46502000  0.79916000  0.13696000  1.0
  H  H11  1  0.03498000  0.20084000  0.63696000  1.0
  H  H12  1  0.50945000  0.09830000  0.49553000  1.0
  H  H13  1  0.99055000  0.90170000  0.99553000  1.0
  H  H14  1  0.49055000  0.90170000  0.50447000  1.0
  H  H15  1  0.00945000  0.09830000  0.00447000  1.0
  H  H16  1  0.62521000  0.30338000  0.58711000  1.0
  H  H17  1  0.87478000  0.69662000  0.08711000  1.0
  H  H18  1  0.37479000  0.69662000  0.41289000  1.0
  H  H19  1  0.12521000  0.30338000  0.91289000  1.0
  H  H20  1  0.72426000  0.46852000  0.26707000  1.0
  H  H21  1  0.77574000  0.53149000  0.76707000  1.0
  H  H22  1  0.27574000  0.53149000  0.73293000  1.0
  H  H23  1  0.22426000  0.46851000  0.23293000  1.0
  H  H24  1  0.76708000  0.15226000  0.14504000  1.0
  H  H25  1  0.73292000  0.84774000  0.64504000  1.0
  H  H26  1  0.23292000  0.84774000  0.85496000  1.0
  H  H27  1  0.26708000  0.15226000  0.35496000  1.0
  H  H28  1  0.83671000  0.26974000  0.04234000  1.0
  H  H29  1  0.66330000  0.73026000  0.54234000  1.0
  H  H30  1  0.16330000  0.73026000  0.95766000  1.0
  H  H31  1  0.33670000  0.26974000  0.45766000  1.0
  H  H32  1  0.72964000  0.11623000  0.00354000  1.0
  H  H33  1  0.77037000  0.88377000  0.50353000  1.0
  H  H34  1  0.27037000  0.88377000  0.99646000  1.0
  H  H35  1  0.22963000  0.11623000  0.49646000  1.0
  H  H36  1  0.44548000  0.37647000  0.14448000  1.0
  H  H37  1  0.05451000  0.62353000  0.64448000  1.0
  H  H38  1  0.55452000  0.62353000  0.85552000  1.0
  H  H39  1  0.94548000  0.37647000  0.35552000  1.0
  H  H40  1  0.34635000  0.22329000  0.09606000  1.0
  H  H41  1  0.15364000  0.77671000  0.59607000  1.0
  H  H42  1  0.65365000  0.77671000  0.90393000  1.0
  H  H43  1  0.84635000  0.22328000  0.40394000  1.0
  H  H44  1  0.42536000  0.34529000  0.00015000  1.0
  H  H45  1  0.07464000  0.65470000  0.50015000  1.0
  H  H46  1  0.57464000  0.65471000  0.99984000  1.0
  H  H47  1  0.92536000  0.34529000  0.49984000  1.0
  C  C48  1  0.55610000  0.17611000  0.33325000  1.0
  C  C49  1  0.94390000  0.82390000  0.83325000  1.0
  C  C50  1  0.44390000  0.82390000  0.66675000  1.0
  C  C51  1  0.05610000  0.17610000  0.16675000  1.0
  C  C52  1  0.55694000  0.18193000  0.44720000  1.0
  C  C53  1  0.94306000  0.81807000  0.94720000  1.0
  C  C54  1  0.44306000  0.81807000  0.55280000  1.0
  C  C55  1  0.05694000  0.18193000  0.05280000  1.0
  C  C56  1  0.62126000  0.29620000  0.49822000  1.0
  C  C57  1  0.87874000  0.70380000  0.99822000  1.0
  C  C58  1  0.37874000  0.70380000  0.50178000  1.0
  C  C59  1  0.12126000  0.29620000  0.00178000  1.0
  C  C60  1  0.68357000  0.40146000  0.43380000  1.0
  C  C61  1  0.81643000  0.59854000  0.93380000  1.0
  C  C62  1  0.31643000  0.59854000  0.56620000  1.0
  C  C63  1  0.18357000  0.40146000  0.06620000  1.0
  C  C64  1  0.67709000  0.38881000  0.32011000  1.0
  C  C65  1  0.82291000  0.61119000  0.82011000  1.0
  C  C66  1  0.32292000  0.61119000  0.67988000  1.0
  C  C67  1  0.17708000  0.38881000  0.17989000  1.0
  C  C68  1  0.49232000  0.05437000  0.27209000  1.0
  C  C69  1  0.00768000  0.94563000  0.77209000  1.0
  C  C70  1  0.50768000  0.94563000  0.72791000  1.0
  C  C71  1  0.99232000  0.05437000  0.22791000  1.0
  C  C72  1  0.76199000  0.52566000  0.48151000  1.0
  C  C73  1  0.73801000  0.47435000  0.98151000  1.0
  C  C74  1  0.23801000  0.47434000  0.51849000  1.0
  C  C75  1  0.26199000  0.52565000  0.01849000  1.0
  C  C76  1  0.75193000  0.18951000  0.06593000  1.0
  C  C77  1  0.74808000  0.81050000  0.56592000  1.0
  C  C78  1  0.24808000  0.81049000  0.93407000  1.0
  C  C79  1  0.25192000  0.18950000  0.43408000  1.0
  C  C80  1  0.43213000  0.30614000  0.08050000  1.0
  C  C81  1  0.06787000  0.69386000  0.58050000  1.0
  C  C82  1  0.56787000  0.69386000  0.91950000  1.0
  C  C83  1  0.93213000  0.30614000  0.41950000  1.0
  N  N84  1  0.61461000  0.27885000  0.27172000  1.0
  N  N85  1  0.88539000  0.72115000  0.77172000  1.0
  N  N86  1  0.38539000  0.72115000  0.72828000  1.0
  N  N87  1  0.11461000  0.27885000  0.22828000  1.0
  O  O88  1  0.48406000  0.06526000  0.16585000  1.0
  O  O89  1  0.01594000  0.93474000  0.66585000  1.0
  O  O90  1  0.51594000  0.93474000  0.83415000  1.0
  O  O91  1  0.98406000  0.06526000  0.33415000  1.0
  O  O92  1  0.45473000  0.95415000  0.32256000  1.0
  O  O93  1  0.04527000  0.04586000  0.82256000  1.0
  O  O94  1  0.54527000  0.04586000  0.67744000  1.0
  O  O95  1  0.95473000  0.95414000  0.17744000  1.0
  O  O96  1  0.76638000  0.53825000  0.58570000  1.0
  O  O97  1  0.73362000  0.46175000  0.08570000  1.0
  O  O98  1  0.23362000  0.46175000  0.41431000  1.0
  O  O99  1  0.26638000  0.53825000  0.91431000  1.0
  O  O100  1  0.82336000  0.61450000  0.41761000  1.0
  O  O101  1  0.67664000  0.38550000  0.91761000  1.0
  O  O102  1  0.17664000  0.38550000  0.58239000  1.0
  O  O103  1  0.32336000  0.61450000  0.08239000  1.0
  O  O104  1  0.49836000  0.13804000  0.91968000  1.0
  O  O105  1  0.00164000  0.86196000  0.41968000  1.0
  O  O106  1  0.50164000  0.86196000  0.08032000  1.0
  O  O107  1  0.99836000  0.13804000  0.58032000  1.0
