# generated using pymatgen
data_CdH11C14N2O7
_symmetry_space_group_name_H-M   'P 1'
_cell_length_a   8.22727000
_cell_length_b   10.25100000
_cell_length_c   11.09960000
_cell_angle_alpha   114.13830000
_cell_angle_beta   92.76760000
_cell_angle_gamma   104.31320000
_symmetry_Int_Tables_number   1
_chemical_formula_structural   CdH11C14N2O7
_chemical_formula_sum   'Cd2 H22 C28 N4 O14'
_cell_volume   815.84695296
_cell_formula_units_Z   2
loop_
 _symmetry_equiv_pos_site_id
 _symmetry_equiv_pos_as_xyz
  1  'x, y, z'
loop_
 _atom_site_type_symbol
 _atom_site_label
 _atom_site_symmetry_multiplicity
 _atom_site_fract_x
 _atom_site_fract_y
 _atom_site_fract_z
 _atom_site_occupancy
  Cd  Cd0  1  0.77870000  0.89174000  0.50615000  1.0
  Cd  Cd1  1  0.22129000  0.10825000  0.49383000  1.0
  H  H2  1  0.98699000  0.51106000  0.20542000  1.0
  H  H3  1  0.01299000  0.48892000  0.79456000  1.0
  H  H4  1  0.99992000  0.08403000  0.18564000  1.0
  H  H5  1  0.00008000  0.91597000  0.81437000  1.0
  H  H6  1  0.74556000  0.35485000  0.47480000  1.0
  H  H7  1  0.25446000  0.64515000  0.52523000  1.0
  H  H8  1  0.65402000  0.22386000  0.99136000  1.0
  H  H9  1  0.34595000  0.77612000  0.00863000  1.0
  H  H10  1  0.46191000  0.74443000  0.85131000  1.0
  H  H11  1  0.53812000  0.25555000  0.14871000  1.0
  H  H12  1  0.59880000  0.71765000  0.65387000  1.0
  H  H13  1  0.40119000  0.28232000  0.34613000  1.0
  H  H14  1  0.94607000  0.19867000  0.76317000  1.0
  H  H15  1  0.05393000  0.80133000  0.23683000  1.0
  H  H16  1  0.84239000  0.32028000  0.87528000  1.0
  H  H17  1  0.15759000  0.67971000  0.12472000  1.0
  H  H18  1  0.75796000  0.22234000  0.70198000  1.0
  H  H19  1  0.24204000  0.77765000  0.29802000  1.0
  H  H20  1  0.50905000  0.65935000  0.43062000  1.0
  H  H21  1  0.49095000  0.34067000  0.56939000  1.0
  H  H22  1  0.42070000  0.79241000  0.46621000  1.0
  H  H23  1  0.57929000  0.20760000  0.53380000  1.0
  C  C24  1  0.85752000  0.44544000  0.34574000  1.0
  C  C25  1  0.14249000  0.55458000  0.65426000  1.0
  C  C26  1  0.95279000  0.42646000  0.24240000  1.0
  C  C27  1  0.04720000  0.57353000  0.75759000  1.0
  C  C28  1  0.00145000  0.29588000  0.18672000  1.0
  C  C29  1  0.99856000  0.70412000  0.81329000  1.0
  C  C30  1  0.96205000  0.18544000  0.23234000  1.0
  C  C31  1  0.03798000  0.81457000  0.76768000  1.0
  C  C32  1  0.86960000  0.20733000  0.33799000  1.0
  C  C33  1  0.13040000  0.79267000  0.66203000  1.0
  C  C34  1  0.81706000  0.33607000  0.39258000  1.0
  C  C35  1  0.18296000  0.66394000  0.60743000  1.0
  C  C36  1  0.79507000  0.58068000  0.40748000  1.0
  C  C37  1  0.20496000  0.41932000  0.59250000  1.0
  C  C38  1  0.82721000  0.09593000  0.39462000  1.0
  C  C39  1  0.17275000  0.90406000  0.60538000  1.0
  C  C40  1  0.71658000  0.08618000  0.80719000  1.0
  C  C41  1  0.28343000  0.91380000  0.19280000  1.0
  C  C42  1  0.63812000  0.10888000  0.92007000  1.0
  C  C43  1  0.36190000  0.89111000  0.07993000  1.0
  C  C44  1  0.54215000  0.98844000  0.94058000  1.0
  C  C45  1  0.45786000  0.01155000  0.05943000  1.0
  C  C46  1  0.53077000  0.84484000  0.84318000  1.0
  C  C47  1  0.46923000  0.15515000  0.15681000  1.0
  C  C48  1  0.60789000  0.82844000  0.73183000  1.0
  C  C49  1  0.39209000  0.17155000  0.26817000  1.0
  C  C50  1  0.82198000  0.21416000  0.78654000  1.0
  C  C51  1  0.17802000  0.78583000  0.21346000  1.0
  N  N52  1  0.69778000  0.94567000  0.71284000  1.0
  N  N53  1  0.30222000  0.05432000  0.28716000  1.0
  N  N54  1  0.09911000  0.27520000  0.07572000  1.0
  N  N55  1  0.90090000  0.72483000  0.92429000  1.0
  O  O56  1  0.87082000  0.69440000  0.38874000  1.0
  O  O57  1  0.12919000  0.30558000  0.61123000  1.0
  O  O58  1  0.67423000  0.57262000  0.47257000  1.0
  O  O59  1  0.32579000  0.42740000  0.52743000  1.0
  O  O60  1  0.70269000  0.09086000  0.45774000  1.0
  O  O61  1  0.29728000  0.90914000  0.54225000  1.0
  O  O62  1  0.91913000  0.00739000  0.37891000  1.0
  O  O63  1  0.08085000  0.99261000  0.62108000  1.0
  O  O64  1  0.14147000  0.37911000  0.04257000  1.0
  O  O65  1  0.85851000  0.62094000  0.95745000  1.0
  O  O66  1  0.13398000  0.15524000  0.02193000  1.0
  O  O67  1  0.86604000  0.84480000  0.97806000  1.0
  O  O68  1  0.49595000  0.74092000  0.40890000  1.0
  O  O69  1  0.50404000  0.25909000  0.59110000  1.0
