# generated using pymatgen
data_Mg3H36C42N2(O4F3)4
_symmetry_space_group_name_H-M   'P 1'
_cell_length_a   8.38243000
_cell_length_b   16.31650000
_cell_length_c   21.69810000
_cell_angle_alpha   107.61400000
_cell_angle_beta   90.00000000
_cell_angle_gamma   90.00000000
_symmetry_Int_Tables_number   1
_chemical_formula_structural   Mg3H36C42N2(O4F3)4
_chemical_formula_sum   'Mg6 H72 C84 N4 O32 F24'
_cell_volume   2828.55580816
_cell_formula_units_Z   2
loop_
 _symmetry_equiv_pos_site_id
 _symmetry_equiv_pos_as_xyz
  1  'x, y, z'
loop_
 _atom_site_type_symbol
 _atom_site_label
 _atom_site_symmetry_multiplicity
 _atom_site_fract_x
 _atom_site_fract_y
 _atom_site_fract_z
 _atom_site_occupancy
  Mg  Mg0  1  0.50000000  0.50000000  0.00000000  1.0
  Mg  Mg1  1  0.00000000  0.00000000  0.50000000  1.0
  Mg  Mg2  1  0.85334000  0.59818000  0.96100000  1.0
  Mg  Mg3  1  0.35334000  0.90182000  0.53900000  1.0
  Mg  Mg4  1  0.14666000  0.40182000  0.03900000  1.0
  Mg  Mg5  1  0.64666000  0.09818000  0.46100000  1.0
  H  H6  1  0.76221000  0.38485000  0.01535000  1.0
  H  H7  1  0.26221000  0.11515000  0.48465000  1.0
  H  H8  1  0.23779000  0.61515000  0.98465000  1.0
  H  H9  1  0.73779000  0.88485000  0.51535000  1.0
  H  H10  1  0.38128000  0.00088000  0.23885000  1.0
  H  H11  1  0.88128000  0.49912000  0.26115000  1.0
  H  H12  1  0.61872000  0.99912000  0.76115000  1.0
  H  H13  1  0.11872000  0.50088000  0.73885000  1.0
  H  H14  1  0.56432000  0.98074000  0.07086000  1.0
  H  H15  1  0.06432000  0.51926000  0.42914000  1.0
  H  H16  1  0.43568000  0.01926000  0.92914000  1.0
  H  H17  1  0.93568000  0.48074000  0.57086000  1.0
  H  H18  1  0.25158000  0.01858000  0.34434000  1.0
  H  H19  1  0.75158000  0.48142000  0.15566000  1.0
  H  H20  1  0.74842000  0.98142000  0.65566000  1.0
  H  H21  1  0.24842000  0.51858000  0.84434000  1.0
  H  H22  1  0.95226000  0.68042000  0.84252000  1.0
  H  H23  1  0.45226000  0.81958000  0.65748000  1.0
  H  H24  1  0.04774000  0.31958000  0.15748000  1.0
  H  H25  1  0.54774000  0.18042000  0.34252000  1.0
  H  H26  1  0.30288000  0.72983000  0.11302000  1.0
  H  H27  1  0.80288000  0.77017000  0.38699000  1.0
  H  H28  1  0.69712000  0.27017000  0.88699000  1.0
  H  H29  1  0.19712000  0.22983000  0.61302000  1.0
  H  H30  1  0.81333000  0.08863000  0.27083000  1.0
  H  H31  1  0.31333000  0.41137000  0.22917000  1.0
  H  H32  1  0.18667000  0.91137000  0.72917000  1.0
  H  H33  1  0.68667000  0.58863000  0.77083000  1.0
  H  H34  1  0.69829000  0.83925000  0.04041000  1.0
  H  H35  1  0.19829000  0.66075000  0.45959000  1.0
  H  H36  1  0.30171000  0.16075000  0.95959000  1.0
  H  H37  1  0.80171000  0.33925000  0.54041000  1.0
  H  H38  1  0.16620000  0.87144000  0.14544000  1.0
  H  H39  1  0.66620000  0.62856000  0.35456000  1.0
  H  H40  1  0.83380000  0.12856000  0.85456000  1.0
  H  H41  1  0.33380000  0.37144000  0.64544000  1.0
  H  H42  1  0.94138000  0.07183000  0.16519000  1.0
  H  H43  1  0.44137000  0.42817000  0.33481000  1.0
  H  H44  1  0.05862000  0.92817000  0.83481000  1.0
  H  H45  1  0.55862000  0.57183000  0.66519000  1.0
  H  H46  1  0.31058000  0.71225000  0.79621000  1.0
  H  H47  1  0.81058000  0.78775000  0.70379000  1.0
  H  H48  1  0.68942000  0.28775000  0.20379000  1.0
  H  H49  1  0.18942000  0.21225000  0.29621000  1.0
  H  H50  1  0.23160000  0.81886000  0.82140000  1.0
  H  H51  1  0.73160000  0.68114000  0.67860000  1.0
  H  H52  1  0.76840000  0.18114000  0.17860000  1.0
  H  H53  1  0.26840000  0.31886000  0.32140000  1.0
  H  H54  1  0.10524000  0.73031000  0.78248000  1.0
  H  H55  1  0.60524000  0.76969000  0.71752000  1.0
  H  H56  1  0.89476000  0.26968000  0.21752000  1.0
  H  H57  1  0.39476000  0.23031000  0.28248000  1.0
  H  H58  1  0.22502000  0.76214000  0.97487000  1.0
  H  H59  1  0.72502000  0.73786000  0.52513000  1.0
  H  H60  1  0.77498000  0.23786000  0.02513000  1.0
  H  H61  1  0.27498000  0.26214000  0.47487000  1.0
  H  H62  1  0.29999000  0.84023000  0.93969000  1.0
  H  H63  1  0.79999000  0.65977000  0.56031000  1.0
  H  H64  1  0.70001000  0.15977000  0.06031000  1.0
  H  H65  1  0.20001000  0.34023000  0.43969000  1.0
  H  H66  1  0.38889000  0.73595000  0.91922000  1.0
  H  H67  1  0.88889000  0.76405000  0.58078000  1.0
  H  H68  1  0.61111000  0.26405000  0.08078000  1.0
  H  H69  1  0.11111000  0.23595000  0.41922000  1.0
  H  H70  1  0.00048000  0.45507000  0.91444000  1.0
  H  H71  1  0.50048000  0.04493000  0.58556000  1.0
  H  H72  1  0.99952000  0.54493000  0.08556000  1.0
  H  H73  1  0.49952000  0.95507000  0.41444000  1.0
  H  H74  1  0.91795000  0.47869000  0.85635000  1.0
  H  H75  1  0.41795000  0.02131000  0.64365000  1.0
  H  H76  1  0.08205000  0.52131000  0.14365000  1.0
  H  H77  1  0.58205000  0.97868000  0.35635000  1.0
  C  C78  1  0.94148000  0.06019000  0.37736000  1.0
  C  C79  1  0.44148000  0.43981000  0.12264000  1.0
  C  C80  1  0.05852000  0.93981000  0.62264000  1.0
  C  C81  1  0.55852000  0.56019000  0.87736000  1.0
  C  C82  1  0.25928000  0.02133000  0.12925000  1.0
  C  C83  1  0.75928000  0.47868000  0.37075000  1.0
  C  C84  1  0.74072000  0.97867000  0.87075000  1.0
  C  C85  1  0.24072000  0.52132000  0.62925000  1.0
  C  C86  1  0.35553000  0.93692000  0.11144000  1.0
  C  C87  1  0.85553000  0.56309000  0.38856000  1.0
  C  C88  1  0.64447000  0.06309000  0.88856000  1.0
  C  C89  1  0.14447000  0.43691000  0.61144000  1.0
  C  C90  1  0.82461000  0.42535000  0.99047000  1.0
  C  C91  1  0.32461000  0.07465000  0.50953000  1.0
  C  C92  1  0.17539000  0.57465000  0.00953000  1.0
  C  C93  1  0.67539000  0.92535000  0.49047000  1.0
  C  C94  1  0.25712000  0.02145000  0.24573000  1.0
  C  C95  1  0.75711000  0.47855000  0.25427000  1.0
  C  C96  1  0.74289000  0.97855000  0.75427000  1.0
  C  C97  1  0.24289000  0.52145000  0.74573000  1.0
  C  C98  1  0.50577000  0.92722000  0.08167000  1.0
  C  C99  1  0.00577000  0.57278000  0.41833000  1.0
  C  C100  1  0.49423000  0.07278000  0.91833000  1.0
  C  C101  1  0.99423000  0.42722000  0.58167000  1.0
  C  C102  1  0.36596000  0.10195000  0.13699000  1.0
  C  C103  1  0.86596000  0.39805000  0.36301000  1.0
  C  C104  1  0.63404000  0.89805000  0.86301000  1.0
  C  C105  1  0.13404000  0.60195000  0.63699000  1.0
  C  C106  1  0.58678000  0.68889000  0.05136000  1.0
  C  C107  1  0.08678000  0.81111000  0.44864000  1.0
  C  C108  1  0.41322000  0.31111000  0.94864000  1.0
  C  C109  1  0.91322000  0.18889000  0.55136000  1.0
  C  C110  1  0.18419000  0.03099000  0.30513000  1.0
  C  C111  1  0.68419000  0.46901000  0.19487000  1.0
  C  C112  1  0.81581000  0.96901000  0.69487000  1.0
  C  C113  1  0.31580000  0.53099000  0.80513000  1.0
  C  C114  1  0.02798000  0.70175000  0.88620000  1.0
  C  C115  1  0.52799000  0.79824000  0.61380000  1.0
  C  C116  1  0.97202000  0.29825000  0.11380000  1.0
  C  C117  1  0.47201000  0.20175000  0.38620000  1.0
  C  C118  1  0.35956000  0.78574000  0.10490000  1.0
  C  C119  1  0.85956000  0.71426000  0.39510000  1.0
  C  C120  1  0.64044000  0.21426000  0.89510000  1.0
  C  C121  1  0.14044000  0.28574000  0.60490000  1.0
  C  C122  1  0.93851000  0.07017000  0.26344000  1.0
  C  C123  1  0.43851000  0.42983000  0.23656000  1.0
  C  C124  1  0.06149000  0.92983000  0.73656000  1.0
  C  C125  1  0.56149000  0.57017000  0.76344000  1.0
  C  C126  1  0.58219000  0.84758000  0.06414000  1.0
  C  C127  1  0.08219000  0.65242000  0.43586000  1.0
  C  C128  1  0.41781000  0.15242000  0.93586000  1.0
  C  C129  1  0.91781000  0.34758000  0.56414000  1.0
  C  C130  1  0.28333000  0.86515000  0.12276000  1.0
  C  C131  1  0.78333000  0.63485000  0.37723000  1.0
  C  C132  1  0.71667000  0.13485000  0.87724000  1.0
  C  C133  1  0.21667000  0.36515000  0.62277000  1.0
  C  C134  1  0.01156000  0.06063000  0.20395000  1.0
  C  C135  1  0.51157000  0.43938000  0.29605000  1.0
  C  C136  1  0.98844000  0.93938000  0.79605000  1.0
  C  C137  1  0.48844000  0.56063000  0.70395000  1.0
  C  C138  1  0.02323000  0.05474000  0.31435000  1.0
  C  C139  1  0.52323000  0.44526000  0.18565000  1.0
  C  C140  1  0.97677000  0.94526000  0.68565000  1.0
  C  C141  1  0.47677000  0.55474000  0.81435000  1.0
  C  C142  1  0.50961000  0.77615000  0.07529000  1.0
  C  C143  1  0.00961000  0.72385000  0.42471000  1.0
  C  C144  1  0.49039000  0.22385000  0.92471000  1.0
  C  C145  1  0.99039000  0.27615000  0.57529000  1.0
  C  C146  1  0.14238000  0.01366000  0.07178000  1.0
  C  C147  1  0.64237000  0.48634000  0.42822000  1.0
  C  C148  1  0.85763000  0.98634000  0.92822000  1.0
  C  C149  1  0.35762000  0.51366000  0.57178000  1.0
  C  C150  1  0.17156000  0.03515000  0.19405000  1.0
  C  C151  1  0.67156000  0.46485000  0.30595000  1.0
  C  C152  1  0.82844000  0.96485000  0.80595000  1.0
  C  C153  1  0.32844000  0.53515000  0.69405000  1.0
  C  C154  1  0.20493000  0.75122000  0.81622000  1.0
  C  C155  1  0.70493000  0.74878000  0.68378000  1.0
  C  C156  1  0.79507000  0.24878000  0.18378000  1.0
  C  C157  1  0.29507000  0.25122000  0.31622000  1.0
  C  C158  1  0.27601000  0.77164000  0.93114000  1.0
  C  C159  1  0.77601000  0.72836000  0.56886000  1.0
  C  C160  1  0.72399000  0.22836000  0.06886000  1.0
  C  C161  1  0.22399000  0.27164000  0.43114000  1.0
  N  N162  1  0.16271000  0.74136000  0.87836000  1.0
  N  N163  1  0.66271000  0.75864000  0.62164000  1.0
  N  N164  1  0.83729000  0.25864000  0.12164000  1.0
  N  N165  1  0.33729000  0.24136000  0.37836000  1.0
  O  O166  1  0.98837000  0.68945000  0.93811000  1.0
  O  O167  1  0.48837000  0.81055000  0.56189000  1.0
  O  O168  1  0.01163000  0.31055000  0.06189000  1.0
  O  O169  1  0.51163000  0.18945000  0.43811000  1.0
  O  O170  1  0.96650000  0.40566000  0.97097000  1.0
  O  O171  1  0.46650000  0.09434000  0.52903000  1.0
  O  O172  1  0.03350000  0.59434000  0.02903000  1.0
  O  O173  1  0.53350000  0.90566000  0.47097000  1.0
  O  O174  1  0.99570000  0.49957000  0.89093000  1.0
  O  O175  1  0.49570000  0.00043000  0.60907000  1.0
  O  O176  1  0.00430000  0.50043000  0.10907000  1.0
  O  O177  1  0.50430000  0.99957000  0.39093000  1.0
  O  O178  1  0.79302000  0.07880000  0.38155000  1.0
  O  O179  1  0.29302000  0.42120000  0.11845000  1.0
  O  O180  1  0.20698000  0.92120000  0.61845000  1.0
  O  O181  1  0.70698000  0.57880000  0.88155000  1.0
  O  O182  1  0.72039000  0.68553000  0.02313000  1.0
  O  O183  1  0.22039000  0.81447000  0.47687000  1.0
  O  O184  1  0.27960000  0.31447000  0.97687000  1.0
  O  O185  1  0.77960000  0.18553000  0.52313000  1.0
  O  O186  1  0.74930000  0.49004000  0.98406000  1.0
  O  O187  1  0.24930000  0.00996000  0.51594000  1.0
  O  O188  1  0.25070000  0.50996000  0.01594000  1.0
  O  O189  1  0.75070000  0.99004000  0.48406000  1.0
  O  O190  1  0.02561000  0.04537000  0.42120000  1.0
  O  O191  1  0.52561000  0.45463000  0.07879000  1.0
  O  O192  1  0.97440000  0.95463000  0.57880000  1.0
  O  O193  1  0.47439000  0.54537000  0.92120000  1.0
  O  O194  1  0.51081000  0.62553000  0.05912000  1.0
  O  O195  1  0.01081000  0.87447000  0.44088000  1.0
  O  O196  1  0.48919000  0.37447000  0.94088000  1.0
  O  O197  1  0.98919000  0.12553000  0.55912000  1.0
  F  F198  1  0.22012000  0.98972000  0.01387000  1.0
  F  F199  1  0.72012000  0.51028000  0.48613000  1.0
  F  F200  1  0.77988000  0.01028000  0.98614000  1.0
  F  F201  1  0.27988000  0.48972000  0.51386000  1.0
  F  F202  1  0.02874000  0.95323000  0.06886000  1.0
  F  F203  1  0.52874000  0.54677000  0.43114000  1.0
  F  F204  1  0.97126000  0.04677000  0.93114000  1.0
  F  F205  1  0.47126000  0.45323000  0.56886000  1.0
  F  F206  1  0.06563000  0.08897000  0.07557000  1.0
  F  F207  1  0.56563000  0.41103000  0.42443000  1.0
  F  F208  1  0.93437000  0.91103000  0.92443000  1.0
  F  F209  1  0.43437000  0.58897000  0.57557000  1.0
  F  F210  1  0.28387000  0.17659000  0.16312000  1.0
  F  F211  1  0.78386000  0.32342000  0.33688000  1.0
  F  F212  1  0.71614000  0.82342000  0.83687000  1.0
  F  F213  1  0.21613000  0.67659000  0.66312000  1.0
  F  F214  1  0.49174000  0.10316000  0.17753000  1.0
  F  F215  1  0.99174000  0.39684000  0.32247000  1.0
  F  F216  1  0.50826000  0.89684000  0.82247000  1.0
  F  F217  1  0.00826000  0.60315000  0.67753000  1.0
  F  F218  1  0.42846000  0.10683000  0.08027000  1.0
  F  F219  1  0.92846000  0.39317000  0.41973000  1.0
  F  F220  1  0.57154000  0.89317000  0.91973000  1.0
  F  F221  1  0.07154000  0.60683000  0.58027000  1.0
