# generated using pymatgen
data_CuMo4H16C20N4O15
_symmetry_space_group_name_H-M   'P 1'
_cell_length_a   9.95775000
_cell_length_b   10.14850000
_cell_length_c   13.72900000
_cell_angle_alpha   100.46900000
_cell_angle_beta   107.06400000
_cell_angle_gamma   102.92100000
_symmetry_Int_Tables_number   1
_chemical_formula_structural   CuMo4H16C20N4O15
_chemical_formula_sum   'Cu2 Mo8 H32 C40 N8 O30'
_cell_volume   1246.37079518
_cell_formula_units_Z   2
loop_
 _symmetry_equiv_pos_site_id
 _symmetry_equiv_pos_as_xyz
  1  'x, y, z'
loop_
 _atom_site_type_symbol
 _atom_site_label
 _atom_site_symmetry_multiplicity
 _atom_site_fract_x
 _atom_site_fract_y
 _atom_site_fract_z
 _atom_site_occupancy
  Cu  Cu0  1  0.42549000  0.13924000  0.03199000  1.0
  Cu  Cu1  1  0.57451000  0.86076000  0.96801000  1.0
  Mo  Mo2  1  0.43060000  0.40296000  0.27460000  1.0
  Mo  Mo3  1  0.56940000  0.59704000  0.72540000  1.0
  Mo  Mo4  1  0.31112000  0.46688000  0.50053000  1.0
  Mo  Mo5  1  0.68888000  0.53312000  0.49947000  1.0
  Mo  Mo6  1  0.41832000  0.19357000  0.45392000  1.0
  Mo  Mo7  1  0.58168000  0.80643000  0.54608000  1.0
  Mo  Mo8  1  0.30447000  0.67308000  0.31785000  1.0
  Mo  Mo9  1  0.69553000  0.32692000  0.68215000  1.0
  H  H10  1  0.14393000  0.25856000  0.62496000  1.0
  H  H11  1  0.85607000  0.74144000  0.37504000  1.0
  H  H12  1  0.73438000  0.03841000  0.44218000  1.0
  H  H13  1  0.26562000  0.96159000  0.55782000  1.0
  H  H14  1  0.31967000  0.94654000  0.13415000  1.0
  H  H15  1  0.68033000  0.05346000  0.86585000  1.0
  H  H16  1  0.09123000  0.77226000  0.11736000  1.0
  H  H17  1  0.90877000  0.22775000  0.88264000  1.0
  H  H18  1  0.86667000  0.71841000  0.95053000  1.0
  H  H19  1  0.13333000  0.28159000  0.04947000  1.0
  H  H20  1  0.88599000  0.84594000  0.81728000  1.0
  H  H21  1  0.11402000  0.15406000  0.18272000  1.0
  H  H22  1  0.30658000  0.35767000  0.79405000  1.0
  H  H23  1  0.69342000  0.64233000  0.20595000  1.0
  H  H24  1  0.93998000  0.89650000  0.69432000  1.0
  H  H25  1  0.06003000  0.10351000  0.30569000  1.0
  H  H26  1  0.95319000  0.03934000  0.56733000  1.0
  H  H27  1  0.04682000  0.96066000  0.43268000  1.0
  H  H28  1  0.52309000  0.32701000  0.92229000  1.0
  H  H29  1  0.47691000  0.67299000  0.07772000  1.0
  H  H30  1  0.74634000  0.50325000  0.93324000  1.0
  H  H31  1  0.25366000  0.49674000  0.06676000  1.0
  H  H32  1  0.97671000  0.56035000  0.09572000  1.0
  H  H33  1  0.02329000  0.43965000  0.90427000  1.0
  H  H34  1  0.96818000  0.43392000  0.23133000  1.0
  H  H35  1  0.03181000  0.56608000  0.76867000  1.0
  H  H36  1  0.56735000  0.92988000  0.27635000  1.0
  H  H37  1  0.43265000  0.07012000  0.72364000  1.0
  H  H38  1  0.91513000  0.39777000  0.35909000  1.0
  H  H39  1  0.08486000  0.60222000  0.64091000  1.0
  H  H40  1  0.90854000  0.26743000  0.49504000  1.0
  H  H41  1  0.09146000  0.73256000  0.50496000  1.0
  C  C42  1  0.22163000  0.92072000  0.06455000  1.0
  C  C43  1  0.77837000  0.07929000  0.93544000  1.0
  C  C44  1  0.09311000  0.82140000  0.05331000  1.0
  C  C45  1  0.90689000  0.17860000  0.94668000  1.0
  C  C46  1  0.97129000  0.79238000  0.96217000  1.0
  C  C47  1  0.02871000  0.20762000  0.03783000  1.0
  C  C48  1  0.98231000  0.86417000  0.88657000  1.0
  C  C49  1  0.01770000  0.13584000  0.11343000  1.0
  C  C50  1  0.11382000  0.96550000  0.90293000  1.0
  C  C51  1  0.88618000  0.03451000  0.09707000  1.0
  C  C52  1  0.12135000  0.04816000  0.82607000  1.0
  C  C53  1  0.87865000  0.95183000  0.17393000  1.0
  C  C54  1  0.22568000  0.18450000  0.85704000  1.0
  C  C55  1  0.77431000  0.81549000  0.14295000  1.0
  C  C56  1  0.22632000  0.25660000  0.77800000  1.0
  C  C57  1  0.77367000  0.74340000  0.22200000  1.0
  C  C58  1  0.02238000  0.99857000  0.72140000  1.0
  C  C59  1  0.97763000  0.00143000  0.27860000  1.0
  C  C60  1  0.02819000  0.07553000  0.64859000  1.0
  C  C61  1  0.97182000  0.92447000  0.35141000  1.0
  C  C62  1  0.62353000  0.35327000  0.98978000  1.0
  C  C63  1  0.37647000  0.64673000  0.01022000  1.0
  C  C64  1  0.74926000  0.45342000  0.99727000  1.0
  C  C65  1  0.25074000  0.54658000  0.00273000  1.0
  C  C66  1  0.87461000  0.48388000  0.08585000  1.0
  C  C67  1  0.12539000  0.51612000  0.91415000  1.0
  C  C68  1  0.86964000  0.41341000  0.16307000  1.0
  C  C69  1  0.13035000  0.58658000  0.83693000  1.0
  C  C70  1  0.73968000  0.31287000  0.15131000  1.0
  C  C71  1  0.26032000  0.68713000  0.84869000  1.0
  C  C72  1  0.73603000  0.23648000  0.23212000  1.0
  C  C73  1  0.26397000  0.76353000  0.76788000  1.0
  C  C74  1  0.63308000  0.10125000  0.20760000  1.0
  C  C75  1  0.36693000  0.89876000  0.79240000  1.0
  C  C76  1  0.64174000  0.03347000  0.28959000  1.0
  C  C77  1  0.35827000  0.96653000  0.71041000  1.0
  C  C78  1  0.83719000  0.29381000  0.33604000  1.0
  C  C79  1  0.16281000  0.70620000  0.66396000  1.0
  C  C80  1  0.83726000  0.22342000  0.41306000  1.0
  C  C81  1  0.16274000  0.77658000  0.58693000  1.0
  N  N82  1  0.23248000  0.99144000  0.99195000  1.0
  N  N83  1  0.76752000  0.00858000  0.00806000  1.0
  N  N84  1  0.13176000  0.20095000  0.67897000  1.0
  N  N85  1  0.86824000  0.79905000  0.32103000  1.0
  N  N86  1  0.61770000  0.28421000  0.06394000  1.0
  N  N87  1  0.38230000  0.71578000  0.93606000  1.0
  N  N88  1  0.73945000  0.09515000  0.38668000  1.0
  N  N89  1  0.26055000  0.90485000  0.61333000  1.0
  O  O90  1  0.53374000  0.03391000  0.11500000  1.0
  O  O91  1  0.46627000  0.96609000  0.88500000  1.0
  O  O92  1  0.31891000  0.24695000  0.95209000  1.0
  O  O93  1  0.68109000  0.75306000  0.04791000  1.0
  O  O94  1  0.54699000  0.49270000  0.22275000  1.0
  O  O95  1  0.45301000  0.50729000  0.77725000  1.0
  O  O96  1  0.30273000  0.31085000  0.38984000  1.0
  O  O97  1  0.69727000  0.68915000  0.61016000  1.0
  O  O98  1  0.35620000  0.23834000  0.18815000  1.0
  O  O99  1  0.64380000  0.76166000  0.81186000  1.0
  O  O100  1  0.27112000  0.48095000  0.24181000  1.0
  O  O101  1  0.72888000  0.51905000  0.75819000  1.0
  O  O102  1  0.57405000  0.36121000  0.39029000  1.0
  O  O103  1  0.42595000  0.63879000  0.60971000  1.0
  O  O104  1  0.39289000  0.07057000  0.34235000  1.0
  O  O105  1  0.60711000  0.92943000  0.65765000  1.0
  O  O106  1  0.19272000  0.38278000  0.55515000  1.0
  O  O107  1  0.80728000  0.61722000  0.44485000  1.0
  O  O108  1  0.20620000  0.54535000  0.41454000  1.0
  O  O109  1  0.79380000  0.45465000  0.58546000  1.0
  O  O110  1  0.30087000  0.11234000  0.51137000  1.0
  O  O111  1  0.69913000  0.88766000  0.48863000  1.0
  O  O112  1  0.60535000  0.19710000  0.54320000  1.0
  O  O113  1  0.39465000  0.80289000  0.45680000  1.0
  O  O114  1  0.41729000  0.75038000  0.25751000  1.0
  O  O115  1  0.58271000  0.24962000  0.74249000  1.0
  O  O116  1  0.49483000  0.58203000  0.42761000  1.0
  O  O117  1  0.50517000  0.41797000  0.57239000  1.0
  O  O118  1  0.14078000  0.70726000  0.26661000  1.0
  O  O119  1  0.85922000  0.29274000  0.73339000  1.0
