# generated using pymatgen
data_Zn2H25C22NO9
_symmetry_space_group_name_H-M   'P 1'
_cell_length_a   10.35280000
_cell_length_b   11.51390000
_cell_length_c   20.62040000
_cell_angle_alpha   89.99980000
_cell_angle_beta   90.00010000
_cell_angle_gamma   90.00000000
_symmetry_Int_Tables_number   1
_chemical_formula_structural   Zn2H25C22NO9
_chemical_formula_sum   'Zn8 H100 C88 N4 O36'
_cell_volume   2457.97444325
_cell_formula_units_Z   4
loop_
 _symmetry_equiv_pos_site_id
 _symmetry_equiv_pos_as_xyz
  1  'x, y, z'
loop_
 _atom_site_type_symbol
 _atom_site_label
 _atom_site_symmetry_multiplicity
 _atom_site_fract_x
 _atom_site_fract_y
 _atom_site_fract_z
 _atom_site_occupancy
  Zn  Zn0  1  0.04397000  0.42465000  0.99211000  1.0
  Zn  Zn1  1  0.45603000  0.57535000  0.49211000  1.0
  Zn  Zn2  1  0.95603000  0.92465000  0.50789000  1.0
  Zn  Zn3  1  0.54397000  0.07535000  0.00789000  1.0
  Zn  Zn4  1  0.35542000  0.32456000  0.99198000  1.0
  Zn  Zn5  1  0.14458000  0.67544000  0.49198000  1.0
  Zn  Zn6  1  0.64458000  0.82456000  0.50802000  1.0
  Zn  Zn7  1  0.85542000  0.17544000  0.00802000  1.0
  H  H8  1  0.04186000  0.52308000  0.18550000  1.0
  H  H9  1  0.45814000  0.47692000  0.68550000  1.0
  H  H10  1  0.95814000  0.02308000  0.31450000  1.0
  H  H11  1  0.54186000  0.97692000  0.81450000  1.0
  H  H12  1  0.44549000  0.43669000  0.17900000  1.0
  H  H13  1  0.05451000  0.56331000  0.67900000  1.0
  H  H14  1  0.55451000  0.93669000  0.32100000  1.0
  H  H15  1  0.94549000  0.06331000  0.82100000  1.0
  H  H16  1  0.06360000  0.57472000  0.30304000  1.0
  H  H17  1  0.43640000  0.42528000  0.80304000  1.0
  H  H18  1  0.93640000  0.07472000  0.19696000  1.0
  H  H19  1  0.56360000  0.92528000  0.69696000  1.0
  H  H20  1  0.46573000  0.48491000  0.29711000  1.0
  H  H21  1  0.03426000  0.51508000  0.79711000  1.0
  H  H22  1  0.53426000  0.98492000  0.20289000  1.0
  H  H23  1  0.96574000  0.01508000  0.70289000  1.0
  H  H24  1  0.26048000  0.01148000  0.00693000  1.0
  H  H25  1  0.23952000  0.98852000  0.50693000  1.0
  H  H26  1  0.73952000  0.51148000  0.49307000  1.0
  H  H27  1  0.76048000  0.48852000  0.99307000  1.0
  H  H28  1  0.36075000  0.02933000  0.11648000  1.0
  H  H29  1  0.13924000  0.97067000  0.61648000  1.0
  H  H30  1  0.63925000  0.52933000  0.38352000  1.0
  H  H31  1  0.86075000  0.47067000  0.88352000  1.0
  H  H32  1  0.18870000  0.02980000  0.12156000  1.0
  H  H33  1  0.31129000  0.97020000  0.62156000  1.0
  H  H34  1  0.81130000  0.52980000  0.37844000  1.0
  H  H35  1  0.68870000  0.47020000  0.87844000  1.0
  H  H36  1  0.27760000  0.16258000  0.12967000  1.0
  H  H37  1  0.22240000  0.83742000  0.62967000  1.0
  H  H38  1  0.72240000  0.66258000  0.37033000  1.0
  H  H39  1  0.77760000  0.33742000  0.87033000  1.0
  H  H40  1  0.04787000  0.64867000  0.07554000  1.0
  H  H41  1  0.45213000  0.35133000  0.57553000  1.0
  H  H42  1  0.95213000  0.14867000  0.42446000  1.0
  H  H43  1  0.54787000  0.85133000  0.92446000  1.0
  H  H44  1  0.82121000  0.74020000  0.95381000  1.0
  H  H45  1  0.67879000  0.25980000  0.45381000  1.0
  H  H46  1  0.17879000  0.24020000  0.54619000  1.0
  H  H47  1  0.32121000  0.75980000  0.04619000  1.0
  H  H48  1  0.86789000  0.88927000  0.96446000  1.0
  H  H49  1  0.63211000  0.11073000  0.46446000  1.0
  H  H50  1  0.13211000  0.38927000  0.53554000  1.0
  H  H51  1  0.36789000  0.61073000  0.03554000  1.0
  H  H52  1  0.74253000  0.82949000  0.01346000  1.0
  H  H53  1  0.75747000  0.17051000  0.51346000  1.0
  H  H54  1  0.25748000  0.32949000  0.48654000  1.0
  H  H55  1  0.24252000  0.67051000  0.98654000  1.0
  H  H56  1  0.04163000  0.81982000  0.11750000  1.0
  H  H57  1  0.45837000  0.18018000  0.61750000  1.0
  H  H58  1  0.95837000  0.31982000  0.38250000  1.0
  H  H59  1  0.54163000  0.68018000  0.88250000  1.0
  H  H60  1  0.87768000  0.86610000  0.12106000  1.0
  H  H61  1  0.62232000  0.13390000  0.62106000  1.0
  H  H62  1  0.12232000  0.36610000  0.37894000  1.0
  H  H63  1  0.37768000  0.63390000  0.87894000  1.0
  H  H64  1  0.98894000  0.93869000  0.06847000  1.0
  H  H65  1  0.51106000  0.06131000  0.56847000  1.0
  H  H66  1  0.01106000  0.43869000  0.43153000  1.0
  H  H67  1  0.48894000  0.56131000  0.93153000  1.0
  H  H68  1  0.43056000  0.22186000  0.73270000  1.0
  H  H69  1  0.06944000  0.77815000  0.23270000  1.0
  H  H70  1  0.56944000  0.72185000  0.76730000  1.0
  H  H71  1  0.93056000  0.27814000  0.26730000  1.0
  H  H72  1  0.13952000  0.73593000  0.87668000  1.0
  H  H73  1  0.36048000  0.26407000  0.37668000  1.0
  H  H74  1  0.86048000  0.23593000  0.62332000  1.0
  H  H75  1  0.63953000  0.76407000  0.12332000  1.0
  H  H76  1  0.26748000  0.74283000  0.77438000  1.0
  H  H77  1  0.23253000  0.25717000  0.27438000  1.0
  H  H78  1  0.73252000  0.24283000  0.72563000  1.0
  H  H79  1  0.76748000  0.75717000  0.22563000  1.0
  H  H80  1  0.33743000  0.93298000  0.72903000  1.0
  H  H81  1  0.16257000  0.06702000  0.22903000  1.0
  H  H82  1  0.66256000  0.43298000  0.77097000  1.0
  H  H83  1  0.83744000  0.56702000  0.27097000  1.0
  H  H84  1  0.15624000  0.10954000  0.88841000  1.0
  H  H85  1  0.34376000  0.89046000  0.38841000  1.0
  H  H86  1  0.84376000  0.60953000  0.61159000  1.0
  H  H87  1  0.65625000  0.39046000  0.11159000  1.0
  H  H88  1  0.08668000  0.92149000  0.93445000  1.0
  H  H89  1  0.41332000  0.07851000  0.43445000  1.0
  H  H90  1  0.91332000  0.42148000  0.56555000  1.0
  H  H91  1  0.58668000  0.57851000  0.06555000  1.0
  H  H92  1  0.29492000  0.21349000  0.81646000  1.0
  H  H93  1  0.20508000  0.78651000  0.31646000  1.0
  H  H94  1  0.70508000  0.71349000  0.68354000  1.0
  H  H95  1  0.79492000  0.28651000  0.18354000  1.0
  H  H96  1  0.19750000  0.27853000  0.71074000  1.0
  H  H97  1  0.30249000  0.72147000  0.21074000  1.0
  H  H98  1  0.80249000  0.77853000  0.78926000  1.0
  H  H99  1  0.69750000  0.22147000  0.28926000  1.0
  H  H100  1  0.08213000  0.20419000  0.75892000  1.0
  H  H101  1  0.41787000  0.79581000  0.25892000  1.0
  H  H102  1  0.91787000  0.70419000  0.74108000  1.0
  H  H103  1  0.58213000  0.29581000  0.24108000  1.0
  H  H104  1  0.15735000  0.13136000  0.69242000  1.0
  H  H105  1  0.34265000  0.86864000  0.19242000  1.0
  H  H106  1  0.84265000  0.63136000  0.80757000  1.0
  H  H107  1  0.65735000  0.36864000  0.30757000  1.0
  C  C108  1  0.23083000  0.44787000  0.10469000  1.0
  C  C109  1  0.26916000  0.55213000  0.60469000  1.0
  C  C110  1  0.76916000  0.94787000  0.39531000  1.0
  C  C111  1  0.73084000  0.05213000  0.89531000  1.0
  C  C112  1  0.24318000  0.47827000  0.17507000  1.0
  C  C113  1  0.25682000  0.52173000  0.67507000  1.0
  C  C114  1  0.75682000  0.97827000  0.32493000  1.0
  C  C115  1  0.74318000  0.02173000  0.82493000  1.0
  C  C116  1  0.13499000  0.51737000  0.20978000  1.0
  C  C117  1  0.36501000  0.48263000  0.70978000  1.0
  C  C118  1  0.86501000  0.01737000  0.29022000  1.0
  C  C119  1  0.63499000  0.98263000  0.79022000  1.0
  C  C120  1  0.36239000  0.46657000  0.20665000  1.0
  C  C121  1  0.13761000  0.53343000  0.70665000  1.0
  C  C122  1  0.63761000  0.96658000  0.29335000  1.0
  C  C123  1  0.86239000  0.03343000  0.79335000  1.0
  C  C124  1  0.14672000  0.54534000  0.27511000  1.0
  C  C125  1  0.35328000  0.45466000  0.77511000  1.0
  C  C126  1  0.85328000  0.04534000  0.22489000  1.0
  C  C127  1  0.64672000  0.95466000  0.72489000  1.0
  C  C128  1  0.37367000  0.49373000  0.27214000  1.0
  C  C129  1  0.12633000  0.50627000  0.77213000  1.0
  C  C130  1  0.62633000  0.99374000  0.22786000  1.0
  C  C131  1  0.87367000  0.00627000  0.72786000  1.0
  C  C132  1  0.26600000  0.53368000  0.30673000  1.0
  C  C133  1  0.23400000  0.46632000  0.80673000  1.0
  C  C134  1  0.73400000  0.03368000  0.19327000  1.0
  C  C135  1  0.76600000  0.96632000  0.69327000  1.0
  C  C136  1  0.27706000  0.56372000  0.37727000  1.0
  C  C137  1  0.22294000  0.43628000  0.87727000  1.0
  C  C138  1  0.72294000  0.06372000  0.12273000  1.0
  C  C139  1  0.77706000  0.93628000  0.62273000  1.0
  C  C140  1  0.14376000  0.16241000  0.01377000  1.0
  C  C141  1  0.35624000  0.83759000  0.51377000  1.0
  C  C142  1  0.85624000  0.66241000  0.48623000  1.0
  C  C143  1  0.64376000  0.33759000  0.98623000  1.0
  C  C144  1  0.26734000  0.09681000  0.03090000  1.0
  C  C145  1  0.23266000  0.90319000  0.53090000  1.0
  C  C146  1  0.73266000  0.59681000  0.46910000  1.0
  C  C147  1  0.76734000  0.40319000  0.96910000  1.0
  C  C148  1  0.27318000  0.07857000  0.10446000  1.0
  C  C149  1  0.22682000  0.92143000  0.60446000  1.0
  C  C150  1  0.72682000  0.57857000  0.39555000  1.0
  C  C151  1  0.77318000  0.42143000  0.89554000  1.0
  C  C152  1  0.98132000  0.66783000  0.03523000  1.0
  C  C153  1  0.51868000  0.33217000  0.53523000  1.0
  C  C154  1  0.01868000  0.16783000  0.46477000  1.0
  C  C155  1  0.48131000  0.83217000  0.96477000  1.0
  C  C156  1  0.83456000  0.81026000  0.98910000  1.0
  C  C157  1  0.66544000  0.18974000  0.48909000  1.0
  C  C158  1  0.16544000  0.31026000  0.51091000  1.0
  C  C159  1  0.33456000  0.68974000  0.01091000  1.0
  C  C160  1  0.96112000  0.85423000  0.08883000  1.0
  C  C161  1  0.53888000  0.14577000  0.58883000  1.0
  C  C162  1  0.03888000  0.35423000  0.41117000  1.0
  C  C163  1  0.46111000  0.64577000  0.91117000  1.0
  C  C164  1  0.17209000  0.81917000  0.85731000  1.0
  C  C165  1  0.32791000  0.18083000  0.35731000  1.0
  C  C166  1  0.82791000  0.31917000  0.64270000  1.0
  C  C167  1  0.67210000  0.68083000  0.14269000  1.0
  C  C168  1  0.24351000  0.82321000  0.79976000  1.0
  C  C169  1  0.25649000  0.17679000  0.29976000  1.0
  C  C170  1  0.75649000  0.32321000  0.70024000  1.0
  C  C171  1  0.74351000  0.67679000  0.20024000  1.0
  C  C172  1  0.28257000  0.92989000  0.77405000  1.0
  C  C173  1  0.21743000  0.07011000  0.27405000  1.0
  C  C174  1  0.71743000  0.42989000  0.72595000  1.0
  C  C175  1  0.78257000  0.57011000  0.22596000  1.0
  C  C176  1  0.25051000  0.03401000  0.80536000  1.0
  C  C177  1  0.24949000  0.96599000  0.30536000  1.0
  C  C178  1  0.74949000  0.53401000  0.69464000  1.0
  C  C179  1  0.75052000  0.46599000  0.19464000  1.0
  C  C180  1  0.18104000  0.02890000  0.86354000  1.0
  C  C181  1  0.31896000  0.97110000  0.36354000  1.0
  C  C182  1  0.81897000  0.52889000  0.63646000  1.0
  C  C183  1  0.68104000  0.47110000  0.13646000  1.0
  C  C184  1  0.14186000  0.92251000  0.88940000  1.0
  C  C185  1  0.35814000  0.07749000  0.38940000  1.0
  C  C186  1  0.85814000  0.42251000  0.61060000  1.0
  C  C187  1  0.64186000  0.57749000  0.11061000  1.0
  C  C188  1  0.28174000  0.15132000  0.77628000  1.0
  C  C189  1  0.21826000  0.84868000  0.27628000  1.0
  C  C190  1  0.71826000  0.65132000  0.72372000  1.0
  C  C191  1  0.78174000  0.34868000  0.22372000  1.0
  C  C192  1  0.17286000  0.19384000  0.73192000  1.0
  C  C193  1  0.32714000  0.80616000  0.23192000  1.0
  C  C194  1  0.82714000  0.69384000  0.76808000  1.0
  C  C195  1  0.67286000  0.30616000  0.26808000  1.0
  N  N196  1  0.92941000  0.77363000  0.03690000  1.0
  N  N197  1  0.57059000  0.22636000  0.53690000  1.0
  N  N198  1  0.07059000  0.27364000  0.46310000  1.0
  N  N199  1  0.42940000  0.72636000  0.96310000  1.0
  O  O200  1  0.33232000  0.41312000  0.07567000  1.0
  O  O201  1  0.16767000  0.58688000  0.57567000  1.0
  O  O202  1  0.66767000  0.91312000  0.42433000  1.0
  O  O203  1  0.83233000  0.08688000  0.92433000  1.0
  O  O204  1  0.11937000  0.46116000  0.07945000  1.0
  O  O205  1  0.38063000  0.53885000  0.57946000  1.0
  O  O206  1  0.88063000  0.96116000  0.42055000  1.0
  O  O207  1  0.61937000  0.03884000  0.92054000  1.0
  O  O208  1  0.37999000  0.53207000  0.40626000  1.0
  O  O209  1  0.12001000  0.46793000  0.90626000  1.0
  O  O210  1  0.62001000  0.03207000  0.09374000  1.0
  O  O211  1  0.87999000  0.96793000  0.59374000  1.0
  O  O212  1  0.18139000  0.61677000  0.40211000  1.0
  O  O213  1  0.31861000  0.38323000  0.90211000  1.0
  O  O214  1  0.81861000  0.11677000  0.09789000  1.0
  O  O215  1  0.68139000  0.88323000  0.59789000  1.0
  O  O216  1  0.15570000  0.26725000  0.99435000  1.0
  O  O217  1  0.34430000  0.73275000  0.49434000  1.0
  O  O218  1  0.84430000  0.76725000  0.50565000  1.0
  O  O219  1  0.65570000  0.23275000  0.00565000  1.0
  O  O220  1  0.03772000  0.10928000  0.02040000  1.0
  O  O221  1  0.46228000  0.89072000  0.52040000  1.0
  O  O222  1  0.96228000  0.60928000  0.47960000  1.0
  O  O223  1  0.53772000  0.39073000  0.97960000  1.0
  O  O224  1  0.37806000  0.15650000  0.00800000  1.0
  O  O225  1  0.12194000  0.84350000  0.50800000  1.0
  O  O226  1  0.62194000  0.65650000  0.49200000  1.0
  O  O227  1  0.87805000  0.34350000  0.99200000  1.0
  O  O228  1  0.95861000  0.59386000  0.99192000  1.0
  O  O229  1  0.54139000  0.40613000  0.49192000  1.0
  O  O230  1  0.04139000  0.09387000  0.50808000  1.0
  O  O231  1  0.45861000  0.90613000  0.00808000  1.0
  O  O232  1  0.40108000  0.14270000  0.74023000  1.0
  O  O233  1  0.09892000  0.85730000  0.24023000  1.0
  O  O234  1  0.59892000  0.64270000  0.75977000  1.0
  O  O235  1  0.90108000  0.35730000  0.25977000  1.0
