# generated using pymatgen
data_ZnH8(C4N3)4
_symmetry_space_group_name_H-M   'P 1'
_cell_length_a   13.49110000
_cell_length_b   16.13830000
_cell_length_c   16.50750000
_cell_angle_alpha   110.05300000
_cell_angle_beta   100.50700000
_cell_angle_gamma   109.81300000
_symmetry_Int_Tables_number   1
_chemical_formula_structural   ZnH8(C4N3)4
_chemical_formula_sum   'Zn6 H48 C96 N72'
_cell_volume   2989.56057654
_cell_formula_units_Z   6
loop_
 _symmetry_equiv_pos_site_id
 _symmetry_equiv_pos_as_xyz
  1  'x, y, z'
loop_
 _atom_site_type_symbol
 _atom_site_label
 _atom_site_symmetry_multiplicity
 _atom_site_fract_x
 _atom_site_fract_y
 _atom_site_fract_z
 _atom_site_occupancy
  Zn  Zn0  1  0.49745000  0.57266000  0.17373000  1.0
  Zn  Zn1  1  0.50255000  0.42734000  0.82627000  1.0
  Zn  Zn2  1  0.16871000  0.45831000  0.57415000  1.0
  Zn  Zn3  1  0.83129000  0.54169000  0.42585000  1.0
  Zn  Zn4  1  0.58636000  0.20230000  0.50789000  1.0
  Zn  Zn5  1  0.41364000  0.79770000  0.49211000  1.0
  H  H6  1  0.10953000  0.31106000  0.11857000  1.0
  H  H7  1  0.89047000  0.68893000  0.88143000  1.0
  H  H8  1  0.14866000  0.32254000  0.27548000  1.0
  H  H9  1  0.85134000  0.67746000  0.72452000  1.0
  H  H10  1  0.34763000  0.42337000  0.38695000  1.0
  H  H11  1  0.65237000  0.57662000  0.61305000  1.0
  H  H12  1  0.49379000  0.51362000  0.33601000  1.0
  H  H13  1  0.50620000  0.48638000  0.66399000  1.0
  H  H14  1  0.95515000  0.27051000  0.88173000  1.0
  H  H15  1  0.04485000  0.72949000  0.11827000  1.0
  H  H16  1  0.80892000  0.10525000  0.84363000  1.0
  H  H17  1  0.19108000  0.89475000  0.15637000  1.0
  H  H18  1  0.86915000  0.99240000  0.89282000  1.0
  H  H19  1  0.13085000  0.00760000  0.10718000  1.0
  H  H20  1  0.07274000  0.05161000  0.97632000  1.0
  H  H21  1  0.92726000  0.94839000  0.02368000  1.0
  H  H22  1  0.98509000  0.10206000  0.31702000  1.0
  H  H23  1  0.01491000  0.89794000  0.68299000  1.0
  H  H24  1  0.16315000  0.09126000  0.30615000  1.0
  H  H25  1  0.83685000  0.90874000  0.69386000  1.0
  H  H26  1  0.34632000  0.23522000  0.40952000  1.0
  H  H27  1  0.65368000  0.76478000  0.59048000  1.0
  H  H28  1  0.34315000  0.38650000  0.51875000  1.0
  H  H29  1  0.65685000  0.61350000  0.48125000  1.0
  H  H30  1  0.88521000  0.19278000  0.21433000  1.0
  H  H31  1  0.11479000  0.80722000  0.78568000  1.0
  H  H32  1  0.79515000  0.03729000  0.06685000  1.0
  H  H33  1  0.20486000  0.96272000  0.93315000  1.0
  H  H34  1  0.67676000  0.87947000  0.06948000  1.0
  H  H35  1  0.32324000  0.12053000  0.93052000  1.0
  H  H36  1  0.65006000  0.88516000  0.21645000  1.0
  H  H37  1  0.34994000  0.11484000  0.78355000  1.0
  H  H38  1  0.96607000  0.24201000  0.70835000  1.0
  H  H39  1  0.03393000  0.75799000  0.29165000  1.0
  H  H40  1  0.02757000  0.40814000  0.82629000  1.0
  H  H41  1  0.97243000  0.59186000  0.17371000  1.0
  H  H42  1  0.91125000  0.50023000  0.81167000  1.0
  H  H43  1  0.08875000  0.49977000  0.18833000  1.0
  H  H44  1  0.73606000  0.41560000  0.67581000  1.0
  H  H45  1  0.26395000  0.58440000  0.32419000  1.0
  H  H46  1  0.89120000  0.03509000  0.68162000  1.0
  H  H47  1  0.10880000  0.96490000  0.31838000  1.0
  H  H48  1  0.09595000  0.09288000  0.76939000  1.0
  H  H49  1  0.90405000  0.90711000  0.23061000  1.0
  H  H50  1  0.24082000  0.18485000  0.71733000  1.0
  H  H51  1  0.75918000  0.81515000  0.28267000  1.0
  H  H52  1  0.17870000  0.21576000  0.58334000  1.0
  H  H53  1  0.82129000  0.78424000  0.41665000  1.0
  C  C54  1  0.45057000  0.58680000  0.99900000  1.0
  C  C55  1  0.54943000  0.41320000  0.00100000  1.0
  C  C56  1  0.27127000  0.43823000  0.81164000  1.0
  C  C57  1  0.72873000  0.56177000  0.18836000  1.0
  C  C58  1  0.35299000  0.50024000  0.98146000  1.0
  C  C59  1  0.64701000  0.49976000  0.01854000  1.0
  C  C60  1  0.26559000  0.43314000  0.89788000  1.0
  C  C61  1  0.73441000  0.56686000  0.10212000  1.0
  C  C62  1  0.17975000  0.34170000  0.96853000  1.0
  C  C63  1  0.82025000  0.65830000  0.03147000  1.0
  C  C64  1  0.26770000  0.40770000  0.05333000  1.0
  C  C65  1  0.73230000  0.59230000  0.94667000  1.0
  C  C66  1  0.28132000  0.40539000  0.14371000  1.0
  C  C67  1  0.71868000  0.59461000  0.85629000  1.0
  C  C68  1  0.19427000  0.35389000  0.16744000  1.0
  C  C69  1  0.80573000  0.64611000  0.83256000  1.0
  C  C70  1  0.21676000  0.35989000  0.25565000  1.0
  C  C71  1  0.78324000  0.64010000  0.74435000  1.0
  C  C72  1  0.32569000  0.41619000  0.31741000  1.0
  C  C73  1  0.67431000  0.58380000  0.68259000  1.0
  C  C74  1  0.40775000  0.46742000  0.28980000  1.0
  C  C75  1  0.59225000  0.53258000  0.71020000  1.0
  C  C76  1  0.08864000  0.24709000  0.95076000  1.0
  C  C77  1  0.91136000  0.75290000  0.04924000  1.0
  C  C78  1  0.97730000  0.22032000  0.90287000  1.0
  C  C79  1  0.02270000  0.77968000  0.09713000  1.0
  C  C80  1  0.89590000  0.12809000  0.88223000  1.0
  C  C81  1  0.10410000  0.87191000  0.11777000  1.0
  C  C82  1  0.92963000  0.06571000  0.90864000  1.0
  C  C83  1  0.07037000  0.93428000  0.09136000  1.0
  C  C84  1  0.04300000  0.09889000  0.95565000  1.0
  C  C85  1  0.95700000  0.90111000  0.04435000  1.0
  C  C86  1  0.96656000  0.48569000  0.59138000  1.0
  C  C87  1  0.03344000  0.51431000  0.40863000  1.0
  C  C88  1  0.71788000  0.36097000  0.46072000  1.0
  C  C89  1  0.28212000  0.63903000  0.53928000  1.0
  C  C90  1  0.92011000  0.38940000  0.51485000  1.0
  C  C91  1  0.07989000  0.61060000  0.48515000  1.0
  C  C92  1  0.80768000  0.32907000  0.45821000  1.0
  C  C93  1  0.19232000  0.67093000  0.54179000  1.0
  C  C94  1  0.85689000  0.21041000  0.37511000  1.0
  C  C95  1  0.14310000  0.78959000  0.62489000  1.0
  C  C96  1  0.97138000  0.27116000  0.42930000  1.0
  C  C97  1  0.02862000  0.72884000  0.57071000  1.0
  C  C98  1  0.07046000  0.25280000  0.41929000  1.0
  C  C99  1  0.92954000  0.74720000  0.58071000  1.0
  C  C100  1  0.06534000  0.16463000  0.35905000  1.0
  C  C101  1  0.93466000  0.83537000  0.64096000  1.0
  C  C102  1  0.16474000  0.15811000  0.35415000  1.0
  C  C103  1  0.83526000  0.84189000  0.64585000  1.0
  C  C104  1  0.26705000  0.23756000  0.41131000  1.0
  C  C105  1  0.73295000  0.76245000  0.58869000  1.0
  C  C106  1  0.26585000  0.32196000  0.47176000  1.0
  C  C107  1  0.73414000  0.67804000  0.52824000  1.0
  C  C108  1  0.81275000  0.11737000  0.29001000  1.0
  C  C109  1  0.18725000  0.88263000  0.70999000  1.0
  C  C110  1  0.83325000  0.12247000  0.21127000  1.0
  C  C111  1  0.16675000  0.87754000  0.78873000  1.0
  C  C112  1  0.78313000  0.03614000  0.13014000  1.0
  C  C113  1  0.21687000  0.96387000  0.86986000  1.0
  C  C114  1  0.71662000  0.94898000  0.13097000  1.0
  C  C115  1  0.28338000  0.05102000  0.86903000  1.0
  C  C116  1  0.70139000  0.95211000  0.21336000  1.0
  C  C117  1  0.29861000  0.04789000  0.78664000  1.0
  C  C118  1  0.49206000  0.99547000  0.38090000  1.0
  C  C119  1  0.50794000  0.00453000  0.61910000  1.0
  C  C120  1  0.57551000  0.83774000  0.37971000  1.0
  C  C121  1  0.42449000  0.16226000  0.62029000  1.0
  C  C122  1  0.60055000  0.01294000  0.43629000  1.0
  C  C123  1  0.39945000  0.98706000  0.56371000  1.0
  C  C124  1  0.64337000  0.94424000  0.43452000  1.0
  C  C125  1  0.35663000  0.05576000  0.56548000  1.0
  C  C126  1  0.81322000  0.06874000  0.54057000  1.0
  C  C127  1  0.18678000  0.93126000  0.45942000  1.0
  C  C128  1  0.76643000  0.13680000  0.55418000  1.0
  C  C129  1  0.23357000  0.86320000  0.44582000  1.0
  C  C130  1  0.81641000  0.23844000  0.62808000  1.0
  C  C131  1  0.18359000  0.76156000  0.37192000  1.0
  C  C132  1  0.91550000  0.28075000  0.70191000  1.0
  C  C133  1  0.08450000  0.71925000  0.29809000  1.0
  C  C134  1  0.94983000  0.37510000  0.76954000  1.0
  C  C135  1  0.05017000  0.62490000  0.23046000  1.0
  C  C136  1  0.88594000  0.42551000  0.76183000  1.0
  C  C137  1  0.11407000  0.57449000  0.23817000  1.0
  C  C138  1  0.78860000  0.37910000  0.68584000  1.0
  C  C139  1  0.21140000  0.62090000  0.31416000  1.0
  C  C140  1  0.93237000  0.09692000  0.58916000  1.0
  C  C141  1  0.06763000  0.90308000  0.41084000  1.0
  C  C142  1  0.95863000  0.07363000  0.66192000  1.0
  C  C143  1  0.04137000  0.92637000  0.33808000  1.0
  C  C144  1  0.07101000  0.10637000  0.71023000  1.0
  C  C145  1  0.92899000  0.89363000  0.28977000  1.0
  C  C146  1  0.15200000  0.15845000  0.68226000  1.0
  C  C147  1  0.84800000  0.84155000  0.31774000  1.0
  C  C148  1  0.11707000  0.17626000  0.60751000  1.0
  C  C149  1  0.88293000  0.82374000  0.39248000  1.0
  N  N150  1  0.53257000  0.63345000  0.08155000  1.0
  N  N151  1  0.46743000  0.36655000  0.91845000  1.0
  N  N152  1  0.61132000  0.70914000  0.07932000  1.0
  N  N153  1  0.38868000  0.29086000  0.92068000  1.0
  N  N154  1  0.57691000  0.70811000  0.99770000  1.0
  N  N155  1  0.42309000  0.29189000  0.00230000  1.0
  N  N156  1  0.47640000  0.63190000  0.94572000  1.0
  N  N157  1  0.52360000  0.36810000  0.05428000  1.0
  N  N158  1  0.35700000  0.43548000  0.78057000  1.0
  N  N159  1  0.64300000  0.56452000  0.21944000  1.0
  N  N160  1  0.33309000  0.43904000  0.70034000  1.0
  N  N161  1  0.66691000  0.56096000  0.29966000  1.0
  N  N162  1  0.23683000  0.44474000  0.68518000  1.0
  N  N163  1  0.76317000  0.55526000  0.31483000  1.0
  N  N164  1  0.19477000  0.44374000  0.75258000  1.0
  N  N165  1  0.80523000  0.55626000  0.24742000  1.0
  N  N166  1  0.34980000  0.48491000  0.05605000  1.0
  N  N167  1  0.65020000  0.51509000  0.94395000  1.0
  N  N168  1  0.17937000  0.35795000  0.89391000  1.0
  N  N169  1  0.82063000  0.64205000  0.10609000  1.0
  N  N170  1  0.38600000  0.46335000  0.20570000  1.0
  N  N171  1  0.61400000  0.53665000  0.79430000  1.0
  N  N172  1  0.12160000  0.18795000  0.97757000  1.0
  N  N173  1  0.87840000  0.81204000  0.02243000  1.0
  N  N174  1  0.07893000  0.53524000  0.63224000  1.0
  N  N175  1  0.92107000  0.46476000  0.36776000  1.0
  N  N176  1  0.09804000  0.61975000  0.69992000  1.0
  N  N177  1  0.90196000  0.38026000  0.30008000  1.0
  N  N178  1  0.99962000  0.62078000  0.69956000  1.0
  N  N179  1  0.00038000  0.37922000  0.30044000  1.0
  N  N180  1  0.91539000  0.53762000  0.63167000  1.0
  N  N181  1  0.08461000  0.46238000  0.36833000  1.0
  N  N182  1  0.62109000  0.31304000  0.47001000  1.0
  N  N183  1  0.37892000  0.68696000  0.52999000  1.0
  N  N184  1  0.55857000  0.36216000  0.46272000  1.0
  N  N185  1  0.44143000  0.63784000  0.53728000  1.0
  N  N186  1  0.61480000  0.43633000  0.44856000  1.0
  N  N187  1  0.38520000  0.56367000  0.55144000  1.0
  N  N188  1  0.71571000  0.43776000  0.44709000  1.0
  N  N189  1  0.28429000  0.56225000  0.55291000  1.0
  N  N190  1  0.99738000  0.35746000  0.49813000  1.0
  N  N191  1  0.00262000  0.64254000  0.50188000  1.0
  N  N192  1  0.77820000  0.23986000  0.39266000  1.0
  N  N193  1  0.22180000  0.76014000  0.60734000  1.0
  N  N194  1  0.17063000  0.32978000  0.47467000  1.0
  N  N195  1  0.82937000  0.67023000  0.52533000  1.0
  N  N196  1  0.74747000  0.03470000  0.29212000  1.0
  N  N197  1  0.25253000  0.96530000  0.70788000  1.0
  N  N198  1  0.46474000  0.07157000  0.39672000  1.0
  N  N199  1  0.53526000  0.92843000  0.60328000  1.0
  N  N200  1  0.36069000  0.03443000  0.33877000  1.0
  N  N201  1  0.63931000  0.96557000  0.66123000  1.0
  N  N202  1  0.32691000  0.93883000  0.28977000  1.0
  N  N203  1  0.67309000  0.06117000  0.71023000  1.0
  N  N204  1  0.40765000  0.91217000  0.31484000  1.0
  N  N205  1  0.59235000  0.08783000  0.68516000  1.0
  N  N206  1  0.58709000  0.78406000  0.30333000  1.0
  N  N207  1  0.41291000  0.21594000  0.69667000  1.0
  N  N208  1  0.51266000  0.69229000  0.27934000  1.0
  N  N209  1  0.48734000  0.30770000  0.72066000  1.0
  N  N210  1  0.45822000  0.68836000  0.33721000  1.0
  N  N211  1  0.54179000  0.31164000  0.66279000  1.0
  N  N212  1  0.49621000  0.77982000  0.40140000  1.0
  N  N213  1  0.50379000  0.22018000  0.59859000  1.0
  N  N214  1  0.66283000  0.10644000  0.49881000  1.0
  N  N215  1  0.33717000  0.89356000  0.50119000  1.0
  N  N216  1  0.74923000  0.97368000  0.48458000  1.0
  N  N217  1  0.25077000  0.02632000  0.51541000  1.0
  N  N218  1  0.75449000  0.28824000  0.62147000  1.0
  N  N219  1  0.24551000  0.71176000  0.37853000  1.0
  N  N220  1  0.00933000  0.14813000  0.56185000  1.0
  N  N221  1  0.99067000  0.85187000  0.43814000  1.0
