# generated using pymatgen
data_KH13C12SN2O5
_symmetry_space_group_name_H-M   'P 1'
_cell_length_a   7.18102000
_cell_length_b   12.90310000
_cell_length_c   15.87250000
_cell_angle_alpha   109.67500000
_cell_angle_beta   89.99990000
_cell_angle_gamma   90.00000000
_symmetry_Int_Tables_number   1
_chemical_formula_structural   KH13C12SN2O5
_chemical_formula_sum   'K4 H52 C48 S4 N8 O20'
_cell_volume   1384.84151758
_cell_formula_units_Z   4
loop_
 _symmetry_equiv_pos_site_id
 _symmetry_equiv_pos_as_xyz
  1  'x, y, z'
loop_
 _atom_site_type_symbol
 _atom_site_label
 _atom_site_symmetry_multiplicity
 _atom_site_fract_x
 _atom_site_fract_y
 _atom_site_fract_z
 _atom_site_occupancy
  K  K0  1  0.32014000  0.41362000  0.05542000  1.0
  K  K1  1  0.82014000  0.08638000  0.94458000  1.0
  K  K2  1  0.67987000  0.58638000  0.94457000  1.0
  K  K3  1  0.17986000  0.91362000  0.05542000  1.0
  H  H4  1  0.65972000  0.76451000  0.39874000  1.0
  H  H5  1  0.15972000  0.73549000  0.60126000  1.0
  H  H6  1  0.34028000  0.23549000  0.60126000  1.0
  H  H7  1  0.84028000  0.26451000  0.39874000  1.0
  H  H8  1  0.94583000  0.76372000  0.48666000  1.0
  H  H9  1  0.44583000  0.73628000  0.51334000  1.0
  H  H10  1  0.05417000  0.23628000  0.51334000  1.0
  H  H11  1  0.55417000  0.26372000  0.48666000  1.0
  H  H12  1  0.10379000  0.58506000  0.46838000  1.0
  H  H13  1  0.60378000  0.91494000  0.53162000  1.0
  H  H14  1  0.89622000  0.41494000  0.53162000  1.0
  H  H15  1  0.39622000  0.08506000  0.46838000  1.0
  H  H16  1  0.97063000  0.41118000  0.36636000  1.0
  H  H17  1  0.47063000  0.08882000  0.63364000  1.0
  H  H18  1  0.02937000  0.58882000  0.63364000  1.0
  H  H19  1  0.52937000  0.91118000  0.36636000  1.0
  H  H20  1  0.30445000  0.45887000  0.36847000  1.0
  H  H21  1  0.80445000  0.04114000  0.63153000  1.0
  H  H22  1  0.69555000  0.54114000  0.63153000  1.0
  H  H23  1  0.19555000  0.95886000  0.36847000  1.0
  H  H24  1  0.50336000  0.44667000  0.43053000  1.0
  H  H25  1  0.00336000  0.05333000  0.56947000  1.0
  H  H26  1  0.49664000  0.55333000  0.56946000  1.0
  H  H27  1  0.99664000  0.94667000  0.43053000  1.0
  H  H28  1  0.32417000  0.34429000  0.40573000  1.0
  H  H29  1  0.82418000  0.15571000  0.59427000  1.0
  H  H30  1  0.67582000  0.65571000  0.59427000  1.0
  H  H31  1  0.17583000  0.84429000  0.40573000  1.0
  H  H32  1  0.27362000  0.70044000  0.28392000  1.0
  H  H33  1  0.77362000  0.79956000  0.71608000  1.0
  H  H34  1  0.72638000  0.29956000  0.71608000  1.0
  H  H35  1  0.22638000  0.20044000  0.28392000  1.0
  H  H36  1  0.75760000  0.38319000  0.99797000  1.0
  H  H37  1  0.25759000  0.11681000  0.00203000  1.0
  H  H38  1  0.24241000  0.61681000  0.00203000  1.0
  H  H39  1  0.74241000  0.88319000  0.99797000  1.0
  H  H40  1  0.78045000  0.48598000  0.08348000  1.0
  H  H41  1  0.28045000  0.01402000  0.91652000  1.0
  H  H42  1  0.21955000  0.51402000  0.91652000  1.0
  H  H43  1  0.71955000  0.98598000  0.08348000  1.0
  H  H44  1  0.97691000  0.30741000  0.09897000  1.0
  H  H45  1  0.47691000  0.19259000  0.90103000  1.0
  H  H46  1  0.02309000  0.69259000  0.90103000  1.0
  H  H47  1  0.52309000  0.80740000  0.09897000  1.0
  H  H48  1  0.98217000  0.42859000  0.19616000  1.0
  H  H49  1  0.48217000  0.07141000  0.80384000  1.0
  H  H50  1  0.01783000  0.57141000  0.80384000  1.0
  H  H51  1  0.51783000  0.92859000  0.19616000  1.0
  H  H52  1  0.06325000  0.30067000  0.20135000  1.0
  H  H53  1  0.56325000  0.19934000  0.79865000  1.0
  H  H54  1  0.93675000  0.69933000  0.79865000  1.0
  H  H55  1  0.43675000  0.80066000  0.20135000  1.0
  C  C56  1  0.47566000  0.59717000  0.28585000  1.0
  C  C57  1  0.97567000  0.90283000  0.71416000  1.0
  C  C58  1  0.52434000  0.40283000  0.71415000  1.0
  C  C59  1  0.02434000  0.09717000  0.28584000  1.0
  C  C60  1  0.65020000  0.58915000  0.33493000  1.0
  C  C61  1  0.15020000  0.91085000  0.66507000  1.0
  C  C62  1  0.34980000  0.41085000  0.66507000  1.0
  C  C63  1  0.84980000  0.08915000  0.33493000  1.0
  C  C64  1  0.72820000  0.68721000  0.39285000  1.0
  C  C65  1  0.22820000  0.81279000  0.60715000  1.0
  C  C66  1  0.27180000  0.31279000  0.60716000  1.0
  C  C67  1  0.77180000  0.18721000  0.39285000  1.0
  C  C68  1  0.88952000  0.68697000  0.44112000  1.0
  C  C69  1  0.38952000  0.81303000  0.55888000  1.0
  C  C70  1  0.11048000  0.31303000  0.55888000  1.0
  C  C71  1  0.61048000  0.18697000  0.44112000  1.0
  C  C72  1  0.97740000  0.58712000  0.43092000  1.0
  C  C73  1  0.47740000  0.91288000  0.56908000  1.0
  C  C74  1  0.02260000  0.41288000  0.56908000  1.0
  C  C75  1  0.52260000  0.08712000  0.43092000  1.0
  C  C76  1  0.90233000  0.48920000  0.37354000  1.0
  C  C77  1  0.40233000  0.01080000  0.62646000  1.0
  C  C78  1  0.09767000  0.51080000  0.62647000  1.0
  C  C79  1  0.59768000  0.98920000  0.37354000  1.0
  C  C80  1  0.73826000  0.48710000  0.32473000  1.0
  C  C81  1  0.23826000  0.01290000  0.67527000  1.0
  C  C82  1  0.26174000  0.51290000  0.67527000  1.0
  C  C83  1  0.76174000  0.98710000  0.32473000  1.0
  C  C84  1  0.66352000  0.37843000  0.26781000  1.0
  C  C85  1  0.16352000  0.12157000  0.73219000  1.0
  C  C86  1  0.33648000  0.62157000  0.73219000  1.0
  C  C87  1  0.83648000  0.87843000  0.26781000  1.0
  C  C88  1  0.49849000  0.33770000  0.29353000  1.0
  C  C89  1  0.99849000  0.16230000  0.70647000  1.0
  C  C90  1  0.50150000  0.66230000  0.70647000  1.0
  C  C91  1  0.00151000  0.83770000  0.29353000  1.0
  C  C92  1  0.40315000  0.39984000  0.38001000  1.0
  C  C93  1  0.90315000  0.10016000  0.61999000  1.0
  C  C94  1  0.59685000  0.60016000  0.61999000  1.0
  C  C95  1  0.09685000  0.89984000  0.38001000  1.0
  C  C96  1  0.76586000  0.31045000  0.19356000  1.0
  C  C97  1  0.26587000  0.18955000  0.80644000  1.0
  C  C98  1  0.23414000  0.68955000  0.80644000  1.0
  C  C99  1  0.73414000  0.81045000  0.19356000  1.0
  C  C100  1  0.95775000  0.33971000  0.17175000  1.0
  C  C101  1  0.45775000  0.16028000  0.82825000  1.0
  C  C102  1  0.04225000  0.66028000  0.82825000  1.0
  C  C103  1  0.54225000  0.83972000  0.17175000  1.0
  S  S104  1  0.49204000  0.17971000  0.14525000  1.0
  S  S105  1  0.99204000  0.32029000  0.85475000  1.0
  S  S106  1  0.50796000  0.82029000  0.85475000  1.0
  S  S107  1  0.00796000  0.67971000  0.14525000  1.0
  N  N108  1  0.70477000  0.21282000  0.13835000  1.0
  N  N109  1  0.20477000  0.28719000  0.86165000  1.0
  N  N110  1  0.29523000  0.78719000  0.86165000  1.0
  N  N111  1  0.79523000  0.71281000  0.13835000  1.0
  N  N112  1  0.41740000  0.24169000  0.24622000  1.0
  N  N113  1  0.91740000  0.25832000  0.75378000  1.0
  N  N114  1  0.58260000  0.75832000  0.75378000  1.0
  N  N115  1  0.08260000  0.74169000  0.24622000  1.0
  O  O116  1  0.48058000  0.06093000  0.12486000  1.0
  O  O117  1  0.98058000  0.43907000  0.87514000  1.0
  O  O118  1  0.51941000  0.93907000  0.87514000  1.0
  O  O119  1  0.01942000  0.56093000  0.12486000  1.0
  O  O120  1  0.37945000  0.21760000  0.08349000  1.0
  O  O121  1  0.87945000  0.28241000  0.91651000  1.0
  O  O122  1  0.62055000  0.78241000  0.91651000  1.0
  O  O123  1  0.12055000  0.71759000  0.08349000  1.0
  O  O124  1  0.39448000  0.69626000  0.31824000  1.0
  O  O125  1  0.89448000  0.80374000  0.68176000  1.0
  O  O126  1  0.60552000  0.30374000  0.68176000  1.0
  O  O127  1  0.10552000  0.19626000  0.31824000  1.0
  O  O128  1  0.41083000  0.52150000  0.22267000  1.0
  O  O129  1  0.91084000  0.97850000  0.77733000  1.0
  O  O130  1  0.58917000  0.47850000  0.77733000  1.0
  O  O131  1  0.08916000  0.02150000  0.22267000  1.0
  O  O132  1  0.68603000  0.44267000  0.04179000  1.0
  O  O133  1  0.18603000  0.05733000  0.95821000  1.0
  O  O134  1  0.31397000  0.55733000  0.95821000  1.0
  O  O135  1  0.81397000  0.94267000  0.04179000  1.0
