# generated using pymatgen
data_Al2H5C12BrO12
_symmetry_space_group_name_H-M   'P 1'
_cell_length_a   6.67510000
_cell_length_b   14.06550000
_cell_length_c   17.40980000
_cell_angle_alpha   93.46780000
_cell_angle_beta   89.66840000
_cell_angle_gamma   89.58240000
_symmetry_Int_Tables_number   1
_chemical_formula_structural   Al2H5C12BrO12
_chemical_formula_sum   'Al4 H10 C24 Br2 O24'
_cell_volume   1631.51397773
_cell_formula_units_Z   2
loop_
 _symmetry_equiv_pos_site_id
 _symmetry_equiv_pos_as_xyz
  1  'x, y, z'
loop_
 _atom_site_type_symbol
 _atom_site_label
 _atom_site_symmetry_multiplicity
 _atom_site_fract_x
 _atom_site_fract_y
 _atom_site_fract_z
 _atom_site_occupancy
  Al  Al0  1  0.86006000  0.49579000  0.50027000  1.0
  Al  Al1  1  0.36038000  0.50339000  0.50619000  1.0
  Al  Al2  1  0.38792000  0.99964000  0.00113000  1.0
  Al  Al3  1  0.88755000  0.00097000  0.00264000  1.0
  H  H4  1  0.99473000  0.31072000  0.29205000  1.0
  H  H5  1  0.48389000  0.70740000  0.70309000  1.0
  H  H6  1  0.57144000  0.17655000  0.24998000  1.0
  H  H7  1  0.08510000  0.79045000  0.76553000  1.0
  H  H8  1  0.85790000  0.17207000  0.16348000  1.0
  H  H9  1  0.36532000  0.82922000  0.84337000  1.0
  H  H10  1  0.59743000  0.38410000  0.46474000  1.0
  H  H11  1  0.10340000  0.61589000  0.47462000  1.0
  H  H12  1  0.63554000  0.11759000  0.97644000  1.0
  H  H13  1  0.13775000  0.88127000  0.02408000  1.0
  C  C14  1  0.60814000  0.61025000  0.40010000  1.0
  C  C15  1  0.11461000  0.39331000  0.60594000  1.0
  C  C16  1  0.61612000  0.61639000  0.61070000  1.0
  C  C17  1  0.11621000  0.37874000  0.39658000  1.0
  C  C18  1  0.29410000  0.19551000  0.23115000  1.0
  C  C19  1  0.80388000  0.78852000  0.77976000  1.0
  C  C20  1  0.13061000  0.17307000  0.18542000  1.0
  C  C21  1  0.63862000  0.82042000  0.82251000  1.0
  C  C22  1  0.28289000  0.25538000  0.30311000  1.0
  C  C23  1  0.79490000  0.72175000  0.71164000  1.0
  C  C24  1  0.12812000  0.31239000  0.32780000  1.0
  C  C25  1  0.62707000  0.68449000  0.67798000  1.0
  C  C26  1  0.13382000  0.16982000  0.83583000  1.0
  C  C27  1  0.63398000  0.83174000  0.16890000  1.0
  C  C28  1  0.12664000  0.22163000  0.78195000  1.0
  C  C29  1  0.62609000  0.78030000  0.22300000  1.0
  C  C30  1  0.11964000  0.27906000  0.72265000  1.0
  C  C31  1  0.61786000  0.72335000  0.28262000  1.0
  C  C32  1  0.11354000  0.33139000  0.66912000  1.0
  C  C33  1  0.61029000  0.67155000  0.33647000  1.0
  C  C34  1  0.64670000  0.88404000  0.89326000  1.0
  C  C35  1  0.13994000  0.11410000  0.11200000  1.0
  C  C36  1  0.63736000  0.89258000  0.10528000  1.0
  C  C37  1  0.13714000  0.10858000  0.89908000  1.0
  Br  Br38  1  0.52377000  0.24570000  0.36320000  1.0
  Br  Br39  1  0.05617000  0.68888000  0.67078000  1.0
  O  O40  1  0.44076000  0.59802000  0.58376000  1.0
  O  O41  1  0.93942000  0.40784000  0.41603000  1.0
  O  O42  1  0.77912000  0.58685000  0.42517000  1.0
  O  O43  1  0.28410000  0.42676000  0.58864000  1.0
  O  O44  1  0.77726000  0.58000000  0.58268000  1.0
  O  O45  1  0.27704000  0.40402000  0.43077000  1.0
  O  O46  1  0.94793000  0.40764000  0.57357000  1.0
  O  O47  1  0.43670000  0.58645000  0.42462000  1.0
  O  O48  1  0.60803000  0.44177000  0.49816000  1.0
  O  O49  1  0.10710000  0.55742000  0.50143000  1.0
  O  O50  1  0.80850000  0.91797000  0.08161000  1.0
  O  O51  1  0.30833000  0.08266000  0.92246000  1.0
  O  O52  1  0.47109000  0.90662000  0.92070000  1.0
  O  O53  1  0.96550000  0.09363000  0.08429000  1.0
  O  O54  1  0.46793000  0.91489000  0.07829000  1.0
  O  O55  1  0.96764000  0.08635000  0.92631000  1.0
  O  O56  1  0.30670000  0.09044000  0.08158000  1.0
  O  O57  1  0.81227000  0.90958000  0.92254000  1.0
  O  O58  1  0.63642000  0.05808000  0.00185000  1.0
  O  O59  1  0.13807000  0.94298000  0.00210000  1.0
  O  O60  1  0.47655000  0.16038000  0.20791000  1.0
  O  O61  1  0.98666000  0.82073000  0.80254000  1.0
  O  O62  1  0.94078000  0.20255000  0.20517000  1.0
  O  O63  1  0.44803000  0.79489000  0.80274000  1.0
