# generated using pymatgen
data_AgH14C17N3O4
_symmetry_space_group_name_H-M   'P 1'
_cell_length_a   7.58921000
_cell_length_b   9.03527000
_cell_length_c   11.76420000
_cell_angle_alpha   72.21100000
_cell_angle_beta   85.48210000
_cell_angle_gamma   89.80260000
_symmetry_Int_Tables_number   1
_chemical_formula_structural   AgH14C17N3O4
_chemical_formula_sum   'Ag2 H28 C34 N6 O8'
_cell_volume   765.54159408
_cell_formula_units_Z   2
loop_
 _symmetry_equiv_pos_site_id
 _symmetry_equiv_pos_as_xyz
  1  'x, y, z'
loop_
 _atom_site_type_symbol
 _atom_site_label
 _atom_site_symmetry_multiplicity
 _atom_site_fract_x
 _atom_site_fract_y
 _atom_site_fract_z
 _atom_site_occupancy
  Ag  Ag0  1  0.39663000  0.77296000  0.28200000  1.0
  Ag  Ag1  1  0.60337000  0.22705000  0.71801000  1.0
  H  H2  1  0.58821000  0.09482000  0.04265000  1.0
  H  H3  1  0.41179000  0.90518000  0.95734000  1.0
  H  H4  1  0.99763000  0.88282000  0.26913000  1.0
  H  H5  1  0.00237000  0.11718000  0.73087000  1.0
  H  H6  1  0.26370000  0.33095000  0.58694000  1.0
  H  H7  1  0.73631000  0.66906000  0.41306000  1.0
  H  H8  1  0.89100000  0.39186000  0.86905000  1.0
  H  H9  1  0.10901000  0.60814000  0.13094000  1.0
  H  H10  1  0.20708000  0.38602000  0.91872000  1.0
  H  H11  1  0.79292000  0.61398000  0.08128000  1.0
  H  H12  1  0.30827000  0.17307000  0.09026000  1.0
  H  H13  1  0.69173000  0.82694000  0.90974000  1.0
  H  H14  1  0.12312000  0.41454000  0.71863000  1.0
  H  H15  1  0.87688000  0.58546000  0.28137000  1.0
  H  H16  1  0.01053000  0.63936000  0.78462000  1.0
  H  H17  1  0.98947000  0.36062000  0.21539000  1.0
  H  H18  1  0.04338000  0.90851000  0.63709000  1.0
  H  H19  1  0.95659000  0.09147000  0.36292000  1.0
  H  H20  1  0.18818000  0.93838000  0.43342000  1.0
  H  H21  1  0.81181000  0.06162000  0.56659000  1.0
  H  H22  1  0.35362000  0.15404000  0.51041000  1.0
  H  H23  1  0.64638000  0.84596000  0.48959000  1.0
  H  H24  1  0.48380000  0.08113000  0.33284000  1.0
  H  H25  1  0.51620000  0.91887000  0.66716000  1.0
  H  H26  1  0.54511000  0.29312000  0.13614000  1.0
  H  H27  1  0.45488000  0.70688000  0.86386000  1.0
  H  H28  1  0.46249000  0.56446000  0.12637000  1.0
  H  H29  1  0.53751000  0.43554000  0.87364000  1.0
  C  C30  1  0.87146000  0.06599000  0.11338000  1.0
  C  C31  1  0.12854000  0.93401000  0.88662000  1.0
  C  C32  1  0.81770000  0.18578000  0.01333000  1.0
  C  C33  1  0.18229000  0.81422000  0.98667000  1.0
  C  C34  1  0.93763000  0.30159000  0.94453000  1.0
  C  C35  1  0.06237000  0.69842000  0.05546000  1.0
  C  C36  1  0.11290000  0.29641000  0.97299000  1.0
  C  C37  1  0.88710000  0.70359000  0.02701000  1.0
  C  C38  1  0.17166000  0.17816000  0.06832000  1.0
  C  C39  1  0.82835000  0.82183000  0.93168000  1.0
  C  C40  1  0.05166000  0.06350000  0.13835000  1.0
  C  C41  1  0.94834000  0.93650000  0.86165000  1.0
  C  C42  1  0.74463000  0.94809000  0.19058000  1.0
  C  C43  1  0.25536000  0.05192000  0.80941000  1.0
  C  C44  1  0.21600000  0.56017000  0.54145000  1.0
  C  C45  1  0.78400000  0.43983000  0.45855000  1.0
  C  C46  1  0.13465000  0.53335000  0.65873000  1.0
  C  C47  1  0.86534000  0.46665000  0.34126000  1.0
  C  C48  1  0.07232000  0.65737000  0.69439000  1.0
  C  C49  1  0.92768000  0.34262000  0.30561000  1.0
  C  C50  1  0.09010000  0.80749000  0.61291000  1.0
  C  C51  1  0.90989000  0.19251000  0.38710000  1.0
  C  C52  1  0.17069000  0.82419000  0.49998000  1.0
  C  C53  1  0.82931000  0.17581000  0.50003000  1.0
  C  C54  1  0.34584000  0.39893000  0.41118000  1.0
  C  C55  1  0.65416000  0.60107000  0.58882000  1.0
  C  C56  1  0.38263000  0.24123000  0.42347000  1.0
  C  C57  1  0.61737000  0.75876000  0.57653000  1.0
  C  C58  1  0.45477000  0.20185000  0.32542000  1.0
  C  C59  1  0.54524000  0.79815000  0.67458000  1.0
  C  C60  1  0.48777000  0.31863000  0.21553000  1.0
  C  C61  1  0.51223000  0.68137000  0.78447000  1.0
  C  C62  1  0.44423000  0.46928000  0.21011000  1.0
  C  C63  1  0.55577000  0.53072000  0.78989000  1.0
  N  N64  1  0.27728000  0.42967000  0.51402000  1.0
  N  N65  1  0.72273000  0.57033000  0.48598000  1.0
  N  N66  1  0.23343000  0.70458000  0.46314000  1.0
  N  N67  1  0.76657000  0.29542000  0.53685000  1.0
  N  N68  1  0.37568000  0.51089000  0.30538000  1.0
  N  N69  1  0.62433000  0.48911000  0.69462000  1.0
  O  O70  1  0.79710000  0.84538000  0.28275000  1.0
  O  O71  1  0.20290000  0.15463000  0.71725000  1.0
  O  O72  1  0.58255000  0.95421000  0.16371000  1.0
  O  O73  1  0.41745000  0.04579000  0.83629000  1.0
  O  O74  1  0.64882000  0.19006000  0.98270000  1.0
  O  O75  1  0.35119000  0.80994000  0.01730000  1.0
  O  O76  1  0.10859000  0.94986000  0.23193000  1.0
  O  O77  1  0.89141000  0.05014000  0.76806000  1.0
