# generated using pymatgen
data_LiSi2BPH43C21O2
_symmetry_space_group_name_H-M   'P 1'
_cell_length_a   6.07354000
_cell_length_b   10.76450000
_cell_length_c   19.48780000
_cell_angle_alpha   96.04560000
_cell_angle_beta   95.82190000
_cell_angle_gamma   100.44500000
_symmetry_Int_Tables_number   1
_chemical_formula_structural   LiSi2BPH43C21O2
_chemical_formula_sum   'Li2 Si4 B2 P2 H86 C42 O4'
_cell_volume   1236.50513637
_cell_formula_units_Z   2
loop_
 _symmetry_equiv_pos_site_id
 _symmetry_equiv_pos_as_xyz
  1  'x, y, z'
loop_
 _atom_site_type_symbol
 _atom_site_label
 _atom_site_symmetry_multiplicity
 _atom_site_fract_x
 _atom_site_fract_y
 _atom_site_fract_z
 _atom_site_occupancy
  Li  Li0  1  0.21516000  0.13061000  0.23802000  1.0
  Li  Li1  1  0.78485000  0.86939000  0.76198000  1.0
  Si  Si2  1  0.82252000  0.58421000  0.27850000  1.0
  Si  Si3  1  0.17746000  0.41578000  0.72150000  1.0
  Si  Si4  1  0.61100000  0.43868000  0.12830000  1.0
  Si  Si5  1  0.38900000  0.56131000  0.87170000  1.0
  B  B6  1  0.88535000  0.21603000  0.22424000  1.0
  B  B7  1  0.11466000  0.78397000  0.77575000  1.0
  P  P8  1  0.62033000  0.27857000  0.25089000  1.0
  P  P9  1  0.37968000  0.72142000  0.74911000  1.0
  H  H10  1  0.06803000  0.28500000  0.24737000  1.0
  H  H11  1  0.93199000  0.71500000  0.75262000  1.0
  H  H12  1  0.87293000  0.11191000  0.24583000  1.0
  H  H13  1  0.12708000  0.88809000  0.75417000  1.0
  H  H14  1  0.86829000  0.19992000  0.16085000  1.0
  H  H15  1  0.13171000  0.80008000  0.83915000  1.0
  H  H16  1  0.45189000  0.46081000  0.23492000  1.0
  H  H17  1  0.54809000  0.53918000  0.76508000  1.0
  H  H18  1  0.84254000  0.71295000  0.39231000  1.0
  H  H19  1  0.15742000  0.28705000  0.60768000  1.0
  H  H20  1  0.83502000  0.55080000  0.40471000  1.0
  H  H21  1  0.16495000  0.44920000  0.59529000  1.0
  H  H22  1  0.58370000  0.60121000  0.37564000  1.0
  H  H23  1  0.41625000  0.39878000  0.62436000  1.0
  H  H24  1  0.18827000  0.58460000  0.23002000  1.0
  H  H25  1  0.81173000  0.41541000  0.76999000  1.0
  H  H26  1  0.14866000  0.47418000  0.29104000  1.0
  H  H27  1  0.85132000  0.52581000  0.70896000  1.0
  H  H28  1  0.23290000  0.64011000  0.32036000  1.0
  H  H29  1  0.76706000  0.35987000  0.67965000  1.0
  H  H30  1  0.89767000  0.81845000  0.27291000  1.0
  H  H31  1  0.10234000  0.18154000  0.72709000  1.0
  H  H32  1  0.61862000  0.74927000  0.23433000  1.0
  H  H33  1  0.38138000  0.25074000  0.76567000  1.0
  H  H34  1  0.85110000  0.73385000  0.18813000  1.0
  H  H35  1  0.14889000  0.26615000  0.81187000  1.0
  H  H36  1  0.88803000  0.42838000  0.04258000  1.0
  H  H37  1  0.11201000  0.57162000  0.95743000  1.0
  H  H38  1  0.99646000  0.39022000  0.12433000  1.0
  H  H39  1  0.00355000  0.60978000  0.87567000  1.0
  H  H40  1  0.99508000  0.55139000  0.11186000  1.0
  H  H41  1  0.00493000  0.44861000  0.88814000  1.0
  H  H42  1  0.39401000  0.29260000  0.02807000  1.0
  H  H43  1  0.60599000  0.70739000  0.97192000  1.0
  H  H44  1  0.26531000  0.26588000  0.10487000  1.0
  H  H45  1  0.73468000  0.73409000  0.89513000  1.0
  H  H46  1  0.51208000  0.20505000  0.09029000  1.0
  H  H47  1  0.48795000  0.79493000  0.90971000  1.0
  H  H48  1  0.38189000  0.54293000  0.04670000  1.0
  H  H49  1  0.61811000  0.45706000  0.95330000  1.0
  H  H50  1  0.61509000  0.65610000  0.09155000  1.0
  H  H51  1  0.38490000  0.34389000  0.90844000  1.0
  H  H52  1  0.37297000  0.60871000  0.13328000  1.0
  H  H53  1  0.62701000  0.39127000  0.86671000  1.0
  H  H54  1  0.33058000  0.35849000  0.35062000  1.0
  H  H55  1  0.66947000  0.64151000  0.64937000  1.0
  H  H56  1  0.36374000  0.39112000  0.47919000  1.0
  H  H57  1  0.63632000  0.60887000  0.52082000  1.0
  H  H58  1  0.70575000  0.35340000  0.54970000  1.0
  H  H59  1  0.29430000  0.64659000  0.45030000  1.0
  H  H60  1  0.01049000  0.27882000  0.48987000  1.0
  H  H61  1  0.98958000  0.72118000  0.51013000  1.0
  H  H62  1  0.97926000  0.25023000  0.36078000  1.0
  H  H63  1  0.02079000  0.74978000  0.63921000  1.0
  H  H64  1  0.01194000  0.03437000  0.38247000  1.0
  H  H65  1  0.98807000  0.96564000  0.61754000  1.0
  H  H66  1  0.28330000  0.12852000  0.41610000  1.0
  H  H67  1  0.71672000  0.87149000  0.58391000  1.0
  H  H68  1  0.14094000  0.83795000  0.40147000  1.0
  H  H69  1  0.85906000  0.16206000  0.59853000  1.0
  H  H70  1  0.29739000  0.94004000  0.47431000  1.0
  H  H71  1  0.70260000  0.05996000  0.52570000  1.0
  H  H72  1  0.62680000  0.98655000  0.41093000  1.0
  H  H73  1  0.37319000  0.01346000  0.58908000  1.0
  H  H74  1  0.52747000  0.82121000  0.38318000  1.0
  H  H75  1  0.47253000  0.17881000  0.61683000  1.0
  H  H76  1  0.56610000  0.99759000  0.28822000  1.0
  H  H77  1  0.43390000  0.00244000  0.71178000  1.0
  H  H78  1  0.34018000  0.86146000  0.27471000  1.0
  H  H79  1  0.65983000  0.13857000  0.72530000  1.0
  H  H80  1  0.42748000  0.87832000  0.15993000  1.0
  H  H81  1  0.57251000  0.12168000  0.84006000  1.0
  H  H82  1  0.53200000  0.03648000  0.14240000  1.0
  H  H83  1  0.46798000  0.96351000  0.85759000  1.0
  H  H84  1  0.40426000  0.84032000  0.03391000  1.0
  H  H85  1  0.59569000  0.15967000  0.96609000  1.0
  H  H86  1  0.32817000  0.99045000  0.02458000  1.0
  H  H87  1  0.67179000  0.00954000  0.97542000  1.0
  H  H88  1  0.04064000  0.75945000  0.07394000  1.0
  H  H89  1  0.95933000  0.24056000  0.92607000  1.0
  H  H90  1  0.95847000  0.84454000  0.00552000  1.0
  H  H91  1  0.04148000  0.15546000  0.99449000  1.0
  H  H92  1  0.94082000  0.03029000  0.08618000  1.0
  H  H93  1  0.05919000  0.96973000  0.91382000  1.0
  H  H94  1  0.85985000  0.90877000  0.13934000  1.0
  H  H95  1  0.14014000  0.09125000  0.86067000  1.0
  C  C96  1  0.62112000  0.44291000  0.22623000  1.0
  C  C97  1  0.37886000  0.55709000  0.77376000  1.0
  C  C98  1  0.76499000  0.61395000  0.37153000  1.0
  C  C99  1  0.23497000  0.38604000  0.62847000  1.0
  C  C100  1  0.12638000  0.56924000  0.28007000  1.0
  C  C101  1  0.87360000  0.43075000  0.71994000  1.0
  C  C102  1  0.79386000  0.73505000  0.23979000  1.0
  C  C103  1  0.20614000  0.26495000  0.76021000  1.0
  C  C104  1  0.89957000  0.45329000  0.09921000  1.0
  C  C105  1  0.10043000  0.54670000  0.90079000  1.0
  C  C106  1  0.42755000  0.28562000  0.08390000  1.0
  C  C107  1  0.57245000  0.71436000  0.91610000  1.0
  C  C108  1  0.48370000  0.57464000  0.09750000  1.0
  C  C109  1  0.51629000  0.42535000  0.90250000  1.0
  C  C110  1  0.65472000  0.30386000  0.34631000  1.0
  C  C111  1  0.34532000  0.69614000  0.65368000  1.0
  C  C112  1  0.48099000  0.34162000  0.38107000  1.0
  C  C113  1  0.51905000  0.65838000  0.61893000  1.0
  C  C114  1  0.49846000  0.35925000  0.45344000  1.0
  C  C115  1  0.50159000  0.64075000  0.54656000  1.0
  C  C116  1  0.69007000  0.33782000  0.49305000  1.0
  C  C117  1  0.30999000  0.66217000  0.50695000  1.0
  C  C118  1  0.86114000  0.29663000  0.45941000  1.0
  C  C119  1  0.13892000  0.70337000  0.54058000  1.0
  C  C120  1  0.84362000  0.28010000  0.38683000  1.0
  C  C121  1  0.15643000  0.71991000  0.61316000  1.0
  C  C122  1  0.19449000  0.03726000  0.38661000  1.0
  C  C123  1  0.80552000  0.96275000  0.61340000  1.0
  C  C124  1  0.26854000  0.92527000  0.41735000  1.0
  C  C125  1  0.73145000  0.07474000  0.58266000  1.0
  C  C126  1  0.48292000  0.91549000  0.38363000  1.0
  C  C127  1  0.51708000  0.08453000  0.61638000  1.0
  C  C128  1  0.42156000  0.94727000  0.31057000  1.0
  C  C129  1  0.57844000  0.05275000  0.68943000  1.0
  C  C130  1  0.38726000  0.95666000  0.13174000  1.0
  C  C131  1  0.61272000  0.04333000  0.86825000  1.0
  C  C132  1  0.31002000  0.90996000  0.05525000  1.0
  C  C133  1  0.68995000  0.09004000  0.94475000  1.0
  C  C134  1  0.05994000  0.85427000  0.05631000  1.0
  C  C135  1  0.94001000  0.14574000  0.94369000  1.0
  C  C136  1  0.99326000  0.95002000  0.10975000  1.0
  C  C137  1  0.00672000  0.04999000  0.89026000  1.0
  O  O138  1  0.25792000  0.03000000  0.31667000  1.0
  O  O139  1  0.74208000  0.97002000  0.68334000  1.0
  O  O140  1  0.19559000  0.99990000  0.15845000  1.0
  O  O141  1  0.80441000  0.00010000  0.84155000  1.0
