# generated using pymatgen
data_ZnH20C20(NO2)2
_symmetry_space_group_name_H-M   'P 1'
_cell_length_a   11.61730000
_cell_length_b   16.10840000
_cell_length_c   24.95300000
_cell_angle_alpha   90.00000000
_cell_angle_beta   90.00000000
_cell_angle_gamma   90.00000000
_symmetry_Int_Tables_number   1
_chemical_formula_structural   ZnH20C20(NO2)2
_chemical_formula_sum   'Zn8 H160 C160 N16 O32'
_cell_volume   4669.60748558
_cell_formula_units_Z   8
loop_
 _symmetry_equiv_pos_site_id
 _symmetry_equiv_pos_as_xyz
  1  'x, y, z'
loop_
 _atom_site_type_symbol
 _atom_site_label
 _atom_site_symmetry_multiplicity
 _atom_site_fract_x
 _atom_site_fract_y
 _atom_site_fract_z
 _atom_site_occupancy
  Zn  Zn0  1  0.75000000  0.25000000  0.29779000  1.0
  Zn  Zn1  1  0.25000000  0.25000000  0.20221000  1.0
  Zn  Zn2  1  0.25000000  0.75000000  0.70221000  1.0
  Zn  Zn3  1  0.75000000  0.75000000  0.79779000  1.0
  Zn  Zn4  1  0.25000000  0.75000000  0.92737000  1.0
  Zn  Zn5  1  0.75000000  0.75000000  0.57263000  1.0
  Zn  Zn6  1  0.75000000  0.25000000  0.07263000  1.0
  Zn  Zn7  1  0.25000000  0.25000000  0.42737000  1.0
  H  H8  1  0.60971000  0.00138000  0.33465000  1.0
  H  H9  1  0.39029000  0.00138000  0.16535000  1.0
  H  H10  1  0.10971000  0.49862000  0.16535000  1.0
  H  H11  1  0.89029000  0.49862000  0.33465000  1.0
  H  H12  1  0.39029000  0.99862000  0.66535000  1.0
  H  H13  1  0.60971000  0.99862000  0.83465000  1.0
  H  H14  1  0.89029000  0.50138000  0.83465000  1.0
  H  H15  1  0.10971000  0.50138000  0.66535000  1.0
  H  H16  1  0.43946000  0.08113000  0.31811000  1.0
  H  H17  1  0.56054000  0.08114000  0.18189000  1.0
  H  H18  1  0.93946000  0.41886000  0.18189000  1.0
  H  H19  1  0.06054000  0.41887000  0.31811000  1.0
  H  H20  1  0.56054000  0.91887000  0.68189000  1.0
  H  H21  1  0.43946000  0.91887000  0.81811000  1.0
  H  H22  1  0.06054000  0.58113000  0.81811000  1.0
  H  H23  1  0.93946000  0.58113000  0.68189000  1.0
  H  H24  1  0.41038000  0.93661000  0.34150000  1.0
  H  H25  1  0.58961000  0.93661000  0.15850000  1.0
  H  H26  1  0.91039000  0.56339000  0.15850000  1.0
  H  H27  1  0.08961000  0.56339000  0.34150000  1.0
  H  H28  1  0.58961000  0.06339000  0.65851000  1.0
  H  H29  1  0.41039000  0.06339000  0.84150000  1.0
  H  H30  1  0.08961000  0.43661000  0.84150000  1.0
  H  H31  1  0.91039000  0.43661000  0.65850000  1.0
  H  H32  1  0.29696000  0.99648000  0.36910000  1.0
  H  H33  1  0.70304000  0.99648000  0.13090000  1.0
  H  H34  1  0.79697000  0.50351000  0.13090000  1.0
  H  H35  1  0.20303000  0.50352000  0.36910000  1.0
  H  H36  1  0.70304000  0.00352000  0.63090000  1.0
  H  H37  1  0.29697000  0.00352000  0.86910000  1.0
  H  H38  1  0.20304000  0.49648000  0.86910000  1.0
  H  H39  1  0.79697000  0.49648000  0.63090000  1.0
  H  H40  1  0.39323000  0.99269000  0.45890000  1.0
  H  H41  1  0.60677000  0.99269000  0.04110000  1.0
  H  H42  1  0.89323000  0.50731000  0.04110000  1.0
  H  H43  1  0.10677000  0.50731000  0.45890000  1.0
  H  H44  1  0.60677000  0.00731000  0.54110000  1.0
  H  H45  1  0.39323000  0.00731000  0.95890000  1.0
  H  H46  1  0.10677000  0.49269000  0.95890000  1.0
  H  H47  1  0.89323000  0.49269000  0.54110000  1.0
  H  H48  1  0.37027000  0.89082000  0.43533000  1.0
  H  H49  1  0.62973000  0.89082000  0.06467000  1.0
  H  H50  1  0.87027000  0.60918000  0.06467000  1.0
  H  H51  1  0.12973000  0.60918000  0.43533000  1.0
  H  H52  1  0.62973000  0.10918000  0.56467000  1.0
  H  H53  1  0.37027000  0.10918000  0.93533000  1.0
  H  H54  1  0.12973000  0.39082000  0.93533000  1.0
  H  H55  1  0.87027000  0.39082000  0.56467000  1.0
  H  H56  1  0.57305000  0.88133000  0.40500000  1.0
  H  H57  1  0.42695000  0.88133000  0.09500000  1.0
  H  H58  1  0.07305000  0.61867000  0.09500000  1.0
  H  H59  1  0.92695000  0.61867000  0.40500000  1.0
  H  H60  1  0.42695000  0.11867000  0.59500000  1.0
  H  H61  1  0.57305000  0.11867000  0.90500000  1.0
  H  H62  1  0.92695000  0.38133000  0.90500000  1.0
  H  H63  1  0.07305000  0.38133000  0.59500000  1.0
  H  H64  1  0.56807000  0.91012000  0.47356000  1.0
  H  H65  1  0.43193000  0.91011000  0.02644000  1.0
  H  H66  1  0.06807000  0.58988000  0.02644000  1.0
  H  H67  1  0.93193000  0.58988000  0.47356000  1.0
  H  H68  1  0.43193000  0.08988000  0.52644000  1.0
  H  H69  1  0.56807000  0.08988000  0.97356000  1.0
  H  H70  1  0.93193000  0.41012000  0.97356000  1.0
  H  H71  1  0.06807000  0.41012000  0.52644000  1.0
  H  H72  1  0.60622000  0.05647000  0.45130000  1.0
  H  H73  1  0.39378000  0.05646000  0.04869000  1.0
  H  H74  1  0.10622000  0.44353000  0.04869000  1.0
  H  H75  1  0.89378000  0.44353000  0.45131000  1.0
  H  H76  1  0.39378000  0.94354000  0.54870000  1.0
  H  H77  1  0.60622000  0.94354000  0.95130000  1.0
  H  H78  1  0.89378000  0.55646000  0.95130000  1.0
  H  H79  1  0.10622000  0.55647000  0.54870000  1.0
  H  H80  1  0.71162000  0.99421000  0.41981000  1.0
  H  H81  1  0.28838000  0.99421000  0.08019000  1.0
  H  H82  1  0.21162000  0.50578000  0.08019000  1.0
  H  H83  1  0.78838000  0.50578000  0.41981000  1.0
  H  H84  1  0.28838000  0.00579000  0.58019000  1.0
  H  H85  1  0.71162000  0.00579000  0.91981000  1.0
  H  H86  1  0.78838000  0.49421000  0.91981000  1.0
  H  H87  1  0.21162000  0.49422000  0.58019000  1.0
  H  H88  1  0.76085000  0.06328000  0.26855000  1.0
  H  H89  1  0.23914000  0.06329000  0.23145000  1.0
  H  H90  1  0.26086000  0.43671000  0.23145000  1.0
  H  H91  1  0.73914000  0.43671000  0.26855000  1.0
  H  H92  1  0.23914000  0.93671000  0.73145000  1.0
  H  H93  1  0.76086000  0.93671000  0.76855000  1.0
  H  H94  1  0.73914000  0.56329000  0.76855000  1.0
  H  H95  1  0.26086000  0.56329000  0.73145000  1.0
  H  H96  1  0.85819000  0.97532000  0.20088000  1.0
  H  H97  1  0.14181000  0.97533000  0.29912000  1.0
  H  H98  1  0.35820000  0.52467000  0.29912000  1.0
  H  H99  1  0.64181000  0.52467000  0.20088000  1.0
  H  H100  1  0.14181000  0.02467000  0.79912000  1.0
  H  H101  1  0.85819000  0.02468000  0.70088000  1.0
  H  H102  1  0.64181000  0.47532000  0.70088000  1.0
  H  H103  1  0.35819000  0.47533000  0.79912000  1.0
  H  H104  1  0.01548000  0.19928000  0.13834000  1.0
  H  H105  1  0.98451000  0.19928000  0.36166000  1.0
  H  H106  1  0.51548000  0.30072000  0.36166000  1.0
  H  H107  1  0.48451000  0.30072000  0.13834000  1.0
  H  H108  1  0.98452000  0.80072000  0.86166000  1.0
  H  H109  1  0.01548000  0.80072000  0.63834000  1.0
  H  H110  1  0.48451000  0.69928000  0.63834000  1.0
  H  H111  1  0.51549000  0.69928000  0.86166000  1.0
  H  H112  1  0.91239000  0.27715000  0.20911000  1.0
  H  H113  1  0.08761000  0.27715000  0.29089000  1.0
  H  H114  1  0.41239000  0.22285000  0.29089000  1.0
  H  H115  1  0.58761000  0.22285000  0.20911000  1.0
  H  H116  1  0.08761000  0.72285000  0.79089000  1.0
  H  H117  1  0.91239000  0.72285000  0.70911000  1.0
  H  H118  1  0.58761000  0.77715000  0.70911000  1.0
  H  H119  1  0.41239000  0.77715000  0.79088000  1.0
  H  H120  1  0.06803000  0.07212000  0.09850000  1.0
  H  H121  1  0.93197000  0.07212000  0.40150000  1.0
  H  H122  1  0.56803000  0.42788000  0.40150000  1.0
  H  H123  1  0.43197000  0.42788000  0.09850000  1.0
  H  H124  1  0.93197000  0.92788000  0.90150000  1.0
  H  H125  1  0.06802000  0.92788000  0.59850000  1.0
  H  H126  1  0.43197000  0.57212000  0.59850000  1.0
  H  H127  1  0.56803000  0.57212000  0.90150000  1.0
  H  H128  1  0.92566000  0.91722000  0.12962000  1.0
  H  H129  1  0.07434000  0.91722000  0.37038000  1.0
  H  H130  1  0.42566000  0.58278000  0.37038000  1.0
  H  H131  1  0.57434000  0.58278000  0.12962000  1.0
  H  H132  1  0.07434000  0.08278000  0.87038000  1.0
  H  H133  1  0.92566000  0.08278000  0.62962000  1.0
  H  H134  1  0.57434000  0.41722000  0.62962000  1.0
  H  H135  1  0.42566000  0.41722000  0.87038000  1.0
  H  H136  1  0.98347000  0.78954000  0.08840000  1.0
  H  H137  1  0.01653000  0.78954000  0.41160000  1.0
  H  H138  1  0.48347000  0.71045000  0.41160000  1.0
  H  H139  1  0.51653000  0.71045000  0.08840000  1.0
  H  H140  1  0.01653000  0.21046000  0.91160000  1.0
  H  H141  1  0.98347000  0.21046000  0.58840000  1.0
  H  H142  1  0.51653000  0.28954000  0.58840000  1.0
  H  H143  1  0.48347000  0.28955000  0.91160000  1.0
  H  H144  1  0.08229000  0.71502000  0.01414000  1.0
  H  H145  1  0.91771000  0.71502000  0.48587000  1.0
  H  H146  1  0.58229000  0.78498000  0.48586000  1.0
  H  H147  1  0.41771000  0.78498000  0.01414000  1.0
  H  H148  1  0.91771000  0.28498000  0.98586000  1.0
  H  H149  1  0.08230000  0.28498000  0.51414000  1.0
  H  H150  1  0.41771000  0.21502000  0.51414000  1.0
  H  H151  1  0.58229000  0.21502000  0.98587000  1.0
  H  H152  1  0.22167000  0.93252000  0.95488000  1.0
  H  H153  1  0.77833000  0.93252000  0.54512000  1.0
  H  H154  1  0.72167000  0.56748000  0.54512000  1.0
  H  H155  1  0.27833000  0.56748000  0.95488000  1.0
  H  H156  1  0.77833000  0.06748000  0.04512000  1.0
  H  H157  1  0.22167000  0.06748000  0.45488000  1.0
  H  H158  1  0.27833000  0.43252000  0.45488000  1.0
  H  H159  1  0.72167000  0.43252000  0.04512000  1.0
  H  H160  1  0.12570000  0.01769000  0.02479000  1.0
  H  H161  1  0.87430000  0.01769000  0.47521000  1.0
  H  H162  1  0.62570000  0.48231000  0.47521000  1.0
  H  H163  1  0.37430000  0.48231000  0.02479000  1.0
  H  H164  1  0.87430000  0.98231000  0.97521000  1.0
  H  H165  1  0.12570000  0.98231000  0.52479000  1.0
  H  H166  1  0.37430000  0.51769000  0.52479000  1.0
  H  H167  1  0.62570000  0.51769000  0.97521000  1.0
  C  C168  1  0.58754000  0.04761000  0.36601000  1.0
  C  C169  1  0.41246000  0.04761000  0.13399000  1.0
  C  C170  1  0.08754000  0.45239000  0.13399000  1.0
  C  C171  1  0.91246000  0.45239000  0.36601000  1.0
  C  C172  1  0.41246000  0.95239000  0.63399000  1.0
  C  C173  1  0.58754000  0.95239000  0.86601000  1.0
  C  C174  1  0.91246000  0.54761000  0.86601000  1.0
  C  C175  1  0.08754000  0.54761000  0.63399000  1.0
  C  C176  1  0.45765000  0.06334000  0.35982000  1.0
  C  C177  1  0.54235000  0.06334000  0.14018000  1.0
  C  C178  1  0.95765000  0.43666000  0.14018000  1.0
  C  C179  1  0.04234000  0.43666000  0.35982000  1.0
  C  C180  1  0.54235000  0.93666000  0.64018000  1.0
  C  C181  1  0.45766000  0.93666000  0.85982000  1.0
  C  C182  1  0.04234000  0.56334000  0.85982000  1.0
  C  C183  1  0.95766000  0.56334000  0.64018000  1.0
  C  C184  1  0.38956000  0.98334000  0.37242000  1.0
  C  C185  1  0.61044000  0.98334000  0.12758000  1.0
  C  C186  1  0.88956000  0.51665000  0.12758000  1.0
  C  C187  1  0.11044000  0.51666000  0.37242000  1.0
  C  C188  1  0.61044000  0.01666000  0.62758000  1.0
  C  C189  1  0.38956000  0.01665000  0.87242000  1.0
  C  C190  1  0.11044000  0.48335000  0.87242000  1.0
  C  C191  1  0.88956000  0.48334000  0.62758000  1.0
  C  C192  1  0.41927000  0.94814000  0.42764000  1.0
  C  C193  1  0.58073000  0.94814000  0.07236000  1.0
  C  C194  1  0.91927000  0.55186000  0.07236000  1.0
  C  C195  1  0.08073000  0.55186000  0.42764000  1.0
  C  C196  1  0.58073000  0.05186000  0.57236000  1.0
  C  C197  1  0.41927000  0.05186000  0.92764000  1.0
  C  C198  1  0.08073000  0.44814000  0.92764000  1.0
  C  C199  1  0.91927000  0.44814000  0.57236000  1.0
  C  C200  1  0.54854000  0.93189000  0.43276000  1.0
  C  C201  1  0.45146000  0.93189000  0.06724000  1.0
  C  C202  1  0.04854000  0.56811000  0.06724000  1.0
  C  C203  1  0.95146000  0.56811000  0.43276000  1.0
  C  C204  1  0.45146000  0.06811000  0.56724000  1.0
  C  C205  1  0.54854000  0.06811000  0.93276000  1.0
  C  C206  1  0.95146000  0.43189000  0.93276000  1.0
  C  C207  1  0.04854000  0.43189000  0.56724000  1.0
  C  C208  1  0.61962000  0.00927000  0.42015000  1.0
  C  C209  1  0.38039000  0.00927000  0.07985000  1.0
  C  C210  1  0.11962000  0.49073000  0.07985000  1.0
  C  C211  1  0.88038000  0.49073000  0.42015000  1.0
  C  C212  1  0.38039000  0.99073000  0.57985000  1.0
  C  C213  1  0.61962000  0.99073000  0.92015000  1.0
  C  C214  1  0.88038000  0.50927000  0.92015000  1.0
  C  C215  1  0.11962000  0.50927000  0.57985000  1.0
  C  C216  1  0.66280000  0.12272000  0.35225000  1.0
  C  C217  1  0.33719000  0.12272000  0.14775000  1.0
  C  C218  1  0.16281000  0.37728000  0.14775000  1.0
  C  C219  1  0.83719000  0.37728000  0.35225000  1.0
  C  C220  1  0.33719000  0.87728000  0.64775000  1.0
  C  C221  1  0.66281000  0.87728000  0.85225000  1.0
  C  C222  1  0.83719000  0.62272000  0.85225000  1.0
  C  C223  1  0.16281000  0.62272000  0.64775000  1.0
  C  C224  1  0.41305000  0.13469000  0.39471000  1.0
  C  C225  1  0.58695000  0.13469000  0.10529000  1.0
  C  C226  1  0.91305000  0.36531000  0.10529000  1.0
  C  C227  1  0.08695000  0.36531000  0.39471000  1.0
  C  C228  1  0.58695000  0.86531000  0.60529000  1.0
  C  C229  1  0.41305000  0.86531000  0.89471000  1.0
  C  C230  1  0.08695000  0.63469000  0.89471000  1.0
  C  C231  1  0.91305000  0.63469000  0.60529000  1.0
  C  C232  1  0.81709000  0.09073000  0.23843000  1.0
  C  C233  1  0.18291000  0.09073000  0.26157000  1.0
  C  C234  1  0.31709000  0.40927000  0.26157000  1.0
  C  C235  1  0.68291000  0.40927000  0.23843000  1.0
  C  C236  1  0.18291000  0.90927000  0.76157000  1.0
  C  C237  1  0.81709000  0.90927000  0.73843000  1.0
  C  C238  1  0.68291000  0.59073000  0.73843000  1.0
  C  C239  1  0.31709000  0.59073000  0.76157000  1.0
  C  C240  1  0.87161000  0.04227000  0.20034000  1.0
  C  C241  1  0.12839000  0.04227000  0.29966000  1.0
  C  C242  1  0.37161000  0.45773000  0.29966000  1.0
  C  C243  1  0.62839000  0.45773000  0.20034000  1.0
  C  C244  1  0.12839000  0.95773000  0.79966000  1.0
  C  C245  1  0.87161000  0.95773000  0.70034000  1.0
  C  C246  1  0.62839000  0.54227000  0.70034000  1.0
  C  C247  1  0.37161000  0.54227000  0.79966000  1.0
  C  C248  1  0.94410000  0.08008000  0.16225000  1.0
  C  C249  1  0.05590000  0.08008000  0.33775000  1.0
  C  C250  1  0.44410000  0.41992000  0.33775000  1.0
  C  C251  1  0.55590000  0.41992000  0.16225000  1.0
  C  C252  1  0.05590000  0.91992000  0.83775000  1.0
  C  C253  1  0.94410000  0.91992000  0.66225000  1.0
  C  C254  1  0.55590000  0.58008000  0.66225000  1.0
  C  C255  1  0.44410000  0.58008000  0.83775000  1.0
  C  C256  1  0.95852000  0.16637000  0.16572000  1.0
  C  C257  1  0.04148000  0.16638000  0.33428000  1.0
  C  C258  1  0.45852000  0.33362000  0.33428000  1.0
  C  C259  1  0.54147000  0.33362000  0.16572000  1.0
  C  C260  1  0.04148000  0.83363000  0.83428000  1.0
  C  C261  1  0.95853000  0.83362000  0.66572000  1.0
  C  C262  1  0.54147000  0.66638000  0.66572000  1.0
  C  C263  1  0.45853000  0.66638000  0.83428000  1.0
  C  C264  1  0.90092000  0.21041000  0.20531000  1.0
  C  C265  1  0.09908000  0.21041000  0.29469000  1.0
  C  C266  1  0.40093000  0.28959000  0.29469000  1.0
  C  C267  1  0.59907000  0.28959000  0.20531000  1.0
  C  C268  1  0.09907000  0.78959000  0.79469000  1.0
  C  C269  1  0.90093000  0.78959000  0.70531000  1.0
  C  C270  1  0.59908000  0.71041000  0.70531000  1.0
  C  C271  1  0.40093000  0.71041000  0.79469000  1.0
  C  C272  1  0.00386000  0.03529000  0.11992000  1.0
  C  C273  1  0.99614000  0.03529000  0.38008000  1.0
  C  C274  1  0.50386000  0.46471000  0.38008000  1.0
  C  C275  1  0.49614000  0.46471000  0.11992000  1.0
  C  C276  1  0.99614000  0.96471000  0.88008000  1.0
  C  C277  1  0.00386000  0.96471000  0.61992000  1.0
  C  C278  1  0.49614000  0.53529000  0.61992000  1.0
  C  C279  1  0.50386000  0.53529000  0.88008000  1.0
  C  C280  1  0.98722000  0.95468000  0.10688000  1.0
  C  C281  1  0.01278000  0.95468000  0.39312000  1.0
  C  C282  1  0.48722000  0.54532000  0.39312000  1.0
  C  C283  1  0.51278000  0.54532000  0.10688000  1.0
  C  C284  1  0.01278000  0.04532000  0.89312000  1.0
  C  C285  1  0.98722000  0.04532000  0.60688000  1.0
  C  C286  1  0.51278000  0.45468000  0.60688000  1.0
  C  C287  1  0.48722000  0.45468000  0.89312000  1.0
  C  C288  1  0.04623000  0.91100000  0.06395000  1.0
  C  C289  1  0.95376000  0.91100000  0.43605000  1.0
  C  C290  1  0.54623000  0.58900000  0.43605000  1.0
  C  C291  1  0.45377000  0.58900000  0.06395000  1.0
  C  C292  1  0.95377000  0.08901000  0.93605000  1.0
  C  C293  1  0.04624000  0.08900000  0.56395000  1.0
  C  C294  1  0.45377000  0.41099000  0.56395000  1.0
  C  C295  1  0.54623000  0.41099000  0.93605000  1.0
  C  C296  1  0.03563000  0.82422000  0.05977000  1.0
  C  C297  1  0.96437000  0.82422000  0.44023000  1.0
  C  C298  1  0.53563000  0.67578000  0.44023000  1.0
  C  C299  1  0.46437000  0.67578000  0.05977000  1.0
  C  C300  1  0.96437000  0.17578000  0.94023000  1.0
  C  C301  1  0.03563000  0.17578000  0.55977000  1.0
  C  C302  1  0.46437000  0.32422000  0.55977000  1.0
  C  C303  1  0.53563000  0.32422000  0.94024000  1.0
  C  C304  1  0.09153000  0.78170000  0.01913000  1.0
  C  C305  1  0.90847000  0.78170000  0.48087000  1.0
  C  C306  1  0.59153000  0.71830000  0.48087000  1.0
  C  C307  1  0.40847000  0.71830000  0.01913000  1.0
  C  C308  1  0.90847000  0.21830000  0.98087000  1.0
  C  C309  1  0.09153000  0.21830000  0.51913000  1.0
  C  C310  1  0.40847000  0.28170000  0.51913000  1.0
  C  C311  1  0.59153000  0.28170000  0.98087000  1.0
  C  C312  1  0.16821000  0.90365000  0.98555000  1.0
  C  C313  1  0.83179000  0.90365000  0.51445000  1.0
  C  C314  1  0.66821000  0.59635000  0.51445000  1.0
  C  C315  1  0.33179000  0.59635000  0.98555000  1.0
  C  C316  1  0.83179000  0.09635000  0.01445000  1.0
  C  C317  1  0.16821000  0.09635000  0.48555000  1.0
  C  C318  1  0.33179000  0.40365000  0.48555000  1.0
  C  C319  1  0.66821000  0.40365000  0.01445000  1.0
  C  C320  1  0.11446000  0.95059000  0.02483000  1.0
  C  C321  1  0.88554000  0.95059000  0.47517000  1.0
  C  C322  1  0.61446000  0.54941000  0.47517000  1.0
  C  C323  1  0.38554000  0.54941000  0.02483000  1.0
  C  C324  1  0.88554000  0.04941000  0.97517000  1.0
  C  C325  1  0.11446000  0.04941000  0.52483000  1.0
  C  C326  1  0.38554000  0.45059000  0.52483000  1.0
  C  C327  1  0.61446000  0.45059000  0.97517000  1.0
  N  N328  1  0.83126000  0.17367000  0.24113000  1.0
  N  N329  1  0.16874000  0.17367000  0.25887000  1.0
  N  N330  1  0.33127000  0.32633000  0.25887000  1.0
  N  N331  1  0.66873000  0.32633000  0.24113000  1.0
  N  N332  1  0.16873000  0.82633000  0.75887000  1.0
  N  N333  1  0.83127000  0.82633000  0.74113000  1.0
  N  N334  1  0.66873000  0.67367000  0.74113000  1.0
  N  N335  1  0.33127000  0.67367000  0.75887000  1.0
  N  N336  1  0.15759000  0.82036000  0.98244000  1.0
  N  N337  1  0.84241000  0.82036000  0.51756000  1.0
  N  N338  1  0.65759000  0.67964000  0.51756000  1.0
  N  N339  1  0.34241000  0.67964000  0.98244000  1.0
  N  N340  1  0.84241000  0.17964000  0.01756000  1.0
  N  N341  1  0.15759000  0.17964000  0.48244000  1.0
  N  N342  1  0.34241000  0.32036000  0.48244000  1.0
  N  N343  1  0.65759000  0.32036000  0.01756000  1.0
  O  O344  1  0.61962000  0.17607000  0.31865000  1.0
  O  O345  1  0.38037000  0.17607000  0.18135000  1.0
  O  O346  1  0.11963000  0.32393000  0.18135000  1.0
  O  O347  1  0.88038000  0.32392000  0.31865000  1.0
  O  O348  1  0.38037000  0.82393000  0.68135000  1.0
  O  O349  1  0.61962000  0.82393000  0.81865000  1.0
  O  O350  1  0.88038000  0.67607000  0.81865000  1.0
  O  O351  1  0.11962000  0.67608000  0.68135000  1.0
  O  O352  1  0.76369000  0.12828000  0.36960000  1.0
  O  O353  1  0.23630000  0.12828000  0.13040000  1.0
  O  O354  1  0.26370000  0.37172000  0.13040000  1.0
  O  O355  1  0.73631000  0.37172000  0.36960000  1.0
  O  O356  1  0.23630000  0.87172000  0.63040000  1.0
  O  O357  1  0.76369000  0.87172000  0.86960000  1.0
  O  O358  1  0.73630000  0.62828000  0.86959000  1.0
  O  O359  1  0.26370000  0.62828000  0.63041000  1.0
  O  O360  1  0.31055000  0.16078000  0.38146000  1.0
  O  O361  1  0.68945000  0.16078000  0.11854000  1.0
  O  O362  1  0.81055000  0.33922000  0.11854000  1.0
  O  O363  1  0.18945000  0.33922000  0.38146000  1.0
  O  O364  1  0.68945000  0.83922000  0.61854000  1.0
  O  O365  1  0.31055000  0.83922000  0.88146000  1.0
  O  O366  1  0.18945000  0.66078000  0.88146000  1.0
  O  O367  1  0.81055000  0.66078000  0.61854000  1.0
  O  O368  1  0.46990000  0.16339000  0.43285000  1.0
  O  O369  1  0.53010000  0.16338000  0.06715000  1.0
  O  O370  1  0.96990000  0.33661000  0.06715000  1.0
  O  O371  1  0.03010000  0.33661000  0.43285000  1.0
  O  O372  1  0.53010000  0.83662000  0.56715000  1.0
  O  O373  1  0.46990000  0.83662000  0.93285000  1.0
  O  O374  1  0.03010000  0.66339000  0.93285000  1.0
  O  O375  1  0.96990000  0.66339000  0.56715000  1.0
