# generated using pymatgen
data_DyH11C9(NO2)4
_symmetry_space_group_name_H-M   'P 1'
_cell_length_a   7.06831000
_cell_length_b   10.93940000
_cell_length_c   10.97150000
_cell_angle_alpha   110.51600000
_cell_angle_beta   101.89200000
_cell_angle_gamma   107.36300000
_symmetry_Int_Tables_number   1
_chemical_formula_structural   DyH11C9(NO2)4
_chemical_formula_sum   'Dy2 H22 C18 N8 O16'
_cell_volume   711.07015297
_cell_formula_units_Z   2
loop_
 _symmetry_equiv_pos_site_id
 _symmetry_equiv_pos_as_xyz
  1  'x, y, z'
loop_
 _atom_site_type_symbol
 _atom_site_label
 _atom_site_symmetry_multiplicity
 _atom_site_fract_x
 _atom_site_fract_y
 _atom_site_fract_z
 _atom_site_occupancy
  Dy  Dy0  1  0.71064000  0.78259000  0.68302000  1.0
  Dy  Dy1  1  0.28936000  0.21741000  0.31698000  1.0
  H  H2  1  0.30666000  0.79829000  0.70880000  1.0
  H  H3  1  0.69336000  0.20172000  0.29121000  1.0
  H  H4  1  0.32137000  0.67673000  0.74816000  1.0
  H  H5  1  0.67863000  0.32327000  0.25185000  1.0
  H  H6  1  0.82774000  0.95306000  0.54227000  1.0
  H  H7  1  0.17224000  0.04694000  0.45773000  1.0
  H  H8  1  0.91033000  0.83352000  0.47714000  1.0
  H  H9  1  0.08965000  0.16648000  0.52286000  1.0
  H  H10  1  0.95284000  0.63984000  0.53715000  1.0
  H  H11  1  0.04716000  0.36016000  0.46285000  1.0
  H  H12  1  0.99705000  0.62855000  0.68240000  1.0
  H  H13  1  0.00295000  0.37145000  0.31760000  1.0
  H  H14  1  0.83300000  0.72013000  0.89965000  1.0
  H  H15  1  0.16700000  0.27987000  0.10036000  1.0
  H  H16  1  0.00921000  0.87829000  0.99990000  1.0
  H  H17  1  0.99079000  0.12172000  0.00010000  1.0
  H  H18  1  0.41912000  0.82015000  0.39180000  1.0
  H  H19  1  0.58088000  0.17985000  0.60821000  1.0
  H  H20  1  0.31900000  0.42706000  0.05506000  1.0
  H  H21  1  0.68100000  0.57292000  0.94494000  1.0
  H  H22  1  0.20407000  0.75687000  0.96863000  1.0
  H  H23  1  0.79595000  0.24312000  0.03138000  1.0
  C  C24  1  0.42782000  0.55747000  0.33505000  1.0
  C  C25  1  0.57220000  0.44254000  0.66497000  1.0
  C  C26  1  0.37270000  0.61639000  0.23459000  1.0
  C  C27  1  0.62727000  0.38360000  0.76541000  1.0
  C  C28  1  0.37511000  0.75359000  0.28130000  1.0
  C  C29  1  0.62489000  0.24642000  0.71869000  1.0
  C  C30  1  0.31352000  0.53171000  0.09250000  1.0
  C  C31  1  0.68649000  0.46830000  0.90749000  1.0
  C  C32  1  0.31313000  0.80315000  0.18478000  1.0
  C  C33  1  0.68688000  0.19685000  0.81520000  1.0
  C  C34  1  0.25074000  0.58030000  0.99545000  1.0
  C  C35  1  0.74925000  0.41971000  0.00455000  1.0
  C  C36  1  0.30518000  0.94621000  0.23478000  1.0
  C  C37  1  0.69481000  0.05379000  0.76522000  1.0
  C  C38  1  0.25169000  0.71716000  0.04264000  1.0
  C  C39  1  0.74830000  0.28283000  0.95735000  1.0
  C  C40  1  0.17924000  0.48533000  0.84773000  1.0
  C  C41  1  0.82077000  0.51466000  0.15227000  1.0
  N  N42  1  0.15453000  0.34787000  0.79718000  1.0
  N  N43  1  0.84548000  0.65213000  0.20283000  1.0
  N  N44  1  0.12774000  0.52134000  0.74284000  1.0
  N  N45  1  0.87226000  0.47865000  0.25716000  1.0
  N  N46  1  0.08691000  0.29977000  0.65951000  1.0
  N  N47  1  0.91308000  0.70024000  0.34049000  1.0
  N  N48  1  0.07098000  0.40246000  0.62653000  1.0
  N  N49  1  0.92901000  0.59754000  0.37346000  1.0
  O  O50  1  0.49519000  0.63938000  0.46390000  1.0
  O  O51  1  0.50480000  0.36063000  0.53611000  1.0
  O  O52  1  0.40925000  0.76569000  0.74622000  1.0
  O  O53  1  0.59075000  0.23431000  0.25379000  1.0
  O  O54  1  0.89968000  0.89690000  0.56646000  1.0
  O  O55  1  0.10031000  0.10310000  0.43353000  1.0
  O  O56  1  0.96205000  0.68739000  0.63767000  1.0
  O  O57  1  0.03796000  0.31261000  0.36234000  1.0
  O  O58  1  0.90385000  0.81337000  0.90309000  1.0
  O  O59  1  0.09615000  0.18663000  0.09691000  1.0
  O  O60  1  0.59970000  0.57312000  0.71572000  1.0
  O  O61  1  0.40030000  0.42687000  0.28428000  1.0
  O  O62  1  0.57875000  0.95731000  0.64331000  1.0
  O  O63  1  0.42126000  0.04269000  0.35670000  1.0
  O  O64  1  0.82048000  0.02656000  0.84520000  1.0
  O  O65  1  0.17953000  0.97343000  0.15479000  1.0
