# generated using pymatgen
data_LaH16C24N2O7
_symmetry_space_group_name_H-M   'P 1'
_cell_length_a   10.31590000
_cell_length_b   10.71550000
_cell_length_c   11.33950000
_cell_angle_alpha   109.13900000
_cell_angle_beta   93.49070000
_cell_angle_gamma   110.42700000
_symmetry_Int_Tables_number   1
_chemical_formula_structural   LaH16C24N2O7
_chemical_formula_sum   'La2 H32 C48 N4 O14'
_cell_volume   1087.74442920
_cell_formula_units_Z   2
loop_
 _symmetry_equiv_pos_site_id
 _symmetry_equiv_pos_as_xyz
  1  'x, y, z'
loop_
 _atom_site_type_symbol
 _atom_site_label
 _atom_site_symmetry_multiplicity
 _atom_site_fract_x
 _atom_site_fract_y
 _atom_site_fract_z
 _atom_site_occupancy
  La  La0  1  0.59098000  0.49177000  0.33631000  1.0
  La  La1  1  0.40902000  0.50823000  0.66369000  1.0
  H  H2  1  0.04211000  0.15079000  0.11938000  1.0
  H  H3  1  0.95788000  0.84921000  0.88062000  1.0
  H  H4  1  0.82814000  0.92468000  0.06188000  1.0
  H  H5  1  0.17185000  0.07532000  0.93811000  1.0
  H  H6  1  0.96856000  0.86645000  0.39680000  1.0
  H  H7  1  0.03144000  0.13355000  0.60320000  1.0
  H  H8  1  0.17939000  0.09690000  0.45918000  1.0
  H  H9  1  0.82061000  0.90309000  0.54081000  1.0
  H  H10  1  0.39113000  0.16771000  0.61292000  1.0
  H  H11  1  0.60888000  0.83228000  0.38708000  1.0
  H  H12  1  0.66142000  0.06508000  0.35638000  1.0
  H  H13  1  0.33858000  0.93492000  0.64363000  1.0
  H  H14  1  0.40412000  0.19602000  0.06315000  1.0
  H  H15  1  0.59588000  0.80398000  0.93686000  1.0
  H  H16  1  0.41484000  0.02588000  0.85452000  1.0
  H  H17  1  0.58516000  0.97413000  0.14548000  1.0
  H  H18  1  0.65109000  0.05604000  0.79431000  1.0
  H  H19  1  0.34891000  0.94396000  0.20569000  1.0
  H  H20  1  0.91275000  0.18668000  0.85451000  1.0
  H  H21  1  0.08725000  0.81332000  0.14549000  1.0
  H  H22  1  0.12607000  0.36446000  0.01709000  1.0
  H  H23  1  0.87393000  0.63555000  0.98291000  1.0
  H  H24  1  0.23339000  0.54423000  0.23920000  1.0
  H  H25  1  0.76661000  0.45577000  0.76080000  1.0
  H  H26  1  0.19425000  0.68219000  0.45234000  1.0
  H  H27  1  0.80575000  0.31781000  0.54767000  1.0
  H  H28  1  0.94857000  0.65004000  0.48161000  1.0
  H  H29  1  0.05144000  0.34996000  0.51839000  1.0
  H  H30  1  0.52364000  0.57978000  0.12142000  1.0
  H  H31  1  0.47636000  0.42022000  0.87859000  1.0
  H  H32  1  0.39147000  0.43267000  0.07386000  1.0
  H  H33  1  0.60852000  0.56734000  0.92615000  1.0
  C  C34  1  0.24801000  0.28079000  0.34053000  1.0
  C  C35  1  0.75199000  0.71921000  0.65947000  1.0
  C  C36  1  0.12358000  0.13894000  0.29386000  1.0
  C  C37  1  0.87642000  0.86105000  0.70614000  1.0
  C  C38  1  0.02581000  0.08904000  0.18072000  1.0
  C  C39  1  0.97418000  0.91096000  0.81928000  1.0
  C  C40  1  0.90561000  0.96287000  0.14878000  1.0
  C  C41  1  0.09438000  0.03713000  0.85121000  1.0
  C  C42  1  0.88342000  0.88348000  0.22779000  1.0
  C  C43  1  0.11657000  0.11652000  0.77220000  1.0
  C  C44  1  0.75389000  0.74968000  0.19874000  1.0
  C  C45  1  0.24610000  0.25033000  0.80126000  1.0
  C  C46  1  0.98500000  0.93069000  0.33783000  1.0
  C  C47  1  0.01499000  0.06931000  0.66217000  1.0
  C  C48  1  0.10300000  0.05791000  0.37145000  1.0
  C  C49  1  0.89700000  0.94209000  0.62854000  1.0
  C  C50  1  0.55698000  0.26374000  0.45769000  1.0
  C  C51  1  0.44302000  0.73625000  0.54231000  1.0
  C  C52  1  0.52867000  0.12888000  0.48192000  1.0
  C  C53  1  0.47133000  0.87111000  0.51808000  1.0
  C  C54  1  0.43835000  0.09384000  0.56387000  1.0
  C  C55  1  0.56165000  0.90615000  0.43613000  1.0
  C  C56  1  0.59058000  0.03491000  0.41878000  1.0
  C  C57  1  0.40942000  0.96508000  0.58122000  1.0
  C  C58  1  0.50524000  0.20427000  0.03527000  1.0
  C  C59  1  0.49477000  0.79574000  0.96473000  1.0
  C  C60  1  0.51169000  0.10975000  0.91782000  1.0
  C  C61  1  0.48831000  0.89025000  0.08218000  1.0
  C  C62  1  0.64165000  0.12586000  0.88531000  1.0
  C  C63  1  0.35834000  0.87414000  0.11469000  1.0
  C  C64  1  0.76503000  0.23298000  0.97261000  1.0
  C  C65  1  0.23497000  0.76702000  0.02738000  1.0
  C  C66  1  0.90336000  0.25306000  0.94697000  1.0
  C  C67  1  0.09664000  0.74694000  0.05303000  1.0
  C  C68  1  0.02076000  0.35121000  0.03655000  1.0
  C  C69  1  0.97924000  0.64879000  0.96346000  1.0
  C  C70  1  0.00863000  0.43650000  0.15906000  1.0
  C  C71  1  0.99137000  0.56350000  0.84094000  1.0
  C  C72  1  0.12760000  0.53287000  0.25670000  1.0
  C  C73  1  0.87240000  0.46713000  0.74330000  1.0
  C  C74  1  0.10676000  0.60915000  0.37318000  1.0
  C  C75  1  0.89324000  0.39085000  0.62683000  1.0
  C  C76  1  0.96869000  0.59090000  0.39100000  1.0
  C  C77  1  0.03131000  0.40910000  0.60901000  1.0
  C  C78  1  0.87249000  0.42335000  0.18636000  1.0
  C  C79  1  0.12751000  0.57665000  0.81364000  1.0
  C  C80  1  0.74857000  0.32068000  0.09091000  1.0
  C  C81  1  0.25143000  0.67932000  0.90910000  1.0
  N  N82  1  0.61910000  0.30771000  0.11865000  1.0
  N  N83  1  0.38091000  0.69229000  0.88136000  1.0
  N  N84  1  0.85446000  0.50135000  0.30092000  1.0
  N  N85  1  0.14555000  0.49865000  0.69908000  1.0
  O  O86  1  0.33793000  0.30496000  0.27064000  1.0
  O  O87  1  0.66207000  0.69505000  0.72937000  1.0
  O  O88  1  0.44999000  0.51452000  0.15174000  1.0
  O  O89  1  0.55002000  0.48548000  0.84826000  1.0
  O  O90  1  0.67363000  0.69071000  0.08949000  1.0
  O  O91  1  0.32637000  0.30929000  0.91051000  1.0
  O  O92  1  0.72961000  0.70344000  0.28923000  1.0
  O  O93  1  0.27039000  0.29656000  0.71077000  1.0
  O  O94  1  0.62205000  0.28065000  0.36898000  1.0
  O  O95  1  0.37795000  0.71934000  0.63102000  1.0
  O  O96  1  0.25420000  0.36621000  0.45162000  1.0
  O  O97  1  0.74579000  0.63379000  0.54838000  1.0
  O  O98  1  0.51360000  0.35708000  0.52538000  1.0
  O  O99  1  0.48639000  0.64291000  0.47462000  1.0
