# generated using pymatgen
data_ZnH6C17N5O6
_symmetry_space_group_name_H-M   'P 1'
_cell_length_a   10.99290000
_cell_length_b   13.14540000
_cell_length_c   14.31240000
_cell_angle_alpha   89.83410000
_cell_angle_beta   89.88530000
_cell_angle_gamma   89.32220000
_symmetry_Int_Tables_number   1
_chemical_formula_structural   ZnH6C17N5O6
_chemical_formula_sum   'Zn2 H12 C34 N10 O12'
_cell_volume   2068.07125187
_cell_formula_units_Z   2
loop_
 _symmetry_equiv_pos_site_id
 _symmetry_equiv_pos_as_xyz
  1  'x, y, z'
loop_
 _atom_site_type_symbol
 _atom_site_label
 _atom_site_symmetry_multiplicity
 _atom_site_fract_x
 _atom_site_fract_y
 _atom_site_fract_z
 _atom_site_occupancy
  Zn  Zn0  1  0.49996000  0.39128000  0.50863000  1.0
  Zn  Zn1  1  0.50053000  0.60600000  0.49502000  1.0
  H  H2  1  0.21600000  0.66991000  0.76466000  1.0
  H  H3  1  0.90520000  0.82411000  0.56376000  1.0
  H  H4  1  0.94721000  0.76008000  0.67028000  1.0
  H  H5  1  0.79191000  0.79657000  0.65059000  1.0
  H  H6  1  0.28598000  0.69372000  0.65299000  1.0
  H  H7  1  0.26955000  0.56630000  0.69618000  1.0
  H  H8  1  0.10592000  0.82741000  0.45761000  1.0
  H  H9  1  0.23808000  0.75417000  0.49015000  1.0
  H  H10  1  0.13847000  0.80609000  0.57889000  1.0
  H  H11  1  0.72881000  0.60265000  0.69650000  1.0
  H  H12  1  0.83375000  0.64137000  0.78530000  1.0
  H  H13  1  0.78662000  0.51127000  0.77930000  1.0
  C  C14  1  0.49675000  0.48676000  0.32509000  1.0
  C  C15  1  0.73443000  0.49810000  0.51070000  1.0
  C  C16  1  0.49930000  0.50675000  0.68093000  1.0
  C  C17  1  0.07507000  0.41088000  0.57603000  1.0
  C  C18  1  0.07212000  0.50727000  0.41780000  1.0
  C  C19  1  0.92848000  0.40008000  0.55862000  1.0
  C  C20  1  0.92585000  0.52653000  0.41777000  1.0
  C  C21  1  0.06518000  0.60906000  0.57092000  1.0
  C  C22  1  0.91949000  0.59016000  0.58908000  1.0
  C  C23  1  0.12116000  0.50891000  0.52280000  1.0
  C  C24  1  0.87552000  0.50400000  0.51948000  1.0
  C  C25  1  0.49871000  0.49854000  0.96000000  1.0
  C  C26  1  0.49732000  0.48180000  0.22493000  1.0
  C  C27  1  0.49767000  0.48560000  0.13934000  1.0
  C  C28  1  0.49816000  0.49139000  0.04595000  1.0
  C  C29  1  0.10433000  0.41931000  0.67629000  1.0
  C  C30  1  0.13293000  0.58325000  0.35875000  1.0
  C  C31  1  0.87084000  0.36889000  0.64724000  1.0
  C  C32  1  0.89507000  0.63058000  0.38558000  1.0
  C  C33  1  0.13471000  0.31301000  0.55138000  1.0
  C  C34  1  0.10181000  0.40985000  0.37182000  1.0
  C  C35  1  0.90301000  0.31389000  0.49613000  1.0
  C  C36  1  0.49948000  0.50502000  0.86665000  1.0
  C  C37  1  0.86744000  0.46196000  0.34709000  1.0
  C  C38  1  0.22807000  0.64228000  0.69302000  1.0
  C  C39  1  0.14356000  0.77319000  0.50853000  1.0
  C  C40  1  0.80788000  0.57934000  0.73824000  1.0
  C  C41  1  0.87624000  0.76943000  0.61718000  1.0
  C  C42  1  0.50037000  0.51017000  0.78101000  1.0
  C  C43  1  0.50982000  0.85043000  0.48813000  1.0
  C  C44  1  0.50169000  0.14847000  0.50154000  1.0
  C  C45  1  0.50890000  0.95325000  0.48954000  1.0
  C  C46  1  0.50543000  0.04596000  0.49411000  1.0
  C  C47  1  0.26238000  0.50841000  0.51320000  1.0
  N  N48  1  0.50830000  0.76176000  0.48921000  1.0
  N  N49  1  0.81698000  0.41688000  0.28925000  1.0
  N  N50  1  0.49870000  0.23656000  0.50958000  1.0
  N  N51  1  0.13889000  0.41821000  0.75316000  1.0
  N  N52  1  0.18391000  0.63484000  0.30555000  1.0
  N  N53  1  0.83026000  0.33186000  0.71436000  1.0
  N  N54  1  0.86971000  0.70727000  0.34922000  1.0
  N  N55  1  0.17175000  0.22996000  0.54437000  1.0
  N  N56  1  0.12717000  0.33630000  0.33063000  1.0
  N  N57  1  0.87972000  0.24164000  0.45315000  1.0
  O  O58  1  0.51863000  0.40457000  0.37012000  1.0
  O  O59  1  0.06850000  0.68549000  0.50118000  1.0
  O  O60  1  0.91076000  0.55223000  0.68067000  1.0
  O  O61  1  0.84821000  0.67488000  0.57167000  1.0
  O  O62  1  0.47408000  0.57424000  0.35955000  1.0
  O  O63  1  0.31119000  0.42281000  0.49814000  1.0
  O  O64  1  0.31381000  0.59367000  0.51619000  1.0
  O  O65  1  0.68556000  0.41559000  0.53512000  1.0
  O  O66  1  0.68244000  0.57554000  0.47645000  1.0
  O  O67  1  0.47355000  0.42101000  0.64529000  1.0
  O  O68  1  0.52328000  0.58885000  0.63641000  1.0
  O  O69  1  0.10583000  0.63894000  0.65748000  1.0
