# generated using pymatgen
data_Zn2H12C15O8
_symmetry_space_group_name_H-M   'P 1'
_cell_length_a   15.95510000
_cell_length_b   16.32267024
_cell_length_c   17.20690000
_cell_angle_alpha   65.12407076
_cell_angle_beta   64.31800000
_cell_angle_gamma   62.04364751
_symmetry_Int_Tables_number   1
_chemical_formula_structural   Zn2H12C15O8
_chemical_formula_sum   'Zn8 H48 C60 O32'
_cell_volume   3431.51547716
_cell_formula_units_Z   4
loop_
 _symmetry_equiv_pos_site_id
 _symmetry_equiv_pos_as_xyz
  1  'x, y, z'
loop_
 _atom_site_type_symbol
 _atom_site_label
 _atom_site_symmetry_multiplicity
 _atom_site_fract_x
 _atom_site_fract_y
 _atom_site_fract_z
 _atom_site_occupancy
  Zn  Zn0  1  0.93935000  0.96108000  0.97665000  1.0
  Zn  Zn1  1  0.95513000  0.95564000  0.14888000  1.0
  Zn  Zn2  1  0.91720000  0.15836000  0.99013000  1.0
  Zn  Zn3  1  0.13101000  0.98400000  0.96646000  1.0
  Zn  Zn4  1  0.55499000  0.57152000  0.56083000  1.0
  Zn  Zn5  1  0.52920000  0.55464000  0.39277000  1.0
  Zn  Zn6  1  0.34545000  0.59349000  0.56704000  1.0
  Zn  Zn7  1  0.51714000  0.38719000  0.58282000  1.0
  H  H8  1  0.92532000  0.71815000  0.22832000  1.0
  H  H9  1  0.91054000  0.61245000  0.23495000  1.0
  H  H10  1  0.87295000  0.72295000  0.15203000  1.0
  H  H11  1  0.45305000  0.86024000  0.35025000  1.0
  H  H12  1  0.40232000  0.03148000  0.19351000  1.0
  H  H13  1  0.45198000  0.10742000  0.19600000  1.0
  H  H14  1  0.38042000  0.04802000  0.29684000  1.0
  H  H15  1  0.62993000  0.02685000  0.14106000  1.0
  H  H16  1  0.68039000  0.22114000  0.93379000  1.0
  H  H17  1  0.58045000  0.23484000  0.90145000  1.0
  H  H18  1  0.69859000  0.14212000  0.87548000  1.0
  H  H19  1  0.86297000  0.33561000  0.50854000  1.0
  H  H20  1  0.04944000  0.15862000  0.48457000  1.0
  H  H21  1  0.11429000  0.16674000  0.54130000  1.0
  H  H22  1  0.05538000  0.27123000  0.46599000  1.0
  H  H23  1  0.02040000  0.11899000  0.69791000  1.0
  H  H24  1  0.19381000  0.94545000  0.75542000  1.0
  H  H25  1  0.20227000  0.92646000  0.65626000  1.0
  H  H26  1  0.12026000  0.88509000  0.76182000  1.0
  H  H27  1  0.36611000  0.48489000  0.84697000  1.0
  H  H28  1  0.21757000  0.42656000  0.00686000  1.0
  H  H29  1  0.20042000  0.47903000  0.08697000  1.0
  H  H30  1  0.32204000  0.41427000  0.02911000  1.0
  H  H31  1  0.14122000  0.65114000  0.03106000  1.0
  H  H32  1  0.86921000  0.29889000  0.13547000  1.0
  H  H33  1  0.89458000  0.32627000  0.21178000  1.0
  H  H34  1  0.90033000  0.20657000  0.23358000  1.0
  H  H35  1  0.48887000  0.24301000  0.45014000  1.0
  H  H36  1  0.48655000  0.07173000  0.47126000  1.0
  H  H37  1  0.53954000  0.03384000  0.37193000  1.0
  H  H38  1  0.43571000  0.14219000  0.38041000  1.0
  H  H39  1  0.68251000  0.07150000  0.26493000  1.0
  H  H40  1  0.24244000  0.63056000  0.34565000  1.0
  H  H41  1  0.27068000  0.60100000  0.24565000  1.0
  H  H42  1  0.36837000  0.59721000  0.27449000  1.0
  H  H43  1  0.25245000  0.87017000  0.41829000  1.0
  H  H44  1  0.07318000  0.09482000  0.35653000  1.0
  H  H45  1  0.18780000  0.11211000  0.28926000  1.0
  H  H46  1  0.17405000  0.03965000  0.40207000  1.0
  H  H47  1  0.12719000  0.04803000  0.19948000  1.0
  H  H48  1  0.28404000  0.12110000  0.89435000  1.0
  H  H49  1  0.30792000  0.19220000  0.93293000  1.0
  H  H50  1  0.18279000  0.21363000  0.94467000  1.0
  H  H51  1  0.19458000  0.45743000  0.56305000  1.0
  H  H52  1  0.98213000  0.38782000  0.60206000  1.0
  H  H53  1  0.09671000  0.37184000  0.51559000  1.0
  H  H54  1  0.03124000  0.48269000  0.54404000  1.0
  H  H55  1  0.02597000  0.27228000  0.73729000  1.0
  C  C56  1  0.87849000  0.69124000  0.22090000  1.0
  C  C57  1  0.70558000  0.79454000  0.26708000  1.0
  C  C58  1  0.61094000  0.78840000  0.31846000  1.0
  C  C59  1  0.52505000  0.86763000  0.30854000  1.0
  C  C60  1  0.52941000  0.95525000  0.24435000  1.0
  C  C61  1  0.43629000  0.04007000  0.23200000  1.0
  C  C62  1  0.62309000  0.96008000  0.19180000  1.0
  C  C63  1  0.71124000  0.88246000  0.20348000  1.0
  C  C64  1  0.80446000  0.90401000  0.14962000  1.0
  C  C65  1  0.60167000  0.69391000  0.38219000  1.0
  C  C66  1  0.66099000  0.21605000  0.88246000  1.0
  C  C67  1  0.77562000  0.26002000  0.73660000  1.0
  C  C68  1  0.77684000  0.30945000  0.64662000  1.0
  C  C69  1  0.86512000  0.29393000  0.57707000  1.0
  C  C70  1  0.95448000  0.22429000  0.59340000  1.0
  C  C71  1  0.04843000  0.20420000  0.51751000  1.0
  C  C72  1  0.95230000  0.17350000  0.68225000  1.0
  C  C73  1  0.86551000  0.19219000  0.75418000  1.0
  C  C74  1  0.87875000  0.13983000  0.84545000  1.0
  C  C75  1  0.68249000  0.37679000  0.62302000  1.0
  C  C76  1  0.19214000  0.89600000  0.72867000  1.0
  C  C77  1  0.26153000  0.72936000  0.81099000  1.0
  C  C78  1  0.32025000  0.63858000  0.79427000  1.0
  C  C79  1  0.31859000  0.55383000  0.86272000  1.0
  C  C80  1  0.25369000  0.55602000  0.94935000  1.0
  C  C81  1  0.24819000  0.46428000  0.02197000  1.0
  C  C82  1  0.19312000  0.64607000  0.96475000  1.0
  C  C83  1  0.19818000  0.73248000  0.89807000  1.0
  C  C84  1  0.13621000  0.82306000  0.92633000  1.0
  C  C85  1  0.37625000  0.63220000  0.70000000  1.0
  C  C86  1  0.86184000  0.28382000  0.20620000  1.0
  C  C87  1  0.70322000  0.26013000  0.28463000  1.0
  C  C88  1  0.61587000  0.28013000  0.35674000  1.0
  C  C89  1  0.55384000  0.22680000  0.39294000  1.0
  C  C90  1  0.57441000  0.15259000  0.35943000  1.0
  C  C91  1  0.50574000  0.09691000  0.39773000  1.0
  C  C92  1  0.66200000  0.13147000  0.29036000  1.0
  C  C93  1  0.72626000  0.18393000  0.25187000  1.0
  C  C94  1  0.81600000  0.14805000  0.17858000  1.0
  C  C95  1  0.58859000  0.35502000  0.40059000  1.0
  C  C96  1  0.29012000  0.63441000  0.27591000  1.0
  C  C97  1  0.24961000  0.80423000  0.25673000  1.0
  C  C98  1  0.27164000  0.79610000  0.33102000  1.0
  C  C99  1  0.23785000  0.87940000  0.35821000  1.0
  C  C100  1  0.18849000  0.97099000  0.31151000  1.0
  C  C101  1  0.15431000  0.05882000  0.34141000  1.0
  C  C102  1  0.16880000  0.97814000  0.23656000  1.0
  C  C103  1  0.19591000  0.89645000  0.21146000  1.0
  C  C104  1  0.15436000  0.90736000  0.14316000  1.0
  C  C105  1  0.33075000  0.70584000  0.38542000  1.0
  C  C106  1  0.26030000  0.19298000  0.90185000  1.0
  C  C107  1  0.21697000  0.28996000  0.76289000  1.0
  C  C108  1  0.23454000  0.36325000  0.68259000  1.0
  C  C109  1  0.17944000  0.39987000  0.62321000  1.0
  C  C110  1  0.10586000  0.36628000  0.63929000  1.0
  C  C111  1  0.05068000  0.40419000  0.57214000  1.0
  C  C112  1  0.08598000  0.29730000  0.72022000  1.0
  C  C113  1  0.14000000  0.25827000  0.78178000  1.0
  C  C114  1  0.10563000  0.18468000  0.86379000  1.0
  C  C115  1  0.30975000  0.40764000  0.65626000  1.0
  O  O116  1  0.98684000  0.01942000  0.02063000  1.0
  O  O117  1  0.78238000  0.71157000  0.28551000  1.0
  O  O118  1  0.86235000  0.88798000  0.19170000  1.0
  O  O119  1  0.81658000  0.94199000  0.06546000  1.0
  O  O120  1  0.61539000  0.63139000  0.34793000  1.0
  O  O121  1  0.57719000  0.68609000  0.46538000  1.0
  O  O122  1  0.68552000  0.28461000  0.79840000  1.0
  O  O123  1  0.85440000  0.18945000  0.89770000  1.0
  O  O124  1  0.91843000  0.04799000  0.86169000  1.0
  O  O125  1  0.61858000  0.33989000  0.64229000  1.0
  O  O126  1  0.67678000  0.46406000  0.58222000  1.0
  O  O127  1  0.27328000  0.80620000  0.73874000  1.0
  O  O128  1  0.18054000  0.87745000  0.91377000  1.0
  O  O129  1  0.04353000  0.83680000  0.96362000  1.0
  O  O130  1  0.32311000  0.66138000  0.64901000  1.0
  O  O131  1  0.47054000  0.59456000  0.67937000  1.0
  O  O132  1  0.76000000  0.31406000  0.25829000  1.0
  O  O133  1  0.82113000  0.20031000  0.09763000  1.0
  O  O134  1  0.87714000  0.06440000  0.20373000  1.0
  O  O135  1  0.57184000  0.32543000  0.48530000  1.0
  O  O136  1  0.58091000  0.44109000  0.35114000  1.0
  O  O137  1  0.27218000  0.73255000  0.22231000  1.0
  O  O138  1  0.18872000  0.95050000  0.06186000  1.0
  O  O139  1  0.08242000  0.87659000  0.17412000  1.0
  O  O140  1  0.29059000  0.69030000  0.47010000  1.0
  O  O141  1  0.41610000  0.65562000  0.34479000  1.0
  O  O142  1  0.27270000  0.26318000  0.81680000  1.0
  O  O143  1  0.15989000  0.09605000  0.86968000  1.0
  O  O144  1  0.02078000  0.21739000  0.91789000  1.0
  O  O145  1  0.27804000  0.49964000  0.62785000  1.0
  O  O146  1  0.39794000  0.35316000  0.65950000  1.0
  O  O147  1  0.48762000  0.52536000  0.52342000  1.0
