# generated using pymatgen
data_RbH7C15N4O
_symmetry_space_group_name_H-M   'P 1'
_cell_length_a   8.37400000
_cell_length_b   9.93541000
_cell_length_c   17.04980000
_cell_angle_alpha   89.99990000
_cell_angle_beta   83.44400000
_cell_angle_gamma   89.99990000
_symmetry_Int_Tables_number   1
_chemical_formula_structural   RbH7C15N4O
_chemical_formula_sum   'Rb4 H28 C60 N16 O4'
_cell_volume   1409.25228427
_cell_formula_units_Z   4
loop_
 _symmetry_equiv_pos_site_id
 _symmetry_equiv_pos_as_xyz
  1  'x, y, z'
loop_
 _atom_site_type_symbol
 _atom_site_label
 _atom_site_symmetry_multiplicity
 _atom_site_fract_x
 _atom_site_fract_y
 _atom_site_fract_z
 _atom_site_occupancy
  Rb  Rb0  1  0.86345000  0.87001000  0.41657000  1.0
  Rb  Rb1  1  0.63655000  0.37002000  0.58343000  1.0
  Rb  Rb2  1  0.13654000  0.12998000  0.58343000  1.0
  Rb  Rb3  1  0.36345000  0.62998000  0.41657000  1.0
  H  H4  1  0.48470000  0.07710000  0.16287000  1.0
  H  H5  1  0.01530000  0.57709000  0.83713000  1.0
  H  H6  1  0.51530000  0.92290000  0.83713000  1.0
  H  H7  1  0.98470000  0.42291000  0.16287000  1.0
  H  H8  1  0.64807000  0.96113000  0.05374000  1.0
  H  H9  1  0.85193000  0.46112000  0.94626000  1.0
  H  H10  1  0.35193000  0.03887000  0.94626000  1.0
  H  H11  1  0.14806000  0.53888000  0.05374000  1.0
  H  H12  1  0.43250000  0.58222000  0.12943000  1.0
  H  H13  1  0.06750000  0.08221000  0.87056000  1.0
  H  H14  1  0.56750000  0.41778000  0.87057000  1.0
  H  H15  1  0.93249000  0.91779000  0.12944000  1.0
  H  H16  1  0.25945000  0.69856000  0.23541000  1.0
  H  H17  1  0.24055000  0.19856000  0.76459000  1.0
  H  H18  1  0.74055000  0.30144000  0.76459000  1.0
  H  H19  1  0.75945000  0.80144000  0.23541000  1.0
  H  H20  1  0.70065000  0.59783000  0.04126000  1.0
  H  H21  1  0.79935000  0.09783000  0.95874000  1.0
  H  H22  1  0.29935000  0.40217000  0.95874000  1.0
  H  H23  1  0.20065000  0.90217000  0.04126000  1.0
  H  H24  1  0.75436000  0.75424000  0.99316000  1.0
  H  H25  1  0.74564000  0.25424000  0.00684000  1.0
  H  H26  1  0.24564000  0.24576000  0.00684000  1.0
  H  H27  1  0.25436000  0.74576000  0.99316000  1.0
  H  H28  1  0.58113000  0.66513000  0.97121000  1.0
  H  H29  1  0.91887000  0.16512000  0.02879000  1.0
  H  H30  1  0.41887000  0.33487000  0.02879000  1.0
  H  H31  1  0.08113000  0.83488000  0.97121000  1.0
  C  C32  1  0.29865000  0.10220000  0.29781000  1.0
  C  C33  1  0.20136000  0.60220000  0.70219000  1.0
  C  C34  1  0.70135000  0.89780000  0.70219000  1.0
  C  C35  1  0.79864000  0.39780000  0.29781000  1.0
  C  C36  1  0.26675000  0.95675000  0.27550000  1.0
  C  C37  1  0.23325000  0.45675000  0.72450000  1.0
  C  C38  1  0.73325000  0.04325000  0.72450000  1.0
  C  C39  1  0.76675000  0.54325000  0.27550000  1.0
  C  C40  1  0.38192000  0.11621000  0.36494000  1.0
  C  C41  1  0.11808000  0.61621000  0.63505000  1.0
  C  C42  1  0.61808000  0.88379000  0.63505000  1.0
  C  C43  1  0.88192000  0.38379000  0.36494000  1.0
  C  C44  1  0.23756000  0.20474000  0.25363000  1.0
  C  C45  1  0.26244000  0.70474000  0.74636000  1.0
  C  C46  1  0.76244000  0.79526000  0.74637000  1.0
  C  C47  1  0.73756000  0.29526000  0.25364000  1.0
  C  C48  1  0.15350000  0.17459000  0.18830000  1.0
  C  C49  1  0.34651000  0.67459000  0.81169000  1.0
  C  C50  1  0.84650000  0.82541000  0.81170000  1.0
  C  C51  1  0.65349000  0.32540000  0.18830000  1.0
  C  C52  1  0.25699000  0.34298000  0.26983000  1.0
  C  C53  1  0.24301000  0.84298000  0.73016000  1.0
  C  C54  1  0.74301000  0.65703000  0.73017000  1.0
  C  C55  1  0.75699000  0.15702000  0.26983000  1.0
  C  C56  1  0.40812000  0.23768000  0.40443000  1.0
  C  C57  1  0.09188000  0.73768000  0.59557000  1.0
  C  C58  1  0.59189000  0.76232000  0.59557000  1.0
  C  C59  1  0.90812000  0.26231000  0.40443000  1.0
  C  C60  1  0.44699000  0.00056000  0.39735000  1.0
  C  C61  1  0.05301000  0.50056000  0.60265000  1.0
  C  C62  1  0.55301000  0.99944000  0.60265000  1.0
  C  C63  1  0.94699000  0.49944000  0.39735000  1.0
  C  C64  1  0.36090000  0.89543000  0.20742000  1.0
  C  C65  1  0.13910000  0.39543000  0.79258000  1.0
  C  C66  1  0.63910000  0.10457000  0.79258000  1.0
  C  C67  1  0.86090000  0.60457000  0.20742000  1.0
  C  C68  1  0.47110000  0.96899000  0.15531000  1.0
  C  C69  1  0.02890000  0.46899000  0.84469000  1.0
  C  C70  1  0.52890000  0.03101000  0.84469000  1.0
  C  C71  1  0.97110000  0.53101000  0.15531000  1.0
  C  C72  1  0.56301000  0.90369000  0.09381000  1.0
  C  C73  1  0.93699000  0.40369000  0.90619000  1.0
  C  C74  1  0.43699000  0.09631000  0.90619000  1.0
  C  C75  1  0.06300000  0.59631000  0.09381000  1.0
  C  C76  1  0.55180000  0.76367000  0.08357000  1.0
  C  C77  1  0.94819000  0.26367000  0.91643000  1.0
  C  C78  1  0.44820000  0.23633000  0.91643000  1.0
  C  C79  1  0.05180000  0.73633000  0.08357000  1.0
  C  C80  1  0.44160000  0.69104000  0.13599000  1.0
  C  C81  1  0.05840000  0.19104000  0.86401000  1.0
  C  C82  1  0.55840000  0.30896000  0.86401000  1.0
  C  C83  1  0.94160000  0.80896000  0.13600000  1.0
  C  C84  1  0.34600000  0.75561000  0.19605000  1.0
  C  C85  1  0.15400000  0.25561000  0.80395000  1.0
  C  C86  1  0.65400000  0.24439000  0.80395000  1.0
  C  C87  1  0.84599000  0.74439000  0.19605000  1.0
  C  C88  1  0.65369000  0.69199000  0.01890000  1.0
  C  C89  1  0.84631000  0.19198000  0.98110000  1.0
  C  C90  1  0.34631000  0.30802000  0.98110000  1.0
  C  C91  1  0.15369000  0.80802000  0.01890000  1.0
  N  N92  1  0.50145000  0.90404000  0.42354000  1.0
  N  N93  1  0.99855000  0.40403000  0.57646000  1.0
  N  N94  1  0.49855000  0.09597000  0.57646000  1.0
  N  N95  1  0.00145000  0.59596000  0.42354000  1.0
  N  N96  1  0.43117000  0.33394000  0.44137000  1.0
  N  N97  1  0.06883000  0.83394000  0.55863000  1.0
  N  N98  1  0.56883000  0.66606000  0.55862000  1.0
  N  N99  1  0.93117000  0.16606000  0.44137000  1.0
  N  N100  1  0.27319000  0.45749000  0.28289000  1.0
  N  N101  1  0.22681000  0.95749000  0.71711000  1.0
  N  N102  1  0.72681000  0.54251000  0.71711000  1.0
  N  N103  1  0.77319000  0.04251000  0.28289000  1.0
  N  N104  1  0.08365000  0.15181000  0.13406000  1.0
  N  N105  1  0.41635000  0.65182000  0.86593000  1.0
  N  N106  1  0.91634000  0.84819000  0.86594000  1.0
  N  N107  1  0.58365000  0.34818000  0.13406000  1.0
  O  O108  1  0.16540000  0.89474000  0.32052000  1.0
  O  O109  1  0.33461000  0.39474000  0.67948000  1.0
  O  O110  1  0.83460000  0.10526000  0.67948000  1.0
  O  O111  1  0.66540000  0.60526000  0.32052000  1.0
