# generated using pymatgen
data_NdH10(C3O2)4
_symmetry_space_group_name_H-M   'P 1'
_cell_length_a   13.33210000
_cell_length_b   13.63740000
_cell_length_c   18.05810000
_cell_angle_alpha   90.00000000
_cell_angle_beta   90.00010000
_cell_angle_gamma   91.63330000
_symmetry_Int_Tables_number   1
_chemical_formula_structural   NdH10(C3O2)4
_chemical_formula_sum   'Nd8 H80 C96 O64'
_cell_volume   3281.90279273
_cell_formula_units_Z   8
loop_
 _symmetry_equiv_pos_site_id
 _symmetry_equiv_pos_as_xyz
  1  'x, y, z'
loop_
 _atom_site_type_symbol
 _atom_site_label
 _atom_site_symmetry_multiplicity
 _atom_site_fract_x
 _atom_site_fract_y
 _atom_site_fract_z
 _atom_site_occupancy
  Nd  Nd0  1  0.09335000  0.14609000  0.96746000  1.0
  Nd  Nd1  1  0.40665000  0.35391000  0.46746000  1.0
  Nd  Nd2  1  0.90665000  0.85391000  0.03254000  1.0
  Nd  Nd3  1  0.59335000  0.64609000  0.53254000  1.0
  Nd  Nd4  1  0.34876000  0.40132000  0.01256000  1.0
  Nd  Nd5  1  0.15124000  0.09868000  0.51256000  1.0
  Nd  Nd6  1  0.65124000  0.59868000  0.98744000  1.0
  Nd  Nd7  1  0.84876000  0.90132000  0.48744000  1.0
  H  H8  1  0.00283000  0.06563000  0.82078000  1.0
  H  H9  1  0.49716000  0.43437000  0.32078000  1.0
  H  H10  1  0.99717000  0.93437000  0.17922000  1.0
  H  H11  1  0.50284000  0.56563000  0.67922000  1.0
  H  H12  1  0.02610000  0.97034000  0.86660000  1.0
  H  H13  1  0.47390000  0.52966000  0.36660000  1.0
  H  H14  1  0.97390000  0.02966000  0.13340000  1.0
  H  H15  1  0.52610000  0.47034000  0.63340000  1.0
  H  H16  1  0.31338000  0.16639000  0.90897000  1.0
  H  H17  1  0.18662000  0.33361000  0.40897000  1.0
  H  H18  1  0.68662000  0.83361000  0.09103000  1.0
  H  H19  1  0.81338000  0.66639000  0.59103000  1.0
  H  H20  1  0.26839000  0.07763000  0.85916000  1.0
  H  H21  1  0.23161000  0.42237000  0.35916000  1.0
  H  H22  1  0.73162000  0.92237000  0.14084000  1.0
  H  H23  1  0.76838000  0.57764000  0.64085000  1.0
  H  H24  1  0.16816000  0.46792000  0.12166000  1.0
  H  H25  1  0.33184000  0.03208000  0.62166000  1.0
  H  H26  1  0.83184000  0.53208000  0.87834000  1.0
  H  H27  1  0.66816000  0.96791000  0.37833000  1.0
  H  H28  1  0.12839000  0.38188000  0.06914000  1.0
  H  H29  1  0.37161000  0.11812000  0.56915000  1.0
  H  H30  1  0.87161000  0.61812000  0.93085000  1.0
  H  H31  1  0.62839000  0.88188000  0.43085000  1.0
  H  H32  1  0.35513000  0.51820000  0.17171000  1.0
  H  H33  1  0.14487000  0.98179000  0.67171000  1.0
  H  H34  1  0.64487000  0.48179000  0.82829000  1.0
  H  H35  1  0.85513000  0.01821000  0.32829000  1.0
  H  H36  1  0.45741000  0.53957000  0.12879000  1.0
  H  H37  1  0.04259000  0.96043000  0.62879000  1.0
  H  H38  1  0.54260000  0.46043000  0.87121000  1.0
  H  H39  1  0.95741000  0.03957000  0.37121000  1.0
  H  H40  1  0.05877000  0.14066000  0.24059000  1.0
  H  H41  1  0.44122000  0.35934000  0.74060000  1.0
  H  H42  1  0.94123000  0.85934000  0.75941000  1.0
  H  H43  1  0.55877000  0.64066000  0.25940000  1.0
  H  H44  1  0.99097000  0.38406000  0.38182000  1.0
  H  H45  1  0.50903000  0.11593000  0.88182000  1.0
  H  H46  1  0.00903000  0.61594000  0.61818000  1.0
  H  H47  1  0.49097000  0.88406000  0.11818000  1.0
  H  H48  1  0.94322000  0.48268000  0.27100000  1.0
  H  H49  1  0.55678000  0.01732000  0.77100000  1.0
  H  H50  1  0.05678000  0.51732000  0.72900000  1.0
  H  H51  1  0.44322000  0.98268000  0.22900000  1.0
  H  H52  1  0.96058000  0.41099000  0.14454000  1.0
  H  H53  1  0.53943000  0.08901000  0.64454000  1.0
  H  H54  1  0.03942000  0.58901000  0.85546000  1.0
  H  H55  1  0.46058000  0.91099000  0.35546000  1.0
  H  H56  1  0.14372000  0.25881000  0.73940000  1.0
  H  H57  1  0.35628000  0.24119000  0.23940000  1.0
  H  H58  1  0.85628000  0.74119000  0.26060000  1.0
  H  H59  1  0.64372000  0.75881000  0.76060000  1.0
  H  H60  1  0.30148000  0.48601000  0.61831000  1.0
  H  H61  1  0.19852000  0.01398000  0.11831000  1.0
  H  H62  1  0.69852000  0.51399000  0.38169000  1.0
  H  H63  1  0.80148000  0.98602000  0.88169000  1.0
  H  H64  1  0.31772000  0.58623000  0.73414000  1.0
  H  H65  1  0.18228000  0.91377000  0.23414000  1.0
  H  H66  1  0.68228000  0.41377000  0.26586000  1.0
  H  H67  1  0.81772000  0.08623000  0.76586000  1.0
  H  H68  1  0.25773000  0.51538000  0.85433000  1.0
  H  H69  1  0.24227000  0.98462000  0.35433000  1.0
  H  H70  1  0.74227000  0.48461000  0.14567000  1.0
  H  H71  1  0.75773000  0.01538000  0.64567000  1.0
  H  H72  1  0.78955000  0.29008000  0.99408000  1.0
  H  H73  1  0.71045000  0.20992000  0.49407000  1.0
  H  H74  1  0.21046000  0.70992000  0.00593000  1.0
  H  H75  1  0.28954000  0.79008000  0.50592000  1.0
  H  H76  1  0.69360000  0.98755000  0.01526000  1.0
  H  H77  1  0.80640000  0.51245000  0.51526000  1.0
  H  H78  1  0.30640000  0.01245000  0.98474000  1.0
  H  H79  1  0.19360000  0.48755000  0.48474000  1.0
  H  H80  1  0.52520000  0.03976000  0.05917000  1.0
  H  H81  1  0.97480000  0.46024000  0.55917000  1.0
  H  H82  1  0.47480000  0.96024000  0.94083000  1.0
  H  H83  1  0.02520000  0.53976000  0.44083000  1.0
  H  H84  1  0.49037000  0.21781000  0.06999000  1.0
  H  H85  1  0.00963000  0.28219000  0.56999000  1.0
  H  H86  1  0.50963000  0.78219000  0.93001000  1.0
  H  H87  1  0.99037000  0.71781000  0.43001000  1.0
  C  C88  1  0.02577000  0.22982000  0.10949000  1.0
  C  C89  1  0.47423000  0.27018000  0.60949000  1.0
  C  C90  1  0.97423000  0.77018000  0.89051000  1.0
  C  C91  1  0.52577000  0.72982000  0.39051000  1.0
  C  C92  1  0.01030000  0.27150000  0.18482000  1.0
  C  C93  1  0.48969000  0.22850000  0.68482000  1.0
  C  C94  1  0.98970000  0.72849000  0.81518000  1.0
  C  C95  1  0.51031000  0.77151000  0.31518000  1.0
  C  C96  1  0.03257000  0.21518000  0.24717000  1.0
  C  C97  1  0.46743000  0.28482000  0.74717000  1.0
  C  C98  1  0.96743000  0.78482000  0.75283000  1.0
  C  C99  1  0.53257000  0.71518000  0.25283000  1.0
  C  C100  1  0.02783000  0.25684000  0.31777000  1.0
  C  C101  1  0.47216000  0.24316000  0.81777000  1.0
  C  C102  1  0.97216000  0.74316000  0.68223000  1.0
  C  C103  1  0.52784000  0.75684000  0.18223000  1.0
  C  C104  1  0.99596000  0.35349000  0.32621000  1.0
  C  C105  1  0.50404000  0.14651000  0.82621000  1.0
  C  C106  1  0.00404000  0.64652000  0.67379000  1.0
  C  C107  1  0.49596000  0.85349000  0.17379000  1.0
  C  C108  1  0.97009000  0.40845000  0.26429000  1.0
  C  C109  1  0.52991000  0.09155000  0.76429000  1.0
  C  C110  1  0.02991000  0.59155000  0.73571000  1.0
  C  C111  1  0.47009000  0.90845000  0.23571000  1.0
  C  C112  1  0.97905000  0.36828000  0.19353000  1.0
  C  C113  1  0.52095000  0.13172000  0.69353000  1.0
  C  C114  1  0.02095000  0.63172000  0.80647000  1.0
  C  C115  1  0.47905000  0.86828000  0.30647000  1.0
  C  C116  1  0.06368000  0.20148000  0.38334000  1.0
  C  C117  1  0.43632000  0.29851000  0.88334000  1.0
  C  C118  1  0.93632000  0.79852000  0.61666000  1.0
  C  C119  1  0.56368000  0.70149000  0.11666000  1.0
  C  C120  1  0.16298000  0.33603000  0.87509000  1.0
  C  C121  1  0.33702000  0.16397000  0.37509000  1.0
  C  C122  1  0.83701000  0.66397000  0.12491000  1.0
  C  C123  1  0.66298000  0.83603000  0.62491000  1.0
  C  C124  1  0.19621000  0.38314000  0.80404000  1.0
  C  C125  1  0.30379000  0.11685000  0.30405000  1.0
  C  C126  1  0.80379000  0.61685000  0.19595000  1.0
  C  C127  1  0.69621000  0.88315000  0.69596000  1.0
  C  C128  1  0.18232000  0.33025000  0.73832000  1.0
  C  C129  1  0.31769000  0.16975000  0.23832000  1.0
  C  C130  1  0.81768000  0.66975000  0.26168000  1.0
  C  C131  1  0.68232000  0.83025000  0.76168000  1.0
  C  C132  1  0.22186000  0.36662000  0.67174000  1.0
  C  C133  1  0.27814000  0.13337000  0.17174000  1.0
  C  C134  1  0.77814000  0.63338000  0.32826000  1.0
  C  C135  1  0.72186000  0.86662000  0.82826000  1.0
  C  C136  1  0.27094000  0.45896000  0.67052000  1.0
  C  C137  1  0.22906000  0.04104000  0.17052000  1.0
  C  C138  1  0.72906000  0.54104000  0.32948000  1.0
  C  C139  1  0.77094000  0.95896000  0.82948000  1.0
  C  C140  1  0.28149000  0.51345000  0.73561000  1.0
  C  C141  1  0.21851000  0.98655000  0.23561000  1.0
  C  C142  1  0.71851000  0.48655000  0.26439000  1.0
  C  C143  1  0.78149000  0.01345000  0.76439000  1.0
  C  C144  1  0.24649000  0.47492000  0.80277000  1.0
  C  C145  1  0.25351000  0.02508000  0.30277000  1.0
  C  C146  1  0.75351000  0.52508000  0.19723000  1.0
  C  C147  1  0.74649000  0.97492000  0.69723000  1.0
  C  C148  1  0.21581000  0.30421000  0.60362000  1.0
  C  C149  1  0.28419000  0.19579000  0.10362000  1.0
  C  C150  1  0.78419000  0.69580000  0.39638000  1.0
  C  C151  1  0.71581000  0.80421000  0.89638000  1.0
  C  C152  1  0.61471000  0.37137000  0.03247000  1.0
  C  C153  1  0.88529000  0.12864000  0.53247000  1.0
  C  C154  1  0.38529000  0.62863000  0.96753000  1.0
  C  C155  1  0.11470000  0.87137000  0.46753000  1.0
  C  C156  1  0.63706000  0.26465000  0.03156000  1.0
  C  C157  1  0.86294000  0.23536000  0.53156000  1.0
  C  C158  1  0.36294000  0.73536000  0.96844000  1.0
  C  C159  1  0.13706000  0.76464000  0.46844000  1.0
  C  C160  1  0.73170000  0.23525000  0.00836000  1.0
  C  C161  1  0.76830000  0.26475000  0.50836000  1.0
  C  C162  1  0.26830000  0.76475000  0.99164000  1.0
  C  C163  1  0.23170000  0.73525000  0.49164000  1.0
  C  C164  1  0.67721000  0.06495000  0.02096000  1.0
  C  C165  1  0.82279000  0.43505000  0.52096000  1.0
  C  C166  1  0.32280000  0.93505000  0.97904000  1.0
  C  C167  1  0.17720000  0.56495000  0.47904000  1.0
  C  C168  1  0.58335000  0.09449000  0.04511000  1.0
  C  C169  1  0.91664000  0.40551000  0.54511000  1.0
  C  C170  1  0.41665000  0.90551000  0.95489000  1.0
  C  C171  1  0.08335000  0.59449000  0.45489000  1.0
  C  C172  1  0.56318000  0.19401000  0.05090000  1.0
  C  C173  1  0.93682000  0.30599000  0.55090000  1.0
  C  C174  1  0.43682000  0.80599000  0.94910000  1.0
  C  C175  1  0.06318000  0.69401000  0.44910000  1.0
  C  C176  1  0.75224000  0.13549000  0.00359000  1.0
  C  C177  1  0.74776000  0.36451000  0.50359000  1.0
  C  C178  1  0.24776000  0.86451000  0.99642000  1.0
  C  C179  1  0.25224000  0.63549000  0.49641000  1.0
  C  C180  1  0.85531000  0.10529000  0.98283000  1.0
  C  C181  1  0.64469000  0.39471000  0.48282000  1.0
  C  C182  1  0.14470000  0.89471000  0.01718000  1.0
  C  C183  1  0.35531000  0.60529000  0.51717000  1.0
  O  O184  1  0.01897000  0.13719000  0.09897000  1.0
  O  O185  1  0.48103000  0.36281000  0.59898000  1.0
  O  O186  1  0.98103000  0.86281000  0.90103000  1.0
  O  O187  1  0.51897000  0.63719000  0.40103000  1.0
  O  O188  1  0.04982000  0.28741000  0.05601000  1.0
  O  O189  1  0.45018000  0.21259000  0.55601000  1.0
  O  O190  1  0.95018000  0.71259000  0.94399000  1.0
  O  O191  1  0.54982000  0.78741000  0.44399000  1.0
  O  O192  1  0.05969000  0.10779000  0.38474000  1.0
  O  O193  1  0.44031000  0.39220000  0.88474000  1.0
  O  O194  1  0.94031000  0.89221000  0.61526000  1.0
  O  O195  1  0.55968000  0.60779000  0.11526000  1.0
  O  O196  1  0.10206000  0.25035000  0.43744000  1.0
  O  O197  1  0.39794000  0.24965000  0.93744000  1.0
  O  O198  1  0.89794000  0.74965000  0.56256000  1.0
  O  O199  1  0.60206000  0.75035000  0.06256000  1.0
  O  O200  1  0.09078000  0.27317000  0.87327000  1.0
  O  O201  1  0.40921000  0.22683000  0.37327000  1.0
  O  O202  1  0.90921000  0.72682000  0.12673000  1.0
  O  O203  1  0.59078000  0.77317000  0.62673000  1.0
  O  O204  1  0.21155000  0.35752000  0.93416000  1.0
  O  O205  1  0.28845000  0.14248000  0.43416000  1.0
  O  O206  1  0.78845000  0.64248000  0.06584000  1.0
  O  O207  1  0.71155000  0.85752000  0.56584000  1.0
  O  O208  1  0.16182000  0.22580000  0.60625000  1.0
  O  O209  1  0.33819000  0.27420000  0.10625000  1.0
  O  O210  1  0.83818000  0.77420000  0.39375000  1.0
  O  O211  1  0.66182000  0.72580000  0.89375000  1.0
  O  O212  1  0.26554000  0.33126000  0.54662000  1.0
  O  O213  1  0.23446000  0.16873000  0.04662000  1.0
  O  O214  1  0.73446000  0.66874000  0.45338000  1.0
  O  O215  1  0.76554000  0.83127000  0.95338000  1.0
  O  O216  1  0.52350000  0.39695000  0.03581000  1.0
  O  O217  1  0.97650000  0.10306000  0.53581000  1.0
  O  O218  1  0.47650000  0.60305000  0.96419000  1.0
  O  O219  1  0.02350000  0.89694000  0.46419000  1.0
  O  O220  1  0.68782000  0.43320000  0.02784000  1.0
  O  O221  1  0.81218000  0.06680000  0.52784000  1.0
  O  O222  1  0.31218000  0.56680000  0.97216000  1.0
  O  O223  1  0.18782000  0.93320000  0.47216000  1.0
  O  O224  1  0.91390000  0.16738000  0.95130000  1.0
  O  O225  1  0.58610000  0.33262000  0.45130000  1.0
  O  O226  1  0.08610000  0.83262000  0.04870000  1.0
  O  O227  1  0.41390000  0.66738000  0.54870000  1.0
  O  O228  1  0.88133000  0.01837000  0.99894000  1.0
  O  O229  1  0.61867000  0.48163000  0.49894000  1.0
  O  O230  1  0.11867000  0.98163000  0.00106000  1.0
  O  O231  1  0.38133000  0.51837000  0.50106000  1.0
  O  O232  1  0.05231000  0.03776000  0.85366000  1.0
  O  O233  1  0.44769000  0.46224000  0.35366000  1.0
  O  O234  1  0.94770000  0.96224000  0.14634000  1.0
  O  O235  1  0.55231000  0.53776000  0.64634000  1.0
  O  O236  1  0.25066000  0.13136000  0.89123000  1.0
  O  O237  1  0.24934000  0.36863000  0.39123000  1.0
  O  O238  1  0.74934000  0.86863000  0.10877000  1.0
  O  O239  1  0.75066000  0.63137000  0.60877000  1.0
  O  O240  1  0.18450000  0.43153000  0.07741000  1.0
  O  O241  1  0.31550000  0.06847000  0.57742000  1.0
  O  O242  1  0.81550000  0.56847000  0.92259000  1.0
  O  O243  1  0.68450000  0.93153000  0.42259000  1.0
  O  O244  1  0.39265000  0.50009000  0.12810000  1.0
  O  O245  1  0.10735000  0.99991000  0.62810000  1.0
  O  O246  1  0.60735000  0.49991000  0.87190000  1.0
  O  O247  1  0.89265000  0.00009000  0.37190000  1.0
