# generated using pymatgen
data_TbH6C5O8
_symmetry_space_group_name_H-M   'P 1'
_cell_length_a   9.53728000
_cell_length_b   9.53721000
_cell_length_c   13.77060000
_cell_angle_alpha   100.00600000
_cell_angle_beta   100.00300000
_cell_angle_gamma   119.78400000
_symmetry_Int_Tables_number   1
_chemical_formula_structural   TbH6C5O8
_chemical_formula_sum   'Tb4 H24 C20 O32'
_cell_volume   1019.82842332
_cell_formula_units_Z   4
loop_
 _symmetry_equiv_pos_site_id
 _symmetry_equiv_pos_as_xyz
  1  'x, y, z'
loop_
 _atom_site_type_symbol
 _atom_site_label
 _atom_site_symmetry_multiplicity
 _atom_site_fract_x
 _atom_site_fract_y
 _atom_site_fract_z
 _atom_site_occupancy
  Tb  Tb0  1  0.00220000  0.25213000  0.00443000  1.0
  Tb  Tb1  1  0.24789000  0.49783000  0.49558000  1.0
  Tb  Tb2  1  0.99780000  0.74787000  0.99556000  1.0
  Tb  Tb3  1  0.75213000  0.50219000  0.50442000  1.0
  H  H4  1  0.52462000  0.09145000  0.93364000  1.0
  H  H5  1  0.15736000  0.09060000  0.56616000  1.0
  H  H6  1  0.40854000  0.97539000  0.56637000  1.0
  H  H7  1  0.40941000  0.34264000  0.93383000  1.0
  H  H8  1  0.47537000  0.90854000  0.06635000  1.0
  H  H9  1  0.84265000  0.90941000  0.43384000  1.0
  H  H10  1  0.59147000  0.02462000  0.43364000  1.0
  H  H11  1  0.59058000  0.65735000  0.06615000  1.0
  H  H12  1  0.74993000  0.01647000  0.78443000  1.0
  H  H13  1  0.23127000  0.46483000  0.71520000  1.0
  H  H14  1  0.48346000  0.74994000  0.71559000  1.0
  H  H15  1  0.03505000  0.26864000  0.78482000  1.0
  H  H16  1  0.24998000  0.98347000  0.21556000  1.0
  H  H17  1  0.76869000  0.53510000  0.28481000  1.0
  H  H18  1  0.51649000  0.24998000  0.28441000  1.0
  H  H19  1  0.96487000  0.73132000  0.21519000  1.0
  H  H20  1  0.80283000  0.90969000  0.84052000  1.0
  H  H21  1  0.06818000  0.46107000  0.65914000  1.0
  H  H22  1  0.59032000  0.69719000  0.65948000  1.0
  H  H23  1  0.03892000  0.43181000  0.84086000  1.0
  H  H24  1  0.19718000  0.09032000  0.15947000  1.0
  H  H25  1  0.93184000  0.53895000  0.34086000  1.0
  H  H26  1  0.40969000  0.30282000  0.34052000  1.0
  H  H27  1  0.96108000  0.56820000  0.15914000  1.0
  C  C28  1  0.70183000  0.35510000  0.93933000  1.0
  C  C29  1  0.41537000  0.26194000  0.56040000  1.0
  C  C30  1  0.14490000  0.79818000  0.56068000  1.0
  C  C31  1  0.23807000  0.08463000  0.93960000  1.0
  C  C32  1  0.29817000  0.64491000  0.06066000  1.0
  C  C33  1  0.58466000  0.73807000  0.43961000  1.0
  C  C34  1  0.85510000  0.20183000  0.43932000  1.0
  C  C35  1  0.76193000  0.91536000  0.06039000  1.0
  C  C36  1  0.53303000  0.20952000  0.93255000  1.0
  C  C37  1  0.27653000  0.10006000  0.56734000  1.0
  C  C38  1  0.29047000  0.96697000  0.56745000  1.0
  C  C39  1  0.39994000  0.22346000  0.93266000  1.0
  C  C40  1  0.46695000  0.79047000  0.06744000  1.0
  C  C41  1  0.72348000  0.89994000  0.43266000  1.0
  C  C42  1  0.70954000  0.03304000  0.43255000  1.0
  C  C43  1  0.60005000  0.77653000  0.06733000  1.0
  C  C44  1  0.17185000  0.32819000  0.25001000  1.0
  C  C45  1  0.07828000  0.42178000  0.25000000  1.0
  C  C46  1  0.82814000  0.67181000  0.74999000  1.0
  C  C47  1  0.92172000  0.57823000  0.75000000  1.0
  O  O48  1  0.82324000  0.33080000  0.95051000  1.0
  O  O49  1  0.38012000  0.37234000  0.54930000  1.0
  O  O50  1  0.16920000  0.67677000  0.54950000  1.0
  O  O51  1  0.12768000  0.11989000  0.95073000  1.0
  O  O52  1  0.17677000  0.66920000  0.04949000  1.0
  O  O53  1  0.61989000  0.62766000  0.45070000  1.0
  O  O54  1  0.83080000  0.32324000  0.45049000  1.0
  O  O55  1  0.87232000  0.88011000  0.04929000  1.0
  O  O56  1  0.72181000  0.49615000  0.93697000  1.0
  O  O57  1  0.55865000  0.28406000  0.56261000  1.0
  O  O58  1  0.00385000  0.77818000  0.56303000  1.0
  O  O59  1  0.21593000  0.94134000  0.93737000  1.0
  O  O60  1  0.27818000  0.50384000  0.06302000  1.0
  O  O61  1  0.44136000  0.71595000  0.43739000  1.0
  O  O62  1  0.99617000  0.22183000  0.43698000  1.0
  O  O63  1  0.78408000  0.05867000  0.06263000  1.0
  O  O64  1  0.15690000  0.24339000  0.16292000  1.0
  O  O65  1  0.08124000  0.49456000  0.33714000  1.0
  O  O66  1  0.25662000  0.34312000  0.33708000  1.0
  O  O67  1  0.00550000  0.41881000  0.16288000  1.0
  O  O68  1  0.84310000  0.75660000  0.83708000  1.0
  O  O69  1  0.91876000  0.50545000  0.66287000  1.0
  O  O70  1  0.74338000  0.65688000  0.66292000  1.0
  O  O71  1  0.99450000  0.58119000  0.83712000  1.0
  O  O72  1  0.78206000  0.00383000  0.85171000  1.0
  O  O73  1  0.15086000  0.42869000  0.64797000  1.0
  O  O74  1  0.49620000  0.71800000  0.64831000  1.0
  O  O75  1  0.07135000  0.34916000  0.85204000  1.0
  O  O76  1  0.21797000  0.99618000  0.14829000  1.0
  O  O77  1  0.84917000  0.57135000  0.35204000  1.0
  O  O78  1  0.50382000  0.28203000  0.35169000  1.0
  O  O79  1  0.92868000  0.65086000  0.14796000  1.0
