# generated using pymatgen
data_CoH12(C2O)6
_symmetry_space_group_name_H-M   'P 1'
_cell_length_a   5.38883000
_cell_length_b   8.97631000
_cell_length_c   12.25140000
_cell_angle_alpha   90.99890000
_cell_angle_beta   89.99560000
_cell_angle_gamma   89.99430000
_symmetry_Int_Tables_number   1
_chemical_formula_structural   CoH12(C2O)6
_chemical_formula_sum   'Co2 H24 C24 O12'
_cell_volume   592.53231053
_cell_formula_units_Z   2
loop_
 _symmetry_equiv_pos_site_id
 _symmetry_equiv_pos_as_xyz
  1  'x, y, z'
loop_
 _atom_site_type_symbol
 _atom_site_label
 _atom_site_symmetry_multiplicity
 _atom_site_fract_x
 _atom_site_fract_y
 _atom_site_fract_z
 _atom_site_occupancy
  Co  Co0  1  0.99999000  0.50000000  0.50000000  1.0
  Co  Co1  1  0.50000000  0.00000000  0.50000000  1.0
  H  H2  1  0.89031000  0.39728000  0.26751000  1.0
  H  H3  1  0.39025000  0.10272000  0.73248000  1.0
  H  H4  1  0.10970000  0.60273000  0.73249000  1.0
  H  H5  1  0.60976000  0.89728000  0.26752000  1.0
  H  H6  1  0.68540000  0.55085000  0.14402000  1.0
  H  H7  1  0.18545000  0.94920000  0.85598000  1.0
  H  H8  1  0.31460000  0.44915000  0.85598000  1.0
  H  H9  1  0.81455000  0.05079000  0.14401000  1.0
  H  H10  1  0.38014000  0.24609000  0.19619000  1.0
  H  H11  1  0.88021000  0.25389000  0.80380000  1.0
  H  H12  1  0.61983000  0.75390000  0.80381000  1.0
  H  H13  1  0.11979000  0.74611000  0.19621000  1.0
  H  H14  1  0.35600000  0.33066000  0.03429000  1.0
  H  H15  1  0.85596000  0.16924000  0.96570000  1.0
  H  H16  1  0.64400000  0.66935000  0.96571000  1.0
  H  H17  1  0.14405000  0.83076000  0.03430000  1.0
  H  H18  1  0.51824000  0.49191000  0.40909000  1.0
  H  H19  1  0.01827000  0.00804000  0.59092000  1.0
  H  H20  1  0.48175000  0.50808000  0.59091000  1.0
  H  H21  1  0.98174000  0.99195000  0.40908000  1.0
  H  H22  1  0.63183000  0.34200000  0.45783000  1.0
  H  H23  1  0.13180000  0.15802000  0.54218000  1.0
  H  H24  1  0.36818000  0.65800000  0.54217000  1.0
  H  H25  1  0.86820000  0.84197000  0.45782000  1.0
  C  C26  1  0.23855000  0.22371000  0.35969000  1.0
  C  C27  1  0.73862000  0.27631000  0.64033000  1.0
  C  C28  1  0.76144000  0.77629000  0.64031000  1.0
  C  C29  1  0.26138000  0.72369000  0.35966000  1.0
  C  C30  1  0.04131000  0.36897000  0.21162000  1.0
  C  C31  1  0.54136000  0.13104000  0.78835000  1.0
  C  C32  1  0.95868000  0.63102000  0.78839000  1.0
  C  C33  1  0.45864000  0.86898000  0.21165000  1.0
  C  C34  1  0.82344000  0.52826000  0.08061000  1.0
  C  C35  1  0.32345000  0.97179000  0.91940000  1.0
  C  C36  1  0.17657000  0.47176000  0.91940000  1.0
  C  C37  1  0.67655000  0.02821000  0.08060000  1.0
  C  C38  1  0.02348000  0.43179000  0.10329000  1.0
  C  C39  1  0.52349000  0.06820000  0.89668000  1.0
  C  C40  1  0.97651000  0.56821000  0.89671000  1.0
  C  C41  1  0.47650000  0.93180000  0.10332000  1.0
  C  C42  1  0.22743000  0.28265000  0.24858000  1.0
  C  C43  1  0.72745000  0.21733000  0.75140000  1.0
  C  C44  1  0.77256000  0.71735000  0.75142000  1.0
  C  C45  1  0.27255000  0.78267000  0.24859000  1.0
  C  C46  1  0.19958000  0.40479000  0.02009000  1.0
  C  C47  1  0.69956000  0.09514000  0.97990000  1.0
  C  C48  1  0.80042000  0.59522000  0.97992000  1.0
  C  C49  1  0.30045000  0.90485000  0.02009000  1.0
  O  O50  1  0.12516000  0.28370000  0.44191000  1.0
  O  O51  1  0.62516000  0.21631000  0.55813000  1.0
  O  O52  1  0.87483000  0.71630000  0.55809000  1.0
  O  O53  1  0.37485000  0.78369000  0.44186000  1.0
  O  O54  1  0.36872000  0.10500000  0.36938000  1.0
  O  O55  1  0.86875000  0.39502000  0.63062000  1.0
  O  O56  1  0.63127000  0.89500000  0.63062000  1.0
  O  O57  1  0.13124000  0.60499000  0.36938000  1.0
  O  O58  1  0.67100000  0.43405000  0.41485000  1.0
  O  O59  1  0.17096000  0.06594000  0.58515000  1.0
  O  O60  1  0.32900000  0.56594000  0.58514000  1.0
  O  O61  1  0.82905000  0.93405000  0.41485000  1.0
