# generated using pymatgen
data_ZnH16C16(NO)4
_symmetry_space_group_name_H-M   'P 1'
_cell_length_a   7.47211000
_cell_length_b   8.15118217
_cell_length_c   8.67962000
_cell_angle_alpha   64.38085205
_cell_angle_beta   69.04200000
_cell_angle_gamma   62.93982099
_symmetry_Int_Tables_number   1
_chemical_formula_structural   ZnH16C16(NO)4
_chemical_formula_sum   'Zn1 H16 C16 N4 O4'
_cell_volume   415.87366072
_cell_formula_units_Z   1
loop_
 _symmetry_equiv_pos_site_id
 _symmetry_equiv_pos_as_xyz
  1  'x, y, z'
loop_
 _atom_site_type_symbol
 _atom_site_label
 _atom_site_symmetry_multiplicity
 _atom_site_fract_x
 _atom_site_fract_y
 _atom_site_fract_z
 _atom_site_occupancy
  Zn  Zn0  1  0.00000000  0.50000000  0.50000000  1.0
  H  H1  1  0.66858000  0.80333000  0.15122000  1.0
  H  H2  1  0.33143000  0.19669000  0.84878000  1.0
  H  H3  1  0.79914000  0.56210000  0.14721000  1.0
  H  H4  1  0.20083000  0.43793000  0.85278000  1.0
  H  H5  1  0.94302000  0.83746000  0.85852000  1.0
  H  H6  1  0.05699000  0.16253000  0.14148000  1.0
  H  H7  1  0.28316000  0.88220000  0.73503000  1.0
  H  H8  1  0.71684000  0.11779000  0.26497000  1.0
  H  H9  1  0.51466000  0.76790000  0.93837000  1.0
  H  H10  1  0.48534000  0.23210000  0.06163000  1.0
  H  H11  1  0.39210000  0.61931000  0.25991000  1.0
  H  H12  1  0.60790000  0.38069000  0.74010000  1.0
  H  H13  1  0.70974000  0.46845000  0.43165000  1.0
  H  H14  1  0.29026000  0.53156000  0.56835000  1.0
  H  H15  1  0.62093000  0.69157000  0.43900000  1.0
  H  H16  1  0.37908000  0.30843000  0.56100000  1.0
  C  C17  1  0.79244000  0.66627000  0.20016000  1.0
  C  C18  1  0.20756000  0.33374000  0.79983000  1.0
  C  C19  1  0.99338000  0.70203000  0.12252000  1.0
  C  C20  1  0.00663000  0.29796000  0.87748000  1.0
  C  C21  1  0.04798000  0.78985000  0.94292000  1.0
  C  C22  1  0.95203000  0.21014000  0.05708000  1.0
  C  C23  1  0.23604000  0.81577000  0.87458000  1.0
  C  C24  1  0.76397000  0.18422000  0.12542000  1.0
  C  C25  1  0.36486000  0.75303000  0.98805000  1.0
  C  C26  1  0.63515000  0.24697000  0.01195000  1.0
  C  C27  1  0.29914000  0.66868000  0.16520000  1.0
  C  C28  1  0.70087000  0.33132000  0.83481000  1.0
  C  C29  1  0.93250000  0.89892000  0.52905000  1.0
  C  C30  1  0.06749000  0.10107000  0.47096000  1.0
  C  C31  1  0.85478000  0.10958000  0.50356000  1.0
  C  C32  1  0.14520000  0.89041000  0.49645000  1.0
  N  N33  1  0.74808000  0.59068000  0.39103000  1.0
  N  N34  1  0.25191000  0.40933000  0.60896000  1.0
  N  N35  1  0.11707000  0.64407000  0.23067000  1.0
  N  N36  1  0.88293000  0.35593000  0.76933000  1.0
  O  O37  1  0.84756000  0.78039000  0.56459000  1.0
  O  O38  1  0.15242000  0.21960000  0.43542000  1.0
  O  O39  1  0.67959000  0.24160000  0.50515000  1.0
  O  O40  1  0.32040000  0.75840000  0.49483000  1.0
