# generated using pymatgen
data_LiMnBH32C27N4Cl2O3F5
_symmetry_space_group_name_H-M   'P 1'
_cell_length_a   11.07210000
_cell_length_b   12.57940000
_cell_length_c   16.41680000
_cell_angle_alpha   109.48400000
_cell_angle_beta   99.23440000
_cell_angle_gamma   100.65900000
_symmetry_Int_Tables_number   1
_chemical_formula_structural   LiMnBH32C27N4Cl2O3F5
_chemical_formula_sum   'Li2 Mn2 B2 H64 C54 N8 Cl4 O6 F10'
_cell_volume   2056.59449166
_cell_formula_units_Z   2
loop_
 _symmetry_equiv_pos_site_id
 _symmetry_equiv_pos_as_xyz
  1  'x, y, z'
loop_
 _atom_site_type_symbol
 _atom_site_label
 _atom_site_symmetry_multiplicity
 _atom_site_fract_x
 _atom_site_fract_y
 _atom_site_fract_z
 _atom_site_occupancy
  Li  Li0  1  0.62702000  0.25420000  0.40393000  1.0
  Li  Li1  1  0.37299000  0.74580000  0.59607000  1.0
  Mn  Mn2  1  0.93016000  0.48660000  0.59591000  1.0
  Mn  Mn3  1  0.06984000  0.51340000  0.40409000  1.0
  B  B4  1  0.93391000  0.48148000  0.80707000  1.0
  B  B5  1  0.06611000  0.51853000  0.19294000  1.0
  H  H6  1  0.12922000  0.32040000  0.58289000  1.0
  H  H7  1  0.87077000  0.67962000  0.41710000  1.0
  H  H8  1  0.23325000  0.26259000  0.72216000  1.0
  H  H9  1  0.76677000  0.73743000  0.27782000  1.0
  H  H10  1  0.11493000  0.36011000  0.85321000  1.0
  H  H11  1  0.88508000  0.63987000  0.14677000  1.0
  H  H12  1  0.96459000  0.77305000  0.69328000  1.0
  H  H13  1  0.03542000  0.22698000  0.30671000  1.0
  H  H14  1  0.99775000  0.89009000  0.87453000  1.0
  H  H15  1  0.00221000  0.10991000  0.12548000  1.0
  H  H16  1  0.98559000  0.71388000  0.93985000  1.0
  H  H17  1  0.01436000  0.28610000  0.06015000  1.0
  H  H18  1  0.78345000  0.39359000  0.90758000  1.0
  H  H19  1  0.21657000  0.60642000  0.09242000  1.0
  H  H20  1  0.16011000  0.59200000  0.93810000  1.0
  H  H21  1  0.83992000  0.40801000  0.06190000  1.0
  H  H22  1  0.81955000  0.38341000  0.32350000  1.0
  H  H23  1  0.18044000  0.61660000  0.67649000  1.0
  H  H24  1  0.69322000  0.45348000  0.32330000  1.0
  H  H25  1  0.30677000  0.54652000  0.67669000  1.0
  H  H26  1  0.72384000  0.42853000  0.17588000  1.0
  H  H27  1  0.27612000  0.57147000  0.82411000  1.0
  H  H28  1  0.76927000  0.29629000  0.16327000  1.0
  H  H29  1  0.23071000  0.70373000  0.83672000  1.0
  H  H30  1  0.50269000  0.33523000  0.16049000  1.0
  H  H31  1  0.49729000  0.66475000  0.83951000  1.0
  H  H32  1  0.54581000  0.22139000  0.08164000  1.0
  H  H33  1  0.45418000  0.77859000  0.91836000  1.0
  H  H34  1  0.57465000  0.12175000  0.18346000  1.0
  H  H35  1  0.42536000  0.87825000  0.81654000  1.0
  H  H36  1  0.45643000  0.19020000  0.22406000  1.0
  H  H37  1  0.54357000  0.80978000  0.77595000  1.0
  H  H38  1  0.68059000  0.15752000  0.53277000  1.0
  H  H39  1  0.31939000  0.84248000  0.46724000  1.0
  H  H40  1  0.64484000  0.00384000  0.46812000  1.0
  H  H41  1  0.35515000  0.99616000  0.53188000  1.0
  H  H42  1  0.86998000  0.04471000  0.54159000  1.0
  H  H43  1  0.13001000  0.95530000  0.45843000  1.0
  H  H44  1  0.90188000  0.18444000  0.53410000  1.0
  H  H45  1  0.09811000  0.81556000  0.46591000  1.0
  H  H46  1  0.96285000  0.08333000  0.40300000  1.0
  H  H47  1  0.03714000  0.91666000  0.59701000  1.0
  H  H48  1  0.85917000  0.94784000  0.38539000  1.0
  H  H49  1  0.14082000  0.05215000  0.61463000  1.0
  H  H50  1  0.80050000  0.13061000  0.31805000  1.0
  H  H51  1  0.19950000  0.86938000  0.68195000  1.0
  H  H52  1  0.70531000  0.98603000  0.29093000  1.0
  H  H53  1  0.29469000  0.01397000  0.70908000  1.0
  H  H54  1  0.47204000  0.41101000  0.43824000  1.0
  H  H55  1  0.52795000  0.58899000  0.56176000  1.0
  H  H56  1  0.33306000  0.32828000  0.35086000  1.0
  H  H57  1  0.66694000  0.67171000  0.64914000  1.0
  H  H58  1  0.24090000  0.37060000  0.47957000  1.0
  H  H59  1  0.75908000  0.62937000  0.52042000  1.0
  H  H60  1  0.37709000  0.36097000  0.54804000  1.0
  H  H61  1  0.62289000  0.63902000  0.45196000  1.0
  H  H62  1  0.18227000  0.15980000  0.39318000  1.0
  H  H63  1  0.81772000  0.84017000  0.60682000  1.0
  H  H64  1  0.23468000  0.16525000  0.50316000  1.0
  H  H65  1  0.76534000  0.83473000  0.49683000  1.0
  H  H66  1  0.43962000  0.14183000  0.48030000  1.0
  H  H67  1  0.56039000  0.85816000  0.51969000  1.0
  H  H68  1  0.34803000  0.06154000  0.36886000  1.0
  H  H69  1  0.65199000  0.93846000  0.63113000  1.0
  C  C70  1  0.11128000  0.34025000  0.64868000  1.0
  C  C71  1  0.88871000  0.65976000  0.35131000  1.0
  C  C72  1  0.16281000  0.31138000  0.71958000  1.0
  C  C73  1  0.83722000  0.68863000  0.28041000  1.0
  C  C74  1  0.10518000  0.36130000  0.78684000  1.0
  C  C75  1  0.89484000  0.63871000  0.21315000  1.0
  C  C76  1  0.96563000  0.73932000  0.74615000  1.0
  C  C77  1  0.03436000  0.26070000  0.25386000  1.0
  C  C78  1  0.98325000  0.79758000  0.83798000  1.0
  C  C79  1  0.01674000  0.20242000  0.16203000  1.0
  C  C80  1  0.97838000  0.71009000  0.87231000  1.0
  C  C81  1  0.02160000  0.28992000  0.12769000  1.0
  C  C82  1  0.78543000  0.40998000  0.75882000  1.0
  C  C83  1  0.21459000  0.59003000  0.24120000  1.0
  C  C84  1  0.74708000  0.28811000  0.72619000  1.0
  C  C85  1  0.25295000  0.71190000  0.27382000  1.0
  C  C86  1  0.62112000  0.22399000  0.69238000  1.0
  C  C87  1  0.37890000  0.77603000  0.30763000  1.0
  C  C88  1  0.52593000  0.28174000  0.68976000  1.0
  C  C89  1  0.47408000  0.71826000  0.31023000  1.0
  C  C90  1  0.55865000  0.40282000  0.72252000  1.0
  C  C91  1  0.44136000  0.59718000  0.27747000  1.0
  C  C92  1  0.68580000  0.46369000  0.75655000  1.0
  C  C93  1  0.31420000  0.53631000  0.24345000  1.0
  C  C94  1  0.96686000  0.49150000  0.90930000  1.0
  C  C95  1  0.03316000  0.50852000  0.09070000  1.0
  C  C96  1  0.87935000  0.44080000  0.94741000  1.0
  C  C97  1  0.12067000  0.55921000  0.05259000  1.0
  C  C98  1  0.08843000  0.55107000  0.96461000  1.0
  C  C99  1  0.91159000  0.44894000  0.03539000  1.0
  C  C100  1  0.72285000  0.37492000  0.28911000  1.0
  C  C101  1  0.27715000  0.62508000  0.71088000  1.0
  C  C102  1  0.70503000  0.34852000  0.18990000  1.0
  C  C103  1  0.29495000  0.65149000  0.81009000  1.0
  C  C104  1  0.56648000  0.27720000  0.15238000  1.0
  C  C105  1  0.43351000  0.72279000  0.84761000  1.0
  C  C106  1  0.55114000  0.20604000  0.21109000  1.0
  C  C107  1  0.44887000  0.79395000  0.78891000  1.0
  C  C108  1  0.70596000  0.09036000  0.48088000  1.0
  C  C109  1  0.29402000  0.90964000  0.51913000  1.0
  C  C110  1  0.84590000  0.09369000  0.49986000  1.0
  C  C111  1  0.15409000  0.90631000  0.50015000  1.0
  C  C112  1  0.86811000  0.04200000  0.40591000  1.0
  C  C113  1  0.13188000  0.95799000  0.59410000  1.0
  C  C114  1  0.76375000  0.06648000  0.34569000  1.0
  C  C115  1  0.23624000  0.93352000  0.65431000  1.0
  C  C116  1  0.39256000  0.33288000  0.41317000  1.0
  C  C117  1  0.60743000  0.66710000  0.58683000  1.0
  C  C118  1  0.31543000  0.32443000  0.48050000  1.0
  C  C119  1  0.68456000  0.67555000  0.51949000  1.0
  C  C120  1  0.26401000  0.19222000  0.45079000  1.0
  C  C121  1  0.73599000  0.80776000  0.54920000  1.0
  C  C122  1  0.37566000  0.14684000  0.42357000  1.0
  C  C123  1  0.62435000  0.85315000  0.57643000  1.0
  N  N124  1  0.02492000  0.41688000  0.75712000  1.0
  N  N125  1  0.97509000  0.58312000  0.24287000  1.0
  N  N126  1  0.02744000  0.40340000  0.67138000  1.0
  N  N127  1  0.97256000  0.59660000  0.32861000  1.0
  N  N128  1  0.95970000  0.60681000  0.80431000  1.0
  N  N129  1  0.04031000  0.39319000  0.19569000  1.0
  N  N130  1  0.95109000  0.62413000  0.72609000  1.0
  N  N131  1  0.04893000  0.37590000  0.27392000  1.0
  Cl  Cl132  1  0.01398000  0.64187000  0.54351000  1.0
  Cl  Cl133  1  0.98601000  0.35814000  0.45648000  1.0
  Cl  Cl134  1  0.70926000  0.40806000  0.54302000  1.0
  Cl  Cl135  1  0.29074000  0.59194000  0.45699000  1.0
  O  O136  1  0.64149000  0.27476000  0.29568000  1.0
  O  O137  1  0.35852000  0.72525000  0.70432000  1.0
  O  O138  1  0.68344000  0.11670000  0.40142000  1.0
  O  O139  1  0.31656000  0.88331000  0.59858000  1.0
  O  O140  1  0.44488000  0.23125000  0.39407000  1.0
  O  O141  1  0.55513000  0.76874000  0.60592000  1.0
  F  F142  1  0.83330000  0.22384000  0.72778000  1.0
  F  F143  1  0.16672000  0.77617000  0.27225000  1.0
  F  F144  1  0.58899000  0.10584000  0.66278000  1.0
  F  F145  1  0.41103000  0.89418000  0.33723000  1.0
  F  F146  1  0.40327000  0.21991000  0.65609000  1.0
  F  F147  1  0.59673000  0.78011000  0.34391000  1.0
  F  F148  1  0.46690000  0.46034000  0.72063000  1.0
  F  F149  1  0.53311000  0.53967000  0.27936000  1.0
  F  F150  1  0.70746000  0.58196000  0.78866000  1.0
  F  F151  1  0.29256000  0.41804000  0.21132000  1.0
