# generated using pymatgen
data_CoH8C13NO5
_symmetry_space_group_name_H-M   'P 1'
_cell_length_a   12.36620000
_cell_length_b   12.37420000
_cell_length_c   13.60030000
_cell_angle_alpha   115.51200000
_cell_angle_beta   116.67800000
_cell_angle_gamma   91.84780000
_symmetry_Int_Tables_number   1
_chemical_formula_structural   CoH8C13NO5
_chemical_formula_sum   'Co4 H32 C52 N4 O20'
_cell_volume   1611.25050639
_cell_formula_units_Z   4
loop_
 _symmetry_equiv_pos_site_id
 _symmetry_equiv_pos_as_xyz
  1  'x, y, z'
loop_
 _atom_site_type_symbol
 _atom_site_label
 _atom_site_symmetry_multiplicity
 _atom_site_fract_x
 _atom_site_fract_y
 _atom_site_fract_z
 _atom_site_occupancy
  Co  Co0  1  0.55468000  0.30470000  0.24983000  1.0
  Co  Co1  1  0.44531000  0.69531000  0.75016000  1.0
  Co  Co2  1  0.49996000  0.99987000  0.99991000  1.0
  Co  Co3  1  0.49995000  0.50004000  0.50008000  1.0
  H  H4  1  0.89410000  0.14182000  0.15430000  1.0
  H  H5  1  0.11926000  0.26153000  0.26090000  1.0
  H  H6  1  0.12601000  0.45872000  0.61256000  1.0
  H  H7  1  0.89887000  0.34407000  0.50354000  1.0
  H  H8  1  0.27104000  0.20504000  0.01007000  1.0
  H  H9  1  0.04630000  0.15114000  0.94892000  1.0
  H  H10  1  0.13228000  0.89379000  0.09372000  1.0
  H  H11  1  0.35267000  0.95827000  0.14480000  1.0
  H  H12  1  0.48803000  0.73956000  0.34596000  1.0
  H  H13  1  0.50107000  0.85815000  0.23936000  1.0
  H  H14  1  0.34624000  0.51368000  0.88752000  1.0
  H  H15  1  0.34058000  0.39554000  0.99648000  1.0
  H  H16  1  0.69522000  0.26048000  0.48961000  1.0
  H  H17  1  0.70234000  0.09689000  0.55065000  1.0
  H  H18  1  0.30024000  0.03891000  0.40665000  1.0
  H  H19  1  0.31378000  0.20816000  0.35569000  1.0
  H  H20  1  0.10591000  0.85817000  0.84570000  1.0
  H  H21  1  0.88076000  0.73849000  0.73912000  1.0
  H  H22  1  0.87398000  0.54130000  0.38745000  1.0
  H  H23  1  0.10113000  0.65592000  0.49645000  1.0
  H  H24  1  0.72897000  0.79494000  0.98991000  1.0
  H  H25  1  0.95370000  0.84887000  0.05107000  1.0
  H  H26  1  0.86773000  0.10621000  0.90632000  1.0
  H  H27  1  0.64734000  0.04173000  0.85520000  1.0
  H  H28  1  0.51196000  0.26046000  0.65404000  1.0
  H  H29  1  0.49894000  0.14186000  0.76061000  1.0
  H  H30  1  0.65375000  0.48629000  0.11246000  1.0
  H  H31  1  0.65942000  0.60448000  0.00353000  1.0
  H  H32  1  0.30478000  0.73956000  0.51042000  1.0
  H  H33  1  0.29768000  0.90314000  0.44937000  1.0
  H  H34  1  0.69973000  0.96107000  0.59333000  1.0
  H  H35  1  0.68621000  0.79185000  0.64432000  1.0
  C  C36  1  0.74449000  0.17422000  0.25346000  1.0
  C  C37  1  0.88349000  0.23372000  0.32235000  1.0
  C  C38  1  0.94672000  0.20968000  0.25497000  1.0
  C  C39  1  0.07170000  0.27581000  0.31452000  1.0
  C  C40  1  0.13654000  0.36599000  0.44394000  1.0
  C  C41  1  0.07465000  0.38725000  0.51258000  1.0
  C  C42  1  0.94907000  0.32277000  0.45209000  1.0
  C  C43  1  0.26827000  0.44536000  0.50878000  1.0
  C  C44  1  0.23206000  0.13747000  0.02482000  1.0
  C  C45  1  0.10891000  0.10583000  0.99363000  1.0
  C  C46  1  0.06546000  0.01783000  0.01732000  1.0
  C  C47  1  0.15637000  0.96446000  0.07394000  1.0
  C  C48  1  0.27925000  0.99820000  0.10473000  1.0
  C  C49  1  0.42081000  0.49100000  0.24660000  1.0
  C  C50  1  0.41166000  0.56109000  0.17780000  1.0
  C  C51  1  0.45518000  0.69157000  0.24527000  1.0
  C  C52  1  0.46174000  0.75704000  0.18574000  1.0
  C  C53  1  0.42239000  0.69267000  0.05628000  1.0
  C  C54  1  0.37490000  0.56225000  0.98756000  1.0
  C  C55  1  0.37091000  0.49711000  0.04802000  1.0
  C  C56  1  0.43671000  0.75963000  0.99145000  1.0
  C  C57  1  0.61287000  0.20694000  0.47502000  1.0
  C  C58  1  0.61235000  0.11496000  0.50615000  1.0
  C  C59  1  0.50060000  0.04814000  0.48269000  1.0
  C  C60  1  0.39071000  0.08263000  0.42631000  1.0
  C  C61  1  0.39376000  0.17475000  0.39566000  1.0
  C  C62  1  0.25553000  0.82573000  0.74649000  1.0
  C  C63  1  0.11654000  0.76627000  0.67764000  1.0
  C  C64  1  0.05332000  0.79033000  0.74503000  1.0
  C  C65  1  0.92833000  0.72422000  0.68550000  1.0
  C  C66  1  0.86348000  0.63404000  0.55610000  1.0
  C  C67  1  0.92536000  0.61276000  0.48743000  1.0
  C  C68  1  0.05094000  0.67722000  0.54790000  1.0
  C  C69  1  0.73174000  0.55470000  0.49129000  1.0
  C  C70  1  0.76794000  0.86251000  0.97516000  1.0
  C  C71  1  0.89110000  0.89417000  0.00637000  1.0
  C  C72  1  0.93454000  0.98218000  0.98269000  1.0
  C  C73  1  0.84363000  0.03553000  0.92606000  1.0
  C  C74  1  0.72074000  0.00178000  0.89525000  1.0
  C  C75  1  0.57920000  0.50909000  0.75346000  1.0
  C  C76  1  0.58835000  0.43895000  0.82222000  1.0
  C  C77  1  0.54481000  0.30846000  0.75473000  1.0
  C  C78  1  0.53826000  0.24297000  0.81423000  1.0
  C  C79  1  0.57761000  0.30731000  0.94367000  1.0
  C  C80  1  0.62510000  0.43773000  0.01242000  1.0
  C  C81  1  0.62909000  0.50290000  0.95198000  1.0
  C  C82  1  0.56327000  0.24028000  0.00846000  1.0
  C  C83  1  0.38713000  0.79308000  0.52501000  1.0
  C  C84  1  0.38765000  0.88506000  0.49387000  1.0
  C  C85  1  0.49939000  0.95186000  0.51731000  1.0
  C  C86  1  0.60927000  0.91737000  0.57370000  1.0
  C  C87  1  0.60623000  0.82526000  0.60438000  1.0
  N  N88  1  0.31633000  0.08557000  0.08218000  1.0
  N  N89  1  0.50369000  0.23416000  0.41802000  1.0
  N  N90  1  0.68365000  0.91439000  0.91777000  1.0
  N  N91  1  0.49630000  0.76587000  0.58202000  1.0
  O  O92  1  0.68851000  0.22473000  0.31420000  1.0
  O  O93  1  0.69145000  0.08329000  0.14082000  1.0
  O  O94  1  0.31719000  0.52567000  0.62540000  1.0
  O  O95  1  0.31943000  0.42650000  0.44153000  1.0
  O  O96  1  0.43622000  0.11860000  0.11516000  1.0
  O  O97  1  0.41039000  0.37430000  0.18587000  1.0
  O  O98  1  0.44260000  0.55064000  0.35932000  1.0
  O  O99  1  0.40036000  0.69199000  0.87479000  1.0
  O  O100  1  0.48495000  0.87793000  0.05861000  1.0
  O  O101  1  0.50375000  0.32095000  0.38499000  1.0
  O  O102  1  0.31152000  0.77521000  0.68577000  1.0
  O  O103  1  0.30858000  0.91663000  0.85914000  1.0
  O  O104  1  0.68284000  0.47437000  0.37467000  1.0
  O  O105  1  0.68055000  0.57359000  0.55853000  1.0
  O  O106  1  0.56374000  0.88129000  0.88473000  1.0
  O  O107  1  0.58961000  0.62577000  0.81417000  1.0
  O  O108  1  0.55740000  0.44945000  0.64073000  1.0
  O  O109  1  0.59963000  0.30796000  0.12513000  1.0
  O  O110  1  0.51508000  0.12197000  0.94130000  1.0
  O  O111  1  0.49621000  0.67910000  0.61510000  1.0
