# generated using pymatgen
data_CuH5C6(NO2)2
_symmetry_space_group_name_H-M   'P 1'
_cell_length_a   8.06427000
_cell_length_b   8.91031000
_cell_length_c   10.99140000
_cell_angle_alpha   111.06800000
_cell_angle_beta   89.99990000
_cell_angle_gamma   89.99990000
_symmetry_Int_Tables_number   1
_chemical_formula_structural   CuH5C6(NO2)2
_chemical_formula_sum   'Cu4 H20 C24 N8 O16'
_cell_volume   736.99479064
_cell_formula_units_Z   4
loop_
 _symmetry_equiv_pos_site_id
 _symmetry_equiv_pos_as_xyz
  1  'x, y, z'
loop_
 _atom_site_type_symbol
 _atom_site_label
 _atom_site_symmetry_multiplicity
 _atom_site_fract_x
 _atom_site_fract_y
 _atom_site_fract_z
 _atom_site_occupancy
  Cu  Cu0  1  0.82422000  0.34576000  0.77725000  1.0
  Cu  Cu1  1  0.32422000  0.15423000  0.72275000  1.0
  Cu  Cu2  1  0.17578000  0.65423000  0.22275000  1.0
  Cu  Cu3  1  0.67578000  0.84576000  0.27725000  1.0
  H  H4  1  0.78760000  0.08874000  0.91977000  1.0
  H  H5  1  0.28761000  0.41126000  0.58024000  1.0
  H  H6  1  0.21240000  0.91126000  0.08023000  1.0
  H  H7  1  0.71239000  0.58873000  0.41977000  1.0
  H  H8  1  0.89849000  0.08829000  0.13231000  1.0
  H  H9  1  0.39849000  0.41172000  0.36770000  1.0
  H  H10  1  0.10151000  0.91172000  0.86769000  1.0
  H  H11  1  0.60149000  0.58828000  0.63231000  1.0
  H  H12  1  0.08708000  0.32123000  0.26347000  1.0
  H  H13  1  0.58707000  0.17878000  0.23652000  1.0
  H  H14  1  0.91294000  0.67878000  0.73652000  1.0
  H  H15  1  0.41291000  0.82123000  0.76347000  1.0
  H  H16  1  0.92304000  0.90468000  0.61771000  1.0
  H  H17  1  0.42304000  0.59532000  0.88229000  1.0
  H  H18  1  0.07697000  0.09533000  0.38229000  1.0
  H  H19  1  0.57696000  0.40467000  0.11772000  1.0
  H  H20  1  0.99568000  0.29815000  0.54082000  1.0
  H  H21  1  0.49566000  0.20187000  0.95919000  1.0
  H  H22  1  0.00432000  0.70186000  0.45918000  1.0
  H  H23  1  0.50432000  0.79814000  0.04082000  1.0
  C  C24  1  0.98744000  0.43152000  0.02038000  1.0
  C  C25  1  0.48744000  0.06848000  0.47963000  1.0
  C  C26  1  0.01257000  0.56848000  0.97962000  1.0
  C  C27  1  0.51257000  0.93152000  0.52037000  1.0
  C  C28  1  0.86388000  0.18760000  0.98254000  1.0
  C  C29  1  0.36390000  0.31240000  0.51746000  1.0
  C  C30  1  0.13611000  0.81240000  0.01746000  1.0
  C  C31  1  0.63611000  0.68759000  0.48254000  1.0
  C  C32  1  0.92830000  0.18729000  0.09990000  1.0
  C  C33  1  0.42830000  0.31272000  0.40011000  1.0
  C  C34  1  0.07170000  0.81272000  0.90010000  1.0
  C  C35  1  0.57169000  0.68728000  0.59990000  1.0
  C  C36  1  0.03030000  0.31476000  0.17216000  1.0
  C  C37  1  0.53030000  0.18525000  0.32784000  1.0
  C  C38  1  0.96971000  0.68524000  0.82783000  1.0
  C  C39  1  0.46969000  0.81475000  0.67216000  1.0
  C  C40  1  0.92815000  0.03793000  0.65231000  1.0
  C  C41  1  0.42814000  0.46207000  0.84769000  1.0
  C  C42  1  0.07186000  0.96207000  0.34769000  1.0
  C  C43  1  0.57187000  0.53793000  0.15232000  1.0
  C  C44  1  0.87661000  0.34973000  0.52339000  1.0
  C  C45  1  0.37660000  0.15028000  0.97661000  1.0
  C  C46  1  0.12340000  0.65027000  0.47661000  1.0
  C  C47  1  0.62338000  0.84972000  0.02339000  1.0
  N  N48  1  0.89523000  0.31104000  0.94270000  1.0
  N  N49  1  0.39524000  0.18896000  0.55730000  1.0
  N  N50  1  0.10476000  0.68895000  0.05730000  1.0
  N  N51  1  0.60477000  0.81104000  0.44270000  1.0
  N  N52  1  0.05831000  0.43815000  0.13225000  1.0
  N  N53  1  0.55832000  0.06185000  0.36775000  1.0
  N  N54  1  0.94169000  0.56185000  0.86774000  1.0
  N  N55  1  0.44169000  0.93815000  0.63225000  1.0
  O  O56  1  0.78862000  0.10845000  0.69192000  1.0
  O  O57  1  0.28862000  0.39155000  0.80808000  1.0
  O  O58  1  0.21139000  0.89155000  0.30808000  1.0
  O  O59  1  0.71138000  0.60844000  0.19192000  1.0
  O  O60  1  0.77303000  0.39058000  0.62035000  1.0
  O  O61  1  0.27303000  0.10941000  0.87965000  1.0
  O  O62  1  0.22697000  0.60941000  0.37965000  1.0
  O  O63  1  0.72696000  0.89058000  0.12034000  1.0
  O  O64  1  0.06262000  0.10704000  0.65068000  1.0
  O  O65  1  0.56263000  0.39295000  0.84932000  1.0
  O  O66  1  0.93739000  0.89296000  0.34932000  1.0
  O  O67  1  0.43738000  0.60705000  0.15069000  1.0
  O  O68  1  0.84844000  0.36510000  0.41721000  1.0
  O  O69  1  0.34843000  0.13491000  0.08279000  1.0
  O  O70  1  0.15156000  0.63491000  0.58279000  1.0
  O  O71  1  0.65155000  0.86509000  0.91720000  1.0
