# generated using pymatgen
data_CuH8C13SN7
_symmetry_space_group_name_H-M   'P 1'
_cell_length_a   5.67993000
_cell_length_b   5.70433000
_cell_length_c   20.49370000
_cell_angle_alpha   90.00390000
_cell_angle_beta   90.00120000
_cell_angle_gamma   101.46800000
_symmetry_Int_Tables_number   1
_chemical_formula_structural   CuH8C13SN7
_chemical_formula_sum   'Cu2 H16 C26 S2 N14'
_cell_volume   650.74371627
_cell_formula_units_Z   2
loop_
 _symmetry_equiv_pos_site_id
 _symmetry_equiv_pos_as_xyz
  1  'x, y, z'
loop_
 _atom_site_type_symbol
 _atom_site_label
 _atom_site_symmetry_multiplicity
 _atom_site_fract_x
 _atom_site_fract_y
 _atom_site_fract_z
 _atom_site_occupancy
  Cu  Cu0  1  0.45943000  0.44211000  0.24997000  1.0
  Cu  Cu1  1  0.54055000  0.55790000  0.74997000  1.0
  H  H2  1  0.39228000  0.81929000  0.14614000  1.0
  H  H3  1  0.60781000  0.18066000  0.64614000  1.0
  H  H4  1  0.60754000  0.18071000  0.85383000  1.0
  H  H5  1  0.39243000  0.81936000  0.35383000  1.0
  H  H6  1  0.07213000  0.84921000  0.06508000  1.0
  H  H7  1  0.92790000  0.15082000  0.56508000  1.0
  H  H8  1  0.92749000  0.15069000  0.93492000  1.0
  H  H9  1  0.07246000  0.84930000  0.43492000  1.0
  H  H10  1  0.09096000  0.11044000  0.18665000  1.0
  H  H11  1  0.90895000  0.88952000  0.68664000  1.0
  H  H12  1  0.90897000  0.88949000  0.81334000  1.0
  H  H13  1  0.09107000  0.11058000  0.31333000  1.0
  H  H14  1  0.75359000  0.11359000  0.10949000  1.0
  H  H15  1  0.24633000  0.88636000  0.60949000  1.0
  H  H16  1  0.24619000  0.88622000  0.89052000  1.0
  H  H17  1  0.75382000  0.11376000  0.39053000  1.0
  C  C18  1  0.24841000  0.66606000  0.13619000  1.0
  C  C19  1  0.75163000  0.33388000  0.63619000  1.0
  C  C20  1  0.75131000  0.33385000  0.86381000  1.0
  C  C21  1  0.24863000  0.66618000  0.36381000  1.0
  C  C22  1  0.88150000  0.48357000  0.08188000  1.0
  C  C23  1  0.11853000  0.51637000  0.58188000  1.0
  C  C24  1  0.11822000  0.51635000  0.91814000  1.0
  C  C25  1  0.88176000  0.48372000  0.41813000  1.0
  C  C26  1  0.06866000  0.68272000  0.09144000  1.0
  C  C27  1  0.93137000  0.31725000  0.59145000  1.0
  C  C28  1  0.93104000  0.31724000  0.90855000  1.0
  C  C29  1  0.06893000  0.68283000  0.40856000  1.0
  C  C30  1  0.67914000  0.49280000  0.03826000  1.0
  C  C31  1  0.32094000  0.50722000  0.53826000  1.0
  C  C32  1  0.32062000  0.50706000  0.96175000  1.0
  C  C33  1  0.67937000  0.49293000  0.46175000  1.0
  C  C34  1  0.07985000  0.27164000  0.15918000  1.0
  C  C35  1  0.92015000  0.72834000  0.65917000  1.0
  C  C36  1  0.92001000  0.72830000  0.84083000  1.0
  C  C37  1  0.08001000  0.27174000  0.34081000  1.0
  C  C38  1  0.89235000  0.27309000  0.11605000  1.0
  C  C39  1  0.10760000  0.72688000  0.61606000  1.0
  C  C40  1  0.10744000  0.72679000  0.88396000  1.0
  C  C41  1  0.89260000  0.27324000  0.38395000  1.0
  C  C42  1  0.64883000  0.97017000  0.24999000  1.0
  C  C43  1  0.35113000  0.02980000  0.74998000  1.0
  S  S44  1  0.78957000  0.74674000  0.25000000  1.0
  S  S45  1  0.21039000  0.25327000  0.75001000  1.0
  N  N46  1  0.25396000  0.46555000  0.17086000  1.0
  N  N47  1  0.74608000  0.53439000  0.67087000  1.0
  N  N48  1  0.74584000  0.53437000  0.82913000  1.0
  N  N49  1  0.25415000  0.46565000  0.32912000  1.0
  N  N50  1  0.55180000  0.13585000  0.24999000  1.0
  N  N51  1  0.44817000  0.86414000  0.74998000  1.0
  N  N52  1  0.67889000  0.69867000  0.00512000  1.0
  N  N53  1  0.32118000  0.30134000  0.50510000  1.0
  N  N54  1  0.32084000  0.30120000  0.99492000  1.0
  N  N55  1  0.67918000  0.69881000  0.49493000  1.0
  N  N56  1  0.50265000  0.29421000  0.03392000  1.0
  N  N57  1  0.49737000  0.70578000  0.53394000  1.0
  N  N58  1  0.49709000  0.70564000  0.96611000  1.0
  N  N59  1  0.50293000  0.29438000  0.46610000  1.0
