# generated using pymatgen
data_UH8C14(IO3)2
_symmetry_space_group_name_H-M   'P 1'
_cell_length_a   5.12623000
_cell_length_b   9.06540000
_cell_length_c   17.96190000
_cell_angle_alpha   89.99990000
_cell_angle_beta   89.99970000
_cell_angle_gamma   85.96480000
_symmetry_Int_Tables_number   1
_chemical_formula_structural   UH8C14(IO3)2
_chemical_formula_sum   'U2 H16 C28 I4 O12'
_cell_volume   832.64405177
_cell_formula_units_Z   2
loop_
 _symmetry_equiv_pos_site_id
 _symmetry_equiv_pos_as_xyz
  1  'x, y, z'
loop_
 _atom_site_type_symbol
 _atom_site_label
 _atom_site_symmetry_multiplicity
 _atom_site_fract_x
 _atom_site_fract_y
 _atom_site_fract_z
 _atom_site_occupancy
  U  U0  1  0.00000000  0.50002000  0.50000000  1.0
  U  U1  1  0.00000000  0.99998000  0.00000000  1.0
  H  H2  1  0.16568000  0.26315000  0.31741000  1.0
  H  H3  1  0.83433000  0.23685000  0.81741000  1.0
  H  H4  1  0.83432000  0.73685000  0.68259000  1.0
  H  H5  1  0.16568000  0.76315000  0.18259000  1.0
  H  H6  1  0.77304000  0.55095000  0.26308000  1.0
  H  H7  1  0.22696000  0.94904000  0.76308000  1.0
  H  H8  1  0.22696000  0.44904000  0.73693000  1.0
  H  H9  1  0.77305000  0.05096000  0.23693000  1.0
  H  H10  1  0.37099000  0.33077000  0.08791000  1.0
  H  H11  1  0.62901000  0.16923000  0.58791000  1.0
  H  H12  1  0.62902000  0.66923000  0.91209000  1.0
  H  H13  1  0.37098000  0.83077000  0.41209000  1.0
  H  H14  1  0.10457000  0.21236000  0.18179000  1.0
  H  H15  1  0.89544000  0.28765000  0.68179000  1.0
  H  H16  1  0.89544000  0.78764000  0.81820000  1.0
  H  H17  1  0.10456000  0.71236000  0.31821000  1.0
  C  C18  1  0.28400000  0.31446000  0.27564000  1.0
  C  C19  1  0.71600000  0.18553000  0.77564000  1.0
  C  C20  1  0.71599000  0.68553000  0.72436000  1.0
  C  C21  1  0.28400000  0.81447000  0.22436000  1.0
  C  C22  1  0.51184000  0.44121000  0.37790000  1.0
  C  C23  1  0.48817000  0.05878000  0.87790000  1.0
  C  C24  1  0.48815000  0.55878000  0.62210000  1.0
  C  C25  1  0.51184000  0.94122000  0.12210000  1.0
  C  C26  1  0.62923000  0.47594000  0.24481000  1.0
  C  C27  1  0.37077000  0.02406000  0.74482000  1.0
  C  C28  1  0.37077000  0.52406000  0.75519000  1.0
  C  C29  1  0.62923000  0.97594000  0.25519000  1.0
  C  C30  1  0.47537000  0.40866000  0.29801000  1.0
  C  C31  1  0.52464000  0.09134000  0.79801000  1.0
  C  C32  1  0.52463000  0.59133000  0.70199000  1.0
  C  C33  1  0.47537000  0.90867000  0.20199000  1.0
  C  C34  1  0.40184000  0.35260000  0.14672000  1.0
  C  C35  1  0.59816000  0.14740000  0.64672000  1.0
  C  C36  1  0.59816000  0.64740000  0.85328000  1.0
  C  C37  1  0.40184000  0.85260000  0.35329000  1.0
  C  C38  1  0.25132000  0.28568000  0.20021000  1.0
  C  C39  1  0.74868000  0.21431000  0.70021000  1.0
  C  C40  1  0.74868000  0.71431000  0.79979000  1.0
  C  C41  1  0.25132000  0.78569000  0.29979000  1.0
  C  C42  1  0.58766000  0.44926000  0.16951000  1.0
  C  C43  1  0.41233000  0.05074000  0.66951000  1.0
  C  C44  1  0.41234000  0.55074000  0.83049000  1.0
  C  C45  1  0.58767000  0.94926000  0.33049000  1.0
  I  I46  1  0.78869000  0.56435000  0.08844000  1.0
  I  I47  1  0.21129000  0.93565000  0.58844000  1.0
  I  I48  1  0.21129000  0.43566000  0.91156000  1.0
  I  I49  1  0.78871000  0.06434000  0.41156000  1.0
  O  O50  1  0.72026000  0.49879000  0.39876000  1.0
  O  O51  1  0.27975000  0.00121000  0.89877000  1.0
  O  O52  1  0.27972000  0.50121000  0.60123000  1.0
  O  O53  1  0.72027000  0.99879000  0.10123000  1.0
  O  O54  1  0.06940000  0.68706000  0.47577000  1.0
  O  O55  1  0.93061000  0.81295000  0.97577000  1.0
  O  O56  1  0.93057000  0.31295000  0.52423000  1.0
  O  O57  1  0.06942000  0.18706000  0.02423000  1.0
  O  O58  1  0.33147000  0.41237000  0.42393000  1.0
  O  O59  1  0.66854000  0.08763000  0.92393000  1.0
  O  O60  1  0.66852000  0.58764000  0.57607000  1.0
  O  O61  1  0.33147000  0.91237000  0.07607000  1.0
