# generated using pymatgen
data_Co2H24C25(N4O)4
_symmetry_space_group_name_H-M   'P 1'
_cell_length_a   10.21440000
_cell_length_b   10.21670000
_cell_length_c   17.59463281
_cell_angle_alpha   106.83722000
_cell_angle_beta   106.85777008
_cell_angle_gamma   90.02490000
_symmetry_Int_Tables_number   1
_chemical_formula_structural   Co2H24C25(N4O)4
_chemical_formula_sum   'Co4 H48 C50 N32 O8'
_cell_volume   1674.73825772
_cell_formula_units_Z   2
loop_
 _symmetry_equiv_pos_site_id
 _symmetry_equiv_pos_as_xyz
  1  'x, y, z'
loop_
 _atom_site_type_symbol
 _atom_site_label
 _atom_site_symmetry_multiplicity
 _atom_site_fract_x
 _atom_site_fract_y
 _atom_site_fract_z
 _atom_site_occupancy
  Co  Co0  1  0.50000000  0.00000000  0.00000000  1.0
  Co  Co1  1  0.00000000  0.00000000  0.00000000  1.0
  Co  Co2  1  0.00000000  0.00000000  0.50000000  1.0
  Co  Co3  1  0.00000000  0.50000000  0.50000000  1.0
  H  H4  1  0.55070000  0.17220000  0.90645000  1.0
  H  H5  1  0.85589000  0.73415000  0.90668000  1.0
  H  H6  1  0.17274000  0.85608000  0.40678000  1.0
  H  H7  1  0.73441000  0.55062000  0.40648000  1.0
  H  H8  1  0.44930000  0.82780000  0.09355000  1.0
  H  H9  1  0.14411000  0.26585000  0.09332000  1.0
  H  H10  1  0.82727000  0.14392000  0.59322000  1.0
  H  H11  1  0.26559000  0.44938000  0.59352000  1.0
  H  H12  1  0.43984000  0.91625000  0.64965000  1.0
  H  H13  1  0.71011000  0.73329000  0.64979000  1.0
  H  H14  1  0.91673000  0.70935000  0.14995000  1.0
  H  H15  1  0.73356000  0.43951000  0.14959000  1.0
  H  H16  1  0.56016000  0.08374000  0.35035000  1.0
  H  H17  1  0.28989000  0.26671000  0.35021000  1.0
  H  H18  1  0.08327000  0.29065000  0.85005000  1.0
  H  H19  1  0.26644000  0.56049000  0.85041000  1.0
  H  H20  1  0.38289000  0.72122000  0.69868000  1.0
  H  H21  1  0.81623000  0.97718000  0.69863000  1.0
  H  H22  1  0.72167000  0.81557000  0.19877000  1.0
  H  H23  1  0.97752000  0.38247000  0.19858000  1.0
  H  H24  1  0.61711000  0.27878000  0.30132000  1.0
  H  H25  1  0.18377000  0.02282000  0.30137000  1.0
  H  H26  1  0.27833000  0.18443000  0.80123000  1.0
  H  H27  1  0.02248000  0.61753000  0.80142000  1.0
  H  H28  1  0.41950000  0.76351000  0.85160000  1.0
  H  H29  1  0.93229000  0.08781000  0.85152000  1.0
  H  H30  1  0.76391000  0.93216000  0.35159000  1.0
  H  H31  1  0.08817000  0.41937000  0.35150000  1.0
  H  H32  1  0.58050000  0.23649000  0.14840000  1.0
  H  H33  1  0.06771000  0.91219000  0.14848000  1.0
  H  H34  1  0.23610000  0.06784000  0.64841000  1.0
  H  H35  1  0.91183000  0.58063000  0.64850000  1.0
  H  H36  1  0.53814000  0.33768000  0.84197000  1.0
  H  H37  1  0.80354000  0.50388000  0.84208000  1.0
  H  H38  1  0.33833000  0.80351000  0.34225000  1.0
  H  H39  1  0.50445000  0.53808000  0.34206000  1.0
  H  H40  1  0.46186000  0.66233000  0.15803000  1.0
  H  H41  1  0.19646000  0.49611000  0.15791000  1.0
  H  H42  1  0.66167000  0.19648000  0.65774000  1.0
  H  H43  1  0.49555000  0.46193000  0.65794000  1.0
  H  H44  1  0.70228000  0.27131000  0.84508000  1.0
  H  H45  1  0.64266000  0.57371000  0.84524000  1.0
  H  H46  1  0.27194000  0.64255000  0.34550000  1.0
  H  H47  1  0.57416000  0.70220000  0.34525000  1.0
  H  H48  1  0.29772000  0.72869000  0.15492000  1.0
  H  H49  1  0.35734000  0.42627000  0.15475000  1.0
  H  H50  1  0.72806000  0.35744000  0.65450000  1.0
  H  H51  1  0.42584000  0.29780000  0.65475000  1.0
  C  C52  1  0.51697000  0.07421000  0.85807000  1.0
  C  C53  1  0.84125000  0.78374000  0.85824000  1.0
  C  C54  1  0.07473000  0.84126000  0.35835000  1.0
  C  C55  1  0.78399000  0.51681000  0.35806000  1.0
  C  C56  1  0.48302000  0.92580000  0.14193000  1.0
  C  C57  1  0.15875000  0.21625000  0.14176000  1.0
  C  C58  1  0.92527000  0.15873000  0.64165000  1.0
  C  C59  1  0.21601000  0.48318000  0.64193000  1.0
  C  C60  1  0.50491000  0.05693000  0.77470000  1.0
  C  C61  1  0.76993000  0.71776000  0.77490000  1.0
  C  C62  1  0.05738000  0.76963000  0.27504000  1.0
  C  C63  1  0.71798000  0.50481000  0.27470000  1.0
  C  C64  1  0.49509000  0.94307000  0.22530000  1.0
  C  C65  1  0.23007000  0.28224000  0.22510000  1.0
  C  C66  1  0.94262000  0.23036000  0.72496000  1.0
  C  C67  1  0.28202000  0.49520000  0.72530000  1.0
  C  C68  1  0.45431000  0.92911000  0.71529000  1.0
  C  C69  1  0.76119000  0.78611000  0.71541000  1.0
  C  C70  1  0.92954000  0.76067000  0.21556000  1.0
  C  C71  1  0.78634000  0.45405000  0.21523000  1.0
  C  C72  1  0.54569000  0.07089000  0.28471000  1.0
  C  C73  1  0.23881000  0.21390000  0.28460000  1.0
  C  C74  1  0.07046000  0.23933000  0.78444000  1.0
  C  C75  1  0.21367000  0.54595000  0.78477000  1.0
  C  C76  1  0.42303000  0.82220000  0.74274000  1.0
  C  C77  1  0.82006000  0.92032000  0.74274000  1.0
  C  C78  1  0.82267000  0.81954000  0.24288000  1.0
  C  C79  1  0.92061000  0.42270000  0.24266000  1.0
  C  C80  1  0.57696000  0.17780000  0.25726000  1.0
  C  C81  1  0.17994000  0.07968000  0.25726000  1.0
  C  C82  1  0.17733000  0.18046000  0.75712000  1.0
  C  C83  1  0.07939000  0.57731000  0.75734000  1.0
  C  C84  1  0.44204000  0.84420000  0.82726000  1.0
  C  C85  1  0.88548000  0.98282000  0.82725000  1.0
  C  C86  1  0.84464000  0.88528000  0.32733000  1.0
  C  C87  1  0.98314000  0.44183000  0.32718000  1.0
  C  C88  1  0.55796000  0.15580000  0.17274000  1.0
  C  C89  1  0.11452000  0.01717000  0.17275000  1.0
  C  C90  1  0.15536000  0.11472000  0.67267000  1.0
  C  C91  1  0.01687000  0.55818000  0.67282000  1.0
  C  C92  1  0.60366000  0.28803000  0.80419000  1.0
  C  C93  1  0.70032000  0.51609000  0.80433000  1.0
  C  C94  1  0.28856000  0.70025000  0.30455000  1.0
  C  C95  1  0.51648000  0.60367000  0.30432000  1.0
  C  C96  1  0.39634000  0.71197000  0.19581000  1.0
  C  C97  1  0.29968000  0.48391000  0.19567000  1.0
  C  C98  1  0.71144000  0.29975000  0.69545000  1.0
  C  C99  1  0.48352000  0.39633000  0.69568000  1.0
  C  C100  1  0.62473000  0.37505000  0.74991000  1.0
  C  C101  1  0.37527000  0.62494000  0.25008000  1.0
  N  N102  1  0.48575000  0.96885000  0.88360000  1.0
  N  N103  1  0.89800000  0.91457000  0.88366000  1.0
  N  N104  1  0.96929000  0.89802000  0.38373000  1.0
  N  N105  1  0.91484000  0.48559000  0.38356000  1.0
  N  N106  1  0.51424000  0.03115000  0.11640000  1.0
  N  N107  1  0.10200000  0.08542000  0.11634000  1.0
  N  N108  1  0.03072000  0.10198000  0.61627000  1.0
  N  N109  1  0.08516000  0.51442000  0.61644000  1.0
  N  N110  1  0.32233000  0.84183000  0.95861000  1.0
  N  N111  1  0.13625000  0.11675000  0.95849000  1.0
  N  N112  1  0.84178000  0.13621000  0.45842000  1.0
  N  N113  1  0.11691000  0.32244000  0.45866000  1.0
  N  N114  1  0.67766000  0.15817000  0.04139000  1.0
  N  N115  1  0.86375000  0.88325000  0.04151000  1.0
  N  N116  1  0.15822000  0.86378000  0.54158000  1.0
  N  N117  1  0.88309000  0.67756000  0.54134000  1.0
  N  N118  1  0.22063000  0.84761000  0.97805000  1.0
  N  N119  1  0.25738000  0.13038000  0.97788000  1.0
  N  N120  1  0.84755000  0.25731000  0.47787000  1.0
  N  N121  1  0.13054000  0.22071000  0.47807000  1.0
  N  N122  1  0.77937000  0.15239000  0.02195000  1.0
  N  N123  1  0.74262000  0.86962000  0.02212000  1.0
  N  N124  1  0.15245000  0.74269000  0.52213000  1.0
  N  N125  1  0.86947000  0.77929000  0.52193000  1.0
  N  N126  1  0.11843000  0.84718000  0.99838000  1.0
  N  N127  1  0.37989000  0.15112000  0.99816000  1.0
  N  N128  1  0.84711000  0.37978000  0.49823000  1.0
  N  N129  1  0.15126000  0.11850000  0.49836000  1.0
  N  N130  1  0.88157000  0.15282000  0.00162000  1.0
  N  N131  1  0.62010000  0.84888000  0.00183000  1.0
  N  N132  1  0.15289000  0.62022000  0.50177000  1.0
  N  N133  1  0.84875000  0.88150000  0.50164000  1.0
  O  O134  1  0.53645000  0.15903000  0.74581000  1.0
  O  O135  1  0.70942000  0.58686000  0.74601000  1.0
  O  O136  1  0.15942000  0.70907000  0.24623000  1.0
  O  O137  1  0.58710000  0.53654000  0.24589000  1.0
  O  O138  1  0.46355000  0.84096000  0.25418000  1.0
  O  O139  1  0.29058000  0.41314000  0.25399000  1.0
  O  O140  1  0.84057000  0.29093000  0.75377000  1.0
  O  O141  1  0.41290000  0.46345000  0.75410000  1.0
