# generated using pymatgen
data_NaH11C4O5
_symmetry_space_group_name_H-M   'P 1'
_cell_length_a   5.90439000
_cell_length_b   11.71752018
_cell_length_c   12.04791062
_cell_angle_alpha   65.40171355
_cell_angle_beta   76.14933790
_cell_angle_gamma   75.77832608
_symmetry_Int_Tables_number   1
_chemical_formula_structural   NaH11C4O5
_chemical_formula_sum   'Na4 H44 C16 O20'
_cell_volume   725.71448583
_cell_formula_units_Z   4
loop_
 _symmetry_equiv_pos_site_id
 _symmetry_equiv_pos_as_xyz
  1  'x, y, z'
loop_
 _atom_site_type_symbol
 _atom_site_label
 _atom_site_symmetry_multiplicity
 _atom_site_fract_x
 _atom_site_fract_y
 _atom_site_fract_z
 _atom_site_occupancy
  Na  Na0  1  0.37768000  0.26997000  0.23873000  1.0
  Na  Na1  1  0.88561000  0.23038000  0.26108000  1.0
  Na  Na2  1  0.62233000  0.73003000  0.76127000  1.0
  Na  Na3  1  0.11437000  0.76963000  0.73893000  1.0
  H  H4  1  0.27054000  0.24246000  0.95466000  1.0
  H  H5  1  0.47300000  0.25737000  0.54464000  1.0
  H  H6  1  0.72943000  0.75754000  0.04531000  1.0
  H  H7  1  0.52707000  0.74261000  0.45538000  1.0
  H  H8  1  0.59265000  0.03132000  0.38458000  1.0
  H  H9  1  0.01090000  0.46847000  0.11529000  1.0
  H  H10  1  0.40737000  0.96866000  0.61541000  1.0
  H  H11  1  0.98906000  0.53153000  0.88472000  1.0
  H  H12  1  0.52543000  0.11625000  0.46847000  1.0
  H  H13  1  0.11031000  0.38394000  0.03109000  1.0
  H  H14  1  0.47459000  0.88373000  0.53152000  1.0
  H  H15  1  0.88968000  0.61606000  0.96891000  1.0
  H  H16  1  0.50250000  0.40919000  0.35184000  1.0
  H  H17  1  0.25715000  0.09202000  0.14695000  1.0
  H  H18  1  0.49755000  0.59078000  0.64819000  1.0
  H  H19  1  0.74283000  0.90802000  0.85303000  1.0
  H  H20  1  0.65369000  0.49244000  0.22710000  1.0
  H  H21  1  0.36838000  0.00867000  0.27140000  1.0
  H  H22  1  0.34628000  0.50755000  0.77292000  1.0
  H  H23  1  0.63158000  0.99134000  0.72858000  1.0
  H  H24  1  0.67412000  0.11434000  0.01616000  1.0
  H  H25  1  0.81159000  0.38567000  0.48346000  1.0
  H  H26  1  0.32581000  0.88568000  0.98384000  1.0
  H  H27  1  0.18848000  0.61435000  0.51653000  1.0
  H  H28  1  0.86565000  0.05404000  0.13056000  1.0
  H  H29  1  0.05600000  0.44591000  0.36903000  1.0
  H  H30  1  0.13431000  0.94597000  0.86943000  1.0
  H  H31  1  0.94411000  0.55407000  0.63099000  1.0
  H  H32  1  0.03215000  0.13978000  0.87584000  1.0
  H  H33  1  0.05815000  0.36044000  0.62365000  1.0
  H  H34  1  0.96780000  0.86023000  0.12414000  1.0
  H  H35  1  0.94193000  0.63955000  0.37636000  1.0
  H  H36  1  0.90756000  0.36292000  0.79399000  1.0
  H  H37  1  0.07076000  0.13711000  0.70568000  1.0
  H  H38  1  0.09240000  0.63709000  0.20600000  1.0
  H  H39  1  0.92928000  0.86288000  0.29433000  1.0
  H  H40  1  0.68517000  0.43704000  0.99456000  1.0
  H  H41  1  0.11661000  0.06287000  0.50514000  1.0
  H  H42  1  0.31481000  0.56298000  0.00542000  1.0
  H  H43  1  0.88337000  0.93712000  0.49489000  1.0
  H  H44  1  0.55577000  0.35848000  0.93132000  1.0
  H  H45  1  0.84878000  0.14132000  0.56845000  1.0
  H  H46  1  0.44417000  0.64153000  0.06868000  1.0
  H  H47  1  0.15123000  0.85869000  0.43157000  1.0
  C  C48  1  0.81016000  0.13637000  0.04975000  1.0
  C  C49  1  0.00199000  0.36360000  0.44991000  1.0
  C  C50  1  0.18979000  0.86364000  0.95024000  1.0
  C  C51  1  0.99807000  0.63640000  0.55010000  1.0
  C  C52  1  0.01335000  0.18044000  0.94562000  1.0
  C  C53  1  0.14669000  0.31965000  0.55391000  1.0
  C  C54  1  0.98660000  0.81957000  0.05436000  1.0
  C  C55  1  0.85337000  0.68034000  0.44610000  1.0
  C  C56  1  0.94188000  0.33145000  0.88943000  1.0
  C  C57  1  0.16760000  0.16856000  0.61023000  1.0
  C  C58  1  0.05809000  0.66855000  0.11055000  1.0
  C  C59  1  0.83244000  0.83143000  0.38978000  1.0
  C  C60  1  0.70728000  0.35252000  0.97326000  1.0
  C  C61  1  0.03544000  0.14738000  0.52648000  1.0
  C  C62  1  0.29268000  0.64749000  0.02673000  1.0
  C  C63  1  0.96457000  0.85262000  0.47354000  1.0
  O  O64  1  0.71178000  0.24237000  0.08821000  1.0
  O  O65  1  0.04459000  0.25755000  0.41152000  1.0
  O  O66  1  0.28821000  0.75764000  0.91177000  1.0
  O  O67  1  0.95544000  0.74244000  0.58850000  1.0
  O  O68  1  0.23393000  0.15267000  0.98814000  1.0
  O  O69  1  0.38178000  0.34725000  0.51111000  1.0
  O  O70  1  0.76602000  0.84733000  0.01185000  1.0
  O  O71  1  0.61829000  0.65273000  0.48892000  1.0
  O  O72  1  0.12325000  0.38764000  0.89297000  1.0
  O  O73  1  0.40720000  0.11245000  0.60675000  1.0
  O  O74  1  0.87672000  0.61236000  0.10702000  1.0
  O  O75  1  0.59284000  0.88753000  0.39325000  1.0
  O  O76  1  0.59788000  0.11744000  0.38288000  1.0
  O  O77  1  0.09977000  0.38272000  0.11676000  1.0
  O  O78  1  0.40211000  0.88255000  0.61711000  1.0
  O  O79  1  0.90022000  0.61729000  0.88324000  1.0
  O  O80  1  0.56804000  0.41948000  0.26470000  1.0
  O  O81  1  0.24746000  0.08126000  0.23428000  1.0
  O  O82  1  0.43196000  0.58051000  0.73532000  1.0
  O  O83  1  0.75251000  0.91875000  0.76570000  1.0
