# generated using pymatgen
data_CdH5C10N3O4
_symmetry_space_group_name_H-M   'P 1'
_cell_length_a   11.28460000
_cell_length_b   12.48530000
_cell_length_c   12.49510000
_cell_angle_alpha   105.34300000
_cell_angle_beta   116.84900000
_cell_angle_gamma   89.99820000
_symmetry_Int_Tables_number   1
_chemical_formula_structural   CdH5C10N3O4
_chemical_formula_sum   'Cd4 H20 C40 N12 O16'
_cell_volume   1500.02390860
_cell_formula_units_Z   4
loop_
 _symmetry_equiv_pos_site_id
 _symmetry_equiv_pos_as_xyz
  1  'x, y, z'
loop_
 _atom_site_type_symbol
 _atom_site_label
 _atom_site_symmetry_multiplicity
 _atom_site_fract_x
 _atom_site_fract_y
 _atom_site_fract_z
 _atom_site_occupancy
  Cd  Cd0  1  0.09005000  0.15459000  0.60100000  1.0
  Cd  Cd1  1  0.48888000  0.34537000  0.39886000  1.0
  Cd  Cd2  1  0.90995000  0.84542000  0.39893000  1.0
  Cd  Cd3  1  0.51110000  0.65464000  0.60109000  1.0
  H  H4  1  0.13304000  0.09480000  0.84624000  1.0
  H  H5  1  0.29948000  0.02954000  0.01788000  1.0
  H  H6  1  0.38777000  0.09764000  0.68939000  1.0
  H  H7  1  0.56546000  0.03030000  0.85229000  1.0
  H  H8  1  0.72697000  0.14009000  0.37677000  1.0
  H  H9  1  0.28616000  0.40418000  0.15280000  1.0
  H  H10  1  0.28127000  0.46990000  0.98157000  1.0
  H  H11  1  0.69796000  0.40259000  0.31079000  1.0
  H  H12  1  0.71303000  0.46998000  0.14806000  1.0
  H  H13  1  0.35055000  0.35975000  0.62342000  1.0
  H  H14  1  0.86698000  0.90515000  0.15373000  1.0
  H  H15  1  0.70055000  0.97044000  0.98212000  1.0
  H  H16  1  0.61235000  0.90242000  0.31068000  1.0
  H  H17  1  0.43462000  0.96976000  0.14780000  1.0
  H  H18  1  0.27308000  0.85994000  0.62322000  1.0
  H  H19  1  0.71366000  0.59539000  0.84697000  1.0
  H  H20  1  0.71845000  0.52963000  0.01811000  1.0
  H  H21  1  0.30199000  0.59771000  0.68934000  1.0
  H  H22  1  0.28685000  0.53039000  0.85212000  1.0
  H  H23  1  0.64951000  0.64029000  0.37661000  1.0
  C  C24  1  0.23054000  0.07948000  0.85143000  1.0
  C  C25  1  0.32480000  0.04162000  0.94708000  1.0
  C  C26  1  0.37260000  0.08079000  0.76406000  1.0
  C  C27  1  0.47204000  0.04316000  0.85640000  1.0
  C  C28  1  0.44888000  0.02128000  0.95066000  1.0
  C  C29  1  0.77188000  0.21567000  0.45590000  1.0
  C  C30  1  0.79499000  0.37904000  0.58521000  1.0
  C  C31  1  0.75456000  0.48253000  0.63848000  1.0
  C  C32  1  0.91830000  0.33968000  0.62538000  1.0
  C  C33  1  0.04888000  0.38775000  0.73442000  1.0
  C  C34  1  0.37855000  0.41989000  0.14792000  1.0
  C  C35  1  0.37737000  0.45794000  0.05247000  1.0
  C  C36  1  0.60813000  0.41921000  0.23593000  1.0
  C  C37  1  0.61541000  0.45689000  0.14371000  1.0
  C  C38  1  0.49802000  0.47862000  0.04925000  1.0
  C  C39  1  0.31621000  0.28425000  0.54424000  1.0
  C  C40  1  0.20971000  0.12101000  0.41483000  1.0
  C  C41  1  0.11604000  0.01746000  0.36146000  1.0
  C  C42  1  0.29288000  0.16033000  0.37468000  1.0
  C  C43  1  0.31442000  0.11207000  0.26563000  1.0
  C  C44  1  0.76949000  0.92050000  0.14855000  1.0
  C  C45  1  0.67523000  0.95836000  0.05292000  1.0
  C  C46  1  0.62748000  0.91924000  0.23598000  1.0
  C  C47  1  0.52803000  0.95687000  0.14364000  1.0
  C  C48  1  0.55116000  0.97871000  0.04936000  1.0
  C  C49  1  0.22816000  0.78436000  0.54413000  1.0
  C  C50  1  0.20507000  0.62100000  0.41481000  1.0
  C  C51  1  0.24546000  0.51747000  0.36151000  1.0
  C  C52  1  0.08176000  0.66035000  0.37466000  1.0
  C  C53  1  0.95115000  0.61227000  0.26559000  1.0
  C  C54  1  0.62128000  0.57984000  0.85191000  1.0
  C  C55  1  0.62241000  0.54179000  0.94732000  1.0
  C  C56  1  0.39179000  0.58095000  0.76413000  1.0
  C  C57  1  0.38446000  0.54329000  0.85636000  1.0
  C  C58  1  0.50180000  0.52135000  0.95068000  1.0
  C  C59  1  0.68386000  0.71578000  0.45579000  1.0
  C  C60  1  0.79033000  0.87901000  0.58519000  1.0
  C  C61  1  0.88402000  0.98258000  0.63860000  1.0
  C  C62  1  0.70716000  0.83968000  0.62535000  1.0
  C  C63  1  0.68560000  0.88793000  0.73440000  1.0
  N  N64  1  0.25322000  0.09776000  0.76040000  1.0
  N  N65  1  0.90217000  0.23693000  0.54287000  1.0
  N  N66  1  0.70373000  0.29990000  0.47844000  1.0
  N  N67  1  0.49227000  0.40187000  0.23919000  1.0
  N  N68  1  0.35943000  0.26302000  0.45723000  1.0
  N  N69  1  0.22538000  0.20011000  0.52167000  1.0
  N  N70  1  0.74683000  0.90224000  0.23960000  1.0
  N  N71  1  0.09788000  0.76309000  0.45717000  1.0
  N  N72  1  0.29633000  0.70013000  0.52159000  1.0
  N  N73  1  0.50764000  0.59807000  0.76075000  1.0
  N  N74  1  0.64061000  0.73697000  0.54278000  1.0
  N  N75  1  0.77468000  0.79991000  0.47835000  1.0
  O  O76  1  0.14720000  0.33022000  0.75391000  1.0
  O  O77  1  0.06705000  0.48467000  0.80892000  1.0
  O  O78  1  0.83686000  0.55704000  0.73539000  1.0
  O  O79  1  0.62863000  0.49360000  0.58115000  1.0
  O  O80  1  0.39324000  0.16953000  0.24606000  1.0
  O  O81  1  0.25812000  0.01505000  0.19133000  1.0
  O  O82  1  0.10159000  0.94301000  0.26457000  1.0
  O  O83  1  0.04737000  0.00635000  0.41871000  1.0
  O  O84  1  0.85285000  0.66984000  0.24615000  1.0
  O  O85  1  0.93297000  0.51535000  0.19109000  1.0
  O  O86  1  0.16315000  0.44298000  0.26458000  1.0
  O  O87  1  0.37140000  0.50638000  0.41887000  1.0
  O  O88  1  0.60680000  0.83045000  0.75397000  1.0
  O  O89  1  0.74188000  0.98497000  0.80867000  1.0
  O  O90  1  0.89844000  0.05702000  0.73550000  1.0
  O  O91  1  0.95266000  0.99364000  0.58132000  1.0
