# generated using pymatgen
data_Co2H18C24N4O9
_symmetry_space_group_name_H-M   'P 1'
_cell_length_a   11.18680000
_cell_length_b   13.30160000
_cell_length_c   25.85940000
_cell_angle_alpha   89.99890000
_cell_angle_beta   90.00010000
_cell_angle_gamma   89.99970000
_symmetry_Int_Tables_number   1
_chemical_formula_structural   Co2H18C24N4O9
_chemical_formula_sum   'Co8 H72 C96 N16 O36'
_cell_volume   3847.93920127
_cell_formula_units_Z   4
loop_
 _symmetry_equiv_pos_site_id
 _symmetry_equiv_pos_as_xyz
  1  'x, y, z'
loop_
 _atom_site_type_symbol
 _atom_site_label
 _atom_site_symmetry_multiplicity
 _atom_site_fract_x
 _atom_site_fract_y
 _atom_site_fract_z
 _atom_site_occupancy
  Co  Co0  1  0.34947000  0.44382000  0.92390000  1.0
  Co  Co1  1  0.60133000  0.55725000  0.85872000  1.0
  Co  Co2  1  0.15053000  0.55618000  0.42391000  1.0
  Co  Co3  1  0.89868000  0.44274000  0.35872000  1.0
  Co  Co4  1  0.65052000  0.94381000  0.57609000  1.0
  Co  Co5  1  0.39868000  0.05726000  0.64129000  1.0
  Co  Co6  1  0.84947000  0.05618000  0.07609000  1.0
  Co  Co7  1  0.10131000  0.94275000  0.14129000  1.0
  H  H8  1  0.35110000  0.58644000  0.85857000  1.0
  H  H9  1  0.42776000  0.63584000  0.90704000  1.0
  H  H10  1  0.09224000  0.49267000  0.95287000  1.0
  H  H11  1  0.34098000  0.06257000  0.75470000  1.0
  H  H12  1  0.53286000  0.25183000  0.65840000  1.0
  H  H13  1  0.80213000  0.69903000  0.83136000  1.0
  H  H14  1  0.98102000  0.62177000  0.00563000  1.0
  H  H15  1  0.75870000  0.28503000  0.92071000  1.0
  H  H16  1  0.85328000  0.14242000  0.97032000  1.0
  H  H17  1  0.41895000  0.59378000  0.00640000  1.0
  H  H18  1  0.02759000  0.69323000  0.82995000  1.0
  H  H19  1  0.68557000  0.22705000  0.10558000  1.0
  H  H20  1  0.56638000  0.37561000  0.73009000  1.0
  H  H21  1  0.32141000  0.72755000  0.06094000  1.0
  H  H22  1  0.57639000  0.36858000  0.06085000  1.0
  H  H23  1  0.36614000  0.18041000  0.83051000  1.0
  H  H24  1  0.77860000  0.39035000  0.84583000  1.0
  H  H25  1  0.00289000  0.37273000  0.84993000  1.0
  H  H26  1  0.14892000  0.41355000  0.35857000  1.0
  H  H27  1  0.07224000  0.36416000  0.40704000  1.0
  H  H28  1  0.40778000  0.50734000  0.45287000  1.0
  H  H29  1  0.15904000  0.93744000  0.25471000  1.0
  H  H30  1  0.96714000  0.74820000  0.15841000  1.0
  H  H31  1  0.69788000  0.30099000  0.33137000  1.0
  H  H32  1  0.51900000  0.37823000  0.50562000  1.0
  H  H33  1  0.74134000  0.71498000  0.42070000  1.0
  H  H34  1  0.64672000  0.85758000  0.47031000  1.0
  H  H35  1  0.08108000  0.40620000  0.50640000  1.0
  H  H36  1  0.47241000  0.30678000  0.32996000  1.0
  H  H37  1  0.81443000  0.77296000  0.60558000  1.0
  H  H38  1  0.93362000  0.62441000  0.23009000  1.0
  H  H39  1  0.17862000  0.27245000  0.56093000  1.0
  H  H40  1  0.92362000  0.63143000  0.56085000  1.0
  H  H41  1  0.13386000  0.81959000  0.33052000  1.0
  H  H42  1  0.72140000  0.60967000  0.34585000  1.0
  H  H43  1  0.49709000  0.62728000  0.34994000  1.0
  H  H44  1  0.64892000  0.08643000  0.64144000  1.0
  H  H45  1  0.57226000  0.13584000  0.59296000  1.0
  H  H46  1  0.90775000  0.99265000  0.54713000  1.0
  H  H47  1  0.65907000  0.56258000  0.74530000  1.0
  H  H48  1  0.46713000  0.75179000  0.84158000  1.0
  H  H49  1  0.19788000  0.19902000  0.66863000  1.0
  H  H50  1  0.01896000  0.12176000  0.49437000  1.0
  H  H51  1  0.24130000  0.78503000  0.57929000  1.0
  H  H52  1  0.14672000  0.64241000  0.52969000  1.0
  H  H53  1  0.58104000  0.09377000  0.49360000  1.0
  H  H54  1  0.97240000  0.19322000  0.67005000  1.0
  H  H55  1  0.31444000  0.72705000  0.39442000  1.0
  H  H56  1  0.43361000  0.87558000  0.76990000  1.0
  H  H57  1  0.67857000  0.22755000  0.43907000  1.0
  H  H58  1  0.42360000  0.86859000  0.43915000  1.0
  H  H59  1  0.63390000  0.68041000  0.66948000  1.0
  H  H60  1  0.22140000  0.89033000  0.65416000  1.0
  H  H61  1  0.99711000  0.87272000  0.65007000  1.0
  H  H62  1  0.85107000  0.91356000  0.14144000  1.0
  H  H63  1  0.92773000  0.86414000  0.09297000  1.0
  H  H64  1  0.59223000  0.00733000  0.04713000  1.0
  H  H65  1  0.84094000  0.43744000  0.24530000  1.0
  H  H66  1  0.03285000  0.24820000  0.34160000  1.0
  H  H67  1  0.30213000  0.80098000  0.16864000  1.0
  H  H68  1  0.48102000  0.87823000  0.99436000  1.0
  H  H69  1  0.25872000  0.21498000  0.07929000  1.0
  H  H70  1  0.35330000  0.35758000  0.02968000  1.0
  H  H71  1  0.91894000  0.90619000  0.99360000  1.0
  H  H72  1  0.52760000  0.80677000  0.17006000  1.0
  H  H73  1  0.18556000  0.27297000  0.89441000  1.0
  H  H74  1  0.06638000  0.12442000  0.26991000  1.0
  H  H75  1  0.82140000  0.77243000  0.93907000  1.0
  H  H76  1  0.07638000  0.13144000  0.93915000  1.0
  H  H77  1  0.86612000  0.31960000  0.16949000  1.0
  H  H78  1  0.27861000  0.10966000  0.15417000  1.0
  H  H79  1  0.50291000  0.12727000  0.15007000  1.0
  C  C80  1  0.13929000  0.54605000  0.97751000  1.0
  C  C81  1  0.39046000  0.13292000  0.75113000  1.0
  C  C82  1  0.49751000  0.23843000  0.69706000  1.0
  C  C83  1  0.85052000  0.62808000  0.83408000  1.0
  C  C84  1  0.07824000  0.61727000  0.00656000  1.0
  C  C85  1  0.73983000  0.27389000  0.96161000  1.0
  C  C86  1  0.08038000  0.76513000  0.06746000  1.0
  C  C87  1  0.79242000  0.19544000  0.98869000  1.0
  C  C88  1  0.48322000  0.36225000  0.82873000  1.0
  C  C89  1  0.32228000  0.60270000  0.00752000  1.0
  C  C90  1  0.97473000  0.62486000  0.83382000  1.0
  C  C91  1  0.69787000  0.24265000  0.06455000  1.0
  C  C92  1  0.46815000  0.28738000  0.78573000  1.0
  C  C93  1  0.03203000  0.53233000  0.84077000  1.0
  C  C94  1  0.65971000  0.33769000  0.98708000  1.0
  C  C95  1  0.51605000  0.30682000  0.73678000  1.0
  C  C96  1  0.14351000  0.68479000  0.03702000  1.0
  C  C97  1  0.26799000  0.67608000  0.03772000  1.0
  C  C98  1  0.63849000  0.32076000  0.03970000  1.0
  C  C99  1  0.59664000  0.41949000  0.95759000  1.0
  C  C100  1  0.40444000  0.19784000  0.79282000  1.0
  C  C101  1  0.83758000  0.45522000  0.84281000  1.0
  C  C102  1  0.96113000  0.44594000  0.84452000  1.0
  C  C103  1  0.16536000  0.52751000  0.84857000  1.0
  C  C104  1  0.36073000  0.45395000  0.47751000  1.0
  C  C105  1  0.10955000  0.86710000  0.25114000  1.0
  C  C106  1  0.00249000  0.76160000  0.19707000  1.0
  C  C107  1  0.64948000  0.37193000  0.33409000  1.0
  C  C108  1  0.42178000  0.38273000  0.50656000  1.0
  C  C109  1  0.76019000  0.72612000  0.46160000  1.0
  C  C110  1  0.41964000  0.23486000  0.56745000  1.0
  C  C111  1  0.70758000  0.80456000  0.48869000  1.0
  C  C112  1  0.01677000  0.63776000  0.32874000  1.0
  C  C113  1  0.17774000  0.39729000  0.50752000  1.0
  C  C114  1  0.52527000  0.37515000  0.33383000  1.0
  C  C115  1  0.80212000  0.75736000  0.56455000  1.0
  C  C116  1  0.03184000  0.71264000  0.28574000  1.0
  C  C117  1  0.46796000  0.46767000  0.34078000  1.0
  C  C118  1  0.84031000  0.66231000  0.48708000  1.0
  C  C119  1  0.98395000  0.69320000  0.23679000  1.0
  C  C120  1  0.35651000  0.31520000  0.53702000  1.0
  C  C121  1  0.23203000  0.32391000  0.53772000  1.0
  C  C122  1  0.86152000  0.67925000  0.53970000  1.0
  C  C123  1  0.90337000  0.58050000  0.45759000  1.0
  C  C124  1  0.09557000  0.80217000  0.29282000  1.0
  C  C125  1  0.66242000  0.54479000  0.34282000  1.0
  C  C126  1  0.53886000  0.55407000  0.34453000  1.0
  C  C127  1  0.33464000  0.47250000  0.34857000  1.0
  C  C128  1  0.86069000  0.04604000  0.52248000  1.0
  C  C129  1  0.60958000  0.63290000  0.74886000  1.0
  C  C130  1  0.50248000  0.73840000  0.80292000  1.0
  C  C131  1  0.14947000  0.12807000  0.66591000  1.0
  C  C132  1  0.92174000  0.11726000  0.49343000  1.0
  C  C133  1  0.26016000  0.77388000  0.53840000  1.0
  C  C134  1  0.91960000  0.26514000  0.43255000  1.0
  C  C135  1  0.20757000  0.69544000  0.51131000  1.0
  C  C136  1  0.51678000  0.86224000  0.67126000  1.0
  C  C137  1  0.67770000  0.10269000  0.49248000  1.0
  C  C138  1  0.02525000  0.12485000  0.66617000  1.0
  C  C139  1  0.30212000  0.74264000  0.43545000  1.0
  C  C140  1  0.53185000  0.78735000  0.71426000  1.0
  C  C141  1  0.96795000  0.03232000  0.65923000  1.0
  C  C142  1  0.34029000  0.83769000  0.51292000  1.0
  C  C143  1  0.48395000  0.80679000  0.76321000  1.0
  C  C144  1  0.85647000  0.18479000  0.46298000  1.0
  C  C145  1  0.73199000  0.17607000  0.46228000  1.0
  C  C146  1  0.36150000  0.82076000  0.46030000  1.0
  C  C147  1  0.40336000  0.91949000  0.54241000  1.0
  C  C148  1  0.59560000  0.69782000  0.70718000  1.0
  C  C149  1  0.16241000  0.95521000  0.65718000  1.0
  C  C150  1  0.03885000  0.94593000  0.65548000  1.0
  C  C151  1  0.83464000  0.02749000  0.65143000  1.0
  C  C152  1  0.63928000  0.95394000  0.02248000  1.0
  C  C153  1  0.89043000  0.36710000  0.24887000  1.0
  C  C154  1  0.99750000  0.26159000  0.30294000  1.0
  C  C155  1  0.35054000  0.87192000  0.16593000  1.0
  C  C156  1  0.57823000  0.88272000  0.99343000  1.0
  C  C157  1  0.23985000  0.22612000  0.03839000  1.0
  C  C158  1  0.58039000  0.73487000  0.93254000  1.0
  C  C159  1  0.29244000  0.30456000  0.01130000  1.0
  C  C160  1  0.98322000  0.13776000  0.17126000  1.0
  C  C161  1  0.82228000  0.89728000  0.99248000  1.0
  C  C162  1  0.47475000  0.87515000  0.16619000  1.0
  C  C163  1  0.19788000  0.25737000  0.93544000  1.0
  C  C164  1  0.96814000  0.21265000  0.21427000  1.0
  C  C165  1  0.53205000  0.96767000  0.15923000  1.0
  C  C166  1  0.15972000  0.16232000  0.01291000  1.0
  C  C167  1  0.01604000  0.19321000  0.26322000  1.0
  C  C168  1  0.64351000  0.81520000  0.96298000  1.0
  C  C169  1  0.76798000  0.82391000  0.96228000  1.0
  C  C170  1  0.13849000  0.17926000  0.96030000  1.0
  C  C171  1  0.09664000  0.08052000  0.04241000  1.0
  C  C172  1  0.90442000  0.30218000  0.20718000  1.0
  C  C173  1  0.33759000  0.04478000  0.15719000  1.0
  C  C174  1  0.46115000  0.05406000  0.15549000  1.0
  C  C175  1  0.66536000  0.97250000  0.15144000  1.0
  N  N176  1  0.43518000  0.15268000  0.70375000  1.0
  N  N177  1  0.77249000  0.17976000  0.03947000  1.0
  N  N178  1  0.25969000  0.53937000  0.97712000  1.0
  N  N179  1  0.78248000  0.54506000  0.83928000  1.0
  N  N180  1  0.06482000  0.84734000  0.20376000  1.0
  N  N181  1  0.72749000  0.82023000  0.53947000  1.0
  N  N182  1  0.24032000  0.46063000  0.47712000  1.0
  N  N183  1  0.71751000  0.45495000  0.33928000  1.0
  N  N184  1  0.56482000  0.65266000  0.79624000  1.0
  N  N185  1  0.22750000  0.67976000  0.46053000  1.0
  N  N186  1  0.74030000  0.03936000  0.52288000  1.0
  N  N187  1  0.21751000  0.04506000  0.66072000  1.0
  N  N188  1  0.93517000  0.34734000  0.29625000  1.0
  N  N189  1  0.27251000  0.32024000  0.96052000  1.0
  N  N190  1  0.75968000  0.96061000  0.02287000  1.0
  N  N191  1  0.28250000  0.95494000  0.16073000  1.0
  O  O192  1  0.41923000  0.57224000  0.88452000  1.0
  O  O193  1  0.96718000  0.76838000  0.06473000  1.0
  O  O194  1  0.22924000  0.59849000  0.83142000  1.0
  O  O195  1  0.20157000  0.45206000  0.87509000  1.0
  O  O196  1  0.55186000  0.43627000  0.81857000  1.0
  O  O197  1  0.49149000  0.44229000  0.97349000  1.0
  O  O198  1  0.14663000  0.82473000  0.09367000  1.0
  O  O199  1  0.42718000  0.34616000  0.87055000  1.0
  O  O200  1  0.65144000  0.45651000  0.91951000  1.0
  O  O201  1  0.08077000  0.42775000  0.38453000  1.0
  O  O202  1  0.53283000  0.23160000  0.56472000  1.0
  O  O203  1  0.27077000  0.40150000  0.33143000  1.0
  O  O204  1  0.29840000  0.54795000  0.37508000  1.0
  O  O205  1  0.94817000  0.56373000  0.31858000  1.0
  O  O206  1  0.00851000  0.55767000  0.47350000  1.0
  O  O207  1  0.35338000  0.17526000  0.59366000  1.0
  O  O208  1  0.07277000  0.65386000  0.37057000  1.0
  O  O209  1  0.84858000  0.54350000  0.41951000  1.0
  O  O210  1  0.58076000  0.07222000  0.61547000  1.0
  O  O211  1  0.03278000  0.26841000  0.43529000  1.0
  O  O212  1  0.77075000  0.09847000  0.66859000  1.0
  O  O213  1  0.79842000  0.95206000  0.62491000  1.0
  O  O214  1  0.44817000  0.93627000  0.68142000  1.0
  O  O215  1  0.50851000  0.94230000  0.52650000  1.0
  O  O216  1  0.85335000  0.32473000  0.40633000  1.0
  O  O217  1  0.57279000  0.84613000  0.62943000  1.0
  O  O218  1  0.34856000  0.95650000  0.58049000  1.0
  O  O219  1  0.91922000  0.92777000  0.11548000  1.0
  O  O220  1  0.46721000  0.73159000  0.93527000  1.0
  O  O221  1  0.72926000  0.90151000  0.16860000  1.0
  O  O222  1  0.70159000  0.04792000  0.12491000  1.0
  O  O223  1  0.05184000  0.06374000  0.18143000  1.0
  O  O224  1  0.99149000  0.05772000  0.02651000  1.0
  O  O225  1  0.64665000  0.67528000  0.90632000  1.0
  O  O226  1  0.92719000  0.15386000  0.12944000  1.0
  O  O227  1  0.15144000  0.04350000  0.08049000  1.0
