# generated using pymatgen
data_CdH5C4N9
_symmetry_space_group_name_H-M   'P 1'
_cell_length_a   11.62800000
_cell_length_b   12.62260000
_cell_length_c   12.68740000
_cell_angle_alpha   111.00300000
_cell_angle_beta   107.89900000
_cell_angle_gamma   107.66200000
_symmetry_Int_Tables_number   1
_chemical_formula_structural   CdH5C4N9
_chemical_formula_sum   'Cd6 H30 C24 N54'
_cell_volume   1464.14975756
_cell_formula_units_Z   6
loop_
 _symmetry_equiv_pos_site_id
 _symmetry_equiv_pos_as_xyz
  1  'x, y, z'
loop_
 _atom_site_type_symbol
 _atom_site_label
 _atom_site_symmetry_multiplicity
 _atom_site_fract_x
 _atom_site_fract_y
 _atom_site_fract_z
 _atom_site_occupancy
  Cd  Cd0  1  0.76496000  0.94261000  0.44337000  1.0
  Cd  Cd1  1  0.32141000  0.55612000  0.49908000  1.0
  Cd  Cd2  1  0.82168000  0.50017000  0.05680000  1.0
  Cd  Cd3  1  0.23504000  0.05739000  0.55663000  1.0
  Cd  Cd4  1  0.67859000  0.44388000  0.50092000  1.0
  Cd  Cd5  1  0.17832000  0.49983000  0.94320000  1.0
  H  H6  1  0.37819000  0.43957000  0.24749000  1.0
  H  H7  1  0.13034000  0.75228000  0.19269000  1.0
  H  H8  1  0.93753000  0.80778000  0.55993000  1.0
  H  H9  1  0.62181000  0.56044000  0.75251000  1.0
  H  H10  1  0.86966000  0.24772000  0.80731000  1.0
  H  H11  1  0.06247000  0.19223000  0.44007000  1.0
  H  H12  1  0.25190000  0.30945000  0.09632000  1.0
  H  H13  1  0.15553000  0.90441000  0.21430000  1.0
  H  H14  1  0.94149000  0.78540000  0.68951000  1.0
  H  H15  1  0.74810000  0.69055000  0.90368000  1.0
  H  H16  1  0.84447000  0.09559000  0.78570000  1.0
  H  H17  1  0.05852000  0.21460000  0.31049000  1.0
  H  H18  1  0.55178000  0.59858000  0.12996000  1.0
  H  H19  1  0.42159000  0.86942000  0.46886000  1.0
  H  H20  1  0.95296000  0.53088000  0.40055000  1.0
  H  H21  1  0.44822000  0.40142000  0.87004000  1.0
  H  H22  1  0.57841000  0.13058000  0.53114000  1.0
  H  H23  1  0.04704000  0.46912000  0.59945000  1.0
  H  H24  1  0.53993000  0.60293000  0.26578000  1.0
  H  H25  1  0.27411000  0.73320000  0.33781000  1.0
  H  H26  1  0.93654000  0.66296000  0.39635000  1.0
  H  H27  1  0.46007000  0.39707000  0.73422000  1.0
  H  H28  1  0.72589000  0.26680000  0.66219000  1.0
  H  H29  1  0.06346000  0.33704000  0.60365000  1.0
  H  H30  1  0.38356000  0.40680000  0.03640000  1.0
  H  H31  1  0.34708000  0.96401000  0.37119000  1.0
  H  H32  1  0.97585000  0.62790000  0.59214000  1.0
  H  H33  1  0.61644000  0.59320000  0.96360000  1.0
  H  H34  1  0.65292000  0.03599000  0.62881000  1.0
  H  H35  1  0.02415000  0.37210000  0.40786000  1.0
  C  C36  1  0.29941000  0.41432000  0.15500000  1.0
  C  C37  1  0.14417000  0.84515000  0.25989000  1.0
  C  C38  1  0.88432000  0.74007000  0.58509000  1.0
  C  C39  1  0.70059000  0.58569000  0.84500000  1.0
  C  C40  1  0.85583000  0.15485000  0.74011000  1.0
  C  C41  1  0.11568000  0.25993000  0.41492000  1.0
  C  C42  1  0.48300000  0.59403000  0.17309000  1.0
  C  C43  1  0.30968000  0.82636000  0.42105000  1.0
  C  C44  1  0.88878000  0.57895000  0.40544000  1.0
  C  C45  1  0.51700000  0.40597000  0.82691000  1.0
  C  C46  1  0.69032000  0.17364000  0.57895000  1.0
  C  C47  1  0.11122000  0.42105000  0.59456000  1.0
  C  C48  1  0.19320000  0.44949000  0.17454000  1.0
  C  C49  1  0.01849000  0.82564000  0.27529000  1.0
  C  C50  1  0.74325000  0.72484000  0.55037000  1.0
  C  C51  1  0.80680000  0.55051000  0.82546000  1.0
  C  C52  1  0.98151000  0.17436000  0.72472000  1.0
  C  C53  1  0.25675000  0.27516000  0.44964000  1.0
  C  C54  1  0.45460000  0.70557000  0.19385000  1.0
  C  C55  1  0.26028000  0.80573000  0.51114000  1.0
  C  C56  1  0.74939000  0.48882000  0.29476000  1.0
  C  C57  1  0.54540000  0.29443000  0.80614000  1.0
  C  C58  1  0.73972000  0.19427000  0.48886000  1.0
  C  C59  1  0.25061000  0.51118000  0.70524000  1.0
  N  N60  1  0.35802000  0.47003000  0.08801000  1.0
  N  N61  1  0.26983000  0.91191000  0.38218000  1.0
  N  N62  1  0.88768000  0.61725000  0.52921000  1.0
  N  N63  1  0.64198000  0.52997000  0.91198000  1.0
  N  N64  1  0.73017000  0.08809000  0.61782000  1.0
  N  N65  1  0.11232000  0.38276000  0.47079000  1.0
  N  N66  1  0.17798000  0.47906000  0.28069000  1.0
  N  N67  1  0.89706000  0.71935000  0.19833000  1.0
  N  N68  1  0.69813000  0.80157000  0.52037000  1.0
  N  N69  1  0.82202000  0.52094000  0.71931000  1.0
  N  N70  1  0.10294000  0.28065000  0.80167000  1.0
  N  N71  1  0.30187000  0.19843000  0.47963000  1.0
  N  N72  1  0.06605000  0.49627000  0.25629000  1.0
  N  N73  1  0.80953000  0.74369000  0.23970000  1.0
  N  N74  1  0.56936000  0.76028000  0.50349000  1.0
  N  N75  1  0.93395000  0.50373000  0.74371000  1.0
  N  N76  1  0.19047000  0.25631000  0.76030000  1.0
  N  N77  1  0.43064000  0.23972000  0.49651000  1.0
  N  N78  1  0.01746000  0.47920000  0.14004000  1.0
  N  N79  1  0.87722000  0.86002000  0.33909000  1.0
  N  N80  1  0.53833000  0.66106000  0.52118000  1.0
  N  N81  1  0.98254000  0.52080000  0.85996000  1.0
  N  N82  1  0.12278000  0.13998000  0.66091000  1.0
  N  N83  1  0.46167000  0.33894000  0.47882000  1.0
  N  N84  1  0.09430000  0.44914000  0.08545000  1.0
  N  N85  1  0.00867000  0.91476000  0.36400000  1.0
  N  N86  1  0.64522000  0.63628000  0.55135000  1.0
  N  N87  1  0.90570000  0.55087000  0.91455000  1.0
  N  N88  1  0.99133000  0.08524000  0.63601000  1.0
  N  N89  1  0.35478000  0.36372000  0.44865000  1.0
  N  N90  1  0.33613000  0.69625000  0.12242000  1.0
  N  N91  1  0.21305000  0.87751000  0.57261000  1.0
  N  N92  1  0.64057000  0.42763000  0.30480000  1.0
  N  N93  1  0.66387000  0.30375000  0.87758000  1.0
  N  N94  1  0.78695000  0.12249000  0.42739000  1.0
  N  N95  1  0.35943000  0.57237000  0.69520000  1.0
  N  N96  1  0.35144000  0.81706000  0.16615000  1.0
  N  N97  1  0.18496000  0.83402000  0.64954000  1.0
  N  N98  1  0.53569000  0.35039000  0.18459000  1.0
  N  N99  1  0.64856000  0.18294000  0.83385000  1.0
  N  N100  1  0.81504000  0.16598000  0.35046000  1.0
  N  N101  1  0.46431000  0.64961000  0.81541000  1.0
  N  N102  1  0.47446000  0.89656000  0.26145000  1.0
  N  N103  1  0.21297000  0.73841000  0.63426000  1.0
  N  N104  1  0.57921000  0.36527000  0.10475000  1.0
  N  N105  1  0.52554000  0.10344000  0.73855000  1.0
  N  N106  1  0.78703000  0.26159000  0.36574000  1.0
  N  N107  1  0.42079000  0.63473000  0.89525000  1.0
  N  N108  1  0.54225000  0.82885000  0.28089000  1.0
  N  N109  1  0.26120000  0.71860000  0.54759000  1.0
  N  N110  1  0.71416000  0.45193000  0.17164000  1.0
  N  N111  1  0.45775000  0.17115000  0.71911000  1.0
  N  N112  1  0.73880000  0.28140000  0.45241000  1.0
  N  N113  1  0.28584000  0.54807000  0.82836000  1.0
