# generated using pymatgen
data_CuH24(C5N)8
_symmetry_space_group_name_H-M   'P 1'
_cell_length_a   9.30815000
_cell_length_b   19.56170000
_cell_length_c   19.56010000
_cell_angle_alpha   117.54000000
_cell_angle_beta   99.12320000
_cell_angle_gamma   99.12700000
_symmetry_Int_Tables_number   1
_chemical_formula_structural   CuH24(C5N)8
_chemical_formula_sum   'Cu3 H72 C120 N24'
_cell_volume   3006.63727870
_cell_formula_units_Z   3
loop_
 _symmetry_equiv_pos_site_id
 _symmetry_equiv_pos_as_xyz
  1  'x, y, z'
loop_
 _atom_site_type_symbol
 _atom_site_label
 _atom_site_symmetry_multiplicity
 _atom_site_fract_x
 _atom_site_fract_y
 _atom_site_fract_z
 _atom_site_occupancy
  Cu  Cu0  1  0.50000000  0.50000000  0.50000000  1.0
  Cu  Cu1  1  0.00000000  0.50000000  0.00000000  1.0
  Cu  Cu2  1  0.00000000  0.00000000  0.50000000  1.0
  H  H3  1  0.06718000  0.49853000  0.64453000  1.0
  H  H4  1  0.42253000  0.35549000  0.85400000  1.0
  H  H5  1  0.56867000  0.14600000  0.50154000  1.0
  H  H6  1  0.93282000  0.50146000  0.35546000  1.0
  H  H7  1  0.57748000  0.64452000  0.14601000  1.0
  H  H8  1  0.43133000  0.85399000  0.49846000  1.0
  H  H9  1  0.09675000  0.34762000  0.57710000  1.0
  H  H10  1  0.51945000  0.42304000  0.77060000  1.0
  H  H11  1  0.74876000  0.22927000  0.65253000  1.0
  H  H12  1  0.90324000  0.65237000  0.42290000  1.0
  H  H13  1  0.48055000  0.57697000  0.22940000  1.0
  H  H14  1  0.25124000  0.77073000  0.34747000  1.0
  H  H15  1  0.44144000  0.19491000  0.40419000  1.0
  H  H16  1  0.03721000  0.59588000  0.79080000  1.0
  H  H17  1  0.24652000  0.20924000  0.80513000  1.0
  H  H18  1  0.55856000  0.80509000  0.59581000  1.0
  H  H19  1  0.96280000  0.40412000  0.20921000  1.0
  H  H20  1  0.75348000  0.79076000  0.19488000  1.0
  H  H21  1  0.66926000  0.23494000  0.34955000  1.0
  H  H22  1  0.31954000  0.65062000  0.88558000  1.0
  H  H23  1  0.43421000  0.11453000  0.76508000  1.0
  H  H24  1  0.33074000  0.76507000  0.65045000  1.0
  H  H25  1  0.68047000  0.34939000  0.11443000  1.0
  H  H26  1  0.56577000  0.88546000  0.23492000  1.0
  H  H27  1  0.94386000  0.09436000  0.40144000  1.0
  H  H28  1  0.54268000  0.59873000  0.69297000  1.0
  H  H29  1  0.84931000  0.30704000  0.90568000  1.0
  H  H30  1  0.05615000  0.90564000  0.59855000  1.0
  H  H31  1  0.45732000  0.40127000  0.30703000  1.0
  H  H32  1  0.15070000  0.69295000  0.09432000  1.0
  H  H33  1  0.04386000  0.22175000  0.40195000  1.0
  H  H34  1  0.64217000  0.59825000  0.81989000  1.0
  H  H35  1  0.82194000  0.18009000  0.77832000  1.0
  H  H36  1  0.95614000  0.77825000  0.59804000  1.0
  H  H37  1  0.35784000  0.40175000  0.18010000  1.0
  H  H38  1  0.17807000  0.81990000  0.22169000  1.0
  H  H39  1  0.44469000  0.26576000  0.57726000  1.0
  H  H40  1  0.86726000  0.42270000  0.68850000  1.0
  H  H41  1  0.17877000  0.31130000  0.73424000  1.0
  H  H42  1  0.55531000  0.73424000  0.42274000  1.0
  H  H43  1  0.13275000  0.57730000  0.31150000  1.0
  H  H44  1  0.82122000  0.68870000  0.26576000  1.0
  H  H45  1  0.32724000  0.13664000  0.56961000  1.0
  H  H46  1  0.75760000  0.43038000  0.56706000  1.0
  H  H47  1  0.19041000  0.43281000  0.86332000  1.0
  H  H48  1  0.67276000  0.86336000  0.43039000  1.0
  H  H49  1  0.24242000  0.56962000  0.43294000  1.0
  H  H50  1  0.80959000  0.56719000  0.13667000  1.0
  H  H51  1  0.18595000  0.79278000  0.84552000  1.0
  H  H52  1  0.34078000  0.15431000  0.94711000  1.0
  H  H53  1  0.39370000  0.05291000  0.20715000  1.0
  H  H54  1  0.81405000  0.20722000  0.15448000  1.0
  H  H55  1  0.65923000  0.84570000  0.05290000  1.0
  H  H56  1  0.60629000  0.94709000  0.79285000  1.0
  H  H57  1  0.35432000  0.72124000  0.76705000  1.0
  H  H58  1  0.58763000  0.23275000  0.95404000  1.0
  H  H59  1  0.63358000  0.04596000  0.27868000  1.0
  H  H60  1  0.64567000  0.27876000  0.23294000  1.0
  H  H61  1  0.41238000  0.76726000  0.04597000  1.0
  H  H62  1  0.36641000  0.95404000  0.72132000  1.0
  H  H63  1  0.96038000  0.57887000  0.56691000  1.0
  H  H64  1  0.39387000  0.43288000  0.01183000  1.0
  H  H65  1  0.38191000  0.98827000  0.42106000  1.0
  H  H66  1  0.03961000  0.42113000  0.43308000  1.0
  H  H67  1  0.60613000  0.56713000  0.98818000  1.0
  H  H68  1  0.61808000  0.01172000  0.57894000  1.0
  H  H69  1  0.81024000  0.65808000  0.65228000  1.0
  H  H70  1  0.15840000  0.34756000  0.00573000  1.0
  H  H71  1  0.15257000  0.99437000  0.34181000  1.0
  H  H72  1  0.18976000  0.34193000  0.34772000  1.0
  H  H73  1  0.84160000  0.65245000  0.99428000  1.0
  H  H74  1  0.84742000  0.00562000  0.65819000  1.0
  C  C75  1  0.24353000  0.51771000  0.58385000  1.0
  C  C76  1  0.65962000  0.41613000  0.93383000  1.0
  C  C77  1  0.72583000  0.06616000  0.48231000  1.0
  C  C78  1  0.75647000  0.48229000  0.41614000  1.0
  C  C79  1  0.34039000  0.58388000  0.06617000  1.0
  C  C80  1  0.27417000  0.93384000  0.51769000  1.0
  C  C81  1  0.13978000  0.47367000  0.60651000  1.0
  C  C82  1  0.53312000  0.39351000  0.86717000  1.0
  C  C83  1  0.66605000  0.13281000  0.52642000  1.0
  C  C84  1  0.86021000  0.52633000  0.39348000  1.0
  C  C85  1  0.46688000  0.60649000  0.13284000  1.0
  C  C86  1  0.33396000  0.86719000  0.47358000  1.0
  C  C87  1  0.15524000  0.39752000  0.57278000  1.0
  C  C88  1  0.58226000  0.42731000  0.82479000  1.0
  C  C89  1  0.75745000  0.17510000  0.60260000  1.0
  C  C90  1  0.84476000  0.60248000  0.42722000  1.0
  C  C91  1  0.41774000  0.57269000  0.17521000  1.0
  C  C92  1  0.24255000  0.82490000  0.39740000  1.0
  C  C93  1  0.26888000  0.39494000  0.52963000  1.0
  C  C94  1  0.73905000  0.47043000  0.86534000  1.0
  C  C95  1  0.87369000  0.13453000  0.60514000  1.0
  C  C96  1  0.73112000  0.60506000  0.47037000  1.0
  C  C97  1  0.26095000  0.52957000  0.13467000  1.0
  C  C98  1  0.12631000  0.86547000  0.39486000  1.0
  C  C99  1  0.32178000  0.32764000  0.49000000  1.0
  C  C100  1  0.83159000  0.51007000  0.83769000  1.0
  C  C101  1  0.99394000  0.16218000  0.67241000  1.0
  C  C102  1  0.67822000  0.67236000  0.51000000  1.0
  C  C103  1  0.16841000  0.48993000  0.16231000  1.0
  C  C104  1  0.00606000  0.83782000  0.32760000  1.0
  C  C105  1  0.43730000  0.32385000  0.45143000  1.0
  C  C106  1  0.98567000  0.54867000  0.87250000  1.0
  C  C107  1  0.11333000  0.12747000  0.67620000  1.0
  C  C108  1  0.56271000  0.67615000  0.54857000  1.0
  C  C109  1  0.01434000  0.45134000  0.12750000  1.0
  C  C110  1  0.88666000  0.87253000  0.32380000  1.0
  C  C111  1  0.48835000  0.25279000  0.41096000  1.0
  C  C112  1  0.07722000  0.58917000  0.84195000  1.0
  C  C113  1  0.23545000  0.15809000  0.74726000  1.0
  C  C114  1  0.51165000  0.74721000  0.58904000  1.0
  C  C115  1  0.92279000  0.41083000  0.15805000  1.0
  C  C116  1  0.76454000  0.84191000  0.25275000  1.0
  C  C117  1  0.60294000  0.27288000  0.38249000  1.0
  C  C118  1  0.22021000  0.61768000  0.89055000  1.0
  C  C119  1  0.32991000  0.10951000  0.72716000  1.0
  C  C120  1  0.39706000  0.72712000  0.61751000  1.0
  C  C121  1  0.77980000  0.38232000  0.10945000  1.0
  C  C122  1  0.67008000  0.89049000  0.27284000  1.0
  C  C123  1  0.62177000  0.35615000  0.40510000  1.0
  C  C124  1  0.21638000  0.59500000  0.95118000  1.0
  C  C125  1  0.26542000  0.04881000  0.64388000  1.0
  C  C126  1  0.37824000  0.64385000  0.59490000  1.0
  C  C127  1  0.78363000  0.40500000  0.04883000  1.0
  C  C128  1  0.73458000  0.95118000  0.35612000  1.0
  C  C129  1  0.26730000  0.59980000  0.61073000  1.0
  C  C130  1  0.65679000  0.38915000  0.98896000  1.0
  C  C131  1  0.66775000  0.01109000  0.40017000  1.0
  C  C132  1  0.73270000  0.40020000  0.38926000  1.0
  C  C133  1  0.34321000  0.61086000  0.01104000  1.0
  C  C134  1  0.33225000  0.98891000  0.59983000  1.0
  C  C135  1  0.05442000  0.13438000  0.43996000  1.0
  C  C136  1  0.61466000  0.56018000  0.69448000  1.0
  C  C137  1  0.91984000  0.30549000  0.86565000  1.0
  C  C138  1  0.94558000  0.86562000  0.56004000  1.0
  C  C139  1  0.38535000  0.43982000  0.30552000  1.0
  C  C140  1  0.08016000  0.69451000  0.13436000  1.0
  C  C141  1  0.10946000  0.20514000  0.44047000  1.0
  C  C142  1  0.66912000  0.55968000  0.76474000  1.0
  C  C143  1  0.90409000  0.23521000  0.79489000  1.0
  C  C144  1  0.89054000  0.79486000  0.55953000  1.0
  C  C145  1  0.33088000  0.44032000  0.23526000  1.0
  C  C146  1  0.09592000  0.76478000  0.20511000  1.0
  C  C147  1  0.25294000  0.25364000  0.48983000  1.0
  C  C148  1  0.76302000  0.51022000  0.76385000  1.0
  C  C149  1  0.99913000  0.23603000  0.74639000  1.0
  C  C150  1  0.74706000  0.74636000  0.51016000  1.0
  C  C151  1  0.23699000  0.48978000  0.23615000  1.0
  C  C152  1  0.00087000  0.76397000  0.25361000  1.0
  C  C153  1  0.33292000  0.22922000  0.53765000  1.0
  C  C154  1  0.79515000  0.46234000  0.69161000  1.0
  C  C155  1  0.10351000  0.30825000  0.77077000  1.0
  C  C156  1  0.66709000  0.77078000  0.46235000  1.0
  C  C157  1  0.20486000  0.53766000  0.30839000  1.0
  C  C158  1  0.89649000  0.69174000  0.22923000  1.0
  C  C159  1  0.26809000  0.15759000  0.53322000  1.0
  C  C160  1  0.73482000  0.46679000  0.62441000  1.0
  C  C161  1  0.11028000  0.37549000  0.84239000  1.0
  C  C162  1  0.73191000  0.84241000  0.46678000  1.0
  C  C163  1  0.26519000  0.53321000  0.37560000  1.0
  C  C164  1  0.88972000  0.62451000  0.15761000  1.0
  C  C165  1  0.13947000  0.74536000  0.78307000  1.0
  C  C166  1  0.35677000  0.21676000  0.96215000  1.0
  C  C167  1  0.39462000  0.03792000  0.25459000  1.0
  C  C168  1  0.86053000  0.25464000  0.21693000  1.0
  C  C169  1  0.64324000  0.78325000  0.03786000  1.0
  C  C170  1  0.60538000  0.96208000  0.74541000  1.0
  C  C171  1  0.23360000  0.70516000  0.73955000  1.0
  C  C172  1  0.49441000  0.26026000  0.96545000  1.0
  C  C173  1  0.52893000  0.03459000  0.29479000  1.0
  C  C174  1  0.76640000  0.29484000  0.26045000  1.0
  C  C175  1  0.50559000  0.73975000  0.03455000  1.0
  C  C176  1  0.47106000  0.96541000  0.70521000  1.0
  C  C177  1  0.17116000  0.64349000  0.65989000  1.0
  C  C178  1  0.51164000  0.33991000  0.98349000  1.0
  C  C179  1  0.52807000  0.01661000  0.35644000  1.0
  C  C180  1  0.82884000  0.35651000  0.34010000  1.0
  C  C181  1  0.48836000  0.66010000  0.01652000  1.0
  C  C182  1  0.47192000  0.98339000  0.64356000  1.0
  C  C183  1  0.01538000  0.62588000  0.62845000  1.0
  C  C184  1  0.38730000  0.37134000  0.99730000  1.0
  C  C185  1  0.38990000  0.00281000  0.37406000  1.0
  C  C186  1  0.98462000  0.37413000  0.37154000  1.0
  C  C187  1  0.61271000  0.62867000  0.00270000  1.0
  C  C188  1  0.61010000  0.99719000  0.62595000  1.0
  C  C189  1  0.93130000  0.67053000  0.67661000  1.0
  C  C190  1  0.25512000  0.32321000  0.99383000  1.0
  C  C191  1  0.26120000  0.00628000  0.32937000  1.0
  C  C192  1  0.06870000  0.32947000  0.32338000  1.0
  C  C193  1  0.74488000  0.67679000  0.00618000  1.0
  C  C194  1  0.73880000  0.99372000  0.67063000  1.0
  N  N195  1  0.51878000  0.38566000  0.44644000  1.0
  N  N196  1  0.07212000  0.55361000  0.93928000  1.0
  N  N197  1  0.13300000  0.06067000  0.61438000  1.0
  N  N198  1  0.48122000  0.61434000  0.55356000  1.0
  N  N199  1  0.92788000  0.44640000  0.06073000  1.0
  N  N200  1  0.86700000  0.93932000  0.38562000  1.0
  N  N201  1  0.31995000  0.46833000  0.53654000  1.0
  N  N202  1  0.78328000  0.46350000  0.93179000  1.0
  N  N203  1  0.85148000  0.06814000  0.53169000  1.0
  N  N204  1  0.68005000  0.53167000  0.46345000  1.0
  N  N205  1  0.21673000  0.53651000  0.06821000  1.0
  N  N206  1  0.14852000  0.93186000  0.46831000  1.0
  N  N207  1  0.13189000  0.11048000  0.48486000  1.0
  N  N208  1  0.64712000  0.51520000  0.62566000  1.0
  N  N209  1  0.02123000  0.37428000  0.88952000  1.0
  N  N210  1  0.86811000  0.88951000  0.51513000  1.0
  N  N211  1  0.35288000  0.48480000  0.37434000  1.0
  N  N212  1  0.97877000  0.62571000  0.11048000  1.0
  N  N213  1  0.99038000  0.72934000  0.75283000  1.0
  N  N214  1  0.23795000  0.24700000  0.97642000  1.0
  N  N215  1  0.26151000  0.02368000  0.27058000  1.0
  N  N216  1  0.00962000  0.27067000  0.24717000  1.0
  N  N217  1  0.76206000  0.75300000  0.02359000  1.0
  N  N218  1  0.73848000  0.97632000  0.72943000  1.0
