# generated using pymatgen
data_CaH10C4(N4O3)2
_symmetry_space_group_name_H-M   'P 1'
_cell_length_a   7.52204000
_cell_length_b   7.62286000
_cell_length_c   11.05920000
_cell_angle_alpha   75.67010000
_cell_angle_beta   87.52260000
_cell_angle_gamma   61.97310000
_symmetry_Int_Tables_number   1
_chemical_formula_structural   CaH10C4(N4O3)2
_chemical_formula_sum   'Ca2 H20 C8 N16 O12'
_cell_volume   540.36318259
_cell_formula_units_Z   2
loop_
 _symmetry_equiv_pos_site_id
 _symmetry_equiv_pos_as_xyz
  1  'x, y, z'
loop_
 _atom_site_type_symbol
 _atom_site_label
 _atom_site_symmetry_multiplicity
 _atom_site_fract_x
 _atom_site_fract_y
 _atom_site_fract_z
 _atom_site_occupancy
  Ca  Ca0  1  0.70247000  0.23739000  0.45475000  1.0
  Ca  Ca1  1  0.29753000  0.76261000  0.54525000  1.0
  H  H2  1  0.70591000  0.62956000  0.43534000  1.0
  H  H3  1  0.29409000  0.37044000  0.56467000  1.0
  H  H4  1  0.74855000  0.53967000  0.58124000  1.0
  H  H5  1  0.25145000  0.46033000  0.41876000  1.0
  H  H6  1  0.46768000  0.29103000  0.04378000  1.0
  H  H7  1  0.53232000  0.70898000  0.95622000  1.0
  H  H8  1  0.12691000  0.61620000  0.99031000  1.0
  H  H9  1  0.87309000  0.38380000  0.00969000  1.0
  H  H10  1  0.11095000  0.19002000  0.55842000  1.0
  H  H11  1  0.88905000  0.80998000  0.44158000  1.0
  H  H12  1  0.09510000  0.24671000  0.41201000  1.0
  H  H13  1  0.90490000  0.75329000  0.58799000  1.0
  H  H14  1  0.60229000  0.00984000  0.31772000  1.0
  H  H15  1  0.39771000  0.99016000  0.68228000  1.0
  H  H16  1  0.41316000  0.22980000  0.27594000  1.0
  H  H17  1  0.58684000  0.77020000  0.72406000  1.0
  H  H18  1  0.03282000  0.05368000  0.27003000  1.0
  H  H19  1  0.96718000  0.94632000  0.72997000  1.0
  H  H20  1  0.82672000  0.25940000  0.20372000  1.0
  H  H21  1  0.17329000  0.74059000  0.79628000  1.0
  C  C22  1  0.61077000  0.25584000  0.76039000  1.0
  C  C23  1  0.38923000  0.74416000  0.23962000  1.0
  C  C24  1  0.48701000  0.31297000  0.94447000  1.0
  C  C25  1  0.51299000  0.68703000  0.05553000  1.0
  C  C26  1  0.92228000  0.66755000  0.25661000  1.0
  C  C27  1  0.07772000  0.33245000  0.74339000  1.0
  C  C28  1  0.08692000  0.60014000  0.08626000  1.0
  C  C29  1  0.91308000  0.39986000  0.91374000  1.0
  N  N30  1  0.45297000  0.44679000  0.74037000  1.0
  N  N31  1  0.54704000  0.55321000  0.25963000  1.0
  N  N32  1  0.37917000  0.47730000  0.85494000  1.0
  N  N33  1  0.62083000  0.52270000  0.14506000  1.0
  N  N34  1  0.63564000  0.16784000  0.89244000  1.0
  N  N35  1  0.36436000  0.83216000  0.10756000  1.0
  N  N36  1  0.78593000  0.97750000  0.94902000  1.0
  N  N37  1  0.21407000  0.02250000  0.05098000  1.0
  N  N38  1  0.76800000  0.93302000  0.06536000  1.0
  N  N39  1  0.23199000  0.06698000  0.93464000  1.0
  N  N40  1  0.91836000  0.74604000  0.12640000  1.0
  N  N41  1  0.08164000  0.25396000  0.87360000  1.0
  N  N42  1  0.08818000  0.48338000  0.28946000  1.0
  N  N43  1  0.91182000  0.51662000  0.71054000  1.0
  N  N44  1  0.18820000  0.44474000  0.18232000  1.0
  N  N45  1  0.81180000  0.55526000  0.81768000  1.0
  O  O46  1  0.72017000  0.16221000  0.68369000  1.0
  O  O47  1  0.27983000  0.83779000  0.31631000  1.0
  O  O48  1  0.79053000  0.76008000  0.32540000  1.0
  O  O49  1  0.20947000  0.23992000  0.67460000  1.0
  O  O50  1  0.66510000  0.55366000  0.50839000  1.0
  O  O51  1  0.33490000  0.44634000  0.49161000  1.0
  O  O52  1  0.07366000  0.15556000  0.48566000  1.0
  O  O53  1  0.92634000  0.84444000  0.51434000  1.0
  O  O54  1  0.50966000  0.12998000  0.34839000  1.0
  O  O55  1  0.49034000  0.87002000  0.65161000  1.0
  O  O56  1  0.88682000  0.13775000  0.27600000  1.0
  O  O57  1  0.11318000  0.86224000  0.72400000  1.0
