# generated using pymatgen
data_CdH15C20(NO)5
_symmetry_space_group_name_H-M   'P 1'
_cell_length_a   9.52942000
_cell_length_b   9.79259000
_cell_length_c   12.87530000
_cell_angle_alpha   73.88190000
_cell_angle_beta   79.44290000
_cell_angle_gamma   65.73700000
_symmetry_Int_Tables_number   1
_chemical_formula_structural   CdH15C20(NO)5
_chemical_formula_sum   'Cd2 H30 C40 N10 O10'
_cell_volume   1049.02343906
_cell_formula_units_Z   2
loop_
 _symmetry_equiv_pos_site_id
 _symmetry_equiv_pos_as_xyz
  1  'x, y, z'
loop_
 _atom_site_type_symbol
 _atom_site_label
 _atom_site_symmetry_multiplicity
 _atom_site_fract_x
 _atom_site_fract_y
 _atom_site_fract_z
 _atom_site_occupancy
  Cd  Cd0  1  0.72978000  0.38672000  0.26375000  1.0
  Cd  Cd1  1  0.27023000  0.61327000  0.73625000  1.0
  H  H2  1  0.20815000  0.88996000  0.27805000  1.0
  H  H3  1  0.79185000  0.11003000  0.72194000  1.0
  H  H4  1  0.46385000  0.77199000  0.98280000  1.0
  H  H5  1  0.53615000  0.22800000  0.01719000  1.0
  H  H6  1  0.26829000  0.00308000  0.87505000  1.0
  H  H7  1  0.73172000  0.99692000  0.12495000  1.0
  H  H8  1  0.04381000  0.18043000  0.97447000  1.0
  H  H9  1  0.95620000  0.81957000  0.02553000  1.0
  H  H10  1  0.01976000  0.28574000  0.39621000  1.0
  H  H11  1  0.98023000  0.71427000  0.60380000  1.0
  H  H12  1  0.20181000  0.64083000  0.33063000  1.0
  H  H13  1  0.79820000  0.35917000  0.66937000  1.0
  H  H14  1  0.99981000  0.80005000  0.19930000  1.0
  H  H15  1  0.00020000  0.19994000  0.80070000  1.0
  H  H16  1  0.81293000  0.69140000  0.17416000  1.0
  H  H17  1  0.18708000  0.30859000  0.82584000  1.0
  H  H18  1  0.26168000  0.93644000  0.61087000  1.0
  H  H19  1  0.73831000  0.06356000  0.38913000  1.0
  H  H20  1  0.57311000  0.60658000  0.82749000  1.0
  H  H21  1  0.42688000  0.39343000  0.17251000  1.0
  H  H22  1  0.70509000  0.78521000  0.82091000  1.0
  H  H23  1  0.29490000  0.21479000  0.17909000  1.0
  H  H24  1  0.60977000  0.04800000  0.70166000  1.0
  H  H25  1  0.39022000  0.95201000  0.29835000  1.0
  H  H26  1  0.47007000  0.30020000  0.61696000  1.0
  H  H27  1  0.52992000  0.69980000  0.38304000  1.0
  H  H28  1  0.80152000  0.23624000  0.48663000  1.0
  H  H29  1  0.19847000  0.76376000  0.51337000  1.0
  H  H30  1  0.69737000  0.41078000  0.48761000  1.0
  H  H31  1  0.30263000  0.58923000  0.51240000  1.0
  C  C32  1  0.98184000  0.15450000  0.18818000  1.0
  C  C33  1  0.01816000  0.84548000  0.81182000  1.0
  C  C34  1  0.11484000  0.04606000  0.13104000  1.0
  C  C35  1  0.88518000  0.95394000  0.86895000  1.0
  C  C36  1  0.22327000  0.91474000  0.18981000  1.0
  C  C37  1  0.77673000  0.08525000  0.81019000  1.0
  C  C38  1  0.34958000  0.81673000  0.13628000  1.0
  C  C39  1  0.65042000  0.18327000  0.86372000  1.0
  C  C40  1  0.46924000  0.67872000  0.19915000  1.0
  C  C41  1  0.53076000  0.32128000  0.80085000  1.0
  C  C42  1  0.36503000  0.84986000  0.02271000  1.0
  C  C43  1  0.63498000  0.15013000  0.97729000  1.0
  C  C44  1  0.25584000  0.97947000  0.96344000  1.0
  C  C45  1  0.74417000  0.02052000  0.03656000  1.0
  C  C46  1  0.13148000  0.07764000  0.01737000  1.0
  C  C47  1  0.86853000  0.92235000  0.98262000  1.0
  C  C48  1  0.01616000  0.40063000  0.35584000  1.0
  C  C49  1  0.98383000  0.59937000  0.64416000  1.0
  C  C50  1  0.12229000  0.45287000  0.37696000  1.0
  C  C51  1  0.87771000  0.54714000  0.62305000  1.0
  C  C52  1  0.11708000  0.59897000  0.31923000  1.0
  C  C53  1  0.88292000  0.40104000  0.68077000  1.0
  C  C54  1  0.00563000  0.68661000  0.24546000  1.0
  C  C55  1  0.99438000  0.31338000  0.75453000  1.0
  C  C56  1  0.90230000  0.62702000  0.23107000  1.0
  C  C57  1  0.09770000  0.37298000  0.76893000  1.0
  C  C58  1  0.23229000  0.35644000  0.45834000  1.0
  C  C59  1  0.76770000  0.64357000  0.54167000  1.0
  C  C60  1  0.36302000  0.16495000  0.57440000  1.0
  C  C61  1  0.63698000  0.83506000  0.42560000  1.0
  C  C62  1  0.42787000  0.01342000  0.64563000  1.0
  C  C63  1  0.57212000  0.98659000  0.35438000  1.0
  C  C64  1  0.36185000  0.90603000  0.65454000  1.0
  C  C65  1  0.63814000  0.09398000  0.34547000  1.0
  C  C66  1  0.53563000  0.72263000  0.77627000  1.0
  C  C67  1  0.46436000  0.27738000  0.22373000  1.0
  C  C68  1  0.60793000  0.82223000  0.77251000  1.0
  C  C69  1  0.39206000  0.17778000  0.22750000  1.0
  C  C70  1  0.55387000  0.96915000  0.70622000  1.0
  C  C71  1  0.44612000  0.03085000  0.29379000  1.0
  N  N72  1  0.90798000  0.48630000  0.28545000  1.0
  N  N73  1  0.09202000  0.51369000  0.71455000  1.0
  N  N74  1  0.25671000  0.20631000  0.50433000  1.0
  N  N75  1  0.74328000  0.79370000  0.49568000  1.0
  N  N76  1  0.39968000  0.28653000  0.56975000  1.0
  N  N77  1  0.60032000  0.71348000  0.43026000  1.0
  N  N78  1  0.31737000  0.40943000  0.49699000  1.0
  N  N79  1  0.68263000  0.59057000  0.50301000  1.0
  N  N80  1  0.41505000  0.76432000  0.71802000  1.0
  N  N81  1  0.58494000  0.23568000  0.28198000  1.0
  O  O82  1  0.96707000  0.12423000  0.29145000  1.0
  O  O83  1  0.03293000  0.87575000  0.70854000  1.0
  O  O84  1  0.89043000  0.27427000  0.12807000  1.0
  O  O85  1  0.10960000  0.72572000  0.87193000  1.0
  O  O86  1  0.45420000  0.65148000  0.30255000  1.0
  O  O87  1  0.54579000  0.34852000  0.69744000  1.0
  O  O88  1  0.58115000  0.59355000  0.14529000  1.0
  O  O89  1  0.41887000  0.40644000  0.85472000  1.0
  O  O90  1  0.70786000  0.32041000  0.45978000  1.0
  O  O91  1  0.29214000  0.67959000  0.54022000  1.0
