# generated using pymatgen
data_Ag2H8C8S(NO)4
_symmetry_space_group_name_H-M   'P 1'
_cell_length_a   7.18686000
_cell_length_b   7.18680000
_cell_length_c   12.82490000
_cell_angle_alpha   78.46190000
_cell_angle_beta   78.46020000
_cell_angle_gamma   62.07570000
_symmetry_Int_Tables_number   1
_chemical_formula_structural   Ag2H8C8S(NO)4
_chemical_formula_sum   'Ag4 H16 C16 S2 N8 O8'
_cell_volume   569.11273760
_cell_formula_units_Z   2
loop_
 _symmetry_equiv_pos_site_id
 _symmetry_equiv_pos_as_xyz
  1  'x, y, z'
loop_
 _atom_site_type_symbol
 _atom_site_label
 _atom_site_symmetry_multiplicity
 _atom_site_fract_x
 _atom_site_fract_y
 _atom_site_fract_z
 _atom_site_occupancy
  Ag  Ag0  1  0.77092000  0.08529000  0.03447000  1.0
  Ag  Ag1  1  0.91466000  0.22910000  0.46556000  1.0
  Ag  Ag2  1  0.22908000  0.91469000  0.96553000  1.0
  Ag  Ag3  1  0.08532000  0.77094000  0.53445000  1.0
  H  H4  1  0.67467000  0.86211000  0.88136000  1.0
  H  H5  1  0.13781000  0.32542000  0.61867000  1.0
  H  H6  1  0.32536000  0.13786000  0.11864000  1.0
  H  H7  1  0.86219000  0.67461000  0.38133000  1.0
  H  H8  1  0.67999000  0.50186000  0.88190000  1.0
  H  H9  1  0.49807000  0.32006000  0.61813000  1.0
  H  H10  1  0.32005000  0.49810000  0.11810000  1.0
  H  H11  1  0.50194000  0.67993000  0.38187000  1.0
  H  H12  1  0.83622000  0.32522000  0.19366000  1.0
  H  H13  1  0.67475000  0.16377000  0.30638000  1.0
  H  H14  1  0.16377000  0.67478000  0.80636000  1.0
  H  H15  1  0.32525000  0.83621000  0.69361000  1.0
  H  H16  1  0.81781000  0.68687000  0.19397000  1.0
  H  H17  1  0.31311000  0.18218000  0.30606000  1.0
  H  H18  1  0.18219000  0.31313000  0.80602000  1.0
  H  H19  1  0.68689000  0.81779000  0.69395000  1.0
  C  C20  1  0.69942000  0.74426000  0.95238000  1.0
  C  C21  1  0.25567000  0.30064000  0.54765000  1.0
  C  C22  1  0.30061000  0.25571000  0.04762000  1.0
  C  C23  1  0.74433000  0.69936000  0.45235000  1.0
  C  C24  1  0.70564000  0.54731000  0.95214000  1.0
  C  C25  1  0.45262000  0.29440000  0.54789000  1.0
  C  C26  1  0.29438000  0.45265000  0.04785000  1.0
  C  C27  1  0.54740000  0.70559000  0.45211000  1.0
  C  C28  1  0.78811000  0.44886000  0.12573000  1.0
  C  C29  1  0.55110000  0.21190000  0.37431000  1.0
  C  C30  1  0.21190000  0.55111000  0.87428000  1.0
  C  C31  1  0.44891000  0.78810000  0.62568000  1.0
  C  C32  1  0.78048000  0.64569000  0.12610000  1.0
  C  C33  1  0.35425000  0.21955000  0.37393000  1.0
  C  C34  1  0.21954000  0.35431000  0.87391000  1.0
  C  C35  1  0.64570000  0.78046000  0.62606000  1.0
  S  S36  1  0.87110000  0.12890000  0.75000000  1.0
  S  S37  1  0.12886000  0.87114000  0.25001000  1.0
  N  N38  1  0.74011000  0.79165000  0.03914000  1.0
  N  N39  1  0.20832000  0.25993000  0.46089000  1.0
  N  N40  1  0.25992000  0.20834000  0.96086000  1.0
  N  N41  1  0.79170000  0.74006000  0.53910000  1.0
  N  N42  1  0.75180000  0.39935000  0.03846000  1.0
  N  N43  1  0.60061000  0.24821000  0.46156000  1.0
  N  N44  1  0.24821000  0.60064000  0.96154000  1.0
  N  N45  1  0.39940000  0.75178000  0.53843000  1.0
  O  O46  1  0.69540000  0.18704000  0.84045000  1.0
  O  O47  1  0.81291000  0.30467000  0.65958000  1.0
  O  O48  1  0.30458000  0.81301000  0.15955000  1.0
  O  O49  1  0.18707000  0.69540000  0.34043000  1.0
  O  O50  1  0.07337000  0.09475000  0.78483000  1.0
  O  O51  1  0.90521000  0.92668000  0.71513000  1.0
  O  O52  1  0.92661000  0.90523000  0.21518000  1.0
  O  O53  1  0.09472000  0.07339000  0.28486000  1.0
