# generated using pymatgen
data_ZnH11C9N2ClO2
_symmetry_space_group_name_H-M   'P 1'
_cell_length_a   10.30890000
_cell_length_b   17.55761152
_cell_length_c   17.55740000
_cell_angle_alpha   120.00680428
_cell_angle_beta   90.00010000
_cell_angle_gamma   89.99990000
_symmetry_Int_Tables_number   1
_chemical_formula_structural   ZnH11C9N2ClO2
_chemical_formula_sum   'Zn6 H66 C54 N12 Cl6 O12'
_cell_volume   2751.93908487
_cell_formula_units_Z   6
loop_
 _symmetry_equiv_pos_site_id
 _symmetry_equiv_pos_as_xyz
  1  'x, y, z'
loop_
 _atom_site_type_symbol
 _atom_site_label
 _atom_site_symmetry_multiplicity
 _atom_site_fract_x
 _atom_site_fract_y
 _atom_site_fract_z
 _atom_site_occupancy
  Zn  Zn0  1  0.90916000  0.45713000  0.91982000  1.0
  Zn  Zn1  1  0.74236000  0.91982000  0.46270000  1.0
  Zn  Zn2  1  0.57578000  0.46273000  0.54289000  1.0
  Zn  Zn3  1  0.40916000  0.54287000  0.08018000  1.0
  Zn  Zn4  1  0.24236000  0.08018000  0.53730000  1.0
  Zn  Zn5  1  0.07577000  0.53727000  0.45711000  1.0
  H  H6  1  0.95590000  0.90059000  0.33296000  1.0
  H  H7  1  0.78896000  0.33290000  0.43221000  1.0
  H  H8  1  0.62237000  0.43229000  0.09946000  1.0
  H  H9  1  0.45590000  0.09942000  0.66705000  1.0
  H  H10  1  0.28896000  0.66710000  0.56779000  1.0
  H  H11  1  0.12237000  0.56770000  0.90053000  1.0
  H  H12  1  0.01222000  0.79289000  0.17606000  1.0
  H  H13  1  0.84540000  0.17609000  0.38309000  1.0
  H  H14  1  0.67867000  0.38315000  0.20715000  1.0
  H  H15  1  0.51222000  0.20711000  0.82394000  1.0
  H  H16  1  0.34540000  0.82391000  0.61691000  1.0
  H  H17  1  0.17867000  0.61685000  0.79285000  1.0
  H  H18  1  0.67145000  0.64518000  0.16713000  1.0
  H  H19  1  0.50488000  0.16721000  0.52206000  1.0
  H  H20  1  0.33796000  0.52203000  0.35488000  1.0
  H  H21  1  0.17145000  0.35482000  0.83287000  1.0
  H  H22  1  0.00488000  0.83279000  0.47793000  1.0
  H  H23  1  0.83796000  0.47798000  0.64513000  1.0
  H  H24  1  0.63033000  0.75834000  0.32341000  1.0
  H  H25  1  0.46370000  0.32347000  0.56519000  1.0
  H  H26  1  0.29685000  0.56510000  0.24170000  1.0
  H  H27  1  0.13033000  0.24167000  0.67660000  1.0
  H  H28  1  0.96370000  0.67653000  0.43481000  1.0
  H  H29  1  0.79685000  0.43490000  0.75830000  1.0
  H  H30  1  0.80178000  0.64011000  0.02049000  1.0
  H  H31  1  0.63519000  0.02052000  0.38035000  1.0
  H  H32  1  0.46842000  0.38031000  0.35992000  1.0
  H  H33  1  0.30178000  0.35989000  0.97951000  1.0
  H  H34  1  0.13519000  0.97948000  0.61965000  1.0
  H  H35  1  0.96842000  0.61969000  0.64008000  1.0
  H  H36  1  0.97064000  0.65401000  0.04458000  1.0
  H  H37  1  0.80402000  0.04464000  0.39061000  1.0
  H  H38  1  0.63723000  0.39061000  0.34600000  1.0
  H  H39  1  0.47064000  0.34599000  0.95542000  1.0
  H  H40  1  0.30402000  0.95536000  0.60939000  1.0
  H  H41  1  0.13723000  0.60939000  0.65400000  1.0
  H  H42  1  0.99212000  0.60023000  0.17033000  1.0
  H  H43  1  0.82532000  0.17035000  0.57013000  1.0
  H  H44  1  0.65856000  0.57010000  0.39978000  1.0
  H  H45  1  0.49212000  0.39977000  0.82967000  1.0
  H  H46  1  0.32532000  0.82965000  0.42987000  1.0
  H  H47  1  0.15856000  0.42990000  0.60022000  1.0
  H  H48  1  0.85030000  0.48192000  0.16150000  1.0
  H  H49  1  0.68355000  0.16158000  0.67962000  1.0
  H  H50  1  0.51689000  0.67962000  0.51813000  1.0
  H  H51  1  0.35029000  0.51809000  0.83851000  1.0
  H  H52  1  0.18355000  0.83842000  0.32038000  1.0
  H  H53  1  0.01689000  0.32038000  0.48188000  1.0
  H  H54  1  0.01596000  0.45706000  0.16483000  1.0
  H  H55  1  0.84920000  0.16492000  0.70782000  1.0
  H  H56  1  0.68258000  0.70777000  0.54293000  1.0
  H  H57  1  0.51596000  0.54294000  0.83517000  1.0
  H  H58  1  0.34920000  0.83508000  0.29218000  1.0
  H  H59  1  0.18258000  0.29223000  0.45707000  1.0
  H  H60  1  0.92972000  0.40264000  0.06253000  1.0
  H  H61  1  0.76297000  0.06264000  0.65998000  1.0
  H  H62  1  0.59634000  0.65995000  0.59740000  1.0
  H  H63  1  0.42972000  0.59736000  0.93747000  1.0
  H  H64  1  0.26297000  0.93736000  0.34002000  1.0
  H  H65  1  0.09634000  0.34005000  0.40260000  1.0
  H  H66  1  0.78905000  0.53410000  0.06289000  1.0
  H  H67  1  0.62236000  0.06285000  0.52876000  1.0
  H  H68  1  0.45560000  0.52879000  0.46597000  1.0
  H  H69  1  0.28905000  0.46590000  0.93711000  1.0
  H  H70  1  0.12236000  0.93715000  0.47124000  1.0
  H  H71  1  0.95560000  0.47121000  0.53404000  1.0
  C  C72  1  0.89610000  0.84285000  0.29311000  1.0
  C  C73  1  0.72919000  0.29309000  0.45015000  1.0
  C  C74  1  0.56249000  0.45019000  0.15717000  1.0
  C  C75  1  0.39610000  0.15715000  0.70689000  1.0
  C  C76  1  0.22919000  0.70691000  0.54985000  1.0
  C  C77  1  0.06249000  0.54981000  0.84283000  1.0
  C  C78  1  0.92619000  0.78265000  0.20601000  1.0
  C  C79  1  0.75937000  0.20601000  0.42328000  1.0
  C  C80  1  0.59260000  0.42331000  0.21739000  1.0
  C  C81  1  0.42619000  0.21735000  0.79399000  1.0
  C  C82  1  0.25937000  0.79399000  0.57671000  1.0
  C  C83  1  0.09260000  0.57669000  0.78261000  1.0
  C  C84  1  0.84691000  0.70906000  0.15854000  1.0
  C  C85  1  0.68024000  0.15857000  0.44951000  1.0
  C  C86  1  0.51335000  0.44947000  0.29100000  1.0
  C  C87  1  0.34691000  0.29094000  0.84146000  1.0
  C  C88  1  0.18024000  0.84143000  0.55049000  1.0
  C  C89  1  0.01335000  0.55053000  0.70900000  1.0
  C  C90  1  0.73874000  0.69979000  0.20137000  1.0
  C  C91  1  0.57213000  0.20144000  0.50167000  1.0
  C  C92  1  0.40522000  0.50160000  0.30025000  1.0
  C  C93  1  0.23874000  0.30021000  0.79863000  1.0
  C  C94  1  0.07213000  0.79856000  0.49833000  1.0
  C  C95  1  0.90522000  0.49840000  0.69975000  1.0
  C  C96  1  0.71479000  0.76230000  0.28835000  1.0
  C  C97  1  0.54812000  0.28840000  0.52612000  1.0
  C  C98  1  0.38129000  0.52607000  0.23775000  1.0
  C  C99  1  0.21479000  0.23770000  0.71165000  1.0
  C  C100  1  0.04812000  0.71160000  0.47388000  1.0
  C  C101  1  0.88129000  0.47393000  0.76226000  1.0
  C  C102  1  0.87704000  0.63991000  0.06489000  1.0
  C  C103  1  0.71040000  0.06492000  0.42500000  1.0
  C  C104  1  0.54358000  0.42497000  0.36013000  1.0
  C  C105  1  0.37704000  0.36009000  0.93511000  1.0
  C  C106  1  0.21040000  0.93508000  0.57500000  1.0
  C  C107  1  0.04358000  0.57503000  0.63987000  1.0
  C  C108  1  0.98025000  0.53891000  0.10683000  1.0
  C  C109  1  0.81352000  0.10686000  0.56796000  1.0
  C  C110  1  0.64677000  0.56793000  0.46111000  1.0
  C  C111  1  0.48025000  0.46109000  0.89317000  1.0
  C  C112  1  0.31352000  0.89314000  0.43204000  1.0
  C  C113  1  0.14677000  0.43207000  0.53889000  1.0
  C  C114  1  0.11234000  0.51982000  0.06001000  1.0
  C  C115  1  0.94569000  0.06015000  0.54024000  1.0
  C  C116  1  0.77892000  0.54016000  0.48008000  1.0
  C  C117  1  0.61234000  0.48018000  0.93999000  1.0
  C  C118  1  0.44569000  0.93985000  0.45976000  1.0
  C  C119  1  0.27892000  0.45984000  0.51992000  1.0
  C  C120  1  0.94192000  0.46507000  0.12454000  1.0
  C  C121  1  0.77516000  0.12461000  0.65951000  1.0
  C  C122  1  0.60851000  0.65949000  0.53495000  1.0
  C  C123  1  0.44192000  0.53493000  0.87546000  1.0
  C  C124  1  0.27516000  0.87539000  0.34049000  1.0
  C  C125  1  0.10851000  0.34051000  0.46505000  1.0
  N  N126  1  0.88126000  0.55022000  0.05254000  1.0
  N  N127  1  0.71459000  0.05253000  0.50232000  1.0
  N  N128  1  0.54782000  0.50232000  0.44982000  1.0
  N  N129  1  0.38126000  0.44978000  0.94746000  1.0
  N  N130  1  0.21459000  0.94748000  0.49769000  1.0
  N  N131  1  0.04782000  0.49768000  0.55018000  1.0
  N  N132  1  0.79245000  0.83277000  0.33400000  1.0
  N  N133  1  0.62565000  0.33403000  0.50122000  1.0
  N  N134  1  0.45892000  0.50121000  0.16725000  1.0
  N  N135  1  0.29245000  0.16723000  0.66600000  1.0
  N  N136  1  0.12565000  0.66597000  0.49878000  1.0
  N  N137  1  0.95892000  0.49879000  0.83275000  1.0
  Cl  Cl138  1  0.91555000  0.31409000  0.87340000  1.0
  Cl  Cl139  1  0.74901000  0.87342000  0.55932000  1.0
  Cl  Cl140  1  0.58224000  0.55932000  0.68593000  1.0
  Cl  Cl141  1  0.41555000  0.68591000  0.12660000  1.0
  Cl  Cl142  1  0.24901000  0.12658000  0.44068000  1.0
  Cl  Cl143  1  0.08224000  0.44068000  0.31407000  1.0
  O  O144  1  0.21040000  0.52935000  0.10727000  1.0
  O  O145  1  0.04369000  0.10750000  0.57794000  1.0
  O  O146  1  0.87695000  0.57792000  0.47056000  1.0
  O  O147  1  0.71040000  0.47065000  0.89273000  1.0
  O  O148  1  0.54369000  0.89250000  0.42206000  1.0
  O  O149  1  0.37695000  0.42208000  0.52944000  1.0
  O  O150  1  0.11419000  0.49513000  0.97823000  1.0
  O  O151  1  0.94770000  0.97836000  0.48317000  1.0
  O  O152  1  0.78088000  0.48300000  0.50467000  1.0
  O  O153  1  0.61419000  0.50487000  0.02177000  1.0
  O  O154  1  0.44770000  0.02164000  0.51683000  1.0
  O  O155  1  0.28087000  0.51700000  0.49533000  1.0
