# generated using pymatgen
data_Pr2H10C10O13
_symmetry_space_group_name_H-M   'P 1'
_cell_length_a   8.31657000
_cell_length_b   9.43677000
_cell_length_c   11.60260000
_cell_angle_alpha   79.67210000
_cell_angle_beta   70.01010000
_cell_angle_gamma   75.50230000
_symmetry_Int_Tables_number   1
_chemical_formula_structural   Pr2H10C10O13
_chemical_formula_sum   'Pr4 H20 C20 O26'
_cell_volume   824.07597217
_cell_formula_units_Z   2
loop_
 _symmetry_equiv_pos_site_id
 _symmetry_equiv_pos_as_xyz
  1  'x, y, z'
loop_
 _atom_site_type_symbol
 _atom_site_label
 _atom_site_symmetry_multiplicity
 _atom_site_fract_x
 _atom_site_fract_y
 _atom_site_fract_z
 _atom_site_occupancy
  Pr  Pr0  1  0.24994000  0.02857000  0.48674000  1.0
  Pr  Pr1  1  0.75007000  0.97143000  0.51325000  1.0
  Pr  Pr2  1  0.45187000  0.64673000  0.62831000  1.0
  Pr  Pr3  1  0.54813000  0.35328000  0.37169000  1.0
  H  H4  1  0.50919000  0.84650000  0.12890000  1.0
  H  H5  1  0.49081000  0.15350000  0.87110000  1.0
  H  H6  1  0.21819000  0.95752000  0.11039000  1.0
  H  H7  1  0.78181000  0.04248000  0.88961000  1.0
  H  H8  1  0.23935000  0.76714000  0.15413000  1.0
  H  H9  1  0.76065000  0.23286000  0.84587000  1.0
  H  H10  1  0.04312000  0.34162000  0.75055000  1.0
  H  H11  1  0.95689000  0.65838000  0.24944000  1.0
  H  H12  1  0.93173000  0.46459000  0.65698000  1.0
  H  H13  1  0.06827000  0.53541000  0.34302000  1.0
  H  H14  1  0.91724000  0.58508000  0.83299000  1.0
  H  H15  1  0.08276000  0.41491000  0.16701000  1.0
  H  H16  1  0.53611000  0.57867000  0.09131000  1.0
  H  H17  1  0.46388000  0.42133000  0.90869000  1.0
  H  H18  1  0.38666000  0.09040000  0.18578000  1.0
  H  H19  1  0.61334000  0.90959000  0.81423000  1.0
  H  H20  1  0.21373000  0.45424000  0.83396000  1.0
  H  H21  1  0.78627000  0.54575000  0.16604000  1.0
  H  H22  1  0.42173000  0.94049000  0.68714000  1.0
  H  H23  1  0.57827000  0.05950000  0.31285000  1.0
  C  C24  1  0.43275000  0.74467000  0.31338000  1.0
  C  C25  1  0.56725000  0.25533000  0.68662000  1.0
  C  C26  1  0.39963000  0.86922000  0.21435000  1.0
  C  C27  1  0.60037000  0.13078000  0.78565000  1.0
  C  C28  1  0.23118000  0.87212000  0.18668000  1.0
  C  C29  1  0.76883000  0.12788000  0.81332000  1.0
  C  C30  1  0.06593000  0.90069000  0.29513000  1.0
  C  C31  1  0.93408000  0.09931000  0.70487000  1.0
  C  C32  1  0.20882000  0.41222000  0.57664000  1.0
  C  C33  1  0.79118000  0.58779000  0.42335000  1.0
  C  C34  1  0.04803000  0.44382000  0.68740000  1.0
  C  C35  1  0.95197000  0.55618000  0.31260000  1.0
  C  C36  1  0.03780000  0.57388000  0.75378000  1.0
  C  C37  1  0.96220000  0.42612000  0.24622000  1.0
  C  C38  1  0.02540000  0.72164000  0.67197000  1.0
  C  C39  1  0.97459000  0.27836000  0.32803000  1.0
  C  C40  1  0.54833000  0.68286000  0.90319000  1.0
  C  C41  1  0.45166000  0.31715000  0.09681000  1.0
  C  C42  1  0.52124000  0.56206000  0.00514000  1.0
  C  C43  1  0.47875000  0.43794000  0.99486000  1.0
  O  O44  1  0.39704000  0.00411000  0.25356000  1.0
  O  O45  1  0.60296000  0.99589000  0.74644000  1.0
  O  O46  1  0.07899000  0.91122000  0.40109000  1.0
  O  O47  1  0.92101000  0.08878000  0.59892000  1.0
  O  O48  1  0.88704000  0.76672000  0.64480000  1.0
  O  O49  1  0.11296000  0.23328000  0.35520000  1.0
  O  O50  1  0.91894000  0.91146000  0.28199000  1.0
  O  O51  1  0.08107000  0.08854000  0.71801000  1.0
  O  O52  1  0.23841000  0.30140000  0.51944000  1.0
  O  O53  1  0.76159000  0.69861000  0.48056000  1.0
  O  O54  1  0.43105000  0.77914000  0.41546000  1.0
  O  O55  1  0.56896000  0.22086000  0.58454000  1.0
  O  O56  1  0.45200000  0.90645000  0.60612000  1.0
  O  O57  1  0.54801000  0.09355000  0.39388000  1.0
  O  O58  1  0.15481000  0.78667000  0.63964000  1.0
  O  O59  1  0.84519000  0.21333000  0.36036000  1.0
  O  O60  1  0.31583000  0.50009000  0.54021000  1.0
  O  O61  1  0.68417000  0.49991000  0.45979000  1.0
  O  O62  1  0.46382000  0.61477000  0.28554000  1.0
  O  O63  1  0.53618000  0.38523000  0.71446000  1.0
  O  O64  1  0.18615000  0.55499000  0.79715000  1.0
  O  O65  1  0.81385000  0.44501000  0.20285000  1.0
  O  O66  1  0.50920000  0.67717000  0.80701000  1.0
  O  O67  1  0.49079000  0.32283000  0.19299000  1.0
  O  O68  1  0.61060000  0.78555000  0.91872000  1.0
  O  O69  1  0.38940000  0.21445000  0.08129000  1.0
