# generated using pymatgen
data_Zn4H16(C4O3)7
_symmetry_space_group_name_H-M   'P 1'
_cell_length_a   18.47300000
_cell_length_b   18.49430000
_cell_length_c   18.50403132
_cell_angle_alpha   90.51726147
_cell_angle_beta   119.32408201
_cell_angle_gamma   119.92090000
_symmetry_Int_Tables_number   1
_chemical_formula_structural   Zn4H16(C4O3)7
_chemical_formula_sum   'Zn8 H32 C56 O42'
_cell_volume   4500.70651647
_cell_formula_units_Z   2
loop_
 _symmetry_equiv_pos_site_id
 _symmetry_equiv_pos_as_xyz
  1  'x, y, z'
loop_
 _atom_site_type_symbol
 _atom_site_label
 _atom_site_symmetry_multiplicity
 _atom_site_fract_x
 _atom_site_fract_y
 _atom_site_fract_z
 _atom_site_occupancy
  Zn  Zn0  1  0.91225000  0.45389000  0.86290000  1.0
  Zn  Zn1  1  0.91359000  0.45751000  0.03510000  1.0
  Zn  Zn2  1  0.09245000  0.62847000  0.03774000  1.0
  Zn  Zn3  1  0.08846000  0.45657000  0.04276000  1.0
  Zn  Zn4  1  0.08996000  0.04775000  0.63093000  1.0
  Zn  Zn5  1  0.92280000  0.88122000  0.45612000  1.0
  Zn  Zn6  1  0.08634000  0.06510000  0.45544000  1.0
  Zn  Zn7  1  0.91031000  0.04638000  0.46076000  1.0
  H  H8  1  0.84728000  0.14633000  0.63168000  1.0
  H  H9  1  0.09597000  0.25827000  0.96737000  1.0
  H  H10  1  0.87189000  0.21605000  0.53629000  1.0
  H  H11  1  0.79616000  0.19743000  0.78280000  1.0
  H  H12  1  0.09562000  0.89808000  0.80651000  1.0
  H  H13  1  0.09449000  0.72552000  0.72039000  1.0
  H  H14  1  0.58810000  0.73255000  0.31277000  1.0
  H  H15  1  0.21208000  0.45929000  0.92677000  1.0
  H  H16  1  0.77823000  0.07527000  0.23989000  1.0
  H  H17  1  0.84705000  0.26669000  0.15680000  1.0
  H  H18  1  0.03919000  0.28111000  0.20017000  1.0
  H  H19  1  0.95030000  0.73280000  0.64130000  1.0
  H  H20  1  0.20705000  0.85164000  0.39189000  1.0
  H  H21  1  0.03112000  0.85295000  0.14517000  1.0
  H  H22  1  0.05227000  0.59642000  0.29271000  1.0
  H  H23  1  0.43687000  0.27475000  0.54250000  1.0
  H  H24  1  0.26819000  0.30401000  0.86882000  1.0
  H  H25  1  0.42310000  0.19276000  0.75120000  1.0
  H  H26  1  0.59356000  0.32291000  0.68411000  1.0
  H  H27  1  0.58453000  0.33112000  0.84585000  1.0
  H  H28  1  0.02879000  0.09793000  0.79199000  1.0
  H  H29  1  0.96368000  0.12523000  0.85561000  1.0
  H  H30  1  0.04851000  0.78630000  0.87846000  1.0
  H  H31  1  0.85312000  0.01417000  0.63222000  1.0
  H  H32  1  0.81820000  0.24318000  0.61865000  1.0
  H  H33  1  0.07247000  0.45798000  0.69844000  1.0
  H  H34  1  0.59310000  0.90171000  0.31259000  1.0
  H  H35  1  0.40594000  0.80285000  0.22393000  1.0
  H  H36  1  0.42522000  0.65138000  0.19137000  1.0
  H  H37  1  0.05504000  0.25502000  0.32312000  1.0
  H  H38  1  0.91855000  0.81108000  0.20771000  1.0
  H  H39  1  0.09620000  0.33495000  0.69702000  1.0
  C  C40  1  0.98686000  0.35341000  0.12235000  1.0
  C  C41  1  0.03861000  0.69181000  0.80356000  1.0
  C  C42  1  0.55681000  0.83031000  0.29324000  1.0
  C  C43  1  0.02115000  0.63440000  0.85834000  1.0
  C  C44  1  0.61794000  0.80255000  0.32695000  1.0
  C  C45  1  0.44701000  0.77315000  0.23360000  1.0
  C  C46  1  0.39112000  0.68647000  0.18758000  1.0
  C  C47  1  0.89729000  0.19735000  0.24059000  1.0
  C  C48  1  0.98018000  0.20409000  0.30780000  1.0
  C  C49  1  0.90695000  0.25597000  0.18862000  1.0
  C  C50  1  0.98073000  0.29346000  0.17459000  1.0
  C  C51  1  0.99022000  0.33154000  0.72179000  1.0
  C  C52  1  0.05376000  0.81848000  0.29281000  1.0
  C  C53  1  0.98673000  0.83845000  0.27440000  1.0
  C  C54  1  0.03691000  0.76257000  0.22183000  1.0
  C  C55  1  0.72711000  0.38442000  0.85861000  1.0
  C  C56  1  0.04712000  0.69423000  0.22795000  1.0
  C  C57  1  0.44593000  0.25985000  0.66441000  1.0
  C  C58  1  0.38705000  0.20222000  0.68820000  1.0
  C  C59  1  0.55629000  0.30824000  0.71855000  1.0
  C  C60  1  0.61575000  0.33858000  0.80720000  1.0
  C  C61  1  0.72961000  0.86446000  0.38177000  1.0
  C  C62  1  0.00100000  0.29937000  0.80301000  1.0
  C  C63  1  0.27421000  0.14584000  0.63386000  1.0
  C  C64  1  0.00860000  0.86571000  0.63300000  1.0
  C  C65  1  0.98379000  0.14841000  0.36456000  1.0
  C  C66  1  0.99327000  0.89135000  0.34163000  1.0
  C  C67  1  0.27901000  0.63263000  0.13056000  1.0
  C  C68  1  0.00470000  0.14499000  0.64175000  1.0
  C  C69  1  0.03040000  0.63996000  0.15354000  1.0
  C  C70  1  0.99487000  0.35315000  0.86092000  1.0
  C  C71  1  0.10708000  0.31122000  0.85718000  1.0
  C  C72  1  0.09999000  0.24133000  0.79937000  1.0
  C  C73  1  0.00796000  0.20550000  0.70282000  1.0
  C  C74  1  0.91055000  0.19774000  0.76776000  1.0
  C  C75  1  0.14728000  0.30889000  0.95276000  1.0
  C  C76  1  0.95489000  0.26965000  0.57538000  1.0
  C  C77  1  0.80393000  0.17779000  0.73183000  1.0
  C  C78  1  0.05701000  0.66874000  0.74004000  1.0
  C  C79  1  0.19704000  0.40708000  0.88111000  1.0
  C  C80  1  0.79128000  0.13202000  0.21551000  1.0
  C  C81  1  0.14675000  0.85702000  0.38466000  1.0
  C  C82  1  0.00014000  0.78175000  0.13681000  1.0
  C  C83  1  0.06150000  0.66052000  0.30301000  1.0
  C  C84  1  0.90583000  0.15029000  0.69533000  1.0
  C  C85  1  0.40440000  0.27774000  0.57917000  1.0
  C  C86  1  0.20013000  0.28244000  0.80246000  1.0
  C  C87  1  0.09477000  0.16637000  0.83725000  1.0
  C  C88  1  0.92890000  0.16195000  0.84576000  1.0
  C  C89  1  0.85613000  0.05220000  0.68180000  1.0
  C  C90  1  0.88509000  0.31302000  0.65459000  1.0
  C  C91  1  0.06050000  0.43348000  0.74882000  1.0
  C  C92  1  0.01685000  0.28692000  0.67448000  1.0
  C  C93  1  0.05180000  0.82776000  0.77038000  1.0
  C  C94  1  0.00176000  0.80243000  0.68195000  1.0
  C  C95  1  0.04634000  0.76812000  0.82061000  1.0
  O  O96  1  0.00136000  0.49863000  0.99234000  1.0
  O  O97  1  0.06332000  0.14886000  0.40072000  1.0
  O  O98  1  0.93987000  0.84509000  0.36889000  1.0
  O  O99  1  0.06250000  0.38659000  0.11615000  1.0
  O  O100  1  0.95556000  0.13689000  0.56084000  1.0
  O  O101  1  0.04307000  0.97457000  0.35808000  1.0
  O  O102  1  0.04037000  0.10082000  0.67388000  1.0
  O  O103  1  0.06448000  0.94831000  0.67641000  1.0
  O  O104  1  0.91061000  0.10561000  0.37355000  1.0
  O  O105  1  0.77728000  0.82892000  0.39551000  1.0
  O  O106  1  0.22802000  0.12017000  0.55070000  1.0
  O  O107  1  0.76863000  0.39563000  0.81720000  1.0
  O  O108  1  0.95652000  0.55161000  0.81778000  1.0
  O  O109  1  0.77252000  0.40858000  0.94221000  1.0
  O  O110  1  0.23621000  0.67299000  0.11254000  1.0
  O  O111  1  0.96695000  0.55685000  0.13111000  1.0
  O  O112  1  0.06050000  0.38055000  0.94303000  1.0
  O  O113  1  0.08312000  0.68015000  0.12390000  1.0
  O  O114  1  0.92109000  0.36026000  0.82113000  1.0
  O  O115  1  0.23750000  0.36304000  0.01022000  1.0
  O  O116  1  0.99250000  0.31686000  0.54113000  1.0
  O  O117  1  0.73270000  0.13745000  0.65502000  1.0
  O  O118  1  0.23401000  0.54863000  0.10455000  1.0
  O  O119  1  0.04050000  0.59764000  0.71443000  1.0
  O  O120  1  0.24814000  0.42314000  0.85209000  1.0
  O  O121  1  0.72251000  0.14045000  0.17006000  1.0
  O  O122  1  0.15933000  0.89755000  0.44698000  1.0
  O  O123  1  0.93800000  0.72511000  0.06411000  1.0
  O  O124  1  0.07980000  0.69731000  0.37119000  1.0
  O  O125  1  0.34564000  0.29890000  0.55301000  1.0
  O  O126  1  0.19781000  0.27564000  0.73574000  1.0
  O  O127  1  0.16099000  0.17988000  0.91147000  1.0
  O  O128  1  0.91007000  0.17657000  0.89654000  1.0
  O  O129  1  0.91837000  0.36791000  0.08847000  1.0
  O  O130  1  0.81404000  0.01449000  0.71735000  1.0
  O  O131  1  0.87703000  0.37323000  0.63790000  1.0
  O  O132  1  0.09948000  0.48370000  0.81952000  1.0
  O  O133  1  0.07209000  0.67510000  0.94044000  1.0
  O  O134  1  0.00349000  0.01118000  0.50232000  1.0
  O  O135  1  0.76983000  0.94743000  0.41015000  1.0
  O  O136  1  0.23435000  0.12581000  0.67732000  1.0
  O  O137  1  0.95619000  0.83037000  0.54959000  1.0
