# generated using pymatgen
data_NaH3C4O5
_symmetry_space_group_name_H-M   'P 1'
_cell_length_a   3.61827000
_cell_length_b   8.12683000
_cell_length_c   9.45031000
_cell_angle_alpha   89.99960000
_cell_angle_beta   81.76330000
_cell_angle_gamma   89.99970000
_symmetry_Int_Tables_number   1
_chemical_formula_structural   NaH3C4O5
_chemical_formula_sum   'Na2 H6 C8 O10'
_cell_volume   275.02048533
_cell_formula_units_Z   2
loop_
 _symmetry_equiv_pos_site_id
 _symmetry_equiv_pos_as_xyz
  1  'x, y, z'
loop_
 _atom_site_type_symbol
 _atom_site_label
 _atom_site_symmetry_multiplicity
 _atom_site_fract_x
 _atom_site_fract_y
 _atom_site_fract_z
 _atom_site_occupancy
  Na  Na0  1  0.45766000  0.86311000  0.64474000  1.0
  Na  Na1  1  0.45764000  0.13689000  0.14474000  1.0
  H  H2  1  0.91380000  0.96192000  0.86824000  1.0
  H  H3  1  0.91378000  0.03808000  0.36824000  1.0
  H  H4  1  0.87602000  0.76918000  0.87106000  1.0
  H  H5  1  0.87600000  0.23082000  0.37105000  1.0
  H  H6  1  0.72122000  0.50413000  0.02521000  1.0
  H  H7  1  0.72122000  0.49586000  0.52521000  1.0
  C  C8  1  0.32556000  0.44454000  0.71926000  1.0
  C  C9  1  0.32553000  0.55546000  0.21926000  1.0
  C  C10  1  0.07956000  0.44030000  0.85337000  1.0
  C  C11  1  0.07957000  0.55971000  0.35336000  1.0
  C  C12  1  0.09223000  0.26135000  0.86033000  1.0
  C  C13  1  0.09224000  0.73864000  0.36032000  1.0
  C  C14  1  0.33889000  0.25979000  0.71681000  1.0
  C  C15  1  0.33886000  0.74021000  0.21680000  1.0
  O  O16  1  0.89766000  0.86442000  0.80637000  1.0
  O  O17  1  0.89764000  0.13559000  0.30637000  1.0
  O  O18  1  0.47710000  0.55775000  0.63808000  1.0
  O  O19  1  0.47708000  0.44225000  0.13808000  1.0
  O  O20  1  0.90985000  0.55447000  0.93492000  1.0
  O  O21  1  0.90985000  0.44553000  0.43492000  1.0
  O  O22  1  0.95900000  0.15528000  0.94991000  1.0
  O  O23  1  0.95901000  0.84473000  0.44990000  1.0
  O  O24  1  0.48722000  0.15452000  0.63343000  1.0
  O  O25  1  0.48720000  0.84546000  0.13343000  1.0
