# generated using pymatgen
data_ZnH12(C8O3)2
_symmetry_space_group_name_H-M   'P 1'
_cell_length_a   7.92293000
_cell_length_b   7.96564000
_cell_length_c   11.65490000
_cell_angle_alpha   82.67340000
_cell_angle_beta   78.64070000
_cell_angle_gamma   72.56740000
_symmetry_Int_Tables_number   1
_chemical_formula_structural   ZnH12(C8O3)2
_chemical_formula_sum   'Zn2 H24 C32 O12'
_cell_volume   686.17563554
_cell_formula_units_Z   2
loop_
 _symmetry_equiv_pos_site_id
 _symmetry_equiv_pos_as_xyz
  1  'x, y, z'
loop_
 _atom_site_type_symbol
 _atom_site_label
 _atom_site_symmetry_multiplicity
 _atom_site_fract_x
 _atom_site_fract_y
 _atom_site_fract_z
 _atom_site_occupancy
  Zn  Zn0  1  0.02313000  0.74401000  0.50690000  1.0
  Zn  Zn1  1  0.97687000  0.25599000  0.49310000  1.0
  H  H2  1  0.20138000  0.69061000  0.16129000  1.0
  H  H3  1  0.79861000  0.30939000  0.83871000  1.0
  H  H4  1  0.36381000  0.57447000  0.97127000  1.0
  H  H5  1  0.63619000  0.42554000  0.02873000  1.0
  H  H6  1  0.10932000  0.15614000  0.04046000  1.0
  H  H7  1  0.89068000  0.84387000  0.95954000  1.0
  H  H8  1  0.37501000  0.52199000  0.79397000  1.0
  H  H9  1  0.62498000  0.47801000  0.20603000  1.0
  H  H10  1  0.58152000  0.87427000  0.77652000  1.0
  H  H11  1  0.41849000  0.12573000  0.22348000  1.0
  H  H12  1  0.36957000  0.00306000  0.94967000  1.0
  H  H13  1  0.63043000  0.99694000  0.05034000  1.0
  H  H14  1  0.62666000  0.65026000  0.53572000  1.0
  H  H15  1  0.37333000  0.34974000  0.46428000  1.0
  H  H16  1  0.59648000  0.62527000  0.69225000  1.0
  H  H17  1  0.40351000  0.37474000  0.30774000  1.0
  H  H18  1  0.40850000  0.65435000  0.61737000  1.0
  H  H19  1  0.59149000  0.34565000  0.38263000  1.0
  H  H20  1  0.80705000  0.06221000  0.28793000  1.0
  H  H21  1  0.19295000  0.93779000  0.71207000  1.0
  H  H22  1  0.03014000  0.99979000  0.20870000  1.0
  H  H23  1  0.96986000  0.00022000  0.79130000  1.0
  H  H24  1  0.84755000  0.11994000  0.13267000  1.0
  H  H25  1  0.15245000  0.88006000  0.86733000  1.0
  C  C26  1  0.06188000  0.49383000  0.20975000  1.0
  C  C27  1  0.93812000  0.50618000  0.79025000  1.0
  C  C28  1  0.17912000  0.57523000  0.13268000  1.0
  C  C29  1  0.82087000  0.42477000  0.86732000  1.0
  C  C30  1  0.27032000  0.50955000  0.02634000  1.0
  C  C31  1  0.72968000  0.49045000  0.97365000  1.0
  C  C32  1  0.24974000  0.35400000  0.99286000  1.0
  C  C33  1  0.75025000  0.64600000  0.00714000  1.0
  C  C34  1  0.13030000  0.27311000  0.06719000  1.0
  C  C35  1  0.86970000  0.72689000  0.93281000  1.0
  C  C36  1  0.03525000  0.34099000  0.17383000  1.0
  C  C37  1  0.96475000  0.65901000  0.82617000  1.0
  C  C38  1  0.35951000  0.27363000  0.88510000  1.0
  C  C39  1  0.64049000  0.72637000  0.11490000  1.0
  C  C40  1  0.42218000  0.37960000  0.79122000  1.0
  C  C41  1  0.57781000  0.62040000  0.20878000  1.0
  C  C42  1  0.54198000  0.30723000  0.69259000  1.0
  C  C43  1  0.45802000  0.69277000  0.30741000  1.0
  C  C44  1  0.60258000  0.12074000  0.68696000  1.0
  C  C45  1  0.39742000  0.87926000  0.31305000  1.0
  C  C46  1  0.53306000  0.01693000  0.78047000  1.0
  C  C47  1  0.46695000  0.98307000  0.21953000  1.0
  C  C48  1  0.41333000  0.08953000  0.87722000  1.0
  C  C49  1  0.58668000  0.91047000  0.12279000  1.0
  C  C50  1  0.55349000  0.59753000  0.61436000  1.0
  C  C51  1  0.44650000  0.40247000  0.38564000  1.0
  C  C52  1  0.90065000  0.10222000  0.21522000  1.0
  C  C53  1  0.09935000  0.89778000  0.78478000  1.0
  C  C54  1  0.74160000  0.02868000  0.59230000  1.0
  C  C55  1  0.25840000  0.97132000  0.40770000  1.0
  C  C56  1  0.98537000  0.56625000  0.32642000  1.0
  C  C57  1  0.01463000  0.43374000  0.67358000  1.0
  O  O58  1  0.91641000  0.26553000  0.24502000  1.0
  O  O59  1  0.08359000  0.73447000  0.75498000  1.0
  O  O60  1  0.01614000  0.71047000  0.34210000  1.0
  O  O61  1  0.98387000  0.28952000  0.65790000  1.0
  O  O62  1  0.60518000  0.40994000  0.60350000  1.0
  O  O63  1  0.39482000  0.59006000  0.39649000  1.0
  O  O64  1  0.81005000  0.11224000  0.50303000  1.0
  O  O65  1  0.18995000  0.88776000  0.49697000  1.0
  O  O66  1  0.79057000  0.85944000  0.60422000  1.0
  O  O67  1  0.20943000  0.14055000  0.39578000  1.0
  O  O68  1  0.89670000  0.48855000  0.40815000  1.0
  O  O69  1  0.10330000  0.51145000  0.59185000  1.0
