# generated using pymatgen
data_BiH8C10I3N2
_symmetry_space_group_name_H-M   'P 1'
_cell_length_a   7.51231000
_cell_length_b   10.30690000
_cell_length_c   10.84930000
_cell_angle_alpha   117.44800000
_cell_angle_beta   90.53300000
_cell_angle_gamma   95.13560000
_symmetry_Int_Tables_number   1
_chemical_formula_structural   BiH8C10I3N2
_chemical_formula_sum   'Bi2 H16 C20 I6 N4'
_cell_volume   741.27344042
_cell_formula_units_Z   2
loop_
 _symmetry_equiv_pos_site_id
 _symmetry_equiv_pos_as_xyz
  1  'x, y, z'
loop_
 _atom_site_type_symbol
 _atom_site_label
 _atom_site_symmetry_multiplicity
 _atom_site_fract_x
 _atom_site_fract_y
 _atom_site_fract_z
 _atom_site_occupancy
  Bi  Bi0  1  0.45175000  0.39883000  0.26042000  1.0
  Bi  Bi1  1  0.54828000  0.60117000  0.73958000  1.0
  H  H2  1  0.08734000  0.74190000  0.32254000  1.0
  H  H3  1  0.91267000  0.25809000  0.67746000  1.0
  H  H4  1  0.87723000  0.54280000  0.31989000  1.0
  H  H5  1  0.12277000  0.45717000  0.68009000  1.0
  H  H6  1  0.62969000  0.93344000  0.25377000  1.0
  H  H7  1  0.37030000  0.06657000  0.74624000  1.0
  H  H8  1  0.43780000  0.72244000  0.24982000  1.0
  H  H9  1  0.56222000  0.27753000  0.75014000  1.0
  H  H10  1  0.82742000  0.00952000  0.14141000  1.0
  H  H11  1  0.17257000  0.99051000  0.85863000  1.0
  H  H12  1  0.04215000  0.20145000  0.13369000  1.0
  H  H13  1  0.95779000  0.79859000  0.86637000  1.0
  H  H14  1  0.41345000  0.16587000  0.39934000  1.0
  H  H15  1  0.58654000  0.83414000  0.60065000  1.0
  H  H16  1  0.21324000  0.97219000  0.42005000  1.0
  H  H17  1  0.78678000  0.02781000  0.57993000  1.0
  C  C18  1  0.94438000  0.74595000  0.31023000  1.0
  C  C19  1  0.05562000  0.25404000  0.68976000  1.0
  C  C20  1  0.82716000  0.63238000  0.30732000  1.0
  C  C21  1  0.17283000  0.36760000  0.69266000  1.0
  C  C22  1  0.69113000  0.85102000  0.27113000  1.0
  C  C23  1  0.30887000  0.14896000  0.72886000  1.0
  C  C24  1  0.87764000  0.85761000  0.28990000  1.0
  C  C25  1  0.12236000  0.14237000  0.71009000  1.0
  C  C26  1  0.58242000  0.73407000  0.26984000  1.0
  C  C27  1  0.41760000  0.26591000  0.73014000  1.0
  C  C28  1  0.00075000  0.97315000  0.28252000  1.0
  C  C29  1  0.99925000  0.02686000  0.71748000  1.0
  C  C30  1  0.95503000  0.04003000  0.20143000  1.0
  C  C31  1  0.04494000  0.96000000  0.79858000  1.0
  C  C32  1  0.07559000  0.14722000  0.19549000  1.0
  C  C33  1  0.92437000  0.85282000  0.80454000  1.0
  C  C34  1  0.28231000  0.12675000  0.34333000  1.0
  C  C35  1  0.71770000  0.87326000  0.65668000  1.0
  C  C36  1  0.16979000  0.01841000  0.35394000  1.0
  C  C37  1  0.83024000  0.98160000  0.64606000  1.0
  I  I38  1  0.26219000  0.63152000  0.52635000  1.0
  I  I39  1  0.73784000  0.36845000  0.47365000  1.0
  I  I40  1  0.19433000  0.44001000  0.08125000  1.0
  I  I41  1  0.80567000  0.55999000  0.91875000  1.0
  I  I42  1  0.65031000  0.20222000  0.02375000  1.0
  I  I43  1  0.34969000  0.79775000  0.97626000  1.0
  N  N44  1  0.64918000  0.62621000  0.28705000  1.0
  N  N45  1  0.35084000  0.37380000  0.71293000  1.0
  N  N46  1  0.23633000  0.19053000  0.26540000  1.0
  N  N47  1  0.76365000  0.80949000  0.73462000  1.0
