# generated using pymatgen
data_Ag2H6C4S(IN)2
_symmetry_space_group_name_H-M   'P 1'
_cell_length_a   7.54391000
_cell_length_b   7.89791000
_cell_length_c   10.31850000
_cell_angle_alpha   75.97570000
_cell_angle_beta   70.60620000
_cell_angle_gamma   69.63250000
_symmetry_Int_Tables_number   1
_chemical_formula_structural   Ag2H6C4S(IN)2
_chemical_formula_sum   'Ag4 H12 C8 S2 I4 N4'
_cell_volume   538.03317564
_cell_formula_units_Z   2
loop_
 _symmetry_equiv_pos_site_id
 _symmetry_equiv_pos_as_xyz
  1  'x, y, z'
loop_
 _atom_site_type_symbol
 _atom_site_label
 _atom_site_symmetry_multiplicity
 _atom_site_fract_x
 _atom_site_fract_y
 _atom_site_fract_z
 _atom_site_occupancy
  Ag  Ag0  1  0.57103000  0.84305000  0.91954000  1.0
  Ag  Ag1  1  0.42898000  0.15696000  0.08046000  1.0
  Ag  Ag2  1  0.79465000  0.52391000  0.07062000  1.0
  Ag  Ag3  1  0.20538000  0.47609000  0.92937000  1.0
  H  H4  1  0.96244000  0.13387000  0.86289000  1.0
  H  H5  1  0.03756000  0.86615000  0.13711000  1.0
  H  H6  1  0.95617000  0.27671000  0.61109000  1.0
  H  H7  1  0.04383000  0.72331000  0.38891000  1.0
  H  H8  1  0.25122000  0.02552000  0.44857000  1.0
  H  H9  1  0.74878000  0.97447000  0.55143000  1.0
  H  H10  1  0.38008000  0.60887000  0.61893000  1.0
  H  H11  1  0.61990000  0.39113000  0.38107000  1.0
  H  H12  1  0.54007000  0.67453000  0.67891000  1.0
  H  H13  1  0.45991000  0.32546000  0.32109000  1.0
  H  H14  1  0.52857000  0.74764000  0.50251000  1.0
  H  H15  1  0.47140000  0.25235000  0.49750000  1.0
  C  C16  1  0.19666000  0.91502000  0.78313000  1.0
  C  C17  1  0.80334000  0.08498000  0.21687000  1.0
  C  C18  1  0.05696000  0.14731000  0.63948000  1.0
  C  C19  1  0.94305000  0.85269000  0.36052000  1.0
  C  C20  1  0.20258000  0.02474000  0.55993000  1.0
  C  C21  1  0.79742000  0.97524000  0.44007000  1.0
  C  C22  1  0.44404000  0.71822000  0.60985000  1.0
  C  C23  1  0.55595000  0.28176000  0.39016000  1.0
  S  S24  1  0.25150000  0.78095000  0.93001000  1.0
  S  S25  1  0.74851000  0.21906000  0.06999000  1.0
  I  I26  1  0.49065000  0.78995000  0.22087000  1.0
  I  I27  1  0.50938000  0.21005000  0.77912000  1.0
  I  I28  1  0.91761000  0.61202000  0.76575000  1.0
  I  I29  1  0.08239000  0.38798000  0.23425000  1.0
  N  N30  1  0.05615000  0.07718000  0.77568000  1.0
  N  N31  1  0.94386000  0.92283000  0.22433000  1.0
  N  N32  1  0.28859000  0.88261000  0.64955000  1.0
  N  N33  1  0.71141000  0.11738000  0.35045000  1.0
