# generated using pymatgen
data_ZnH9C9N3ClO4
_symmetry_space_group_name_H-M   'P 1'
_cell_length_a   9.64600000
_cell_length_b   10.58900000
_cell_length_c   10.63280000
_cell_angle_alpha   92.73380000
_cell_angle_beta   89.70540000
_cell_angle_gamma   89.52510000
_symmetry_Int_Tables_number   1
_chemical_formula_structural   ZnH9C9N3ClO4
_chemical_formula_sum   'Zn2 H18 C18 N6 Cl2 O8'
_cell_volume   1084.76012537
_cell_formula_units_Z   2
loop_
 _symmetry_equiv_pos_site_id
 _symmetry_equiv_pos_as_xyz
  1  'x, y, z'
loop_
 _atom_site_type_symbol
 _atom_site_label
 _atom_site_symmetry_multiplicity
 _atom_site_fract_x
 _atom_site_fract_y
 _atom_site_fract_z
 _atom_site_occupancy
  Zn  Zn0  1  0.65071000  0.51788000  0.51799000  1.0
  Zn  Zn1  1  0.35006000  0.51471000  0.51694000  1.0
  H  H2  1  0.28702000  0.42527000  0.90034000  1.0
  H  H3  1  0.71585000  0.43579000  0.88769000  1.0
  H  H4  1  0.29659000  0.40587000  0.13661000  1.0
  H  H5  1  0.13116000  0.67533000  0.40019000  1.0
  H  H6  1  0.11059000  0.52588000  0.32168000  1.0
  H  H7  1  0.86777000  0.56840000  0.32888000  1.0
  H  H8  1  0.88854000  0.69735000  0.43938000  1.0
  H  H9  1  0.88867000  0.35545000  0.40654000  1.0
  H  H10  1  0.86999000  0.33110000  0.56812000  1.0
  H  H11  1  0.13161000  0.33502000  0.43739000  1.0
  H  H12  1  0.11311000  0.34717000  0.60271000  1.0
  H  H13  1  0.11104000  0.68939000  0.62656000  1.0
  H  H14  1  0.13228000  0.55296000  0.71440000  1.0
  H  H15  1  0.88973000  0.51277000  0.71468000  1.0
  H  H16  1  0.86797000  0.66747000  0.66147000  1.0
  H  H17  1  0.28102000  0.89558000  0.45902000  1.0
  H  H18  1  0.70679000  0.87990000  0.42016000  1.0
  H  H19  1  0.28420000  0.12941000  0.41754000  1.0
  C  C20  1  0.50300000  0.50080000  0.27418000  1.0
  C  C21  1  0.49664000  0.49673000  0.75928000  1.0
  C  C22  1  0.50002000  0.75970000  0.51678000  1.0
  C  C23  1  0.50309000  0.27130000  0.48328000  1.0
  C  C24  1  0.63140000  0.44349000  0.07380000  1.0
  C  C25  1  0.37945000  0.44371000  0.95563000  1.0
  C  C26  1  0.62611000  0.45258000  0.94817000  1.0
  C  C27  1  0.38475000  0.43285000  0.08047000  1.0
  C  C28  1  0.07918000  0.58391000  0.40535000  1.0
  C  C29  1  0.92007000  0.59912000  0.41622000  1.0
  C  C30  1  0.92133000  0.39026000  0.50034000  1.0
  C  C31  1  0.08004000  0.38891000  0.51509000  1.0
  C  C32  1  0.07966000  0.59049000  0.63284000  1.0
  C  C33  1  0.92052000  0.57642000  0.64127000  1.0
  C  C34  1  0.62227000  0.06707000  0.42073000  1.0
  C  C35  1  0.37427000  0.95211000  0.46186000  1.0
  C  C36  1  0.62066000  0.94329000  0.44388000  1.0
  C  C37  1  0.37630000  0.07545000  0.43941000  1.0
  N  N38  1  0.50939000  0.45636000  0.14812000  1.0
  N  N39  1  0.49961000  0.47317000  0.88773000  1.0
  N  N40  1  0.86684000  0.52183000  0.51953000  1.0
  N  N41  1  0.13355000  0.52058000  0.51744000  1.0
  N  N42  1  0.50276000  0.14333000  0.44324000  1.0
  N  N43  1  0.49853000  0.88677000  0.48529000  1.0
  Cl  Cl44  1  0.78455000  0.39108000  0.13854000  1.0
  Cl  Cl45  1  0.75929000  0.12483000  0.33561000  1.0
  O  O46  1  0.61935000  0.71081000  0.53194000  1.0
  O  O47  1  0.38223000  0.70666000  0.52580000  1.0
  O  O48  1  0.62016000  0.32441000  0.49708000  1.0
  O  O49  1  0.38347000  0.32171000  0.50065000  1.0
  O  O50  1  0.61684000  0.52941000  0.32789000  1.0
  O  O51  1  0.37739000  0.50368000  0.70907000  1.0
  O  O52  1  0.38183000  0.50714000  0.32314000  1.0
  O  O53  1  0.61461000  0.50818000  0.70676000  1.0
