# generated using pymatgen
data_CuH5C2N5O4
_symmetry_space_group_name_H-M   'P 1'
_cell_length_a   6.37903000
_cell_length_b   6.86183000
_cell_length_c   7.81209000
_cell_angle_alpha   71.76140000
_cell_angle_beta   86.29850000
_cell_angle_gamma   76.43440000
_symmetry_Int_Tables_number   1
_chemical_formula_structural   CuH5C2N5O4
_chemical_formula_sum   'Cu2 H10 C4 N10 O8'
_cell_volume   315.69538527
_cell_formula_units_Z   2
loop_
 _symmetry_equiv_pos_site_id
 _symmetry_equiv_pos_as_xyz
  1  'x, y, z'
loop_
 _atom_site_type_symbol
 _atom_site_label
 _atom_site_symmetry_multiplicity
 _atom_site_fract_x
 _atom_site_fract_y
 _atom_site_fract_z
 _atom_site_occupancy
  Cu  Cu0  1  0.50000000  0.00000000  0.00000000  1.0
  Cu  Cu1  1  0.50000000  0.50000000  0.00000000  1.0
  H  H2  1  0.64347000  0.13912000  0.21153000  1.0
  H  H3  1  0.35653000  0.86088000  0.78847000  1.0
  H  H4  1  0.70860000  0.43068000  0.64415000  1.0
  H  H5  1  0.29140000  0.56931000  0.35585000  1.0
  H  H6  1  0.73072000  0.67799000  0.62261000  1.0
  H  H7  1  0.26928000  0.32201000  0.37740000  1.0
  H  H8  1  0.01621000  0.11875000  0.80588000  1.0
  H  H9  1  0.98380000  0.88125000  0.19411000  1.0
  H  H10  1  0.03739000  0.73693000  0.78245000  1.0
  H  H11  1  0.96259000  0.26307000  0.21756000  1.0
  C  C12  1  0.07609000  0.24899000  0.81834000  1.0
  C  C13  1  0.92392000  0.75102000  0.18165000  1.0
  C  C14  1  0.08813000  0.56851000  0.80595000  1.0
  C  C15  1  0.91186000  0.43150000  0.19406000  1.0
  N  N16  1  0.27127000  0.44006000  0.87884000  1.0
  N  N17  1  0.72873000  0.55994000  0.12117000  1.0
  N  N18  1  0.26468000  0.24231000  0.88556000  1.0
  N  N19  1  0.73532000  0.75769000  0.11443000  1.0
  N  N20  1  0.96304000  0.45273000  0.76603000  1.0
  N  N21  1  0.03696000  0.54727000  0.23397000  1.0
  N  N22  1  0.74829000  0.52698000  0.71008000  1.0
  N  N23  1  0.25172000  0.47302000  0.28993000  1.0
  N  N24  1  0.72047000  0.08332000  0.56419000  1.0
  N  N25  1  0.27952000  0.91668000  0.43581000  1.0
  O  O26  1  0.77768000  0.99853000  0.72815000  1.0
  O  O27  1  0.22231000  0.00147000  0.27185000  1.0
  O  O28  1  0.74139000  0.96955000  0.45978000  1.0
  O  O29  1  0.25860000  0.03045000  0.54022000  1.0
  O  O30  1  0.64279000  0.27902000  0.50389000  1.0
  O  O31  1  0.35721000  0.72098000  0.49611000  1.0
  O  O32  1  0.61809000  0.19498000  0.08004000  1.0
  O  O33  1  0.38190000  0.80502000  0.91996000  1.0
