# generated using pymatgen
data_ZnH16C26(NO2)2
_symmetry_space_group_name_H-M   'P 1'
_cell_length_a   9.35085000
_cell_length_b   9.87907000
_cell_length_c   13.08700000
_cell_angle_alpha   71.46210000
_cell_angle_beta   70.21930000
_cell_angle_gamma   68.59650000
_symmetry_Int_Tables_number   1
_chemical_formula_structural   ZnH16C26(NO2)2
_chemical_formula_sum   'Zn2 H32 C52 N4 O8'
_cell_volume   1032.74357391
_cell_formula_units_Z   2
loop_
 _symmetry_equiv_pos_site_id
 _symmetry_equiv_pos_as_xyz
  1  'x, y, z'
loop_
 _atom_site_type_symbol
 _atom_site_label
 _atom_site_symmetry_multiplicity
 _atom_site_fract_x
 _atom_site_fract_y
 _atom_site_fract_z
 _atom_site_occupancy
  Zn  Zn0  1  0.88710000  0.04983000  0.25454000  1.0
  Zn  Zn1  1  0.11290000  0.95017000  0.74546000  1.0
  H  H2  1  0.78569000  0.35917000  0.95230000  1.0
  H  H3  1  0.21430000  0.64082000  0.04769000  1.0
  H  H4  1  0.34168000  0.45547000  0.19659000  1.0
  H  H5  1  0.65832000  0.54453000  0.80341000  1.0
  H  H6  1  0.39713000  0.21473000  0.09088000  1.0
  H  H7  1  0.60287000  0.78528000  0.90912000  1.0
  H  H8  1  0.58122000  0.87330000  0.64230000  1.0
  H  H9  1  0.41878000  0.12669000  0.35770000  1.0
  H  H10  1  0.59364000  0.72155000  0.57032000  1.0
  H  H11  1  0.40636000  0.27845000  0.42968000  1.0
  H  H12  1  0.32459000  0.84534000  0.03054000  1.0
  H  H13  1  0.67541000  0.15466000  0.96945000  1.0
  H  H14  1  0.98593000  0.23929000  0.32126000  1.0
  H  H15  1  0.01408000  0.76071000  0.67874000  1.0
  H  H16  1  0.94882000  0.87453000  0.10385000  1.0
  H  H17  1  0.05117000  0.12548000  0.89615000  1.0
  H  H18  1  0.70674000  0.25420000  0.72026000  1.0
  H  H19  1  0.29326000  0.74580000  0.27975000  1.0
  H  H20  1  0.59177000  0.55520000  0.46460000  1.0
  H  H21  1  0.40823000  0.44479000  0.53540000  1.0
  H  H22  1  0.59421000  0.05242000  0.73218000  1.0
  H  H23  1  0.40579000  0.94758000  0.26782000  1.0
  H  H24  1  0.96199000  0.70184000  0.99661000  1.0
  H  H25  1  0.03800000  0.29817000  0.00338000  1.0
  H  H26  1  0.66790000  0.47981000  0.28247000  1.0
  H  H27  1  0.33211000  0.52019000  0.71753000  1.0
  H  H28  1  0.81898000  0.50891000  0.08376000  1.0
  H  H29  1  0.18101000  0.49110000  0.91624000  1.0
  H  H30  1  0.01712000  0.41035000  0.40984000  1.0
  H  H31  1  0.98288000  0.58964000  0.59017000  1.0
  H  H32  1  0.87765000  0.41905000  0.60880000  1.0
  H  H33  1  0.12236000  0.58094000  0.39120000  1.0
  C  C34  1  0.64476000  0.28371000  0.17374000  1.0
  C  C35  1  0.35524000  0.71629000  0.82626000  1.0
  C  C36  1  0.57126000  0.39656000  0.08363000  1.0
  C  C37  1  0.42875000  0.60344000  0.91637000  1.0
  C  C38  1  0.80115000  0.77522000  0.25559000  1.0
  C  C39  1  0.19885000  0.22478000  0.74441000  1.0
  C  C40  1  0.66063000  0.42135000  0.97263000  1.0
  C  C41  1  0.33937000  0.57865000  0.02736000  1.0
  C  C42  1  0.41013000  0.47635000  0.11019000  1.0
  C  C43  1  0.58987000  0.52365000  0.88980000  1.0
  C  C44  1  0.73008000  0.95489000  0.48183000  1.0
  C  C45  1  0.26992000  0.04511000  0.51818000  1.0
  C  C46  1  0.34600000  0.03264000  0.06838000  1.0
  C  C47  1  0.65400000  0.96737000  0.93162000  1.0
  C  C48  1  0.44406000  0.12080000  0.05077000  1.0
  C  C49  1  0.55594000  0.87921000  0.94923000  1.0
  C  C50  1  0.82867000  0.14755000  0.47062000  1.0
  C  C51  1  0.17133000  0.85245000  0.52938000  1.0
  C  C52  1  0.65008000  0.95185000  0.59531000  1.0
  C  C53  1  0.34992000  0.04814000  0.40469000  1.0
  C  C54  1  0.72453000  0.85055000  0.42412000  1.0
  C  C55  1  0.27547000  0.14945000  0.57588000  1.0
  C  C56  1  0.65048000  0.73597000  0.48148000  1.0
  C  C57  1  0.34953000  0.26403000  0.51852000  1.0
  C  C58  1  0.18148000  0.06943000  0.14201000  1.0
  C  C59  1  0.81851000  0.93057000  0.85799000  1.0
  C  C60  1  0.40255000  0.91180000  0.01706000  1.0
  C  C61  1  0.59745000  0.08820000  0.98293000  1.0
  C  C62  1  0.72344000  0.66001000  0.30741000  1.0
  C  C63  1  0.27657000  0.33999000  0.69260000  1.0
  C  C64  1  0.92447000  0.24357000  0.40810000  1.0
  C  C65  1  0.07554000  0.75643000  0.59190000  1.0
  C  C66  1  0.88710000  0.78903000  0.14239000  1.0
  C  C67  1  0.11290000  0.21098000  0.85761000  1.0
  C  C68  1  0.76686000  0.25224000  0.63316000  1.0
  C  C69  1  0.23314000  0.74776000  0.36684000  1.0
  C  C70  1  0.64867000  0.64383000  0.42241000  1.0
  C  C71  1  0.35133000  0.35617000  0.57759000  1.0
  C  C72  1  0.65792000  0.05104000  0.64549000  1.0
  C  C73  1  0.34208000  0.94896000  0.35452000  1.0
  C  C74  1  0.74930000  0.15113000  0.58508000  1.0
  C  C75  1  0.25071000  0.84887000  0.41492000  1.0
  C  C76  1  0.89458000  0.69206000  0.08338000  1.0
  C  C77  1  0.10542000  0.30795000  0.91661000  1.0
  C  C78  1  0.72910000  0.56576000  0.24321000  1.0
  C  C79  1  0.27090000  0.43424000  0.75679000  1.0
  C  C80  1  0.81365000  0.58169000  0.13316000  1.0
  C  C81  1  0.18634000  0.41832000  0.86685000  1.0
  C  C82  1  0.94182000  0.33788000  0.45847000  1.0
  C  C83  1  0.05818000  0.66212000  0.54153000  1.0
  C  C84  1  0.86280000  0.34297000  0.57103000  1.0
  C  C85  1  0.13721000  0.65702000  0.42898000  1.0
  N  N86  1  0.79545000  0.86914000  0.31519000  1.0
  N  N87  1  0.20455000  0.13086000  0.68481000  1.0
  N  N88  1  0.81413000  0.05133000  0.42156000  1.0
  N  N89  1  0.18587000  0.94867000  0.57844000  1.0
  O  O90  1  0.79039000  0.20573000  0.14040000  1.0
  O  O91  1  0.20961000  0.79427000  0.85959000  1.0
  O  O92  1  0.56607000  0.26965000  0.27349000  1.0
  O  O93  1  0.43392000  0.73036000  0.72650000  1.0
  O  O94  1  0.12496000  0.18794000  0.17623000  1.0
  O  O95  1  0.87504000  0.81207000  0.82376000  1.0
  O  O96  1  0.10455000  0.97205000  0.16728000  1.0
  O  O97  1  0.89545000  0.02795000  0.83272000  1.0
