# generated using pymatgen
data_MnH18C18N4O5
_symmetry_space_group_name_H-M   'P 1'
_cell_length_a   9.34584000
_cell_length_b   9.50379000
_cell_length_c   11.43010000
_cell_angle_alpha   74.05970000
_cell_angle_beta   81.57880000
_cell_angle_gamma   65.50040000
_symmetry_Int_Tables_number   1
_chemical_formula_structural   MnH18C18N4O5
_chemical_formula_sum   'Mn2 H36 C36 N8 O10'
_cell_volume   887.68667680
_cell_formula_units_Z   2
loop_
 _symmetry_equiv_pos_site_id
 _symmetry_equiv_pos_as_xyz
  1  'x, y, z'
loop_
 _atom_site_type_symbol
 _atom_site_label
 _atom_site_symmetry_multiplicity
 _atom_site_fract_x
 _atom_site_fract_y
 _atom_site_fract_z
 _atom_site_occupancy
  Mn  Mn0  1  0.69253000  0.80303000  0.60740000  1.0
  Mn  Mn1  1  0.30747000  0.19697000  0.39260000  1.0
  H  H2  1  0.21919000  0.23517000  0.10988000  1.0
  H  H3  1  0.78081000  0.76483000  0.89012000  1.0
  H  H4  1  0.18605000  0.39284000  0.58996000  1.0
  H  H5  1  0.81395000  0.60715000  0.41004000  1.0
  H  H6  1  0.04122000  0.41887000  0.96167000  1.0
  H  H7  1  0.95878000  0.58114000  0.03833000  1.0
  H  H8  1  0.48203000  0.05461000  0.88239000  1.0
  H  H9  1  0.51797000  0.94540000  0.11761000  1.0
  H  H10  1  0.03312000  0.68583000  0.43664000  1.0
  H  H11  1  0.96688000  0.31417000  0.56336000  1.0
  H  H12  1  0.95025000  0.17102000  0.28403000  1.0
  H  H13  1  0.04975000  0.82898000  0.71597000  1.0
  H  H14  1  0.70645000  0.14778000  0.45307000  1.0
  H  H15  1  0.29355000  0.85222000  0.54693000  1.0
  H  H16  1  0.47932000  0.82229000  0.87609000  1.0
  H  H17  1  0.52068000  0.17771000  0.12391000  1.0
  H  H18  1  0.31911000  0.49233000  0.81547000  1.0
  H  H19  1  0.68088000  0.50767000  0.18453000  1.0
  H  H20  1  0.55079000  0.52723000  0.63986000  1.0
  H  H21  1  0.44920000  0.47277000  0.36014000  1.0
  H  H22  1  0.13345000  0.73972000  0.94069000  1.0
  H  H23  1  0.86655000  0.26028000  0.05931000  1.0
  H  H24  1  0.26621000  0.56766000  0.03661000  1.0
  H  H25  1  0.73379000  0.43234000  0.96339000  1.0
  H  H26  1  0.26970000  0.78229000  0.30676000  1.0
  H  H27  1  0.73030000  0.21771000  0.69324000  1.0
  H  H28  1  0.19461000  0.97794000  0.21584000  1.0
  H  H29  1  0.80539000  0.02206000  0.78417000  1.0
  H  H30  1  0.02172000  0.88938000  0.11700000  1.0
  H  H31  1  0.97828000  0.11062000  0.88300000  1.0
  H  H32  1  0.12809000  0.69382000  0.19874000  1.0
  H  H33  1  0.87191000  0.30618000  0.80126000  1.0
  H  H34  1  0.25546000  0.90554000  0.99752000  1.0
  H  H35  1  0.74454000  0.09446000  0.00248000  1.0
  H  H36  1  0.38235000  0.73062000  0.09437000  1.0
  H  H37  1  0.61765000  0.26938000  0.90562000  1.0
  C  C38  1  0.95286000  0.56383000  0.72884000  1.0
  C  C39  1  0.04714000  0.43617000  0.27116000  1.0
  C  C40  1  0.09938000  0.42130000  0.77139000  1.0
  C  C41  1  0.90062000  0.57870000  0.22861000  1.0
  C  C42  1  0.26379000  0.22950000  0.93689000  1.0
  C  C43  1  0.73621000  0.77050000  0.06311000  1.0
  C  C44  1  0.20803000  0.34761000  0.68674000  1.0
  C  C45  1  0.79197000  0.65239000  0.31326000  1.0
  C  C46  1  0.12701000  0.36244000  0.89603000  1.0
  C  C47  1  0.87299000  0.63756000  0.10397000  1.0
  C  C48  1  0.34555000  0.21519000  0.72749000  1.0
  C  C49  1  0.65446000  0.78481000  0.27251000  1.0
  C  C50  1  0.37366000  0.15640000  0.85202000  1.0
  C  C51  1  0.62634000  0.84361000  0.14798000  1.0
  C  C52  1  0.46198000  0.13302000  0.63798000  1.0
  C  C53  1  0.53802000  0.86698000  0.36201000  1.0
  C  C54  1  0.97642000  0.81461000  0.42063000  1.0
  C  C55  1  0.02358000  0.18539000  0.57937000  1.0
  C  C56  1  0.92724000  0.06950000  0.33955000  1.0
  C  C57  1  0.07276000  0.93050000  0.66045000  1.0
  C  C58  1  0.81109000  0.05601000  0.42504000  1.0
  C  C59  1  0.18891000  0.94400000  0.57496000  1.0
  C  C60  1  0.46803000  0.73745000  0.83529000  1.0
  C  C61  1  0.53197000  0.26255000  0.16471000  1.0
  C  C62  1  0.38807000  0.56350000  0.80175000  1.0
  C  C63  1  0.61192000  0.43650000  0.19825000  1.0
  C  C64  1  0.50271000  0.58164000  0.71636000  1.0
  C  C65  1  0.49729000  0.41836000  0.28364000  1.0
  C  C66  1  0.25144000  0.68592000  0.97846000  1.0
  C  C67  1  0.74856000  0.31409000  0.02154000  1.0
  C  C68  1  0.16767000  0.87220000  0.25444000  1.0
  C  C69  1  0.83233000  0.12780000  0.74556000  1.0
  C  C70  1  0.13709000  0.80860000  0.15569000  1.0
  C  C71  1  0.86291000  0.19140000  0.84431000  1.0
  C  C72  1  0.26553000  0.78805000  0.05459000  1.0
  C  C73  1  0.73447000  0.21195000  0.94541000  1.0
  N  N74  1  0.84311000  0.89649000  0.47539000  1.0
  N  N75  1  0.15689000  0.10351000  0.52461000  1.0
  N  N76  1  0.03113000  0.91568000  0.33804000  1.0
  N  N77  1  0.96887000  0.08432000  0.66196000  1.0
  N  N78  1  0.55187000  0.69019000  0.73814000  1.0
  N  N79  1  0.44813000  0.30981000  0.26186000  1.0
  N  N80  1  0.36764000  0.66278000  0.87701000  1.0
  N  N81  1  0.63236000  0.33722000  0.12298000  1.0
  O  O82  1  0.57784000  0.00484000  0.68021000  1.0
  O  O83  1  0.42216000  0.99515000  0.31979000  1.0
  O  O84  1  0.44015000  0.19515000  0.52455000  1.0
  O  O85  1  0.55986000  0.80485000  0.47545000  1.0
  O  O86  1  0.89134000  0.57043000  0.63384000  1.0
  O  O87  1  0.10866000  0.42957000  0.36616000  1.0
  O  O88  1  0.89687000  0.67323000  0.78731000  1.0
  O  O89  1  0.10313000  0.32677000  0.21269000  1.0
  O  O90  1  0.29562000  0.16706000  0.05680000  1.0
  O  O91  1  0.70438000  0.83294000  0.94320000  1.0
