# generated using pymatgen
data_MnPH16C26(NO3)2
_symmetry_space_group_name_H-M   'P 1'
_cell_length_a   9.63440000
_cell_length_b   11.02000000
_cell_length_c   11.58250000
_cell_angle_alpha   87.98670000
_cell_angle_beta   79.22570000
_cell_angle_gamma   67.68910000
_symmetry_Int_Tables_number   1
_chemical_formula_structural   MnPH16C26(NO3)2
_chemical_formula_sum   'Mn2 P2 H32 C52 N4 O12'
_cell_volume   1116.74131648
_cell_formula_units_Z   2
loop_
 _symmetry_equiv_pos_site_id
 _symmetry_equiv_pos_as_xyz
  1  'x, y, z'
loop_
 _atom_site_type_symbol
 _atom_site_label
 _atom_site_symmetry_multiplicity
 _atom_site_fract_x
 _atom_site_fract_y
 _atom_site_fract_z
 _atom_site_occupancy
  Mn  Mn0  1  0.06457000  0.30104000  0.35451000  1.0
  Mn  Mn1  1  0.93543000  0.69896000  0.64549000  1.0
  P  P2  1  0.17340000  0.35475000  0.59262000  1.0
  P  P3  1  0.82659000  0.64525000  0.40738000  1.0
  H  H4  1  0.19576000  0.46307000  0.80494000  1.0
  H  H5  1  0.80424000  0.53693000  0.19505000  1.0
  H  H6  1  0.14458000  0.41547000  0.01656000  1.0
  H  H7  1  0.85543000  0.58453000  0.98343000  1.0
  H  H8  1  0.00942000  0.10624000  0.92625000  1.0
  H  H9  1  0.99058000  0.89376000  0.07375000  1.0
  H  H10  1  0.06450000  0.14950000  0.71476000  1.0
  H  H11  1  0.93550000  0.85049000  0.28525000  1.0
  H  H12  1  0.38480000  0.10995000  0.47097000  1.0
  H  H13  1  0.61520000  0.89004000  0.52904000  1.0
  H  H14  1  0.66761000  0.02224000  0.39534000  1.0
  H  H15  1  0.33239000  0.97776000  0.60466000  1.0
  H  H16  1  0.68903000  0.37206000  0.52637000  1.0
  H  H17  1  0.31097000  0.62794000  0.47363000  1.0
  H  H18  1  0.40782000  0.45911000  0.60618000  1.0
  H  H19  1  0.59218000  0.54089000  0.39381000  1.0
  H  H20  1  0.11671000  0.56569000  0.36360000  1.0
  H  H21  1  0.88329000  0.43432000  0.63641000  1.0
  H  H22  1  0.29528000  0.65666000  0.24575000  1.0
  H  H23  1  0.70471000  0.34334000  0.75424000  1.0
  H  H24  1  0.53340000  0.50347000  0.11450000  1.0
  H  H25  1  0.46659000  0.49654000  0.88550000  1.0
  H  H26  1  0.69646000  0.27028000  0.03859000  1.0
  H  H27  1  0.30353000  0.72972000  0.96140000  1.0
  H  H28  1  0.73276000  0.03643000  0.03101000  1.0
  H  H29  1  0.26723000  0.96358000  0.96899000  1.0
  H  H30  1  0.63775000  0.85533000  0.10597000  1.0
  H  H31  1  0.36224000  0.14467000  0.89404000  1.0
  H  H32  1  0.43396000  0.79448000  0.22954000  1.0
  H  H33  1  0.56602000  0.20553000  0.77048000  1.0
  H  H34  1  0.19452000  0.97463000  0.33652000  1.0
  H  H35  1  0.80547000  0.02538000  0.66350000  1.0
  C  C36  1  0.13553000  0.30900000  0.74488000  1.0
  C  C37  1  0.86447000  0.69099000  0.25511000  1.0
  C  C38  1  0.15830000  0.38274000  0.83110000  1.0
  C  C39  1  0.84171000  0.61725000  0.16890000  1.0
  C  C40  1  0.12744000  0.35766000  0.95011000  1.0
  C  C41  1  0.87257000  0.64234000  0.04988000  1.0
  C  C42  1  0.07237000  0.25864000  0.98598000  1.0
  C  C43  1  0.92764000  0.74136000  0.01402000  1.0
  C  C44  1  0.04976000  0.18499000  0.89965000  1.0
  C  C45  1  0.95024000  0.81500000  0.10035000  1.0
  C  C46  1  0.08147000  0.20917000  0.78011000  1.0
  C  C47  1  0.91854000  0.79082000  0.21990000  1.0
  C  C48  1  0.04791000  0.22256000  0.11389000  1.0
  C  C49  1  0.95211000  0.77742000  0.88610000  1.0
  C  C50  1  0.37861000  0.28909000  0.54430000  1.0
  C  C51  1  0.62140000  0.71090000  0.45570000  1.0
  C  C52  1  0.45226000  0.16589000  0.48527000  1.0
  C  C53  1  0.54775000  0.83410000  0.51473000  1.0
  C  C54  1  0.60914000  0.11706000  0.44270000  1.0
  C  C55  1  0.39086000  0.88294000  0.55730000  1.0
  C  C56  1  0.69451000  0.19123000  0.45817000  1.0
  C  C57  1  0.30549000  0.80877000  0.54183000  1.0
  C  C58  1  0.62130000  0.31431000  0.51761000  1.0
  C  C59  1  0.37870000  0.68569000  0.48238000  1.0
  C  C60  1  0.46476000  0.36258000  0.56153000  1.0
  C  C61  1  0.53524000  0.63742000  0.43846000  1.0
  C  C62  1  0.86377000  0.13951000  0.40965000  1.0
  C  C63  1  0.13623000  0.86049000  0.59035000  1.0
  C  C64  1  0.21587000  0.50251000  0.30191000  1.0
  C  C65  1  0.78413000  0.49749000  0.69809000  1.0
  C  C66  1  0.32003000  0.55210000  0.23717000  1.0
  C  C67  1  0.67997000  0.44791000  0.76283000  1.0
  C  C68  1  0.45011000  0.46769000  0.16525000  1.0
  C  C69  1  0.54988000  0.53232000  0.83475000  1.0
  C  C70  1  0.47681000  0.33262000  0.15825000  1.0
  C  C71  1  0.52319000  0.66738000  0.84175000  1.0
  C  C72  1  0.61011000  0.23740000  0.08842000  1.0
  C  C73  1  0.38989000  0.76261000  0.91157000  1.0
  C  C74  1  0.63067000  0.10770000  0.08477000  1.0
  C  C75  1  0.36933000  0.89230000  0.91523000  1.0
  C  C76  1  0.51933000  0.06314000  0.15172000  1.0
  C  C77  1  0.48066000  0.93687000  0.84829000  1.0
  C  C78  1  0.53554000  0.93013000  0.15573000  1.0
  C  C79  1  0.46445000  0.06987000  0.84427000  1.0
  C  C80  1  0.42219000  0.89663000  0.22338000  1.0
  C  C81  1  0.57780000  0.10338000  0.77664000  1.0
  C  C82  1  0.29042000  0.99529000  0.28614000  1.0
  C  C83  1  0.70957000  0.00473000  0.71387000  1.0
  C  C84  1  0.38512000  0.15511000  0.22039000  1.0
  C  C85  1  0.61488000  0.84490000  0.77961000  1.0
  C  C86  1  0.36367000  0.29128000  0.22403000  1.0
  C  C87  1  0.63633000  0.70872000  0.77597000  1.0
  N  N88  1  0.23495000  0.37670000  0.29295000  1.0
  N  N89  1  0.76505000  0.62330000  0.70705000  1.0
  N  N90  1  0.27437000  0.12056000  0.28525000  1.0
  N  N91  1  0.72563000  0.87945000  0.71476000  1.0
  O  O92  1  0.10760000  0.28543000  0.51664000  1.0
  O  O93  1  0.89240000  0.71456000  0.48336000  1.0
  O  O94  1  0.11474000  0.50319000  0.59277000  1.0
  O  O95  1  0.88526000  0.49680000  0.40723000  1.0
  O  O96  1  0.03917000  0.31316000  0.18967000  1.0
  O  O97  1  0.96083000  0.68685000  0.81033000  1.0
  O  O98  1  0.04183000  0.11415000  0.13765000  1.0
  O  O99  1  0.95821000  0.88584000  0.86236000  1.0
  O  O100  1  0.91337000  0.23541000  0.40278000  1.0
  O  O101  1  0.08662000  0.76459000  0.59721000  1.0
  O  O102  1  0.93836000  0.02248000  0.38289000  1.0
  O  O103  1  0.06164000  0.97753000  0.61711000  1.0
