# generated using pymatgen
data_Pr3H21(C7O5)4
_symmetry_space_group_name_H-M   'P 1'
_cell_length_a   11.60180000
_cell_length_b   13.13470000
_cell_length_c   13.42430000
_cell_angle_alpha   115.96900000
_cell_angle_beta   91.50820000
_cell_angle_gamma   114.80300000
_symmetry_Int_Tables_number   1
_chemical_formula_structural   Pr3H21(C7O5)4
_chemical_formula_sum   'Pr6 H42 C56 O40'
_cell_volume   1613.25336673
_cell_formula_units_Z   2
loop_
 _symmetry_equiv_pos_site_id
 _symmetry_equiv_pos_as_xyz
  1  'x, y, z'
loop_
 _atom_site_type_symbol
 _atom_site_label
 _atom_site_symmetry_multiplicity
 _atom_site_fract_x
 _atom_site_fract_y
 _atom_site_fract_z
 _atom_site_occupancy
  Pr  Pr0  1  0.64925000  0.14999000  0.48244000  1.0
  Pr  Pr1  1  0.35075000  0.85001000  0.51756000  1.0
  Pr  Pr2  1  0.99911000  0.14634000  0.39597000  1.0
  Pr  Pr3  1  0.00090000  0.85366000  0.60402000  1.0
  Pr  Pr4  1  0.44778000  0.32490000  0.50973000  1.0
  Pr  Pr5  1  0.55223000  0.67509000  0.49027000  1.0
  H  H6  1  0.25140000  0.35424000  0.66256000  1.0
  H  H7  1  0.74860000  0.64576000  0.33744000  1.0
  H  H8  1  0.47298000  0.92518000  0.07624000  1.0
  H  H9  1  0.52702000  0.07481000  0.92375000  1.0
  H  H10  1  0.31748000  0.80797000  0.88469000  1.0
  H  H11  1  0.68251000  0.19203000  0.11530000  1.0
  H  H12  1  0.12301000  0.84023000  0.86559000  1.0
  H  H13  1  0.87698000  0.15977000  0.13441000  1.0
  H  H14  1  0.08980000  0.99486000  0.03849000  1.0
  H  H15  1  0.91020000  0.00514000  0.96151000  1.0
  H  H16  1  0.82992000  0.34616000  0.91032000  1.0
  H  H17  1  0.17007000  0.65384000  0.08968000  1.0
  H  H18  1  0.97869000  0.39594000  0.08154000  1.0
  H  H19  1  0.02131000  0.60406000  0.91846000  1.0
  H  H20  1  0.15018000  0.32563000  0.05553000  1.0
  H  H21  1  0.84982000  0.67439000  0.94447000  1.0
  H  H22  1  0.17605000  0.21261000  0.86033000  1.0
  H  H23  1  0.82396000  0.78740000  0.13968000  1.0
  H  H24  1  0.68243000  0.83159000  0.02502000  1.0
  H  H25  1  0.31757000  0.16841000  0.97499000  1.0
  H  H26  1  0.49640000  0.62070000  0.88209000  1.0
  H  H27  1  0.50360000  0.37930000  0.11791000  1.0
  H  H28  1  0.31341000  0.49782000  0.94877000  1.0
  H  H29  1  0.68658000  0.50218000  0.05122000  1.0
  H  H30  1  0.32034000  0.59516000  0.15597000  1.0
  H  H31  1  0.67965000  0.40485000  0.84402000  1.0
  H  H32  1  0.74425000  0.32785000  0.31086000  1.0
  H  H33  1  0.25575000  0.67215000  0.68914000  1.0
  H  H34  1  0.89585000  0.47355000  0.38052000  1.0
  H  H35  1  0.10415000  0.52645000  0.61949000  1.0
  H  H36  1  0.84945000  0.50066000  0.57200000  1.0
  H  H37  1  0.15055000  0.49933000  0.42800000  1.0
  H  H38  1  0.22285000  0.03871000  0.42647000  1.0
  H  H39  1  0.77714000  0.96129000  0.57353000  1.0
  H  H40  1  0.18495000  0.11297000  0.53434000  1.0
  H  H41  1  0.81505000  0.88703000  0.46566000  1.0
  H  H42  1  0.39681000  0.44905000  0.74281000  1.0
  H  H43  1  0.60320000  0.55094000  0.25719000  1.0
  H  H44  1  0.63384000  0.61430000  0.70137000  1.0
  H  H45  1  0.36616000  0.38570000  0.29863000  1.0
  H  H46  1  0.67996000  0.52387000  0.71946000  1.0
  H  H47  1  0.32004000  0.47613000  0.28054000  1.0
  C  C48  1  0.46687000  0.08579000  0.27523000  1.0
  C  C49  1  0.53313000  0.91420000  0.72476000  1.0
  C  C50  1  0.37228000  0.02806000  0.16386000  1.0
  C  C51  1  0.62772000  0.97193000  0.83613000  1.0
  C  C52  1  0.38913000  0.94042000  0.06627000  1.0
  C  C53  1  0.61088000  0.05958000  0.93373000  1.0
  C  C54  1  0.30075000  0.87384000  0.95960000  1.0
  C  C55  1  0.69925000  0.12616000  0.04040000  1.0
  C  C56  1  0.19217000  0.89228000  0.94885000  1.0
  C  C57  1  0.80783000  0.10772000  0.05115000  1.0
  C  C58  1  0.17373000  0.97866000  0.04536000  1.0
  C  C59  1  0.82627000  0.02133000  0.95464000  1.0
  C  C60  1  0.26318000  0.04828000  0.15276000  1.0
  C  C61  1  0.73682000  0.95171000  0.84724000  1.0
  C  C62  1  0.23969000  0.14634000  0.24769000  1.0
  C  C63  1  0.76032000  0.85366000  0.75231000  1.0
  C  C64  1  0.04833000  0.16435000  0.66177000  1.0
  C  C65  1  0.95167000  0.83565000  0.33822000  1.0
  C  C66  1  0.02010000  0.21814000  0.77623000  1.0
  C  C67  1  0.97990000  0.78186000  0.22377000  1.0
  C  C68  1  0.92127000  0.25504000  0.79053000  1.0
  C  C69  1  0.07873000  0.74496000  0.20948000  1.0
  C  C70  1  0.90728000  0.31886000  0.90050000  1.0
  C  C71  1  0.09272000  0.68114000  0.09951000  1.0
  C  C72  1  0.99007000  0.34571000  0.99605000  1.0
  C  C73  1  0.00993000  0.65429000  0.00395000  1.0
  C  C74  1  0.08643000  0.30699000  0.98154000  1.0
  C  C75  1  0.91358000  0.69302000  0.01846000  1.0
  C  C76  1  0.10110000  0.24296000  0.87205000  1.0
  C  C77  1  0.89890000  0.75705000  0.12795000  1.0
  C  C78  1  0.82677000  0.22035000  0.68869000  1.0
  C  C79  1  0.17323000  0.77965000  0.31132000  1.0
  C  C80  1  0.72867000  0.95402000  0.24988000  1.0
  C  C81  1  0.27133000  0.04598000  0.75012000  1.0
  C  C82  1  0.49409000  0.81730000  0.32767000  1.0
  C  C83  1  0.50591000  0.18270000  0.67233000  1.0
  C  C84  1  0.50350000  0.76689000  0.20612000  1.0
  C  C85  1  0.49650000  0.23311000  0.79388000  1.0
  C  C86  1  0.60677000  0.83315000  0.16899000  1.0
  C  C87  1  0.39322000  0.16685000  0.83101000  1.0
  C  C88  1  0.60133000  0.77846000  0.05170000  1.0
  C  C89  1  0.39866000  0.22154000  0.94830000  1.0
  C  C90  1  0.49621000  0.65977000  0.97240000  1.0
  C  C91  1  0.50379000  0.34023000  0.02760000  1.0
  C  C92  1  0.39524000  0.59229000  0.00952000  1.0
  C  C93  1  0.60475000  0.40771000  0.99048000  1.0
  C  C94  1  0.39945000  0.64574000  0.12595000  1.0
  C  C95  1  0.60055000  0.35427000  0.87405000  1.0
  C  C96  1  0.89149000  0.31649000  0.39445000  1.0
  C  C97  1  0.10851000  0.68351000  0.60555000  1.0
  C  C98  1  0.82504000  0.39254000  0.38979000  1.0
  C  C99  1  0.17496000  0.60747000  0.61021000  1.0
  C  C100  1  0.76819000  0.44118000  0.49313000  1.0
  C  C101  1  0.23181000  0.55882000  0.50687000  1.0
  C  C102  1  0.72490000  0.53228000  0.48449000  1.0
  C  C103  1  0.27510000  0.46772000  0.51551000  1.0
  O  O104  1  0.42854000  0.11573000  0.36885000  1.0
  O  O105  1  0.57146000  0.88427000  0.63114000  1.0
  O  O106  1  0.21795000  0.12071000  0.46922000  1.0
  O  O107  1  0.78205000  0.87929000  0.53078000  1.0
  O  O108  1  0.58093000  0.09751000  0.27520000  1.0
  O  O109  1  0.41907000  0.90248000  0.72480000  1.0
  O  O110  1  0.33828000  0.36202000  0.68080000  1.0
  O  O111  1  0.66172000  0.63798000  0.31920000  1.0
  O  O112  1  0.60282000  0.53232000  0.70434000  1.0
  O  O113  1  0.39718000  0.46767000  0.29566000  1.0
  O  O114  1  0.33850000  0.25856000  0.31536000  1.0
  O  O115  1  0.66150000  0.74144000  0.68463000  1.0
  O  O116  1  0.12246000  0.11684000  0.25396000  1.0
  O  O117  1  0.87754000  0.88316000  0.74604000  1.0
  O  O118  1  0.05338000  0.22042000  0.60343000  1.0
  O  O119  1  0.94662000  0.77958000  0.39657000  1.0
  O  O120  1  0.07459000  0.07149000  0.62930000  1.0
  O  O121  1  0.92542000  0.92852000  0.37070000  1.0
  O  O122  1  0.78182000  0.10760000  0.60004000  1.0
  O  O123  1  0.21817000  0.89240000  0.39997000  1.0
  O  O124  1  0.79107000  0.30056000  0.69169000  1.0
  O  O125  1  0.20894000  0.69945000  0.30832000  1.0
  O  O126  1  0.73881000  0.00749000  0.35865000  1.0
  O  O127  1  0.26119000  0.99251000  0.64136000  1.0
  O  O128  1  0.82452000  0.99757000  0.21054000  1.0
  O  O129  1  0.17548000  0.00243000  0.78946000  1.0
  O  O130  1  0.48417000  0.74934000  0.37443000  1.0
  O  O131  1  0.51582000  0.25065000  0.62556000  1.0
  O  O132  1  0.48023000  0.91772000  0.37861000  1.0
  O  O133  1  0.51977000  0.08228000  0.62139000  1.0
  O  O134  1  0.87284000  0.27447000  0.46704000  1.0
  O  O135  1  0.12716000  0.72553000  0.53296000  1.0
  O  O136  1  0.96350000  0.29350000  0.32836000  1.0
  O  O137  1  0.03650000  0.70650000  0.67164000  1.0
  O  O138  1  0.66267000  0.34302000  0.49966000  1.0
  O  O139  1  0.33734000  0.65698000  0.50034000  1.0
  O  O140  1  0.60089000  0.49335000  0.46117000  1.0
  O  O141  1  0.39911000  0.50665000  0.53883000  1.0
  O  O142  1  0.80754000  0.64150000  0.49994000  1.0
  O  O143  1  0.19246000  0.35850000  0.50006000  1.0
