# generated using pymatgen
data_DyH13(CO)7
_symmetry_space_group_name_H-M   'P 1'
_cell_length_a   7.56618000
_cell_length_b   11.76290000
_cell_length_c   11.93870000
_cell_angle_alpha   90.00020000
_cell_angle_beta   90.28170000
_cell_angle_gamma   89.99980000
_symmetry_Int_Tables_number   1
_chemical_formula_structural   DyH13(CO)7
_chemical_formula_sum   'Dy4 H52 C28 O28'
_cell_volume   1062.53406886
_cell_formula_units_Z   4
loop_
 _symmetry_equiv_pos_site_id
 _symmetry_equiv_pos_as_xyz
  1  'x, y, z'
loop_
 _atom_site_type_symbol
 _atom_site_label
 _atom_site_symmetry_multiplicity
 _atom_site_fract_x
 _atom_site_fract_y
 _atom_site_fract_z
 _atom_site_occupancy
  Dy  Dy0  1  0.81386000  0.69477000  0.75755000  1.0
  Dy  Dy1  1  0.68614000  0.19476000  0.24245000  1.0
  Dy  Dy2  1  0.18614000  0.30523000  0.24245000  1.0
  Dy  Dy3  1  0.31386000  0.80523000  0.75755000  1.0
  H  H4  1  0.51612000  0.61038000  0.40423000  1.0
  H  H5  1  0.98389000  0.11038000  0.59577000  1.0
  H  H6  1  0.48388000  0.38962000  0.59577000  1.0
  H  H7  1  0.01611000  0.88962000  0.40423000  1.0
  H  H8  1  0.38657000  0.72955000  0.45216000  1.0
  H  H9  1  0.11343000  0.22955000  0.54784000  1.0
  H  H10  1  0.61343000  0.27045000  0.54784000  1.0
  H  H11  1  0.88657000  0.77045000  0.45216000  1.0
  H  H12  1  0.35815000  0.59307000  0.51220000  1.0
  H  H13  1  0.14185000  0.09307000  0.48779000  1.0
  H  H14  1  0.64185000  0.40693000  0.48780000  1.0
  H  H15  1  0.85815000  0.90693000  0.51221000  1.0
  H  H16  1  0.75212000  0.92259000  0.00971000  1.0
  H  H17  1  0.74788000  0.42260000  0.99029000  1.0
  H  H18  1  0.24788000  0.07740000  0.99029000  1.0
  H  H19  1  0.25212000  0.57740000  0.00971000  1.0
  H  H20  1  0.73650000  0.78291000  0.06384000  1.0
  H  H21  1  0.76350000  0.28291000  0.93616000  1.0
  H  H22  1  0.26350000  0.21709000  0.93616000  1.0
  H  H23  1  0.23650000  0.71709000  0.06384000  1.0
  H  H24  1  0.59396000  0.89593000  0.11416000  1.0
  H  H25  1  0.90603000  0.39593000  0.88584000  1.0
  H  H26  1  0.40603000  0.10407000  0.88584000  1.0
  H  H27  1  0.09397000  0.60407000  0.11416000  1.0
  H  H28  1  0.50637000  0.35264000  0.83498000  1.0
  H  H29  1  0.99363000  0.85264000  0.16502000  1.0
  H  H30  1  0.49363000  0.64736000  0.16502000  1.0
  H  H31  1  0.00637000  0.14736000  0.83498000  1.0
  H  H32  1  0.30453000  0.37169000  0.75851000  1.0
  H  H33  1  0.19547000  0.87169000  0.24149000  1.0
  H  H34  1  0.69547000  0.62831000  0.24149000  1.0
  H  H35  1  0.80452000  0.12831000  0.75851000  1.0
  H  H36  1  0.31639000  0.41470000  0.89979000  1.0
  H  H37  1  0.18361000  0.91471000  0.10021000  1.0
  H  H38  1  0.68361000  0.58530000  0.10021000  1.0
  H  H39  1  0.81639000  0.08530000  0.89979000  1.0
  H  H40  1  0.12934000  0.55128000  0.74549000  1.0
  H  H41  1  0.37066000  0.05128000  0.25451000  1.0
  H  H42  1  0.87066000  0.44872000  0.25451000  1.0
  H  H43  1  0.62934000  0.94872000  0.74549000  1.0
  H  H44  1  0.83326000  0.42584000  0.65257000  1.0
  H  H45  1  0.66674000  0.92584000  0.34744000  1.0
  H  H46  1  0.16674000  0.57416000  0.34743000  1.0
  H  H47  1  0.33326000  0.07416000  0.65256000  1.0
  H  H48  1  0.02933000  0.35832000  0.70342000  1.0
  H  H49  1  0.47067000  0.85832000  0.29658000  1.0
  H  H50  1  0.97067000  0.64168000  0.29659000  1.0
  H  H51  1  0.52933000  0.14168000  0.70341000  1.0
  H  H52  1  0.03993000  0.45105000  0.58425000  1.0
  H  H53  1  0.46006000  0.95105000  0.41575000  1.0
  H  H54  1  0.96007000  0.54895000  0.41575000  1.0
  H  H55  1  0.53994000  0.04895000  0.58425000  1.0
  C  C56  1  0.59283000  0.67696000  0.56468000  1.0
  C  C57  1  0.90716000  0.17696000  0.43533000  1.0
  C  C58  1  0.40717000  0.32304000  0.43532000  1.0
  C  C59  1  0.09284000  0.82304000  0.56467000  1.0
  C  C60  1  0.45621000  0.65178000  0.47666000  1.0
  C  C61  1  0.04380000  0.15179000  0.52334000  1.0
  C  C62  1  0.54379000  0.34822000  0.52334000  1.0
  C  C63  1  0.95620000  0.84821000  0.47666000  1.0
  C  C64  1  0.53030000  0.83041000  0.95089000  1.0
  C  C65  1  0.96970000  0.33041000  0.04911000  1.0
  C  C66  1  0.46970000  0.16959000  0.04911000  1.0
  C  C67  1  0.03030000  0.66959000  0.95090000  1.0
  C  C68  1  0.65962000  0.85855000  0.04170000  1.0
  C  C69  1  0.84038000  0.35855000  0.95830000  1.0
  C  C70  1  0.34038000  0.14145000  0.95829000  1.0
  C  C71  1  0.15962000  0.64145000  0.04170000  1.0
  C  C72  1  0.45304000  0.52553000  0.78563000  1.0
  C  C73  1  0.04696000  0.02553000  0.21437000  1.0
  C  C74  1  0.54696000  0.47447000  0.21437000  1.0
  C  C75  1  0.95304000  0.97447000  0.78563000  1.0
  C  C76  1  0.39298000  0.40880000  0.82185000  1.0
  C  C77  1  0.10702000  0.90880000  0.17815000  1.0
  C  C78  1  0.60702000  0.59120000  0.17815000  1.0
  C  C79  1  0.89298000  0.09120000  0.82185000  1.0
  C  C80  1  0.97557000  0.43653000  0.66536000  1.0
  C  C81  1  0.52443000  0.93653000  0.33464000  1.0
  C  C82  1  0.02443000  0.56347000  0.33464000  1.0
  C  C83  1  0.47557000  0.06347000  0.66536000  1.0
  O  O84  1  0.55965000  0.75212000  0.64100000  1.0
  O  O85  1  0.94035000  0.25212000  0.35899000  1.0
  O  O86  1  0.44035000  0.24788000  0.35899000  1.0
  O  O87  1  0.05965000  0.74788000  0.64100000  1.0
  O  O88  1  0.73847000  0.62425000  0.56754000  1.0
  O  O89  1  0.76153000  0.12425000  0.43246000  1.0
  O  O90  1  0.26153000  0.37575000  0.43246000  1.0
  O  O91  1  0.23847000  0.87575000  0.56754000  1.0
  O  O92  1  0.58085000  0.77000000  0.86583000  1.0
  O  O93  1  0.91915000  0.27000000  0.13417000  1.0
  O  O94  1  0.41916000  0.23000000  0.13417000  1.0
  O  O95  1  0.08085000  0.73000000  0.86583000  1.0
  O  O96  1  0.37259000  0.86571000  0.95226000  1.0
  O  O97  1  0.12741000  0.36571000  0.04774000  1.0
  O  O98  1  0.62741000  0.13429000  0.04774000  1.0
  O  O99  1  0.87259000  0.63430000  0.95226000  1.0
  O  O100  1  0.61684000  0.54553000  0.78363000  1.0
  O  O101  1  0.88316000  0.04553000  0.21637000  1.0
  O  O102  1  0.38316000  0.45447000  0.21637000  1.0
  O  O103  1  0.11684000  0.95447000  0.78363000  1.0
  O  O104  1  0.33230000  0.59831000  0.75912000  1.0
  O  O105  1  0.16770000  0.09831000  0.24088000  1.0
  O  O106  1  0.66770000  0.40169000  0.24088000  1.0
  O  O107  1  0.83230000  0.90169000  0.75912000  1.0
  O  O108  1  0.99998000  0.53093000  0.73963000  1.0
  O  O109  1  0.50002000  0.03093000  0.26038000  1.0
  O  O110  1  0.00002000  0.46906000  0.26037000  1.0
  O  O111  1  0.49998000  0.96907000  0.73962000  1.0
