# generated using pymatgen
data_MgH8(CO2)4
_symmetry_space_group_name_H-M   'P 1'
_cell_length_a   5.80055000
_cell_length_b   10.18810000
_cell_length_c   12.97080000
_cell_angle_alpha   90.00010000
_cell_angle_beta   90.00020000
_cell_angle_gamma   80.56960000
_symmetry_Int_Tables_number   1
_chemical_formula_structural   MgH8(CO2)4
_chemical_formula_sum   'Mg4 H32 C16 O32'
_cell_volume   756.17059217
_cell_formula_units_Z   4
loop_
 _symmetry_equiv_pos_site_id
 _symmetry_equiv_pos_as_xyz
  1  'x, y, z'
loop_
 _atom_site_type_symbol
 _atom_site_label
 _atom_site_symmetry_multiplicity
 _atom_site_fract_x
 _atom_site_fract_y
 _atom_site_fract_z
 _atom_site_occupancy
  Mg  Mg0  1  0.17095000  0.78847000  0.58253000  1.0
  Mg  Mg1  1  0.82905000  0.71153000  0.08253000  1.0
  Mg  Mg2  1  0.82905000  0.21153000  0.41747000  1.0
  Mg  Mg3  1  0.17095000  0.28847000  0.91747000  1.0
  H  H4  1  0.54626000  0.87058000  0.75084000  1.0
  H  H5  1  0.45374000  0.62942000  0.25084000  1.0
  H  H6  1  0.45374000  0.12943000  0.24916000  1.0
  H  H7  1  0.54626000  0.37058000  0.74916000  1.0
  H  H8  1  0.33832000  0.92004000  0.91682000  1.0
  H  H9  1  0.66168000  0.57996000  0.41682000  1.0
  H  H10  1  0.66168000  0.07996000  0.08318000  1.0
  H  H11  1  0.33832000  0.42004000  0.58318000  1.0
  H  H12  1  0.26491000  0.75517000  0.77955000  1.0
  H  H13  1  0.73509000  0.74482000  0.27955000  1.0
  H  H14  1  0.73509000  0.24483000  0.22045000  1.0
  H  H15  1  0.26490000  0.25517000  0.72045000  1.0
  H  H16  1  0.98819000  0.05261000  0.87077000  1.0
  H  H17  1  0.01182000  0.44739000  0.37077000  1.0
  H  H18  1  0.01181000  0.94739000  0.12924000  1.0
  H  H19  1  0.98818000  0.55261000  0.62923000  1.0
  H  H20  1  0.21542000  0.68007000  0.39588000  1.0
  H  H21  1  0.78458000  0.81993000  0.89588000  1.0
  H  H22  1  0.78458000  0.31993000  0.60412000  1.0
  H  H23  1  0.21542000  0.18007000  0.10412000  1.0
  H  H24  1  0.32964000  0.81255000  0.39242000  1.0
  H  H25  1  0.67036000  0.68745000  0.89242000  1.0
  H  H26  1  0.67036000  0.18745000  0.60758000  1.0
  H  H27  1  0.32964000  0.31255000  0.10758000  1.0
  H  H28  1  0.71405000  0.78453000  0.57859000  1.0
  H  H29  1  0.28595000  0.71547000  0.07859000  1.0
  H  H30  1  0.28595000  0.21547000  0.42141000  1.0
  H  H31  1  0.71406000  0.28453000  0.92141000  1.0
  H  H32  1  0.77316000  0.91319000  0.51850000  1.0
  H  H33  1  0.22684000  0.58680000  0.01850000  1.0
  H  H34  1  0.22684000  0.08680000  0.48150000  1.0
  H  H35  1  0.77316000  0.41320000  0.98150000  1.0
  C  C36  1  0.35312000  0.01856000  0.65914000  1.0
  C  C37  1  0.64687000  0.48143000  0.15914000  1.0
  C  C38  1  0.64685000  0.98143000  0.34086000  1.0
  C  C39  1  0.35314000  0.51857000  0.84086000  1.0
  C  C40  1  0.36652000  0.92708000  0.75341000  1.0
  C  C41  1  0.63349000  0.57292000  0.25341000  1.0
  C  C42  1  0.63348000  0.07292000  0.24659000  1.0
  C  C43  1  0.36652000  0.42708000  0.74659000  1.0
  C  C44  1  0.33999000  0.99823000  0.85796000  1.0
  C  C45  1  0.66002000  0.50177000  0.35796000  1.0
  C  C46  1  0.66001000  0.00177000  0.14204000  1.0
  C  C47  1  0.33999000  0.49823000  0.64204000  1.0
  C  C48  1  0.55397000  0.06383000  0.88049000  1.0
  C  C49  1  0.44603000  0.43617000  0.38048000  1.0
  C  C50  1  0.44603000  0.93616000  0.11951000  1.0
  C  C51  1  0.55396000  0.56384000  0.61951000  1.0
  O  O52  1  0.27491000  0.97361000  0.57677000  1.0
  O  O53  1  0.72508000  0.52639000  0.07676000  1.0
  O  O54  1  0.72508000  0.02640000  0.42324000  1.0
  O  O55  1  0.27491000  0.47360000  0.92324000  1.0
  O  O56  1  0.42976000  0.12732000  0.66671000  1.0
  O  O57  1  0.57024000  0.37268000  0.16671000  1.0
  O  O58  1  0.57024000  0.87270000  0.33333333  1.0
  O  O59  1  0.42976000  0.62731000  0.83329000  1.0
  O  O60  1  0.20068000  0.83894000  0.74155000  1.0
  O  O61  1  0.79932000  0.66106000  0.24155000  1.0
  O  O62  1  0.79931000  0.16107000  0.25845000  1.0
  O  O63  1  0.20068000  0.33893000  0.75845000  1.0
  O  O64  1  0.13451000  0.09549000  0.86716000  1.0
  O  O65  1  0.86550000  0.40451000  0.36716000  1.0
  O  O66  1  0.86549000  0.90452000  0.13284000  1.0
  O  O67  1  0.13450000  0.59549000  0.63284000  1.0
  O  O68  1  0.75296000  0.99106000  0.87653000  1.0
  O  O69  1  0.24705000  0.50894000  0.37653000  1.0
  O  O70  1  0.24703000  0.00895000  0.12347000  1.0
  O  O71  1  0.75297000  0.49105000  0.62348000  1.0
  O  O72  1  0.51605000  0.18634000  0.90518000  1.0
  O  O73  1  0.48396000  0.31367000  0.40518000  1.0
  O  O74  1  0.48395000  0.81367000  0.09482000  1.0
  O  O75  1  0.51606000  0.68633000  0.59483000  1.0
  O  O76  1  0.20216000  0.77208000  0.42355000  1.0
  O  O77  1  0.79784000  0.72792000  0.92355000  1.0
  O  O78  1  0.79784000  0.22791000  0.57645000  1.0
  O  O79  1  0.20216000  0.27209000  0.07645000  1.0
  O  O80  1  0.82470000  0.84961000  0.57588000  1.0
  O  O81  1  0.17530000  0.65039000  0.07588000  1.0
  O  O82  1  0.17530000  0.15039000  0.42412000  1.0
  O  O83  1  0.82470000  0.34961000  0.92412000  1.0
