# generated using pymatgen
data_Mo4H20C20N6O13
_symmetry_space_group_name_H-M   'P 1'
_cell_length_a   8.17109000
_cell_length_b   8.97576000
_cell_length_c   9.57107000
_cell_angle_alpha   92.72580000
_cell_angle_beta   102.39000000
_cell_angle_gamma   107.06800000
_symmetry_Int_Tables_number   1
_chemical_formula_structural   Mo4H20C20N6O13
_chemical_formula_sum   'Mo4 H20 C20 N6 O13'
_cell_volume   650.80509354
_cell_formula_units_Z   1
loop_
 _symmetry_equiv_pos_site_id
 _symmetry_equiv_pos_as_xyz
  1  'x, y, z'
loop_
 _atom_site_type_symbol
 _atom_site_label
 _atom_site_symmetry_multiplicity
 _atom_site_fract_x
 _atom_site_fract_y
 _atom_site_fract_z
 _atom_site_occupancy
  Mo  Mo0  1  0.78338000  0.39337000  0.86505000  1.0
  Mo  Mo1  1  0.21662000  0.60663000  0.13495000  1.0
  Mo  Mo2  1  0.36182000  0.34948000  0.87065000  1.0
  Mo  Mo3  1  0.63818000  0.65052000  0.12935000  1.0
  H  H4  1  0.59604000  0.25890000  0.12007000  1.0
  H  H5  1  0.40396000  0.74110000  0.87993000  1.0
  H  H6  1  0.97192000  0.15260000  0.64701000  1.0
  H  H7  1  0.02808000  0.84740000  0.35299000  1.0
  H  H8  1  0.43616000  0.01299000  0.16563000  1.0
  H  H9  1  0.56384000  0.98701000  0.83437000  1.0
  H  H10  1  0.54402000  0.90412000  0.38554000  1.0
  H  H11  1  0.45599000  0.09588000  0.61445000  1.0
  H  H12  1  0.99307000  0.33002000  0.49738000  1.0
  H  H13  1  0.00693000  0.66998000  0.50262000  1.0
  H  H14  1  0.86285000  0.42344000  0.27001000  1.0
  H  H15  1  0.13715000  0.57656000  0.72999000  1.0
  H  H16  1  0.62030000  0.53093000  0.59720000  1.0
  H  H17  1  0.37970000  0.46907000  0.40280000  1.0
  H  H18  1  0.64336000  0.75812000  0.46466000  1.0
  H  H19  1  0.35664000  0.24188000  0.53534000  1.0
  H  H20  1  0.02442000  0.03566000  0.84556000  1.0
  H  H21  1  0.97558000  0.96434000  0.15444000  1.0
  H  H22  1  0.98701000  0.79096000  0.95921000  1.0
  H  H23  1  0.01299000  0.20904000  0.04079000  1.0
  C  C24  1  0.55812000  0.07763000  0.24357000  1.0
  C  C25  1  0.44188000  0.92237000  0.75644000  1.0
  C  C26  1  0.62211000  0.01817000  0.36642000  1.0
  C  C27  1  0.37789000  0.98183000  0.63358000  1.0
  C  C28  1  0.78340000  0.10690000  0.46156000  1.0
  C  C29  1  0.21660000  0.89310000  0.53844000  1.0
  C  C30  1  0.86985000  0.25741000  0.42629000  1.0
  C  C31  1  0.13015000  0.74258000  0.57371000  1.0
  C  C32  1  0.79999000  0.31034000  0.30272000  1.0
  C  C33  1  0.20001000  0.68966000  0.69728000  1.0
  C  C34  1  0.70525000  0.64622000  0.64987000  1.0
  C  C35  1  0.29475000  0.35377000  0.35013000  1.0
  C  C36  1  0.71690000  0.77670000  0.57621000  1.0
  C  C37  1  0.28310000  0.22330000  0.42379000  1.0
  C  C38  1  0.83135000  0.92352000  0.64609000  1.0
  C  C39  1  0.16865000  0.07648000  0.35391000  1.0
  C  C40  1  0.92925000  0.92680000  0.78735000  1.0
  C  C41  1  0.07075000  0.07320000  0.21266000  1.0
  C  C42  1  0.90823000  0.78974000  0.85169000  1.0
  C  C43  1  0.09177000  0.21026000  0.14830000  1.0
  N  N44  1  0.64638000  0.21976000  0.21395000  1.0
  N  N45  1  0.35362000  0.78024000  0.78605000  1.0
  N  N46  1  0.86352000  0.06351000  0.58623000  1.0
  N  N47  1  0.13649000  0.93649000  0.41377000  1.0
  N  N48  1  0.79693000  0.64959000  0.78555000  1.0
  N  N49  1  0.20307000  0.35041000  0.21445000  1.0
  O  O50  1  0.00000000  0.50000000  0.00000000  1.0
  O  O51  1  0.53197000  0.36387000  0.76455000  1.0
  O  O52  1  0.46803000  0.63613000  0.23545000  1.0
  O  O53  1  0.35139000  0.19675000  0.97501000  1.0
  O  O54  1  0.64861000  0.80325000  0.02499000  1.0
  O  O55  1  0.74317000  0.21034000  0.92463000  1.0
  O  O56  1  0.25683000  0.78966000  0.07537000  1.0
  O  O57  1  0.85149000  0.37135000  0.71035000  1.0
  O  O58  1  0.14851000  0.62865000  0.28965000  1.0
  O  O59  1  0.65634000  0.47589000  0.03122000  1.0
  O  O60  1  0.34366000  0.52411000  0.96878000  1.0
  O  O61  1  0.82864000  0.71141000  0.26734000  1.0
  O  O62  1  0.17136000  0.28859000  0.73265000  1.0
