# generated using pymatgen
data_CuH4C6SBrN2
_symmetry_space_group_name_H-M   'P 1'
_cell_length_a   3.77501000
_cell_length_b   8.43294000
_cell_length_c   23.97800000
_cell_angle_alpha   90.00020000
_cell_angle_beta   90.00050000
_cell_angle_gamma   91.92570000
_symmetry_Int_Tables_number   1
_chemical_formula_structural   CuH4C6SBrN2
_chemical_formula_sum   'Cu4 H16 C24 S4 Br4 N8'
_cell_volume   762.89493713
_cell_formula_units_Z   4
loop_
 _symmetry_equiv_pos_site_id
 _symmetry_equiv_pos_as_xyz
  1  'x, y, z'
loop_
 _atom_site_type_symbol
 _atom_site_label
 _atom_site_symmetry_multiplicity
 _atom_site_fract_x
 _atom_site_fract_y
 _atom_site_fract_z
 _atom_site_occupancy
  Cu  Cu0  1  0.93647000  0.95088000  0.18736000  1.0
  Cu  Cu1  1  0.56353000  0.54912000  0.68737000  1.0
  Cu  Cu2  1  0.06353000  0.04912000  0.81264000  1.0
  Cu  Cu3  1  0.43647000  0.45088000  0.31263000  1.0
  H  H4  1  0.17861000  0.00694000  0.06881000  1.0
  H  H5  1  0.32138000  0.49306000  0.56881000  1.0
  H  H6  1  0.82138000  0.99306000  0.93119000  1.0
  H  H7  1  0.67861000  0.50694000  0.43119000  1.0
  H  H8  1  0.14985000  0.51326000  0.04230000  1.0
  H  H9  1  0.35015000  0.98674000  0.54229000  1.0
  H  H10  1  0.85014000  0.48674000  0.95770000  1.0
  H  H11  1  0.64987000  0.01326000  0.45770000  1.0
  H  H12  1  0.88019000  0.53603000  0.13694000  1.0
  H  H13  1  0.61981000  0.96397000  0.63694000  1.0
  H  H14  1  0.11981000  0.46397000  0.86307000  1.0
  H  H15  1  0.38021000  0.03603000  0.36306000  1.0
  H  H16  1  0.78494000  0.29174000  0.19466000  1.0
  H  H17  1  0.71506000  0.20826000  0.69466000  1.0
  H  H18  1  0.21505000  0.70826000  0.80534000  1.0
  H  H19  1  0.28496000  0.79174000  0.30534000  1.0
  C  C20  1  0.42908000  0.65407000  0.20827000  1.0
  C  C21  1  0.07091000  0.84593000  0.70827000  1.0
  C  C22  1  0.57091000  0.34593000  0.79173000  1.0
  C  C23  1  0.92909000  0.15407000  0.29173000  1.0
  C  C24  1  0.11823000  0.12582000  0.08289000  1.0
  C  C25  1  0.38176000  0.37418000  0.58289000  1.0
  C  C26  1  0.88175000  0.87418000  0.91711000  1.0
  C  C27  1  0.61824000  0.62582000  0.41711000  1.0
  C  C28  1  0.17699000  0.25744000  0.04874000  1.0
  C  C29  1  0.32301000  0.24256000  0.54874000  1.0
  C  C30  1  0.82299000  0.74256000  0.95126000  1.0
  C  C31  1  0.67700000  0.75744000  0.45126000  1.0
  C  C32  1  0.09809000  0.40821000  0.06774000  1.0
  C  C33  1  0.40192000  0.09179000  0.56774000  1.0
  C  C34  1  0.90190000  0.59179000  0.93226000  1.0
  C  C35  1  0.59810000  0.90821000  0.43226000  1.0
  C  C36  1  0.95138000  0.42085000  0.12076000  1.0
  C  C37  1  0.54862000  0.07915000  0.62076000  1.0
  C  C38  1  0.04861000  0.57915000  0.87924000  1.0
  C  C39  1  0.45140000  0.92084000  0.37924000  1.0
  C  C40  1  0.89767000  0.28504000  0.15295000  1.0
  C  C41  1  0.60233000  0.21496000  0.65295000  1.0
  C  C42  1  0.10233000  0.71496000  0.84705000  1.0
  C  C43  1  0.39768000  0.78504000  0.34705000  1.0
  S  S44  1  0.42729000  0.80396000  0.16408000  1.0
  S  S45  1  0.07270000  0.69604000  0.66409000  1.0
  S  S46  1  0.57270000  0.19604000  0.83592000  1.0
  S  S47  1  0.92730000  0.30396000  0.33591000  1.0
  Br  Br48  1  0.35327000  0.23046000  0.97499000  1.0
  Br  Br49  1  0.14674000  0.26955000  0.47499000  1.0
  Br  Br50  1  0.64669000  0.76954000  0.02501000  1.0
  Br  Br51  1  0.85329000  0.73046000  0.52501000  1.0
  N  N52  1  0.43231000  0.54524000  0.23938000  1.0
  N  N53  1  0.06767000  0.95476000  0.73938000  1.0
  N  N54  1  0.56768000  0.45476000  0.76062000  1.0
  N  N55  1  0.93232000  0.04524000  0.26062000  1.0
  N  N56  1  0.98266000  0.13972000  0.13467000  1.0
  N  N57  1  0.51734000  0.36028000  0.63467000  1.0
  N  N58  1  0.01734000  0.86028000  0.86534000  1.0
  N  N59  1  0.48267000  0.63972000  0.36533000  1.0
