# generated using pymatgen
data_AlH6C15O5F2
_symmetry_space_group_name_H-M   'P 1'
_cell_length_a   6.70804000
_cell_length_b   22.35330000
_cell_length_c   24.64850000
_cell_angle_alpha   96.13610000
_cell_angle_beta   89.96870000
_cell_angle_gamma   89.97740000
_symmetry_Int_Tables_number   1
_chemical_formula_structural   AlH6C15O5F2
_chemical_formula_sum   'Al4 H24 C60 O20 F8'
_cell_volume   3674.78857978
_cell_formula_units_Z   4
loop_
 _symmetry_equiv_pos_site_id
 _symmetry_equiv_pos_as_xyz
  1  'x, y, z'
loop_
 _atom_site_type_symbol
 _atom_site_label
 _atom_site_symmetry_multiplicity
 _atom_site_fract_x
 _atom_site_fract_y
 _atom_site_fract_z
 _atom_site_occupancy
  Al  Al0  1  0.20585000  0.74919000  0.75034000  1.0
  Al  Al1  1  0.79415000  0.25081000  0.24966000  1.0
  Al  Al2  1  0.70585000  0.75084000  0.74968000  1.0
  Al  Al3  1  0.29414000  0.24916000  0.25031000  1.0
  H  H4  1  0.35469000  0.12768000  0.36617000  1.0
  H  H5  1  0.64532000  0.87232000  0.63383000  1.0
  H  H6  1  0.85467000  0.37238000  0.13386000  1.0
  H  H7  1  0.14533000  0.62765000  0.86616000  1.0
  H  H8  1  0.71499000  0.14230000  0.36772000  1.0
  H  H9  1  0.28501000  0.85769000  0.63227000  1.0
  H  H10  1  0.21505000  0.35764000  0.13224000  1.0
  H  H11  1  0.78495000  0.64235000  0.86774000  1.0
  H  H12  1  0.69634000  0.07060000  0.43897000  1.0
  H  H13  1  0.30367000  0.92939000  0.56102000  1.0
  H  H14  1  0.19641000  0.42934000  0.06100000  1.0
  H  H15  1  0.80360000  0.57065000  0.93899000  1.0
  H  H16  1  0.22536000  0.07935000  0.97474000  1.0
  H  H17  1  0.77463000  0.92065000  0.02526000  1.0
  H  H18  1  0.73473000  0.42238000  0.52394000  1.0
  H  H19  1  0.26527000  0.57762000  0.47606000  1.0
  H  H20  1  0.86283000  0.04301000  0.92020000  1.0
  H  H21  1  0.13717000  0.95699000  0.07980000  1.0
  H  H22  1  0.37483000  0.45650000  0.58093000  1.0
  H  H23  1  0.62517000  0.54350000  0.41907000  1.0
  H  H24  1  0.45281000  0.82720000  0.77010000  1.0
  H  H25  1  0.54719000  0.17280000  0.22990000  1.0
  H  H26  1  0.95308000  0.67283000  0.72992000  1.0
  H  H27  1  0.04692000  0.32717000  0.27008000  1.0
  C  C28  1  0.45691000  0.67388000  0.67247000  1.0
  C  C29  1  0.54309000  0.32612000  0.32753000  1.0
  C  C30  1  0.95643000  0.82615000  0.82757000  1.0
  C  C31  1  0.04357000  0.17385000  0.17243000  1.0
  C  C32  1  0.45794000  0.68095000  0.81932000  1.0
  C  C33  1  0.54206000  0.31905000  0.18068000  1.0
  C  C34  1  0.95799000  0.81907000  0.68070000  1.0
  C  C35  1  0.04201000  0.18093000  0.31930000  1.0
  C  C36  1  0.19732000  0.07571000  0.42126000  1.0
  C  C37  1  0.80269000  0.92430000  0.57874000  1.0
  C  C38  1  0.69733000  0.42433000  0.07876000  1.0
  C  C39  1  0.30267000  0.57568000  0.92125000  1.0
  C  C40  1  0.21071000  0.11537000  0.38206000  1.0
  C  C41  1  0.78929000  0.88463000  0.61794000  1.0
  C  C42  1  0.71073000  0.38467000  0.11795000  1.0
  C  C43  1  0.28927000  0.61535000  0.88206000  1.0
  C  C44  1  0.03448000  0.13925000  0.36267000  1.0
  C  C45  1  0.96552000  0.86075000  0.63733000  1.0
  C  C46  1  0.53451000  0.36075000  0.13733000  1.0
  C  C47  1  0.46549000  0.63925000  0.86267000  1.0
  C  C48  1  0.84960000  0.12307000  0.38342000  1.0
  C  C49  1  0.15040000  0.87692000  0.61657000  1.0
  C  C50  1  0.34966000  0.37689000  0.11656000  1.0
  C  C51  1  0.65035000  0.62310000  0.88344000  1.0
  C  C52  1  0.83933000  0.08342000  0.42291000  1.0
  C  C53  1  0.16068000  0.91657000  0.57708000  1.0
  C  C54  1  0.33939000  0.41655000  0.07707000  1.0
  C  C55  1  0.66061000  0.58345000  0.92292000  1.0
  C  C56  1  0.01440000  0.05833000  0.44294000  1.0
  C  C57  1  0.98561000  0.94167000  0.55706000  1.0
  C  C58  1  0.51445000  0.44167000  0.05706000  1.0
  C  C59  1  0.48556000  0.55833000  0.94294000  1.0
  C  C60  1  0.00605000  0.01759000  0.48276000  1.0
  C  C61  1  0.99396000  0.98241000  0.51723000  1.0
  C  C62  1  0.50607000  0.48242000  0.01724000  1.0
  C  C63  1  0.49394000  0.51759000  0.98277000  1.0
  C  C64  1  0.92489000  0.02441000  0.95575000  1.0
  C  C65  1  0.07511000  0.97559000  0.04425000  1.0
  C  C66  1  0.43166000  0.47534000  0.54488000  1.0
  C  C67  1  0.56833000  0.52466000  0.45512000  1.0
  C  C68  1  0.12449000  0.04415000  0.98548000  1.0
  C  C69  1  0.87550000  0.95585000  0.01452000  1.0
  C  C70  1  0.62971000  0.45678000  0.51378000  1.0
  C  C71  1  0.37029000  0.54322000  0.48622000  1.0
  C  C72  1  0.04107000  0.12859000  0.12627000  1.0
  C  C73  1  0.95892000  0.87141000  0.87373000  1.0
  C  C74  1  0.54030000  0.37137000  0.37371000  1.0
  C  C75  1  0.45969000  0.62863000  0.62629000  1.0
  C  C76  1  0.82052000  0.02316000  0.01202000  1.0
  C  C77  1  0.17948000  0.97684000  0.98798000  1.0
  C  C78  1  0.32139000  0.47562000  0.48938000  1.0
  C  C79  1  0.67861000  0.52438000  0.51062000  1.0
  C  C80  1  0.01854000  0.04458000  0.04325000  1.0
  C  C81  1  0.98145000  0.95542000  0.95675000  1.0
  C  C82  1  0.51795000  0.45533000  0.45678000  1.0
  C  C83  1  0.48205000  0.54467000  0.54322000  1.0
  C  C84  1  0.03403000  0.08971000  0.08773000  1.0
  C  C85  1  0.96596000  0.91028000  0.91227000  1.0
  C  C86  1  0.53310000  0.41020000  0.41228000  1.0
  C  C87  1  0.46690000  0.58980000  0.58772000  1.0
  O  O88  1  0.62542000  0.69769000  0.80184000  1.0
  O  O89  1  0.37458000  0.30231000  0.19816000  1.0
  O  O90  1  0.12542000  0.80234000  0.69818000  1.0
  O  O91  1  0.87458000  0.19766000  0.30182000  1.0
  O  O92  1  0.28676000  0.69067000  0.69136000  1.0
  O  O93  1  0.71324000  0.30933000  0.30864000  1.0
  O  O94  1  0.78638000  0.80936000  0.80867000  1.0
  O  O95  1  0.21362000  0.19063000  0.19133000  1.0
  O  O96  1  0.28658000  0.69558000  0.80264000  1.0
  O  O97  1  0.71342000  0.30442000  0.19737000  1.0
  O  O98  1  0.78658000  0.80443000  0.69738000  1.0
  O  O99  1  0.21342000  0.19557000  0.30262000  1.0
  O  O100  1  0.12582000  0.80746000  0.80954000  1.0
  O  O101  1  0.87417000  0.19254000  0.19046000  1.0
  O  O102  1  0.62622000  0.69256000  0.69050000  1.0
  O  O103  1  0.37379000  0.30744000  0.30950000  1.0
  O  O104  1  0.45485000  0.78641000  0.75224000  1.0
  O  O105  1  0.54515000  0.21359000  0.24776000  1.0
  O  O106  1  0.95495000  0.71362000  0.74779000  1.0
  O  O107  1  0.04505000  0.28638000  0.25221000  1.0
  F  F108  1  0.36772000  0.05176000  0.43998000  1.0
  F  F109  1  0.63230000  0.94824000  0.56002000  1.0
  F  F110  1  0.86771000  0.44831000  0.06006000  1.0
  F  F111  1  0.13229000  0.55171000  0.93997000  1.0
  F  F112  1  0.36236000  0.95232000  0.97514000  1.0
  F  F113  1  0.63764000  0.04768000  0.02486000  1.0
  F  F114  1  0.86083000  0.55009000  0.52191000  1.0
  F  F115  1  0.13916000  0.44991000  0.47809000  1.0
