# generated using pymatgen
data_MgH9C17(NO)3
_symmetry_space_group_name_H-M   'P 1'
_cell_length_a   6.86732000
_cell_length_b   42.01720000
_cell_length_c   42.01650000
_cell_angle_alpha   119.70500000
_cell_angle_beta   93.12390000
_cell_angle_gamma   93.12420000
_symmetry_Int_Tables_number   1
_chemical_formula_structural   MgH9C17(NO)3
_chemical_formula_sum   'Mg6 H54 C102 N18 O18'
_cell_volume   10468.29996343
_cell_formula_units_Z   6
loop_
 _symmetry_equiv_pos_site_id
 _symmetry_equiv_pos_as_xyz
  1  'x, y, z'
loop_
 _atom_site_type_symbol
 _atom_site_label
 _atom_site_symmetry_multiplicity
 _atom_site_fract_x
 _atom_site_fract_y
 _atom_site_fract_z
 _atom_site_occupancy
  Mg  Mg0  1  0.10753000  0.63925000  0.32748000  1.0
  Mg  Mg1  1  0.37404000  0.36033000  0.67144000  1.0
  Mg  Mg2  1  0.78003000  0.67251000  0.31178000  1.0
  Mg  Mg3  1  0.70256000  0.32856000  0.68889000  1.0
  Mg  Mg4  1  0.46825000  0.68821000  0.36073000  1.0
  Mg  Mg5  1  0.01373000  0.31111000  0.63967000  1.0
  H  H6  1  0.04518000  0.37319000  0.79258000  1.0
  H  H7  1  0.29022000  0.39968000  0.84759000  1.0
  H  H8  1  0.74469000  0.39476000  0.77881000  1.0
  H  H9  1  0.99675000  0.44606000  0.87676000  1.0
  H  H10  1  0.24438000  0.47621000  0.93212000  1.0
  H  H11  1  0.26030000  0.51727000  0.06492000  1.0
  H  H12  1  0.50000000  0.55064000  0.12136000  1.0
  H  H13  1  0.20067000  0.60191000  0.15254000  1.0
  H  H14  1  0.44132000  0.62985000  0.20830000  1.0
  H  H15  1  0.74133000  0.60597000  0.22015000  1.0
  H  H16  1  0.06493000  0.58685000  0.08079000  1.0
  H  H17  1  0.15141000  0.58032000  0.02131000  1.0
  H  H18  1  0.91117000  0.54813000  0.96563000  1.0
  H  H19  1  0.58598000  0.52169000  0.96931000  1.0
  H  H20  1  0.93013000  0.46749000  0.02663000  1.0
  H  H21  1  0.60504000  0.44100000  0.03039000  1.0
  H  H22  1  0.35866000  0.41132000  0.97556000  1.0
  H  H23  1  0.43769000  0.40771000  0.91691000  1.0
  H  H24  1  0.25257000  0.20741000  0.58059000  1.0
  H  H25  1  0.44272000  0.15240000  0.55210000  1.0
  H  H26  1  0.96591000  0.22120000  0.61595000  1.0
  H  H27  1  0.12001000  0.12325000  0.56930000  1.0
  H  H28  1  0.31241000  0.06790000  0.54410000  1.0
  H  H29  1  0.19535000  0.93508000  0.45234000  1.0
  H  H30  1  0.37866000  0.87865000  0.42928000  1.0
  H  H31  1  0.04825000  0.84744000  0.44937000  1.0
  H  H32  1  0.23303000  0.79167000  0.42154000  1.0
  H  H33  1  0.52127000  0.77985000  0.38582000  1.0
  H  H34  1  0.98411000  0.91921000  0.50604000  1.0
  H  H35  1  0.13011000  0.97868000  0.55900000  1.0
  H  H36  1  0.94562000  0.03437000  0.58251000  1.0
  H  H37  1  0.61669000  0.03069000  0.55238000  1.0
  H  H38  1  0.90340000  0.97338000  0.44087000  1.0
  H  H39  1  0.57467000  0.96962000  0.41061000  1.0
  H  H40  1  0.38310000  0.02445000  0.43576000  1.0
  H  H41  1  0.52080000  0.08310000  0.49079000  1.0
  H  H42  1  0.67189000  0.41940000  0.62683000  1.0
  H  H43  1  0.89045000  0.44791000  0.60031000  1.0
  H  H44  1  0.34987000  0.38407000  0.60524000  1.0
  H  H45  1  0.55086000  0.43070000  0.55395000  1.0
  H  H46  1  0.76838000  0.45591000  0.52379000  1.0
  H  H47  1  0.74306000  0.54766000  0.48274000  1.0
  H  H48  1  0.94937000  0.57071000  0.44935000  1.0
  H  H49  1  0.59878000  0.55064000  0.39809000  1.0
  H  H50  1  0.81160000  0.57845000  0.37016000  1.0
  H  H51  1  0.13549000  0.61418000  0.39401000  1.0
  H  H52  1  0.47815000  0.49395000  0.41315000  1.0
  H  H53  1  0.57114000  0.44098000  0.41967000  1.0
  H  H54  1  0.36307000  0.41750000  0.45186000  1.0
  H  H55  1  0.06425000  0.44761000  0.47829000  1.0
  H  H56  1  0.46266000  0.55913000  0.53249000  1.0
  H  H57  1  0.16410000  0.58938000  0.55901000  1.0
  H  H58  1  0.94752000  0.56422000  0.58868000  1.0
  H  H59  1  0.03018000  0.50920000  0.59229000  1.0
  C  C60  1  0.10055000  0.35145000  0.72367000  1.0
  C  C61  1  0.25416000  0.36893000  0.75467000  1.0
  C  C62  1  0.19939000  0.37829000  0.79008000  1.0
  C  C63  1  0.33362000  0.39286000  0.82058000  1.0
  C  C64  1  0.53290000  0.39839000  0.81609000  1.0
  C  C65  1  0.59058000  0.39012000  0.78166000  1.0
  C  C66  1  0.45542000  0.37540000  0.75024000  1.0
  C  C67  1  0.77857000  0.43379000  0.90472000  1.0
  C  C68  1  0.96393000  0.44814000  0.90279000  1.0
  C  C69  1  0.10015000  0.46499000  0.93341000  1.0
  C  C70  1  0.05510000  0.46807000  0.96695000  1.0
  C  C71  1  0.45366000  0.52394000  0.02983000  1.0
  C  C72  1  0.40471000  0.52852000  0.06376000  1.0
  C  C73  1  0.53648000  0.54718000  0.09495000  1.0
  C  C74  1  0.72169000  0.56169000  0.09316000  1.0
  C  C75  1  0.95597000  0.60250000  0.18337000  1.0
  C  C76  1  0.15527000  0.60886000  0.17947000  1.0
  C  C77  1  0.28712000  0.62418000  0.21035000  1.0
  C  C78  1  0.23003000  0.63335000  0.24556000  1.0
  C  C79  1  0.38223000  0.65068000  0.27683000  1.0
  C  C80  1  0.02855000  0.62639000  0.24950000  1.0
  C  C81  1  0.89549000  0.61116000  0.21774000  1.0
  C  C82  1  0.77641000  0.55819000  0.05912000  1.0
  C  C83  1  0.96123000  0.57289000  0.05632000  1.0
  C  C84  1  0.00791000  0.56929000  0.02322000  1.0
  C  C85  1  0.87208000  0.55096000  0.99166000  1.0
  C  C86  1  0.69139000  0.53621000  0.99348000  1.0
  C  C87  1  0.63900000  0.53948000  0.02707000  1.0
  C  C88  1  0.87020000  0.45240000  0.96970000  1.0
  C  C89  1  0.82171000  0.45414000  0.00285000  1.0
  C  C90  1  0.64114000  0.43936000  0.00470000  1.0
  C  C91  1  0.50174000  0.42246000  0.97360000  1.0
  C  C92  1  0.54434000  0.42046000  0.94098000  1.0
  C  C93  1  0.72865000  0.43534000  0.93818000  1.0
  C  C94  1  0.37693000  0.27633000  0.62778000  1.0
  C  C95  1  0.49945000  0.24532000  0.61426000  1.0
  C  C96  1  0.40927000  0.20992000  0.58821000  1.0
  C  C97  1  0.51307000  0.17942000  0.57231000  1.0
  C  C98  1  0.71682000  0.18392000  0.58232000  1.0
  C  C99  1  0.80896000  0.21835000  0.60848000  1.0
  C  C100  1  0.70513000  0.24976000  0.62516000  1.0
  C  C101  1  0.87392000  0.09530000  0.52907000  1.0
  C  C102  1  0.06122000  0.09722000  0.54534000  1.0
  C  C103  1  0.16691000  0.06661000  0.53158000  1.0
  C  C104  1  0.08830000  0.03307000  0.50114000  1.0
  C  C105  1  0.42382000  0.97017000  0.49411000  1.0
  C  C106  1  0.34092000  0.93624000  0.46476000  1.0
  C  C107  1  0.44154000  0.90506000  0.45222000  1.0
  C  C108  1  0.62849000  0.90684000  0.46854000  1.0
  C  C109  1  0.77269000  0.81664000  0.41913000  1.0
  C  C110  1  0.97589000  0.82053000  0.42938000  1.0
  C  C111  1  0.07677000  0.78963000  0.41383000  1.0
  C  C112  1  0.98447000  0.75442000  0.38780000  1.0
  C  C113  1  0.10546000  0.72316000  0.37385000  1.0
  C  C114  1  0.77905000  0.75049000  0.37689000  1.0
  C  C115  1  0.67783000  0.78226000  0.39342000  1.0
  C  C116  1  0.71719000  0.94087000  0.49909000  1.0
  C  C117  1  0.90487000  0.94368000  0.51659000  1.0
  C  C118  1  0.98464000  0.97676000  0.54607000  1.0
  C  C119  1  0.88044000  0.00833000  0.55932000  1.0
  C  C120  1  0.69790000  0.00651000  0.54275000  1.0
  C  C121  1  0.61187000  0.97293000  0.51244000  1.0
  C  C122  1  0.90056000  0.03032000  0.48273000  1.0
  C  C123  1  0.81880000  0.99717000  0.45132000  1.0
  C  C124  1  0.63644000  0.99532000  0.43466000  1.0
  C  C125  1  0.52820000  0.02642000  0.44885000  1.0
  C  C126  1  0.60344000  0.05904000  0.47947000  1.0
  C  C127  1  0.79054000  0.06184000  0.49716000  1.0
  C  C128  1  0.74914000  0.37223000  0.64857000  1.0
  C  C129  1  0.88518000  0.38575000  0.63107000  1.0
  C  C130  1  0.82101000  0.41180000  0.62172000  1.0
  C  C131  1  0.94060000  0.42770000  0.60712000  1.0
  C  C132  1  0.13433000  0.41769000  0.60160000  1.0
  C  C133  1  0.20040000  0.39154000  0.60988000  1.0
  C  C134  1  0.07994000  0.37485000  0.62460000  1.0
  C  C135  1  0.34496000  0.47092000  0.56620000  1.0
  C  C136  1  0.51605000  0.45465000  0.55187000  1.0
  C  C137  1  0.63539000  0.46842000  0.53502000  1.0
  C  C138  1  0.58715000  0.49885000  0.53190000  1.0
  C  C139  1  0.92979000  0.50590000  0.47606000  1.0
  C  C140  1  0.87622000  0.53525000  0.47149000  1.0
  C  C141  1  0.98936000  0.54778000  0.45283000  1.0
  C  C142  1  0.16008000  0.53147000  0.43831000  1.0
  C  C143  1  0.35355000  0.58088000  0.39750000  1.0
  C  C144  1  0.54653000  0.57064000  0.39117000  1.0
  C  C145  1  0.66313000  0.58619000  0.37585000  1.0
  C  C146  1  0.59687000  0.61221000  0.36665000  1.0
  C  C147  1  0.73165000  0.62614000  0.34932000  1.0
  C  C148  1  0.40232000  0.62309000  0.37359000  1.0
  C  C149  1  0.28445000  0.60656000  0.38882000  1.0
  C  C150  1  0.21832000  0.50094000  0.44181000  1.0
  C  C151  1  0.38848000  0.48343000  0.42711000  1.0
  C  C152  1  0.43870000  0.45394000  0.43071000  1.0
  C  C153  1  0.32120000  0.44070000  0.44904000  1.0
  C  C154  1  0.15513000  0.45727000  0.46378000  1.0
  C  C155  1  0.09956000  0.48759000  0.46051000  1.0
  C  C156  1  0.41787000  0.51726000  0.54756000  1.0
  C  C157  1  0.36764000  0.54868000  0.54583000  1.0
  C  C158  1  0.20192000  0.56532000  0.56064000  1.0
  C  C159  1  0.07953000  0.55114000  0.57756000  1.0
  C  C160  1  0.12414000  0.52051000  0.57954000  1.0
  C  C161  1  0.29351000  0.50282000  0.56464000  1.0
  N  N162  1  0.68652000  0.41183000  0.84449000  1.0
  N  N163  1  0.63154000  0.41871000  0.87557000  1.0
  N  N164  1  0.18462000  0.48532000  0.99864000  1.0
  N  N165  1  0.32596000  0.50599000  0.99797000  1.0
  N  N166  1  0.86457000  0.57862000  0.12300000  1.0
  N  N167  1  0.80522000  0.58758000  0.15430000  1.0
  N  N168  1  0.84204000  0.15552000  0.56736000  1.0
  N  N169  1  0.75600000  0.12444000  0.54315000  1.0
  N  N170  1  0.18602000  0.00137000  0.48669000  1.0
  N  N171  1  0.32804000  0.00203000  0.50803000  1.0
  N  N172  1  0.74158000  0.87701000  0.45562000  1.0
  N  N173  1  0.65097000  0.84570000  0.43327000  1.0
  N  N174  1  0.27458000  0.43265000  0.58815000  1.0
  N  N175  1  0.21285000  0.45685000  0.58127000  1.0
  N  N176  1  0.69935000  0.51330000  0.51466000  1.0
  N  N177  1  0.82004000  0.49198000  0.49399000  1.0
  N  N178  1  0.28599000  0.54439000  0.42139000  1.0
  N  N179  1  0.21767000  0.56672000  0.41242000  1.0
  O  O180  1  0.55645000  0.65917000  0.27280000  1.0
  O  O181  1  0.33539000  0.65706000  0.30880000  1.0
  O  O182  1  0.95922000  0.63372000  0.28148000  1.0
  O  O183  1  0.92645000  0.34342000  0.72816000  1.0
  O  O184  1  0.14620000  0.34419000  0.69137000  1.0
  O  O185  1  0.52338000  0.36791000  0.71811000  1.0
  O  O186  1  0.28368000  0.72719000  0.38639000  1.0
  O  O187  1  0.02672000  0.69119000  0.34824000  1.0
  O  O188  1  0.67767000  0.71851000  0.35225000  1.0
  O  O189  1  0.19835000  0.27184000  0.61525000  1.0
  O  O190  1  0.45483000  0.30862000  0.65282000  1.0
  O  O191  1  0.80519000  0.28190000  0.64980000  1.0
  O  O192  1  0.89736000  0.61361000  0.34081000  1.0
  O  O193  1  0.67843000  0.65173000  0.34293000  1.0
  O  O194  1  0.32553000  0.64773000  0.36625000  1.0
  O  O195  1  0.58311000  0.38476000  0.65661000  1.0
  O  O196  1  0.80200000  0.34718000  0.65581000  1.0
  O  O197  1  0.15543000  0.35020000  0.63208000  1.0
