# generated using pymatgen
data_TbH24C30N5O8
_symmetry_space_group_name_H-M   'P 1'
_cell_length_a   9.62579000
_cell_length_b   17.26055280
_cell_length_c   27.57190000
_cell_angle_alpha   73.00423067
_cell_angle_beta   89.98800000
_cell_angle_gamma   73.81997496
_symmetry_Int_Tables_number   1
_chemical_formula_structural   TbH24C30N5O8
_chemical_formula_sum   'Tb4 H96 C120 N20 O32'
_cell_volume   4190.88929273
_cell_formula_units_Z   4
loop_
 _symmetry_equiv_pos_site_id
 _symmetry_equiv_pos_as_xyz
  1  'x, y, z'
loop_
 _atom_site_type_symbol
 _atom_site_label
 _atom_site_symmetry_multiplicity
 _atom_site_fract_x
 _atom_site_fract_y
 _atom_site_fract_z
 _atom_site_occupancy
  Tb  Tb0  1  0.06490000  0.10151000  0.49808000  1.0
  Tb  Tb1  1  0.16680000  0.89851000  0.00196000  1.0
  Tb  Tb2  1  0.93511000  0.89849000  0.50192000  1.0
  Tb  Tb3  1  0.83319000  0.10149000  0.99804000  1.0
  H  H4  1  0.41479000  0.72184000  0.41644000  1.0
  H  H5  1  0.13598000  0.27858000  0.08369000  1.0
  H  H6  1  0.58520000  0.27816000  0.58356000  1.0
  H  H7  1  0.86401000  0.72142000  0.91631000  1.0
  H  H8  1  0.24455000  0.81585000  0.45808000  1.0
  H  H9  1  0.05973000  0.18474000  0.04191000  1.0
  H  H10  1  0.75547000  0.18415000  0.54193000  1.0
  H  H11  1  0.94027000  0.81526000  0.95810000  1.0
  H  H12  1  0.39841000  0.02495000  0.37642000  1.0
  H  H13  1  0.42194000  0.97540000  0.12354000  1.0
  H  H14  1  0.60159000  0.97506000  0.62358000  1.0
  H  H15  1  0.57806000  0.02459000  0.87646000  1.0
  H  H16  1  0.95382000  0.52185000  0.32147000  1.0
  H  H17  1  0.47539000  0.47818000  0.17885000  1.0
  H  H18  1  0.04617000  0.47815000  0.67852000  1.0
  H  H19  1  0.52461000  0.52182000  0.82115000  1.0
  H  H20  1  0.04743000  0.75185000  0.15088000  1.0
  H  H21  1  0.79910000  0.24820000  0.34918000  1.0
  H  H22  1  0.95259000  0.24814000  0.84913000  1.0
  H  H23  1  0.20090000  0.75182000  0.65082000  1.0
  H  H24  1  0.05164000  0.36557000  0.36761000  1.0
  H  H25  1  0.41765000  0.63441000  0.13268000  1.0
  H  H26  1  0.94836000  0.63443000  0.63239000  1.0
  H  H27  1  0.58235000  0.36559000  0.86732000  1.0
  H  H28  1  0.64306000  0.54644000  0.43193000  1.0
  H  H29  1  0.19081000  0.45356000  0.06794000  1.0
  H  H30  1  0.35693000  0.45356000  0.56807000  1.0
  H  H31  1  0.80918000  0.54644000  0.93206000  1.0
  H  H32  1  0.73682000  0.38950000  0.47636000  1.0
  H  H33  1  0.12839000  0.61045000  0.02345000  1.0
  H  H34  1  0.26318000  0.61049000  0.52364000  1.0
  H  H35  1  0.87161000  0.38955000  0.97655000  1.0
  H  H36  1  0.56044000  0.93152000  0.33119000  1.0
  H  H37  1  0.49059000  0.06852000  0.16902000  1.0
  H  H38  1  0.43953000  0.06847000  0.66881000  1.0
  H  H39  1  0.50940000  0.93148000  0.83098000  1.0
  H  H40  1  0.96550000  0.68047000  0.23477000  1.0
  H  H41  1  0.64602000  0.31952000  0.26529000  1.0
  H  H42  1  0.03449000  0.31952000  0.76523000  1.0
  H  H43  1  0.35398000  0.68048000  0.73471000  1.0
  H  H44  1  0.70227000  0.97848000  0.13688000  1.0
  H  H45  1  0.68092000  0.02149000  0.36313000  1.0
  H  H46  1  0.29773000  0.02152000  0.86312000  1.0
  H  H47  1  0.31908000  0.97852000  0.63688000  1.0
  H  H48  1  0.62581000  0.90965000  0.22261000  1.0
  H  H49  1  0.53563000  0.09025000  0.27742000  1.0
  H  H50  1  0.37416000  0.09035000  0.77739000  1.0
  H  H51  1  0.46437000  0.90974000  0.72259000  1.0
  H  H52  1  0.40618000  0.32332000  0.49969000  1.0
  H  H53  1  0.72919000  0.67669000  0.00011000  1.0
  H  H54  1  0.59380000  0.67668000  0.50032000  1.0
  H  H55  1  0.27080000  0.32330000  0.99990000  1.0
  H  H56  1  0.28384000  0.34353000  0.44515000  1.0
  H  H57  1  0.62701000  0.65634000  0.05461000  1.0
  H  H58  1  0.71615000  0.65646000  0.55485000  1.0
  H  H59  1  0.37300000  0.34366000  0.94540000  1.0
  H  H60  1  0.24656000  0.28837000  0.50722000  1.0
  H  H61  1  0.53460000  0.71183000  0.99255000  1.0
  H  H62  1  0.75345000  0.71160000  0.49278000  1.0
  H  H63  1  0.46540000  0.28816000  0.00746000  1.0
  H  H64  1  0.61718000  0.23769000  0.45782000  1.0
  H  H65  1  0.85501000  0.76175000  0.04231000  1.0
  H  H66  1  0.38283000  0.76233000  0.54219000  1.0
  H  H67  1  0.14498000  0.23825000  0.95769000  1.0
  H  H68  1  0.58052000  0.15107000  0.44239000  1.0
  H  H69  1  0.73197000  0.84835000  0.05784000  1.0
  H  H70  1  0.41953000  0.84894000  0.55760000  1.0
  H  H71  1  0.26803000  0.15165000  0.94216000  1.0
  H  H72  1  0.49230000  0.25744000  0.40436000  1.0
  H  H73  1  0.74945000  0.74201000  0.09570000  1.0
  H  H74  1  0.50771000  0.74258000  0.59563000  1.0
  H  H75  1  0.25054000  0.25799000  0.90431000  1.0
  H  H76  1  0.81046000  0.28795000  0.63854000  1.0
  H  H77  1  0.09804000  0.71267000  0.86137000  1.0
  H  H78  1  0.18952000  0.71206000  0.36145000  1.0
  H  H79  1  0.90194000  0.28734000  0.13863000  1.0
  H  H80  1  0.99263000  0.27945000  0.65818000  1.0
  H  H81  1  0.27161000  0.72104000  0.84154000  1.0
  H  H82  1  0.00736000  0.72058000  0.34181000  1.0
  H  H83  1  0.72837000  0.27897000  0.15846000  1.0
  H  H84  1  0.94924000  0.27561000  0.59569000  1.0
  H  H85  1  0.22503000  0.72478000  0.90412000  1.0
  H  H86  1  0.05074000  0.72441000  0.40430000  1.0
  H  H87  1  0.77494000  0.27523000  0.09588000  1.0
  H  H88  1  0.80317000  0.15358000  0.70879000  1.0
  H  H89  1  0.95639000  0.84719000  0.79126000  1.0
  H  H90  1  0.19686000  0.84641000  0.29120000  1.0
  H  H91  1  0.04360000  0.15281000  0.20873000  1.0
  H  H92  1  0.94955000  0.06011000  0.71425000  1.0
  H  H93  1  0.00966000  0.94056000  0.78581000  1.0
  H  H94  1  0.05051000  0.93989000  0.28573000  1.0
  H  H95  1  0.99033000  0.05945000  0.21419000  1.0
  H  H96  1  0.98055000  0.14445000  0.73409000  1.0
  H  H97  1  0.12453000  0.85627000  0.76581000  1.0
  H  H98  1  0.01949000  0.85555000  0.26590000  1.0
  H  H99  1  0.87547000  0.14373000  0.23420000  1.0
  C  C100  1  0.74236000  0.75171000  0.28298000  1.0
  C  C101  1  0.49394000  0.24829000  0.21711000  1.0
  C  C102  1  0.25760000  0.24829000  0.71701000  1.0
  C  C103  1  0.50606000  0.75171000  0.78289000  1.0
  C  C104  1  0.73923000  0.63551000  0.34834000  1.0
  C  C105  1  0.37485000  0.36452000  0.15178000  1.0
  C  C106  1  0.26077000  0.36449000  0.65166000  1.0
  C  C107  1  0.62513000  0.63548000  0.84822000  1.0
  C  C108  1  0.59845000  0.76615000  0.34711000  1.0
  C  C109  1  0.36396000  0.23399000  0.15306000  1.0
  C  C110  1  0.40154000  0.23384000  0.65288000  1.0
  C  C111  1  0.63603000  0.76601000  0.84694000  1.0
  C  C112  1  0.96025000  0.27643000  0.45182000  1.0
  C  C113  1  0.23786000  0.72354000  0.04826000  1.0
  C  C114  1  0.03975000  0.72357000  0.54819000  1.0
  C  C115  1  0.76214000  0.27645000  0.95175000  1.0
  C  C116  1  0.31172000  0.92605000  0.41932000  1.0
  C  C117  1  0.23681000  0.07445000  0.08063000  1.0
  C  C118  1  0.68829000  0.07395000  0.58069000  1.0
  C  C119  1  0.76319000  0.92555000  0.91937000  1.0
  C  C120  1  0.21683000  0.98143000  0.44609000  1.0
  C  C121  1  0.19753000  0.01912000  0.05376000  1.0
  C  C122  1  0.78318000  0.01859000  0.55391000  1.0
  C  C123  1  0.80246000  0.98088000  0.94624000  1.0
  C  C124  1  0.40828000  0.78868000  0.40723000  1.0
  C  C125  1  0.19617000  0.21171000  0.09288000  1.0
  C  C126  1  0.59170000  0.21132000  0.59277000  1.0
  C  C127  1  0.80385000  0.78829000  0.90711000  1.0
  C  C128  1  0.79322000  0.54334000  0.37416000  1.0
  C  C129  1  0.33708000  0.45666000  0.12594000  1.0
  C  C130  1  0.20679000  0.45666000  0.62585000  1.0
  C  C131  1  0.66291000  0.54334000  0.87407000  1.0
  C  C132  1  0.89992000  0.36915000  0.42455000  1.0
  C  C133  1  0.27033000  0.63080000  0.07551000  1.0
  C  C134  1  0.10007000  0.63085000  0.57545000  1.0
  C  C135  1  0.72967000  0.36919000  0.92450000  1.0
  C  C136  1  0.31428000  0.84096000  0.43050000  1.0
  C  C137  1  0.15446000  0.15954000  0.06951000  1.0
  C  C138  1  0.68571000  0.15904000  0.56950000  1.0
  C  C139  1  0.84553000  0.84046000  0.93050000  1.0
  C  C140  1  0.40049000  0.95908000  0.38368000  1.0
  C  C141  1  0.35838000  0.04128000  0.11634000  1.0
  C  C142  1  0.59951000  0.04093000  0.61632000  1.0
  C  C143  1  0.64161000  0.95872000  0.88366000  1.0
  C  C144  1  0.90789000  0.49230000  0.35563000  1.0
  C  C145  1  0.40052000  0.50768000  0.14457000  1.0
  C  C146  1  0.09209000  0.50770000  0.64437000  1.0
  C  C147  1  0.59948000  0.49231000  0.85544000  1.0
  C  C148  1  0.92108000  0.91162000  0.08835000  1.0
  C  C149  1  0.83262000  0.08837000  0.41168000  1.0
  C  C150  1  0.07891000  0.08838000  0.91165000  1.0
  C  C151  1  0.16740000  0.91164000  0.58832000  1.0
  C  C152  1  0.95471000  0.78527000  0.16700000  1.0
  C  C153  1  0.73991000  0.21475000  0.33305000  1.0
  C  C154  1  0.04530000  0.21472000  0.83300000  1.0
  C  C155  1  0.26009000  0.78526000  0.66695000  1.0
  C  C156  1  0.96158000  0.40609000  0.38094000  1.0
  C  C157  1  0.36835000  0.59388000  0.11924000  1.0
  C  C158  1  0.03842000  0.59390000  0.61906000  1.0
  C  C159  1  0.63166000  0.40612000  0.88076000  1.0
  C  C160  1  0.49681000  0.82153000  0.37133000  1.0
  C  C161  1  0.31735000  0.17871000  0.12886000  1.0
  C  C162  1  0.50318000  0.17846000  0.62867000  1.0
  C  C163  1  0.68265000  0.82129000  0.87115000  1.0
  C  C164  1  0.87909000  0.86904000  0.13963000  1.0
  C  C165  1  0.74816000  0.13094000  0.36039000  1.0
  C  C166  1  0.12091000  0.13095000  0.86037000  1.0
  C  C167  1  0.25184000  0.86907000  0.63961000  1.0
  C  C168  1  0.73156000  0.50612000  0.41790000  1.0
  C  C169  1  0.23879000  0.49387000  0.08206000  1.0
  C  C170  1  0.26844000  0.49388000  0.58210000  1.0
  C  C171  1  0.76121000  0.50612000  0.91795000  1.0
  C  C172  1  0.78373000  0.41959000  0.44257000  1.0
  C  C173  1  0.20484000  0.58038000  0.05737000  1.0
  C  C174  1  0.21628000  0.58041000  0.55744000  1.0
  C  C175  1  0.79515000  0.41962000  0.94263000  1.0
  C  C176  1  0.49056000  0.90744000  0.35911000  1.0
  C  C177  1  0.39682000  0.09277000  0.14103000  1.0
  C  C178  1  0.50942000  0.09255000  0.64089000  1.0
  C  C179  1  0.60317000  0.90723000  0.85897000  1.0
  C  C180  1  0.90990000  0.74607000  0.21344000  1.0
  C  C181  1  0.65595000  0.25392000  0.28661000  1.0
  C  C182  1  0.09009000  0.25392000  0.78656000  1.0
  C  C183  1  0.34405000  0.74608000  0.71339000  1.0
  C  C184  1  0.75996000  0.91389000  0.15947000  1.0
  C  C185  1  0.67395000  0.08608000  0.34055000  1.0
  C  C186  1  0.24005000  0.08610000  0.84053000  1.0
  C  C187  1  0.32605000  0.91392000  0.65945000  1.0
  C  C188  1  0.79140000  0.79122000  0.23363000  1.0
  C  C189  1  0.58261000  0.20874000  0.26642000  1.0
  C  C190  1  0.20857000  0.20877000  0.76637000  1.0
  C  C191  1  0.41740000  0.79125000  0.73358000  1.0
  C  C192  1  0.71741000  0.87572000  0.20635000  1.0
  C  C193  1  0.59330000  0.12420000  0.29367000  1.0
  C  C194  1  0.28256000  0.12428000  0.79364000  1.0
  C  C195  1  0.40670000  0.87580000  0.70634000  1.0
  C  C196  1  0.38000000  0.14666000  0.49708000  1.0
  C  C197  1  0.52698000  0.85328000  0.00296000  1.0
  C  C198  1  0.62006000  0.85332000  0.50292000  1.0
  C  C199  1  0.47300000  0.14673000  0.99704000  1.0
  C  C200  1  0.33260000  0.29829000  0.48232000  1.0
  C  C201  1  0.63059000  0.70169000  0.01749000  1.0
  C  C202  1  0.66741000  0.70170000  0.51769000  1.0
  C  C203  1  0.36940000  0.29831000  0.98252000  1.0
  C  C204  1  0.53325000  0.21608000  0.44323000  1.0
  C  C205  1  0.74943000  0.78343000  0.05686000  1.0
  C  C206  1  0.46677000  0.78394000  0.55676000  1.0
  C  C207  1  0.25057000  0.21657000  0.94314000  1.0
  C  C208  1  0.00824000  0.11699000  0.62561000  1.0
  C  C209  1  0.12540000  0.88335000  0.87441000  1.0
  C  C210  1  0.99181000  0.88301000  0.37438000  1.0
  C  C211  1  0.87458000  0.11666000  0.12559000  1.0
  C  C212  1  0.92572000  0.25790000  0.63564000  1.0
  C  C213  1  0.18348000  0.74258000  0.86420000  1.0
  C  C214  1  0.07427000  0.74212000  0.36435000  1.0
  C  C215  1  0.81650000  0.25743000  0.13579000  1.0
  C  C216  1  0.92046000  0.12894000  0.70609000  1.0
  C  C217  1  0.04921000  0.87173000  0.79390000  1.0
  C  C218  1  0.07958000  0.87105000  0.29391000  1.0
  C  C219  1  0.95078000  0.12827000  0.20610000  1.0
  N  N220  1  0.63809000  0.68206000  0.37042000  1.0
  N  N221  1  0.31984000  0.31806000  0.12974000  1.0
  N  N222  1  0.36191000  0.31793000  0.62958000  1.0
  N  N223  1  0.68015000  0.68194000  0.87026000  1.0
  N  N224  1  0.79544000  0.66741000  0.30476000  1.0
  N  N225  1  0.46307000  0.33256000  0.19531000  1.0
  N  N226  1  0.20453000  0.33259000  0.69524000  1.0
  N  N227  1  0.53692000  0.66744000  0.80469000  1.0
  N  N228  1  0.64647000  0.80380000  0.30333000  1.0
  N  N229  1  0.44970000  0.19627000  0.19680000  1.0
  N  N230  1  0.35349000  0.19619000  0.69666000  1.0
  N  N231  1  0.55029000  0.80373000  0.80320000  1.0
  N  N232  1  0.41407000  0.21707000  0.47582000  1.0
  N  N233  1  0.63121000  0.78276000  0.02415000  1.0
  N  N234  1  0.58596000  0.78293000  0.52418000  1.0
  N  N235  1  0.36878000  0.21724000  0.97585000  1.0
  N  N236  1  0.95686000  0.16551000  0.65477000  1.0
  N  N237  1  0.12246000  0.83498000  0.84515000  1.0
  N  N238  1  0.04316000  0.83450000  0.34522000  1.0
  N  N239  1  0.87753000  0.16502000  0.15484000  1.0
  O  O240  1  0.07961000  0.23536000  0.43964000  1.0
  O  O241  1  0.31569000  0.76472000  0.06059000  1.0
  O  O242  1  0.92042000  0.76464000  0.56038000  1.0
  O  O243  1  0.68431000  0.23527000  0.93942000  1.0
  O  O244  1  0.11504000  0.95690000  0.47010000  1.0
  O  O245  1  0.07135000  0.04351000  0.02975000  1.0
  O  O246  1  0.88497000  0.04312000  0.52990000  1.0
  O  O247  1  0.92864000  0.95649000  0.97025000  1.0
  O  O248  1  0.23898000  0.05081000  0.44522000  1.0
  O  O249  1  0.28923000  0.94979000  0.05463000  1.0
  O  O250  1  0.76104000  0.94920000  0.55477000  1.0
  O  O251  1  0.71076000  0.05021000  0.94537000  1.0
  O  O252  1  0.89103000  0.24067000  0.48700000  1.0
  O  O253  1  0.13320000  0.75922000  0.01297000  1.0
  O  O254  1  0.10898000  0.75932000  0.51300000  1.0
  O  O255  1  0.86681000  0.24077000  0.98703000  1.0
  O  O256  1  0.28323000  0.13326000  0.52448000  1.0
  O  O257  1  0.41681000  0.86696000  0.97550000  1.0
  O  O258  1  0.71684000  0.86672000  0.47551000  1.0
  O  O259  1  0.58319000  0.13303000  0.02450000  1.0
  O  O260  1  0.04144000  0.87497000  0.07479000  1.0
  O  O261  1  0.91610000  0.12511000  0.42527000  1.0
  O  O262  1  0.95856000  0.12502000  0.92521000  1.0
  O  O263  1  0.08391000  0.87490000  0.57473000  1.0
  O  O264  1  0.83031000  0.98077000  0.06267000  1.0
  O  O265  1  0.81114000  0.01915000  0.43734000  1.0
  O  O266  1  0.16969000  0.01924000  0.93733000  1.0
  O  O267  1  0.18887000  0.98086000  0.56266000  1.0
  O  O268  1  0.04253000  0.13598000  0.58199000  1.0
  O  O269  1  0.17878000  0.86419000  0.91801000  1.0
  O  O270  1  0.95749000  0.86404000  0.41800000  1.0
  O  O271  1  0.82120000  0.13581000  0.08198000  1.0
