# generated using pymatgen
data_CaH4C7O5
_symmetry_space_group_name_H-M   'P 1'
_cell_length_a   5.76843000
_cell_length_b   6.72215000
_cell_length_c   10.20160000
_cell_angle_alpha   107.78800000
_cell_angle_beta   93.48800000
_cell_angle_gamma   107.20900000
_symmetry_Int_Tables_number   1
_chemical_formula_structural   CaH4C7O5
_chemical_formula_sum   'Ca2 H8 C14 O10'
_cell_volume   354.79805209
_cell_formula_units_Z   2
loop_
 _symmetry_equiv_pos_site_id
 _symmetry_equiv_pos_as_xyz
  1  'x, y, z'
loop_
 _atom_site_type_symbol
 _atom_site_label
 _atom_site_symmetry_multiplicity
 _atom_site_fract_x
 _atom_site_fract_y
 _atom_site_fract_z
 _atom_site_occupancy
  Ca  Ca0  1  0.34317000  0.68481000  0.94863000  1.0
  Ca  Ca1  1  0.65684000  0.31519000  0.05137000  1.0
  H  H2  1  0.30695000  0.59369000  0.40139000  1.0
  H  H3  1  0.69305000  0.40631000  0.59861000  1.0
  H  H4  1  0.36879000  0.75674000  0.65687000  1.0
  H  H5  1  0.63121000  0.24326000  0.34313000  1.0
  H  H6  1  0.75586000  0.63497000  0.80986000  1.0
  H  H7  1  0.24414000  0.36503000  0.19014000  1.0
  H  H8  1  0.72348000  0.86112000  0.80421000  1.0
  H  H9  1  0.27652000  0.13888000  0.19579000  1.0
  C  C10  1  0.98178000  0.95227000  0.42465000  1.0
  C  C11  1  0.01821000  0.04774000  0.57535000  1.0
  C  C12  1  0.09814000  0.79351000  0.36483000  1.0
  C  C13  1  0.90186000  0.20650000  0.63518000  1.0
  C  C14  1  0.22203000  0.71730000  0.44871000  1.0
  C  C15  1  0.77797000  0.28269000  0.55129000  1.0
  C  C16  1  0.25666000  0.81018000  0.59432000  1.0
  C  C17  1  0.74333000  0.18983000  0.40568000  1.0
  C  C18  1  0.83178000  0.01999000  0.34150000  1.0
  C  C19  1  0.16822000  0.98001000  0.65850000  1.0
  C  C20  1  0.11849000  0.71834000  0.21377000  1.0
  C  C21  1  0.88151000  0.28165000  0.78623000  1.0
  C  C22  1  0.73146000  0.90308000  0.18828000  1.0
  C  C23  1  0.26855000  0.09692000  0.81172000  1.0
  O  O24  1  0.19242000  0.86062000  0.15441000  1.0
  O  O25  1  0.80758000  0.13938000  0.84559000  1.0
  O  O26  1  0.07493000  0.51113000  0.14948000  1.0
  O  O27  1  0.92507000  0.48887000  0.85052000  1.0
  O  O28  1  0.70027000  0.01679000  0.11357000  1.0
  O  O29  1  0.29973000  0.98321000  0.88643000  1.0
  O  O30  1  0.65381000  0.69093000  0.13878000  1.0
  O  O31  1  0.34619000  0.30907000  0.86122000  1.0
  O  O32  1  0.63254000  0.70512000  0.79425000  1.0
  O  O33  1  0.36747000  0.29488000  0.20575000  1.0
