# generated using pymatgen
data_GdH11(C5O3)3
_symmetry_space_group_name_H-M   'P 1'
_cell_length_a   9.03425000
_cell_length_b   9.58587590
_cell_length_c   12.85360000
_cell_angle_alpha   107.26266004
_cell_angle_beta   94.28330000
_cell_angle_gamma   116.62759887
_symmetry_Int_Tables_number   1
_chemical_formula_structural   GdH11(C5O3)3
_chemical_formula_sum   'Gd2 H22 C30 O18'
_cell_volume   921.70063796
_cell_formula_units_Z   2
loop_
 _symmetry_equiv_pos_site_id
 _symmetry_equiv_pos_as_xyz
  1  'x, y, z'
loop_
 _atom_site_type_symbol
 _atom_site_label
 _atom_site_symmetry_multiplicity
 _atom_site_fract_x
 _atom_site_fract_y
 _atom_site_fract_z
 _atom_site_occupancy
  Gd  Gd0  1  0.29700000  0.55006000  0.01925000  1.0
  Gd  Gd1  1  0.70299000  0.44994000  0.98075000  1.0
  H  H2  1  0.52005000  0.64502000  0.86065000  1.0
  H  H3  1  0.47996000  0.35498000  0.13934000  1.0
  H  H4  1  0.43895000  0.76775000  0.89376000  1.0
  H  H5  1  0.56106000  0.23225000  0.10624000  1.0
  H  H6  1  0.13013000  0.75932000  0.99577000  1.0
  H  H7  1  0.86986000  0.24067000  0.00423000  1.0
  H  H8  1  0.30363000  0.86536000  0.09105000  1.0
  H  H9  1  0.69636000  0.13464000  0.90895000  1.0
  H  H10  1  0.13515000  0.16668000  0.50135000  1.0
  H  H11  1  0.86484000  0.83331000  0.49865000  1.0
  H  H12  1  0.97317000  0.22404000  0.36842000  1.0
  H  H13  1  0.02684000  0.77597000  0.63159000  1.0
  H  H14  1  0.78268000  0.33723000  0.43461000  1.0
  H  H15  1  0.21734000  0.66279000  0.56539000  1.0
  H  H16  1  0.76155000  0.39927000  0.63462000  1.0
  H  H17  1  0.23846000  0.60074000  0.36538000  1.0
  H  H18  1  0.17102000  0.93906000  0.92374000  1.0
  H  H19  1  0.82897000  0.06093000  0.07627000  1.0
  H  H20  1  0.66889000  0.77740000  0.73809000  1.0
  H  H21  1  0.33112000  0.22260000  0.26191000  1.0
  H  H22  1  0.79364000  0.00315000  0.66166000  1.0
  H  H23  1  0.20636000  0.99684000  0.33834000  1.0
  C  C24  1  0.92842000  0.37310000  0.80026000  1.0
  C  C25  1  0.07158000  0.62690000  0.19974000  1.0
  C  C26  1  0.93892000  0.32376000  0.68007000  1.0
  C  C27  1  0.06108000  0.67624000  0.31993000  1.0
  C  C28  1  0.04086000  0.25481000  0.63970000  1.0
  C  C29  1  0.95914000  0.74520000  0.36031000  1.0
  C  C30  1  0.05401000  0.21971000  0.52870000  1.0
  C  C31  1  0.94599000  0.78029000  0.47131000  1.0
  C  C32  1  0.96197000  0.25047000  0.45501000  1.0
  C  C33  1  0.03803000  0.74953000  0.54500000  1.0
  C  C34  1  0.85494000  0.31354000  0.49221000  1.0
  C  C35  1  0.14507000  0.68647000  0.50779000  1.0
  C  C36  1  0.84350000  0.34910000  0.60353000  1.0
  C  C37  1  0.15651000  0.65091000  0.39647000  1.0
  C  C38  1  0.05277000  0.09879000  0.75087000  1.0
  C  C39  1  0.94723000  0.90121000  0.24913000  1.0
  C  C40  1  0.15869000  0.08054000  0.82568000  1.0
  C  C41  1  0.84131000  0.91946000  0.17433000  1.0
  C  C42  1  0.08709000  0.95246000  0.86686000  1.0
  C  C43  1  0.91290000  0.04753000  0.13314000  1.0
  C  C44  1  0.91020000  0.84356000  0.83751000  1.0
  C  C45  1  0.08980000  0.15643000  0.16249000  1.0
  C  C46  1  0.80615000  0.86377000  0.76328000  1.0
  C  C47  1  0.19385000  0.13622000  0.23671000  1.0
  C  C48  1  0.87571000  0.98993000  0.71999000  1.0
  C  C49  1  0.12430000  0.01007000  0.28001000  1.0
  C  C50  1  0.34481000  0.20438000  0.86848000  1.0
  C  C51  1  0.65519000  0.79562000  0.13152000  1.0
  C  C52  1  0.83509000  0.71197000  0.88571000  1.0
  C  C53  1  0.16491000  0.28802000  0.11428000  1.0
  O  O54  1  0.05980000  0.43037000  0.87737000  1.0
  O  O55  1  0.94020000  0.56963000  0.12263000  1.0
  O  O56  1  0.78604000  0.35717000  0.81744000  1.0
  O  O57  1  0.21396000  0.64283000  0.18257000  1.0
  O  O58  1  0.13506000  0.21949000  0.70819000  1.0
  O  O59  1  0.86494000  0.78051000  0.29181000  1.0
  O  O60  1  0.38906000  0.36069000  0.91622000  1.0
  O  O61  1  0.61094000  0.63931000  0.08378000  1.0
  O  O62  1  0.45544000  0.15824000  0.86410000  1.0
  O  O63  1  0.54456000  0.84176000  0.13589000  1.0
  O  O64  1  0.92936000  0.70361000  0.96063000  1.0
  O  O65  1  0.07063000  0.29638000  0.03938000  1.0
  O  O66  1  0.67522000  0.60552000  0.85424000  1.0
  O  O67  1  0.32478000  0.39448000  0.14576000  1.0
  O  O68  1  0.41688000  0.65350000  0.87729000  1.0
  O  O69  1  0.58312000  0.34650000  0.12272000  1.0
  O  O70  1  0.25295000  0.78735000  0.01334000  1.0
  O  O71  1  0.74704000  0.21264000  0.98666000  1.0
