# generated using pymatgen
data_LiH13C11N4O
_symmetry_space_group_name_H-M   'P 1'
_cell_length_a   7.95665000
_cell_length_b   8.78732000
_cell_length_c   9.25703743
_cell_angle_alpha   61.66495907
_cell_angle_beta   87.98744933
_cell_angle_gamma   85.75710000
_symmetry_Int_Tables_number   1
_chemical_formula_structural   LiH13C11N4O
_chemical_formula_sum   'Li2 H26 C22 N8 O2'
_cell_volume   568.12239504
_cell_formula_units_Z   2
loop_
 _symmetry_equiv_pos_site_id
 _symmetry_equiv_pos_as_xyz
  1  'x, y, z'
loop_
 _atom_site_type_symbol
 _atom_site_label
 _atom_site_symmetry_multiplicity
 _atom_site_fract_x
 _atom_site_fract_y
 _atom_site_fract_z
 _atom_site_occupancy
  Li  Li0  1  0.13926000  0.84067000  0.13660000  1.0
  Li  Li1  1  0.63925000  0.97727000  0.86339000  1.0
  H  H2  1  0.42024000  0.62458000  0.41768000  1.0
  H  H3  1  0.92023000  0.04226000  0.58231000  1.0
  H  H4  1  0.43111000  0.33928000  0.67334000  1.0
  H  H5  1  0.93112000  0.01261000  0.32666000  1.0
  H  H6  1  0.16634000  0.17573000  0.76203000  1.0
  H  H7  1  0.66635000  0.93776000  0.23797000  1.0
  H  H8  1  0.90716000  0.30554000  0.59103000  1.0
  H  H9  1  0.40717000  0.89656000  0.40897000  1.0
  H  H10  1  0.67644000  0.42494000  0.41248000  1.0
  H  H11  1  0.17644000  0.83739000  0.58752000  1.0
  H  H12  1  0.51473000  0.67021000  0.12890000  1.0
  H  H13  1  0.01472000  0.79910000  0.87110000  1.0
  H  H14  1  0.35091000  0.15294000  0.97978000  1.0
  H  H15  1  0.85090000  0.13271000  0.02022000  1.0
  H  H16  1  0.54329000  0.40890000  0.07906000  1.0
  H  H17  1  0.04329000  0.48795000  0.92095000  1.0
  H  H18  1  0.46733000  0.39020000  0.90841000  1.0
  H  H19  1  0.96732000  0.29861000  0.09159000  1.0
  H  H20  1  0.36175000  0.53853000  0.96785000  1.0
  H  H21  1  0.86175000  0.50638000  0.03216000  1.0
  H  H22  1  0.17484000  0.40781000  0.22330000  1.0
  H  H23  1  0.67483000  0.63110000  0.77672000  1.0
  H  H24  1  0.35805000  0.28951000  0.33819000  1.0
  H  H25  1  0.85804000  0.62771000  0.66181000  1.0
  H  H26  1  0.18147000  0.17575000  0.33776000  1.0
  H  H27  1  0.68146000  0.51351000  0.66225000  1.0
  C  C28  1  0.30835000  0.55031000  0.46044000  1.0
  C  C29  1  0.80835000  0.01076000  0.53955000  1.0
  C  C30  1  0.31413000  0.39185000  0.60388000  1.0
  C  C31  1  0.81413000  0.99572000  0.39611000  1.0
  C  C32  1  0.16737000  0.30160000  0.65223000  1.0
  C  C33  1  0.66738000  0.95382000  0.34777000  1.0
  C  C34  1  0.02355000  0.37238000  0.55598000  1.0
  C  C35  1  0.52355000  0.92836000  0.44401000  1.0
  C  C36  1  0.02917000  0.53072000  0.41045000  1.0
  C  C37  1  0.52917000  0.94116000  0.58955000  1.0
  C  C38  1  0.88552000  0.60475000  0.29959000  1.0
  C  C39  1  0.38551000  0.90433000  0.70041000  1.0
  C  C40  1  0.72468000  0.54155000  0.31367000  1.0
  C  C41  1  0.22468000  0.85520000  0.68633000  1.0
  C  C42  1  0.64252000  0.66344000  0.17025000  1.0
  C  C43  1  0.14252000  0.83367000  0.82975000  1.0
  C  C44  1  0.28641000  0.14829000  0.08939000  1.0
  C  C45  1  0.78639000  0.23768000  0.91061000  1.0
  C  C46  1  0.43029000  0.41092000  0.01301000  1.0
  C  C47  1  0.93029000  0.42393000  0.98699000  1.0
  C  C48  1  0.25487000  0.28753000  0.26352000  1.0
  C  C49  1  0.75486000  0.55105000  0.73649000  1.0
  N  N50  1  0.17155000  0.61895000  0.36432000  1.0
  N  N51  1  0.67155000  0.98326000  0.63567000  1.0
  N  N52  1  0.89662000  0.75496000  0.15566000  1.0
  N  N53  1  0.39661000  0.91062000  0.84434000  1.0
  N  N54  1  0.24686000  0.86667000  0.92388000  1.0
  N  N55  1  0.74686000  0.79056000  0.07611000  1.0
  N  N56  1  0.32347000  0.27512000  0.12174000  1.0
  N  N57  1  0.82347000  0.39686000  0.87827000  1.0
  O  O58  1  0.18826000  0.03266000  0.17313000  1.0
  O  O59  1  0.68825000  0.20579000  0.82688000  1.0
