# generated using pymatgen
data_TbH10C8SO10
_symmetry_space_group_name_H-M   'P 1'
_cell_length_a   7.71977000
_cell_length_b   8.39789000
_cell_length_c   10.61370000
_cell_angle_alpha   71.87740000
_cell_angle_beta   89.70130000
_cell_angle_gamma   69.24780000
_symmetry_Int_Tables_number   1
_chemical_formula_structural   TbH10C8SO10
_chemical_formula_sum   'Tb2 H20 C16 S2 O20'
_cell_volume   607.23990739
_cell_formula_units_Z   2
loop_
 _symmetry_equiv_pos_site_id
 _symmetry_equiv_pos_as_xyz
  1  'x, y, z'
loop_
 _atom_site_type_symbol
 _atom_site_label
 _atom_site_symmetry_multiplicity
 _atom_site_fract_x
 _atom_site_fract_y
 _atom_site_fract_z
 _atom_site_occupancy
  Tb  Tb0  1  0.32054000  0.29585000  0.37493000  1.0
  Tb  Tb1  1  0.67946000  0.70416000  0.62506000  1.0
  H  H2  1  0.90885000  0.38603000  0.37676000  1.0
  H  H3  1  0.09115000  0.61397000  0.62324000  1.0
  H  H4  1  0.91878000  0.57344000  0.37646000  1.0
  H  H5  1  0.08122000  0.42656000  0.62354000  1.0
  H  H6  1  0.03041000  0.43694000  0.14206000  1.0
  H  H7  1  0.96959000  0.56305000  0.85794000  1.0
  H  H8  1  0.20413000  0.45544000  0.06406000  1.0
  H  H9  1  0.79588000  0.54456000  0.93594000  1.0
  H  H10  1  0.05938000  0.10534000  0.35921000  1.0
  H  H11  1  0.94061000  0.89467000  0.64078000  1.0
  H  H12  1  0.26389000  0.94687000  0.41861000  1.0
  H  H13  1  0.73611000  0.05314000  0.58139000  1.0
  H  H14  1  0.76035000  0.32966000  0.92372000  1.0
  H  H15  1  0.23965000  0.67033000  0.07628000  1.0
  H  H16  1  0.77953000  0.12150000  0.80102000  1.0
  H  H17  1  0.22046000  0.87849000  0.19899000  1.0
  H  H18  1  0.75904000  0.82266000  0.91848000  1.0
  H  H19  1  0.24098000  0.17732000  0.08153000  1.0
  H  H20  1  0.72072000  0.73602000  0.15988000  1.0
  H  H21  1  0.27930000  0.26397000  0.84013000  1.0
  C  C22  1  0.67561000  0.92967000  0.32134000  1.0
  C  C23  1  0.32439000  0.07034000  0.67866000  1.0
  C  C24  1  0.71391000  0.98557000  0.17939000  1.0
  C  C25  1  0.28610000  0.01443000  0.82062000  1.0
  C  C26  1  0.72352000  0.15536000  0.11091000  1.0
  C  C27  1  0.27649000  0.84464000  0.88909000  1.0
  C  C28  1  0.74963000  0.20099000  0.97605000  1.0
  C  C29  1  0.25037000  0.79900000  0.02396000  1.0
  C  C30  1  0.76151000  0.08194000  0.90668000  1.0
  C  C31  1  0.23849000  0.91805000  0.09332000  1.0
  C  C32  1  0.75112000  0.91486000  0.97291000  1.0
  C  C33  1  0.24889000  0.08513000  0.02710000  1.0
  C  C34  1  0.72997000  0.86647000  0.10848000  1.0
  C  C35  1  0.27004000  0.13352000  0.89153000  1.0
  C  C36  1  0.58388000  0.41128000  0.53580000  1.0
  C  C37  1  0.41610000  0.58873000  0.46418000  1.0
  S  S38  1  0.71138000  0.31616000  0.19191000  1.0
  S  S39  1  0.28861000  0.68384000  0.80809000  1.0
  O  O40  1  0.55575000  0.04407000  0.36312000  1.0
  O  O41  1  0.44426000  0.95593000  0.63688000  1.0
  O  O42  1  0.75940000  0.76641000  0.39647000  1.0
  O  O43  1  0.24060000  0.23359000  0.60354000  1.0
  O  O44  1  0.51482000  0.40279000  0.21123000  1.0
  O  O45  1  0.48518000  0.59722000  0.78876000  1.0
  O  O46  1  0.83086000  0.21759000  0.32042000  1.0
  O  O47  1  0.16913000  0.78242000  0.67958000  1.0
  O  O48  1  0.78010000  0.44902000  0.10262000  1.0
  O  O49  1  0.21991000  0.55098000  0.89737000  1.0
  O  O50  1  0.57748000  0.27010000  0.51934000  1.0
  O  O51  1  0.42251000  0.72993000  0.48065000  1.0
  O  O52  1  0.71201000  0.42135000  0.60282000  1.0
  O  O53  1  0.28799000  0.57868000  0.39717000  1.0
  O  O54  1  0.99186000  0.45290000  0.36932000  1.0
  O  O55  1  0.00813000  0.54710000  0.63068000  1.0
  O  O56  1  0.16469000  0.41337000  0.15332000  1.0
  O  O57  1  0.83531000  0.58663000  0.84668000  1.0
  O  O58  1  0.19365000  0.07915000  0.37882000  1.0
  O  O59  1  0.80635000  0.92086000  0.62118000  1.0
