# generated using pymatgen
data_NaH6C2N7O2
_symmetry_space_group_name_H-M   'P 1'
_cell_length_a   7.06937000
_cell_length_b   8.82859000
_cell_length_c   12.49787816
_cell_angle_alpha   70.12794350
_cell_angle_beta   84.45012394
_cell_angle_gamma   67.69430000
_symmetry_Int_Tables_number   1
_chemical_formula_structural   NaH6C2N7O2
_chemical_formula_sum   'Na4 H24 C8 N28 O8'
_cell_volume   678.21726543
_cell_formula_units_Z   4
loop_
 _symmetry_equiv_pos_site_id
 _symmetry_equiv_pos_as_xyz
  1  'x, y, z'
loop_
 _atom_site_type_symbol
 _atom_site_label
 _atom_site_symmetry_multiplicity
 _atom_site_fract_x
 _atom_site_fract_y
 _atom_site_fract_z
 _atom_site_occupancy
  Na  Na0  1  0.72640000  0.27728000  0.42188000  1.0
  Na  Na1  1  0.27360000  0.72273000  0.57812000  1.0
  Na  Na2  1  0.98777000  0.71055000  0.02916000  1.0
  Na  Na3  1  0.01223000  0.28945000  0.97084000  1.0
  H  H4  1  0.56161000  0.00485000  0.40055000  1.0
  H  H5  1  0.43840000  0.99514000  0.59945000  1.0
  H  H6  1  0.80362000  0.90562000  0.45680000  1.0
  H  H7  1  0.19640000  0.09438000  0.54320000  1.0
  H  H8  1  0.81240000  0.62636000  0.26627000  1.0
  H  H9  1  0.18760000  0.37364000  0.73373000  1.0
  H  H10  1  0.75125000  0.68678000  0.38956000  1.0
  H  H11  1  0.24875000  0.31322000  0.61044000  1.0
  H  H12  1  0.48027000  0.30086000  0.87338000  1.0
  H  H13  1  0.51973000  0.69915000  0.12662000  1.0
  H  H14  1  0.71735000  0.17327000  0.93695000  1.0
  H  H15  1  0.28265000  0.82673000  0.06305000  1.0
  H  H16  1  0.65771000  0.73012000  0.87642000  1.0
  H  H17  1  0.34228000  0.26989000  0.12358000  1.0
  H  H18  1  0.56579000  0.87199000  0.95532000  1.0
  H  H19  1  0.43422000  0.12801000  0.04468000  1.0
  H  H20  1  0.14733000  0.19678000  0.35860000  1.0
  H  H21  1  0.85266000  0.80322000  0.64140000  1.0
  H  H22  1  0.14490000  0.33482000  0.41479000  1.0
  H  H23  1  0.85509000  0.66518000  0.58521000  1.0
  H  H24  1  0.13095000  0.43959000  0.22270000  1.0
  H  H25  1  0.86904000  0.56042000  0.77730000  1.0
  H  H26  1  0.29734000  0.51102000  0.22748000  1.0
  H  H27  1  0.70266000  0.48898000  0.77252000  1.0
  C  C28  1  0.80458000  0.13186000  0.19849000  1.0
  C  C29  1  0.19543000  0.86814000  0.80151000  1.0
  C  C30  1  0.81810000  0.86284000  0.24633000  1.0
  C  C31  1  0.18190000  0.13715000  0.75367000  1.0
  C  C32  1  0.68838000  0.21746000  0.69402000  1.0
  C  C33  1  0.31162000  0.78254000  0.30598000  1.0
  C  C34  1  0.67172000  0.96649000  0.79968000  1.0
  C  C35  1  0.32828000  0.03352000  0.20032000  1.0
  N  N36  1  0.87329000  0.91020000  0.13834000  1.0
  N  N37  1  0.12671000  0.08980000  0.86166000  1.0
  N  N38  1  0.86298000  0.08102000  0.10852000  1.0
  N  N39  1  0.13702000  0.91898000  0.89148000  1.0
  N  N40  1  0.77015000  0.28740000  0.21469000  1.0
  N  N41  1  0.22985000  0.71260000  0.78531000  1.0
  N  N42  1  0.83128000  0.39062000  0.13164000  1.0
  N  N43  1  0.16872000  0.60938000  0.86836000  1.0
  N  N44  1  0.77492000  0.99866000  0.28735000  1.0
  N  N45  1  0.22509000  0.00135000  0.71264000  1.0
  N  N46  1  0.70577000  0.00905000  0.39394000  1.0
  N  N47  1  0.29424000  0.99095000  0.60606000  1.0
  N  N48  1  0.80750000  0.70891000  0.30840000  1.0
  N  N49  1  0.19250000  0.29109000  0.69160000  1.0
  N  N50  1  0.71915000  0.96093000  0.69487000  1.0
  N  N51  1  0.28085000  0.03908000  0.30513000  1.0
  N  N52  1  0.73158000  0.11953000  0.62857000  1.0
  N  N53  1  0.26842000  0.88048000  0.37142000  1.0
  N  N54  1  0.67052000  0.38746000  0.66790000  1.0
  N  N55  1  0.32948000  0.61254000  0.33210000  1.0
  N  N56  1  0.69082000  0.45888000  0.56044000  1.0
  N  N57  1  0.30918000  0.54112000  0.43956000  1.0
  N  N58  1  0.65059000  0.12567000  0.80289000  1.0
  N  N59  1  0.34941000  0.87433000  0.19711000  1.0
  N  N60  1  0.59253000  0.17814000  0.89805000  1.0
  N  N61  1  0.40747000  0.82185000  0.10196000  1.0
  N  N62  1  0.65985000  0.83581000  0.89299000  1.0
  N  N63  1  0.34015000  0.16418000  0.10702000  1.0
  O  O64  1  0.79678000  0.53933000  0.14360000  1.0
  O  O65  1  0.20321000  0.46067000  0.85640000  1.0
  O  O66  1  0.67364000  0.61893000  0.53383000  1.0
  O  O67  1  0.32635000  0.38107000  0.46617000  1.0
  O  O68  1  0.05689000  0.28052000  0.39791000  1.0
  O  O69  1  0.94311000  0.71948000  0.60209000  1.0
  O  O70  1  0.23545000  0.47609000  0.17594000  1.0
  O  O71  1  0.76456000  0.52390000  0.82407000  1.0
