# generated using pymatgen
data_TlH9C8O
_symmetry_space_group_name_H-M   'P 1'
_cell_length_a   6.87122000
_cell_length_b   14.41730000
_cell_length_c   14.41730000
_cell_angle_alpha   117.46900000
_cell_angle_beta   99.13090000
_cell_angle_gamma   99.13010000
_symmetry_Int_Tables_number   1
_chemical_formula_structural   TlH9C8O
_chemical_formula_sum   'Tl6 H54 C48 O6'
_cell_volume   1206.53910795
_cell_formula_units_Z   6
loop_
 _symmetry_equiv_pos_site_id
 _symmetry_equiv_pos_as_xyz
  1  'x, y, z'
loop_
 _atom_site_type_symbol
 _atom_site_label
 _atom_site_symmetry_multiplicity
 _atom_site_fract_x
 _atom_site_fract_y
 _atom_site_fract_z
 _atom_site_occupancy
  Tl  Tl0  1  0.40486000  0.74746000  0.13122000  1.0
  Tl  Tl1  1  0.65680000  0.38434000  0.25294000  1.0
  Tl  Tl2  1  0.15681000  0.25295000  0.38434000  1.0
  Tl  Tl3  1  0.27375000  0.86864000  0.61581000  1.0
  Tl  Tl4  1  0.90489000  0.13123000  0.74747000  1.0
  Tl  Tl5  1  0.77376000  0.61581000  0.86864000  1.0
  H  H6  1  0.25468000  0.02377000  0.31127000  1.0
  H  H7  1  0.23127000  0.28738000  0.97630000  1.0
  H  H8  1  0.73130000  0.97631000  0.28738000  1.0
  H  H9  1  0.94503000  0.68890000  0.71289000  1.0
  H  H10  1  0.75471000  0.31128000  0.02379000  1.0
  H  H11  1  0.44504000  0.71289000  0.68889000  1.0
  H  H12  1  0.33699000  0.94313000  0.42623000  1.0
  H  H13  1  0.39463000  0.48271000  0.05645000  1.0
  H  H14  1  0.89467000  0.05646000  0.48271000  1.0
  H  H15  1  0.91287000  0.57391000  0.51755000  1.0
  H  H16  1  0.83700000  0.42622000  0.94313000  1.0
  H  H17  1  0.41288000  0.51755000  0.57390000  1.0
  H  H18  1  0.15730000  0.75005000  0.36178000  1.0
  H  H19  1  0.40754000  0.61146000  0.24941000  1.0
  H  H20  1  0.90755000  0.24942000  0.61146000  1.0
  H  H21  1  0.79647000  0.63804000  0.38865000  1.0
  H  H22  1  0.65733000  0.36177000  0.75005000  1.0
  H  H23  1  0.29651000  0.38865000  0.63804000  1.0
  H  H24  1  0.91827000  0.58543000  0.23432000  1.0
  H  H25  1  0.33403000  0.64873000  0.41437000  1.0
  H  H26  1  0.83404000  0.41437000  0.64873000  1.0
  H  H27  1  0.68439000  0.76533000  0.35109000  1.0
  H  H28  1  0.41832000  0.23430000  0.58543000  1.0
  H  H29  1  0.18442000  0.35109000  0.76532000  1.0
  H  H30  1  0.89583000  0.55551000  0.09878000  1.0
  H  H31  1  0.33718000  0.54273000  0.44423000  1.0
  H  H32  1  0.83718000  0.44423000  0.54272000  1.0
  H  H33  1  0.79648000  0.90098000  0.45640000  1.0
  H  H34  1  0.39589000  0.09877000  0.55552000  1.0
  H  H35  1  0.29650000  0.45640000  0.90096000  1.0
  H  H36  1  0.69753000  0.59424000  0.15800000  1.0
  H  H37  1  0.10234000  0.56495000  0.40517000  1.0
  H  H38  1  0.60233000  0.40517000  0.56495000  1.0
  H  H39  1  0.53931000  0.84134000  0.43592000  1.0
  H  H40  1  0.19757000  0.15798000  0.59423000  1.0
  H  H41  1  0.03935000  0.43592000  0.84134000  1.0
  H  H42  1  0.03598000  0.01866000  0.15974000  1.0
  H  H43  1  0.01719000  0.14142000  0.98175000  1.0
  H  H44  1  0.51717000  0.98175000  0.14142000  1.0
  H  H45  1  0.87724000  0.84032000  0.85890000  1.0
  H  H46  1  0.53600000  0.15975000  0.01867000  1.0
  H  H47  1  0.37723000  0.85890000  0.84031000  1.0
  H  H48  1  0.80561000  0.91266000  0.08364000  1.0
  H  H49  1  0.89249000  0.17155000  0.08777000  1.0
  H  H50  1  0.39248000  0.08777000  0.17156000  1.0
  H  H51  1  0.72218000  0.91612000  0.82872000  1.0
  H  H52  1  0.30563000  0.08365000  0.91267000  1.0
  H  H53  1  0.22217000  0.82872000  0.91610000  1.0
  H  H54  1  0.03286000  0.89653000  0.04403000  1.0
  H  H55  1  0.13560000  0.14774000  0.10403000  1.0
  H  H56  1  0.63556000  0.10402000  0.14774000  1.0
  H  H57  1  0.98899000  0.95616000  0.85230000  1.0
  H  H58  1  0.53287000  0.04404000  0.89655000  1.0
  H  H59  1  0.48899000  0.85230000  0.95615000  1.0
  C  C60  1  0.91058000  0.77390000  0.15109000  1.0
  C  C61  1  0.13630000  0.37741000  0.22617000  1.0
  C  C62  1  0.63631000  0.22618000  0.37742000  1.0
  C  C63  1  0.76017000  0.84882000  0.62273000  1.0
  C  C64  1  0.41060000  0.15109000  0.77391000  1.0
  C  C65  1  0.26018000  0.62273000  0.84881000  1.0
  C  C66  1  0.02098000  0.88209000  0.18574000  1.0
  C  C67  1  0.13877000  0.30384000  0.11810000  1.0
  C  C68  1  0.63877000  0.11811000  0.30384000  1.0
  C  C69  1  0.83618000  0.81427000  0.69636000  1.0
  C  C70  1  0.52101000  0.18574000  0.88210000  1.0
  C  C71  1  0.33618000  0.69637000  0.81427000  1.0
  C  C72  1  0.17157000  0.94085000  0.28455000  1.0
  C  C73  1  0.23095000  0.34364000  0.05915000  1.0
  C  C74  1  0.73096000  0.05916000  0.34366000  1.0
  C  C75  1  0.88841000  0.71553000  0.65658000  1.0
  C  C76  1  0.67158000  0.28455000  0.94087000  1.0
  C  C77  1  0.38842000  0.65659000  0.71552000  1.0
  C  C78  1  0.21952000  0.89546000  0.34955000  1.0
  C  C79  1  0.32441000  0.45392000  0.10426000  1.0
  C  C80  1  0.82443000  0.10426000  0.45391000  1.0
  C  C81  1  0.87154000  0.65049000  0.54634000  1.0
  C  C82  1  0.71954000  0.34955000  0.89548000  1.0
  C  C83  1  0.37156000  0.54634000  0.65048000  1.0
  C  C84  1  0.11879000  0.78801000  0.31344000  1.0
  C  C85  1  0.33075000  0.52530000  0.21158000  1.0
  C  C86  1  0.83076000  0.21160000  0.52531000  1.0
  C  C87  1  0.80633000  0.68644000  0.47485000  1.0
  C  C88  1  0.61880000  0.31344000  0.78801000  1.0
  C  C89  1  0.30637000  0.47486000  0.68642000  1.0
  C  C90  1  0.96791000  0.72595000  0.21507000  1.0
  C  C91  1  0.24153000  0.48919000  0.27381000  1.0
  C  C92  1  0.74153000  0.27381000  0.48919000  1.0
  C  C93  1  0.75339000  0.78475000  0.51091000  1.0
  C  C94  1  0.46795000  0.21507000  0.72595000  1.0
  C  C95  1  0.25341000  0.51092000  0.78474000  1.0
  C  C96  1  0.86452000  0.60986000  0.17532000  1.0
  C  C97  1  0.25386000  0.56558000  0.38979000  1.0
  C  C98  1  0.75386000  0.38978000  0.56558000  1.0
  C  C99  1  0.68929000  0.82431000  0.43437000  1.0
  C  C100  1  0.36455000  0.17530000  0.60986000  1.0
  C  C101  1  0.18932000  0.43436000  0.82430000  1.0
  C  C102  1  0.97131000  0.93042000  0.11534000  1.0
  C  C103  1  0.04060000  0.18525000  0.06999000  1.0
  C  C104  1  0.54058000  0.06999000  0.18525000  1.0
  C  C105  1  0.85657000  0.88465000  0.81492000  1.0
  C  C106  1  0.47133000  0.11535000  0.93044000  1.0
  C  C107  1  0.35656000  0.81492000  0.88464000  1.0
  O  O108  1  0.75518000  0.71952000  0.06242000  1.0
  O  O109  1  0.03516000  0.34334000  0.28072000  1.0
  O  O110  1  0.53515000  0.28072000  0.34333000  1.0
  O  O111  1  0.69304000  0.93741000  0.65679000  1.0
  O  O112  1  0.25520000  0.06243000  0.71954000  1.0
  O  O113  1  0.19304000  0.65679000  0.93740000  1.0
