# generated using pymatgen
data_CaH4(C2O3)2
_symmetry_space_group_name_H-M   'P 1'
_cell_length_a   7.91723000
_cell_length_b   9.46901000
_cell_length_c   9.63721286
_cell_angle_alpha   118.12796644
_cell_angle_beta   114.25401714
_cell_angle_gamma   89.99200000
_symmetry_Int_Tables_number   1
_chemical_formula_structural   CaH4(C2O3)2
_chemical_formula_sum   'Ca4 H16 C16 O24'
_cell_volume   563.84152711
_cell_formula_units_Z   4
loop_
 _symmetry_equiv_pos_site_id
 _symmetry_equiv_pos_as_xyz
  1  'x, y, z'
loop_
 _atom_site_type_symbol
 _atom_site_label
 _atom_site_symmetry_multiplicity
 _atom_site_fract_x
 _atom_site_fract_y
 _atom_site_fract_z
 _atom_site_occupancy
  Ca  Ca0  1  0.85665000  0.29899000  0.24970000  1.0
  Ca  Ca1  1  0.60698000  0.20100000  0.75031000  1.0
  Ca  Ca2  1  0.14335000  0.70101000  0.75030000  1.0
  Ca  Ca3  1  0.39302000  0.79900000  0.24969000  1.0
  H  H4  1  0.83115000  0.64587000  0.85060000  1.0
  H  H5  1  0.98055000  0.85409000  0.14946000  1.0
  H  H6  1  0.16885000  0.35413000  0.14940000  1.0
  H  H7  1  0.01945000  0.14591000  0.85054000  1.0
  H  H8  1  0.46789000  0.56141000  0.73476000  1.0
  H  H9  1  0.73305000  0.93848000  0.26514000  1.0
  H  H10  1  0.53211000  0.43859000  0.26524000  1.0
  H  H11  1  0.26695000  0.06152000  0.73486000  1.0
  H  H12  1  0.75965000  0.84928000  0.69191000  1.0
  H  H13  1  0.06777000  0.65064000  0.30812000  1.0
  H  H14  1  0.24035000  0.15072000  0.30809000  1.0
  H  H15  1  0.93223000  0.34935000  0.69188000  1.0
  H  H16  1  0.49658000  0.61439000  0.54457000  1.0
  H  H17  1  0.95191000  0.88565000  0.45548000  1.0
  H  H18  1  0.50342000  0.38561000  0.45543000  1.0
  H  H19  1  0.04809000  0.11435000  0.54452000  1.0
  C  C20  1  0.77936000  0.96636000  0.94878000  1.0
  C  C21  1  0.83061000  0.53364000  0.05131000  1.0
  C  C22  1  0.22064000  0.03364000  0.05122000  1.0
  C  C23  1  0.16939000  0.46636000  0.94869000  1.0
  C  C24  1  0.73519000  0.80879000  0.77310000  1.0
  C  C25  1  0.96212000  0.69118000  0.22699000  1.0
  C  C26  1  0.26481000  0.19121000  0.22690000  1.0
  C  C27  1  0.03787000  0.30882000  0.77301000  1.0
  C  C28  1  0.52078000  0.72325000  0.67153000  1.0
  C  C29  1  0.84925000  0.77675000  0.32854000  1.0
  C  C30  1  0.47922000  0.27674000  0.32847000  1.0
  C  C31  1  0.15075000  0.22325000  0.67146000  1.0
  C  C32  1  0.40096000  0.83543000  0.62410000  1.0
  C  C33  1  0.77687000  0.66458000  0.37595000  1.0
  C  C34  1  0.59904000  0.16456000  0.37590000  1.0
  C  C35  1  0.22313000  0.33542000  0.62405000  1.0
  O  O36  1  0.70074000  0.08084000  0.93612000  1.0
  O  O37  1  0.76466000  0.41914000  0.06393000  1.0
  O  O38  1  0.29926000  0.91916000  0.06388000  1.0
  O  O39  1  0.23534000  0.58086000  0.93607000  1.0
  O  O40  1  0.88861000  0.98347000  0.09774000  1.0
  O  O41  1  0.79084000  0.51655000  0.90234000  1.0
  O  O42  1  0.11139000  0.01653000  0.90226000  1.0
  O  O43  1  0.20916000  0.48345000  0.09766000  1.0
  O  O44  1  0.85542000  0.70103000  0.79039000  1.0
  O  O45  1  0.06502000  0.79893000  0.20970000  1.0
  O  O46  1  0.14458000  0.29897000  0.20961000  1.0
  O  O47  1  0.93498000  0.20107000  0.79030000  1.0
  O  O48  1  0.46312000  0.67837000  0.76963000  1.0
  O  O49  1  0.69343000  0.82152000  0.23026000  1.0
  O  O50  1  0.53688000  0.32163000  0.23037000  1.0
  O  O51  1  0.30657000  0.17848000  0.76974000  1.0
  O  O52  1  0.26501000  0.85993000  0.66318000  1.0
  O  O53  1  0.60182000  0.64010000  0.33681000  1.0
  O  O54  1  0.73499000  0.14007000  0.33682000  1.0
  O  O55  1  0.39818000  0.35990000  0.66319000  1.0
  O  O56  1  0.44491000  0.89860000  0.54859000  1.0
  O  O57  1  0.89626000  0.60136000  0.45145000  1.0
  O  O58  1  0.55509000  0.10140000  0.45141000  1.0
  O  O59  1  0.10374000  0.39864000  0.54855000  1.0
