# generated using pymatgen
data_Zr3H37C54NO16
_symmetry_space_group_name_H-M   'P 1'
_cell_length_a   19.01960000
_cell_length_b   19.02501298
_cell_length_c   19.02000378
_cell_angle_alpha   59.98406715
_cell_angle_beta   90.02646860
_cell_angle_gamma   119.99376409
_symmetry_Int_Tables_number   1
_chemical_formula_structural   Zr3H37C54NO16
_chemical_formula_sum   'Zr6 H74 C108 N2 O32'
_cell_volume   4866.96828336
_cell_formula_units_Z   2
loop_
 _symmetry_equiv_pos_site_id
 _symmetry_equiv_pos_as_xyz
  1  'x, y, z'
loop_
 _atom_site_type_symbol
 _atom_site_label
 _atom_site_symmetry_multiplicity
 _atom_site_fract_x
 _atom_site_fract_y
 _atom_site_fract_z
 _atom_site_occupancy
  Zr  Zr0  1  0.40683000  0.50028000  0.40663000  1.0
  Zr  Zr1  1  0.59307000  0.50092000  0.59227000  1.0
  Zr  Zr2  1  0.59269000  0.68633000  0.40631000  1.0
  Zr  Zr3  1  0.40737000  0.31484000  0.59246000  1.0
  Zr  Zr4  1  0.40704000  0.50051000  0.59238000  1.0
  Zr  Zr5  1  0.59290000  0.50052000  0.40656000  1.0
  H  H6  1  0.42651000  0.64658000  0.42623000  1.0
  H  H7  1  0.42715000  0.35460000  0.71888000  1.0
  H  H8  1  0.71933000  0.64696000  0.42611000  1.0
  H  H9  1  0.42694000  0.35415000  0.42649000  1.0
  H  H10  1  0.83136000  0.52020000  0.60138000  1.0
  H  H11  1  0.80828000  0.47378000  0.40139000  1.0
  H  H12  1  0.18814000  0.52012000  0.37810000  1.0
  H  H13  1  0.16468000  0.47328000  0.62469000  1.0
  H  H14  1  0.03523000  0.61028000  0.57756000  1.0
  H  H15  1  0.94068000  0.51445000  0.66895000  1.0
  H  H16  1  0.92474000  0.38910000  0.42125000  1.0
  H  H17  1  0.92639000  0.48585000  0.33049000  1.0
  H  H18  1  0.07448000  0.61040000  0.31187000  1.0
  H  H19  1  0.07328000  0.51468000  0.31618000  1.0
  H  H20  1  0.96377000  0.38902000  0.68952000  1.0
  H  H21  1  0.05886000  0.48583000  0.68335000  1.0
  H  H22  1  0.60149000  0.48031000  0.83108000  1.0
  H  H23  1  0.40172000  0.52713000  0.80799000  1.0
  H  H24  1  0.37820000  0.48018000  0.18806000  1.0
  H  H25  1  0.62465000  0.52668000  0.16474000  1.0
  H  H26  1  0.57731000  0.38960000  0.03520000  1.0
  H  H27  1  0.66877000  0.48536000  0.94075000  1.0
  H  H28  1  0.42112000  0.61107000  0.92485000  1.0
  H  H29  1  0.33051000  0.51434000  0.92643000  1.0
  H  H30  1  0.31194000  0.38972000  0.07444000  1.0
  H  H31  1  0.31617000  0.48534000  0.07338000  1.0
  H  H32  1  0.68943000  0.61080000  0.96393000  1.0
  H  H33  1  0.68316000  0.51382000  0.05903000  1.0
  H  H34  1  0.83160000  0.71039000  0.18816000  1.0
  H  H35  1  0.80840000  0.93395000  0.16401000  1.0
  H  H36  1  0.18868000  0.29042000  0.83127000  1.0
  H  H37  1  0.16512000  0.06709000  0.80818000  1.0
  H  H38  1  0.03565000  0.84798000  0.07474000  1.0
  H  H39  1  0.94115000  0.75777000  0.07347000  1.0
  H  H40  1  0.92513000  0.11515000  0.96351000  1.0
  H  H41  1  0.92686000  0.11078000  0.05849000  1.0
  H  H42  1  0.07493000  0.15272000  0.03521000  1.0
  H  H43  1  0.07379000  0.24300000  0.94062000  1.0
  H  H44  1  0.96422000  0.88571000  0.92480000  1.0
  H  H45  1  0.05927000  0.89003000  0.92669000  1.0
  H  H46  1  0.37854000  0.71040000  0.60129000  1.0
  H  H47  1  0.62498000  0.93374000  0.40159000  1.0
  H  H48  1  0.60160000  0.29041000  0.37814000  1.0
  H  H49  1  0.40214000  0.06708000  0.62484000  1.0
  H  H50  1  0.31227000  0.84781000  0.57775000  1.0
  H  H51  1  0.31683000  0.75779000  0.66913000  1.0
  H  H52  1  0.68971000  0.11508000  0.42133000  1.0
  H  H53  1  0.68366000  0.11068000  0.33063000  1.0
  H  H54  1  0.57757000  0.15264000  0.31200000  1.0
  H  H55  1  0.66899000  0.24294000  0.31625000  1.0
  H  H56  1  0.42171000  0.88586000  0.68971000  1.0
  H  H57  1  0.33105000  0.89012000  0.68360000  1.0
  H  H58  1  0.61474000  0.29193000  0.81998000  1.0
  H  H59  1  0.67962000  0.24476000  0.93282000  1.0
  H  H60  1  0.39323000  0.07051000  0.81429000  1.0
  H  H61  1  0.38807000  0.70950000  0.17593000  1.0
  H  H62  1  0.32244000  0.75671000  0.06384000  1.0
  H  H63  1  0.61534000  0.93096000  0.17587000  1.0
  H  H64  1  0.83182000  0.93420000  0.37742000  1.0
  H  H65  1  0.80833000  0.71089000  0.62399000  1.0
  H  H66  1  0.18837000  0.06697000  0.60148000  1.0
  H  H67  1  0.16490000  0.29005000  0.40166000  1.0
  H  H68  1  0.03592000  0.11385000  0.31163000  1.0
  H  H69  1  0.94145000  0.11089000  0.31560000  1.0
  H  H70  1  0.92477000  0.84645000  0.68921000  1.0
  H  H71  1  0.92672000  0.75777000  0.68279000  1.0
  H  H72  1  0.07483000  0.88727000  0.57728000  1.0
  H  H73  1  0.07334000  0.89013000  0.66882000  1.0
  H  H74  1  0.96397000  0.15403000  0.42093000  1.0
  H  H75  1  0.05918000  0.24311000  0.33038000  1.0
  H  H76  1  0.68438000  0.07278000  0.13156000  1.0
  H  H77  1  0.73301000  0.19323000  0.04872000  1.0
  H  H78  1  0.29608000  0.92883000  0.88664000  1.0
  H  H79  1  0.25807000  0.80828000  0.95885000  1.0
  C  C80  1  0.26124000  0.49563000  0.50180000  1.0
  C  C81  1  0.50242000  0.50519000  0.73341000  1.0
  C  C82  1  0.73399000  0.49611000  0.50187000  1.0
  C  C83  1  0.50197000  0.50480000  0.26108000  1.0
  C  C84  1  0.50171000  0.73644000  0.26061000  1.0
  C  C85  1  0.26151000  0.26383000  0.50218000  1.0
  C  C86  1  0.50301000  0.26490000  0.73341000  1.0
  C  C87  1  0.73404000  0.73734000  0.50118000  1.0
  C  C88  1  0.50205000  0.73672000  0.50166000  1.0
  C  C89  1  0.73394000  0.73675000  0.26083000  1.0
  C  C90  1  0.50244000  0.26427000  0.50186000  1.0
  C  C91  1  0.26173000  0.26419000  0.73375000  1.0
  C  C92  1  0.98128000  0.53070000  0.61443000  1.0
  C  C93  1  0.95032000  0.46860000  0.38531000  1.0
  C  C94  1  0.04884000  0.53082000  0.35451000  1.0
  C  C95  1  0.01764000  0.46850000  0.64585000  1.0
  C  C96  1  0.85637000  0.51060000  0.55768000  1.0
  C  C97  1  0.93058000  0.51274000  0.55714000  1.0
  C  C98  1  0.84335000  0.48439000  0.44453000  1.0
  C  C99  1  0.91683000  0.48502000  0.44356000  1.0
  C  C100  1  0.15347000  0.51041000  0.43144000  1.0
  C  C101  1  0.08147000  0.51267000  0.42983000  1.0
  C  C102  1  0.14025000  0.48400000  0.57090000  1.0
  C  C103  1  0.06747000  0.48480000  0.57122000  1.0
  C  C104  1  0.81256000  0.49665000  0.50157000  1.0
  C  C105  1  0.96086000  0.49935000  0.50011000  1.0
  C  C106  1  0.18327000  0.49630000  0.50156000  1.0
  C  C107  1  0.03784000  0.49928000  0.50027000  1.0
  C  C108  1  0.61428000  0.46921000  0.98131000  1.0
  C  C109  1  0.38532000  0.53162000  0.95035000  1.0
  C  C110  1  0.35453000  0.46927000  0.04889000  1.0
  C  C111  1  0.64572000  0.53129000  0.01776000  1.0
  C  C112  1  0.55784000  0.48995000  0.85612000  1.0
  C  C113  1  0.55716000  0.48748000  0.93049000  1.0
  C  C114  1  0.44478000  0.51634000  0.84311000  1.0
  C  C115  1  0.44366000  0.51537000  0.91676000  1.0
  C  C116  1  0.43146000  0.48970000  0.15349000  1.0
  C  C117  1  0.42982000  0.48734000  0.08154000  1.0
  C  C118  1  0.57086000  0.51596000  0.14031000  1.0
  C  C119  1  0.57112000  0.51505000  0.06760000  1.0
  C  C120  1  0.50188000  0.50421000  0.81220000  1.0
  C  C121  1  0.50014000  0.50084000  0.96083000  1.0
  C  C122  1  0.50159000  0.50384000  0.18327000  1.0
  C  C123  1  0.50023000  0.50070000  0.03791000  1.0
  C  C124  1  0.98170000  0.83665000  0.04904000  1.0
  C  C125  1  0.95080000  0.09711000  0.01738000  1.0
  C  C126  1  0.04933000  0.16409000  0.98119000  1.0
  C  C127  1  0.01807000  0.90372000  0.95049000  1.0
  C  C128  1  0.85662000  0.78871000  0.15343000  1.0
  C  C129  1  0.93094000  0.86128000  0.08153000  1.0
  C  C130  1  0.84355000  0.91515000  0.13987000  1.0
  C  C131  1  0.91722000  0.98895000  0.06726000  1.0
  C  C132  1  0.15402000  0.21212000  0.85627000  1.0
  C  C133  1  0.08200000  0.13952000  0.93051000  1.0
  C  C134  1  0.14075000  0.08575000  0.84333000  1.0
  C  C135  1  0.06799000  0.01193000  0.91687000  1.0
  C  C136  1  0.81268000  0.81503000  0.18301000  1.0
  C  C137  1  0.96129000  0.96200000  0.03780000  1.0
  C  C138  1  0.18382000  0.18586000  0.81245000  1.0
  C  C139  1  0.03832000  0.03882000  0.96085000  1.0
  C  C140  1  0.35506000  0.83666000  0.61461000  1.0
  C  C141  1  0.64608000  0.09701000  0.38545000  1.0
  C  C142  1  0.61455000  0.16403000  0.35462000  1.0
  C  C143  1  0.38584000  0.90378000  0.64602000  1.0
  C  C144  1  0.43185000  0.78870000  0.55770000  1.0
  C  C145  1  0.43025000  0.86124000  0.55728000  1.0
  C  C146  1  0.57120000  0.91507000  0.44464000  1.0
  C  C147  1  0.57150000  0.98884000  0.44371000  1.0
  C  C148  1  0.55804000  0.21212000  0.43151000  1.0
  C  C149  1  0.55743000  0.13948000  0.42994000  1.0
  C  C150  1  0.44515000  0.08581000  0.57098000  1.0
  C  C151  1  0.44405000  0.01192000  0.57134000  1.0
  C  C152  1  0.50187000  0.81499000  0.50154000  1.0
  C  C153  1  0.50063000  0.96194000  0.50026000  1.0
  C  C154  1  0.50207000  0.18588000  0.50165000  1.0
  C  C155  1  0.50050000  0.03880000  0.50040000  1.0
  C  C156  1  0.56585000  0.21329000  0.84936000  1.0
  C  C157  1  0.56659000  0.14028000  0.92328000  1.0
  C  C158  1  0.63061000  0.16593000  0.96211000  1.0
  C  C159  1  0.43937000  0.08629000  0.84753000  1.0
  C  C160  1  0.43683000  0.01088000  0.92181000  1.0
  C  C161  1  0.37105000  0.90631000  0.96104000  1.0
  C  C162  1  0.43737000  0.78814000  0.14618000  1.0
  C  C163  1  0.43647000  0.86116000  0.07242000  1.0
  C  C164  1  0.37204000  0.83552000  0.03400000  1.0
  C  C165  1  0.56621000  0.91512000  0.14564000  1.0
  C  C166  1  0.56735000  0.99055000  0.07276000  1.0
  C  C167  1  0.63274000  0.09513000  0.03393000  1.0
  C  C168  1  0.50304000  0.18652000  0.81189000  1.0
  C  C169  1  0.50122000  0.03761000  0.96042000  1.0
  C  C170  1  0.50161000  0.81488000  0.18222000  1.0
  C  C171  1  0.50204000  0.96384000  0.03509000  1.0
  C  C172  1  0.98186000  0.09682000  0.35414000  1.0
  C  C173  1  0.95053000  0.83644000  0.64544000  1.0
  C  C174  1  0.04906000  0.90419000  0.61422000  1.0
  C  C175  1  0.01796000  0.16438000  0.38512000  1.0
  C  C176  1  0.85674000  0.91542000  0.43083000  1.0
  C  C177  1  0.93099000  0.98887000  0.42936000  1.0
  C  C178  1  0.84351000  0.78910000  0.57026000  1.0
  C  C179  1  0.91706000  0.86140000  0.57071000  1.0
  C  C180  1  0.15369000  0.08567000  0.55781000  1.0
  C  C181  1  0.08171000  0.01212000  0.55710000  1.0
  C  C182  1  0.14047000  0.21187000  0.44472000  1.0
  C  C183  1  0.06773000  0.13948000  0.44355000  1.0
  C  C184  1  0.81276000  0.81551000  0.50090000  1.0
  C  C185  1  0.96116000  0.96197000  0.49989000  1.0
  C  C186  1  0.18351000  0.18556000  0.50181000  1.0
  C  C187  1  0.03809000  0.03895000  0.49998000  1.0
  N  N188  1  0.69840000  0.12166000  0.06793000  1.0
  N  N189  1  0.31056000  0.87978000  0.92188000  1.0
  O  O190  1  0.29267000  0.49704000  0.44128000  1.0
  O  O191  1  0.56163000  0.50401000  0.70327000  1.0
  O  O192  1  0.70408000  0.49785000  0.56078000  1.0
  O  O193  1  0.44144000  0.50337000  0.29255000  1.0
  O  O194  1  0.56111000  0.76553000  0.29182000  1.0
  O  O195  1  0.29311000  0.23486000  0.56120000  1.0
  O  O196  1  0.44270000  0.23574000  0.70316000  1.0
  O  O197  1  0.70398000  0.76632000  0.44062000  1.0
  O  O198  1  0.44156000  0.64618000  0.56068000  1.0
  O  O199  1  0.70393000  0.64617000  0.29241000  1.0
  O  O200  1  0.56139000  0.35481000  0.44124000  1.0
  O  O201  1  0.29307000  0.35473000  0.70360000  1.0
  O  O202  1  0.70273000  0.76567000  0.29129000  1.0
  O  O203  1  0.44295000  0.23538000  0.56187000  1.0
  O  O204  1  0.29242000  0.23527000  0.70275000  1.0
  O  O205  1  0.56191000  0.76572000  0.44192000  1.0
  O  O206  1  0.44178000  0.64590000  0.29178000  1.0
  O  O207  1  0.70296000  0.64679000  0.56128000  1.0
  O  O208  1  0.56234000  0.35542000  0.70283000  1.0
  O  O209  1  0.29199000  0.35437000  0.44264000  1.0
  O  O210  1  0.56204000  0.50543000  0.29166000  1.0
  O  O211  1  0.29196000  0.49527000  0.56174000  1.0
  O  O212  1  0.44286000  0.50563000  0.70230000  1.0
  O  O213  1  0.70287000  0.49558000  0.44235000  1.0
  O  O214  1  0.44767000  0.39577000  0.44726000  1.0
  O  O215  1  0.65693000  0.60537000  0.44696000  1.0
  O  O216  1  0.44785000  0.39606000  0.65646000  1.0
  O  O217  1  0.44745000  0.60511000  0.44702000  1.0
  O  O218  1  0.53853000  0.57784000  0.53784000  1.0
  O  O219  1  0.38430000  0.42332000  0.53810000  1.0
  O  O220  1  0.53875000  0.42357000  0.53807000  1.0
  O  O221  1  0.53837000  0.57759000  0.38366000  1.0
