# generated using pymatgen
data_Tl2H2C4S(NO)2
_symmetry_space_group_name_H-M   'P 1'
_cell_length_a   3.92756000
_cell_length_b   12.82820000
_cell_length_c   15.10210000
_cell_angle_alpha   89.99970000
_cell_angle_beta   83.93580000
_cell_angle_gamma   89.99920000
_symmetry_Int_Tables_number   1
_chemical_formula_structural   Tl2H2C4S(NO)2
_chemical_formula_sum   'Tl8 H8 C16 S4 N8 O8'
_cell_volume   756.63916760
_cell_formula_units_Z   4
loop_
 _symmetry_equiv_pos_site_id
 _symmetry_equiv_pos_as_xyz
  1  'x, y, z'
loop_
 _atom_site_type_symbol
 _atom_site_label
 _atom_site_symmetry_multiplicity
 _atom_site_fract_x
 _atom_site_fract_y
 _atom_site_fract_z
 _atom_site_occupancy
  Tl  Tl0  1  0.49361000  0.32847000  0.93797000  1.0
  Tl  Tl1  1  0.00638000  0.82847000  0.56203000  1.0
  Tl  Tl2  1  0.50639000  0.67153000  0.06203000  1.0
  Tl  Tl3  1  0.99362000  0.17153000  0.43797000  1.0
  Tl  Tl4  1  0.69865000  0.90191000  0.89877000  1.0
  Tl  Tl5  1  0.80135000  0.40191000  0.60123000  1.0
  Tl  Tl6  1  0.30135000  0.09809000  0.10123000  1.0
  Tl  Tl7  1  0.19866000  0.59809000  0.39877000  1.0
  H  H8  1  0.38109000  0.75561000  0.74524000  1.0
  H  H9  1  0.11890000  0.25562000  0.75476000  1.0
  H  H10  1  0.61890000  0.24438000  0.25476000  1.0
  H  H11  1  0.88110000  0.74438000  0.24524000  1.0
  H  H12  1  0.94730000  0.53092000  0.92839000  1.0
  H  H13  1  0.55268000  0.03092000  0.57160000  1.0
  H  H14  1  0.05268000  0.46908000  0.07161000  1.0
  H  H15  1  0.44732000  0.96909000  0.42839000  1.0
  C  C16  1  0.35681000  0.60474000  0.69537000  1.0
  C  C17  1  0.14319000  0.10474000  0.80463000  1.0
  C  C18  1  0.64320000  0.39526000  0.30463000  1.0
  C  C19  1  0.85681000  0.89526000  0.19537000  1.0
  C  C20  1  0.10896000  0.47725000  0.79386000  1.0
  C  C21  1  0.39101000  0.97726000  0.70614000  1.0
  C  C22  1  0.89104000  0.52275000  0.20615000  1.0
  C  C23  1  0.60898000  0.02275000  0.29386000  1.0
  C  C24  1  0.17738000  0.65540000  0.84757000  1.0
  C  C25  1  0.32261000  0.15540000  0.65242000  1.0
  C  C26  1  0.82261000  0.34460000  0.15243000  1.0
  C  C27  1  0.67740000  0.84460000  0.34758000  1.0
  C  C28  1  0.07131000  0.55172000  0.86292000  1.0
  C  C29  1  0.42868000  0.05172000  0.63708000  1.0
  C  C30  1  0.92868000  0.44828000  0.13709000  1.0
  C  C31  1  0.57133000  0.94828000  0.36292000  1.0
  S  S32  1  0.53292000  0.63957000  0.58979000  1.0
  S  S33  1  0.96709000  0.13957000  0.91020000  1.0
  S  S34  1  0.46709000  0.36043000  0.41021000  1.0
  S  S35  1  0.03290000  0.86043000  0.08979000  1.0
  N  N36  1  0.31507000  0.67875000  0.76062000  1.0
  N  N37  1  0.18493000  0.17875000  0.73938000  1.0
  N  N38  1  0.68493000  0.32125000  0.23938000  1.0
  N  N39  1  0.81507000  0.82125000  0.26062000  1.0
  N  N40  1  0.26328000  0.50628000  0.71085000  1.0
  N  N41  1  0.23671000  0.00627000  0.78915000  1.0
  N  N42  1  0.73673000  0.49372000  0.28916000  1.0
  N  N43  1  0.76328000  0.99373000  0.21085000  1.0
  O  O44  1  0.00709000  0.38173000  0.80350000  1.0
  O  O45  1  0.49288000  0.88173000  0.69649000  1.0
  O  O46  1  0.99291000  0.61827000  0.19650000  1.0
  O  O47  1  0.50710000  0.11827000  0.30350000  1.0
  O  O48  1  0.15705000  0.72845000  0.90537000  1.0
  O  O49  1  0.34295000  0.22845000  0.59462000  1.0
  O  O50  1  0.84294000  0.27155000  0.09463000  1.0
  O  O51  1  0.65706000  0.77155000  0.40538000  1.0
