# generated using pymatgen
data_DyH35C21O19
_symmetry_space_group_name_H-M   'P 1'
_cell_length_a   6.14070000
_cell_length_b   9.94967000
_cell_length_c   24.88380000
_cell_angle_alpha   90.00040000
_cell_angle_beta   90.00040000
_cell_angle_gamma   103.93800000
_symmetry_Int_Tables_number   1
_chemical_formula_structural   DyH35C21O19
_chemical_formula_sum   'Dy2 H70 C42 O38'
_cell_volume   1475.58516456
_cell_formula_units_Z   2
loop_
 _symmetry_equiv_pos_site_id
 _symmetry_equiv_pos_as_xyz
  1  'x, y, z'
loop_
 _atom_site_type_symbol
 _atom_site_label
 _atom_site_symmetry_multiplicity
 _atom_site_fract_x
 _atom_site_fract_y
 _atom_site_fract_z
 _atom_site_occupancy
  Dy  Dy0  1  0.89468000  0.89636000  0.74484000  1.0
  Dy  Dy1  1  0.10532000  0.10363000  0.24484000  1.0
  H  H2  1  0.91306000  0.80610000  0.86026000  1.0
  H  H3  1  0.08695000  0.19390000  0.36027000  1.0
  H  H4  1  0.29601000  0.01376000  0.02122000  1.0
  H  H5  1  0.70399000  0.98624000  0.52122000  1.0
  H  H6  1  0.07286000  0.81949000  0.04699000  1.0
  H  H7  1  0.92713000  0.18051000  0.54699000  1.0
  H  H8  1  0.85587000  0.65178000  0.93971000  1.0
  H  H9  1  0.14415000  0.34823000  0.43971000  1.0
  H  H10  1  0.72931000  0.58522000  0.76608000  1.0
  H  H11  1  0.27069000  0.41478000  0.26609000  1.0
  H  H12  1  0.35494000  0.32033000  0.90686000  1.0
  H  H13  1  0.64504000  0.67968000  0.40687000  1.0
  H  H14  1  0.53969000  0.22280000  0.83191000  1.0
  H  H15  1  0.46032000  0.77721000  0.33191000  1.0
  H  H16  1  0.70248000  0.32385000  0.75325000  1.0
  H  H17  1  0.29752000  0.67615000  0.25325000  1.0
  H  H18  1  0.95423000  0.68953000  0.65693000  1.0
  H  H19  1  0.04577000  0.31046000  0.15694000  1.0
  H  H20  1  0.15202000  0.53502000  0.60522000  1.0
  H  H21  1  0.84798000  0.46498000  0.10523000  1.0
  H  H22  1  0.36697000  0.39842000  0.56435000  1.0
  H  H23  1  0.63303000  0.60157000  0.06435000  1.0
  H  H24  1  0.84802000  0.39041000  0.51920000  1.0
  H  H25  1  0.15200000  0.60958000  0.01920000  1.0
  H  H26  1  0.36594000  0.98842000  0.73329000  1.0
  H  H27  1  0.63405000  0.01158000  0.23329000  1.0
  H  H28  1  0.30219000  0.10566000  0.76886000  1.0
  H  H29  1  0.69781000  0.89434000  0.26886000  1.0
  H  H30  1  0.01455000  0.14449000  0.93476000  1.0
  H  H31  1  0.98545000  0.85551000  0.43477000  1.0
  H  H32  1  0.21256000  0.11009000  0.88777000  1.0
  H  H33  1  0.78746000  0.88992000  0.38778000  1.0
  H  H34  1  0.19334000  0.88191000  0.92874000  1.0
  H  H35  1  0.80667000  0.11810000  0.42874000  1.0
  H  H36  1  0.87052000  0.95819000  0.01041000  1.0
  H  H37  1  0.12948000  0.04181000  0.51041000  1.0
  H  H38  1  0.58715000  0.76926000  0.97294000  1.0
  H  H39  1  0.41285000  0.23074000  0.47295000  1.0
  H  H40  1  0.60929000  0.99793000  0.93222000  1.0
  H  H41  1  0.39072000  0.00207000  0.43223000  1.0
  H  H42  1  0.53296000  0.86785000  0.88260000  1.0
  H  H43  1  0.46704000  0.13215000  0.38260000  1.0
  H  H44  1  0.41808000  0.66262000  0.86001000  1.0
  H  H45  1  0.58191000  0.33739000  0.36002000  1.0
  H  H46  1  0.16434000  0.56281000  0.83149000  1.0
  H  H47  1  0.83565000  0.43719000  0.33150000  1.0
  H  H48  1  0.60066000  0.46976000  0.84813000  1.0
  H  H49  1  0.39933000  0.53025000  0.34813000  1.0
  H  H50  1  0.14365000  0.31767000  0.80310000  1.0
  H  H51  1  0.85635000  0.68233000  0.30310000  1.0
  H  H52  1  0.34072000  0.29985000  0.71874000  1.0
  H  H53  1  0.65929000  0.70014000  0.21874000  1.0
  H  H54  1  0.41980000  0.55199000  0.69259000  1.0
  H  H55  1  0.58021000  0.44800000  0.19259000  1.0
  H  H56  1  0.16628000  0.49552000  0.72914000  1.0
  H  H57  1  0.83372000  0.50448000  0.22915000  1.0
  H  H58  1  0.45346000  0.72825000  0.63092000  1.0
  H  H59  1  0.54654000  0.27174000  0.13092000  1.0
  H  H60  1  0.51583000  0.76402000  0.56195000  1.0
  H  H61  1  0.48417000  0.23597000  0.06195000  1.0
  H  H62  1  0.63082000  0.52596000  0.62643000  1.0
  H  H63  1  0.36919000  0.47403000  0.12643000  1.0
  H  H64  1  0.70049000  0.59797000  0.50738000  1.0
  H  H65  1  0.29951000  0.40202000  0.00738000  1.0
  H  H66  1  0.10482000  0.63300000  0.53248000  1.0
  H  H67  1  0.89518000  0.36700000  0.03248000  1.0
  H  H68  1  0.14442000  0.85654000  0.58022000  1.0
  H  H69  1  0.85559000  0.14346000  0.08022000  1.0
  H  H70  1  0.92385000  0.83404000  0.53200000  1.0
  H  H71  1  0.07616000  0.16595000  0.03200000  1.0
  C  C72  1  0.87331000  0.99452000  0.87513000  1.0
  C  C73  1  0.12670000  0.00548000  0.37513000  1.0
  C  C74  1  0.06622000  0.06212000  0.91229000  1.0
  C  C75  1  0.93380000  0.93788000  0.41229000  1.0
  C  C76  1  0.13283000  0.96136000  0.95150000  1.0
  C  C77  1  0.86717000  0.03864000  0.45150000  1.0
  C  C78  1  0.92898000  0.88415000  0.98439000  1.0
  C  C79  1  0.07102000  0.11585000  0.48439000  1.0
  C  C80  1  0.73267000  0.81690000  0.94759000  1.0
  C  C81  1  0.26733000  0.18310000  0.44759000  1.0
  C  C82  1  0.67100000  0.92072000  0.90894000  1.0
  C  C83  1  0.32901000  0.07928000  0.40895000  1.0
  C  C84  1  0.81285000  0.10482000  0.83851000  1.0
  C  C85  1  0.18717000  0.89518000  0.33850000  1.0
  C  C86  1  0.43238000  0.62950000  0.77407000  1.0
  C  C87  1  0.56761000  0.37050000  0.27408000  1.0
  C  C88  1  0.34827000  0.58156000  0.83061000  1.0
  C  C89  1  0.65171000  0.41844000  0.33062000  1.0
  C  C90  1  0.41581000  0.44949000  0.84620000  1.0
  C  C91  1  0.58418000  0.55052000  0.34621000  1.0
  C  C92  1  0.32825000  0.33796000  0.80393000  1.0
  C  C93  1  0.67174000  0.66205000  0.30393000  1.0
  C  C94  1  0.41471000  0.38290000  0.74730000  1.0
  C  C95  1  0.58530000  0.61709000  0.24731000  1.0
  C  C96  1  0.34987000  0.51565000  0.73202000  1.0
  C  C97  1  0.65013000  0.48435000  0.23203000  1.0
  C  C98  1  0.34959000  0.75625000  0.75711000  1.0
  C  C99  1  0.65042000  0.24376000  0.25712000  1.0
  C  C100  1  0.80688000  0.81103000  0.61359000  1.0
  C  C101  1  0.19312000  0.18897000  0.11359000  1.0
  C  C102  1  0.57289000  0.72153000  0.59874000  1.0
  C  C103  1  0.42710000  0.27846000  0.09874000  1.0
  C  C104  1  0.57927000  0.57055000  0.58934000  1.0
  C  C105  1  0.42073000  0.42944000  0.08934000  1.0
  C  C106  1  0.74700000  0.55681000  0.54591000  1.0
  C  C107  1  0.25300000  0.44318000  0.04591000  1.0
  C  C108  1  0.97946000  0.64237000  0.56307000  1.0
  C  C109  1  0.02054000  0.35763000  0.06308000  1.0
  C  C110  1  0.97568000  0.79483000  0.56997000  1.0
  C  C111  1  0.02432000  0.20516000  0.06997000  1.0
  C  C112  1  0.79956000  0.96499000  0.62207000  1.0
  C  C113  1  0.20043000  0.03501000  0.12207000  1.0
  O  O114  1  0.94095000  0.89473000  0.83996000  1.0
  O  O115  1  0.05906000  0.10527000  0.33997000  1.0
  O  O116  1  0.82628000  0.08951000  0.78760000  1.0
  O  O117  1  0.17372000  0.91048000  0.28760000  1.0
  O  O118  1  0.75218000  0.20337000  0.86095000  1.0
  O  O119  1  0.24783000  0.79664000  0.36095000  1.0
  O  O120  1  0.31455000  0.04099000  0.98243000  1.0
  O  O121  1  0.68544000  0.95902000  0.48243000  1.0
  O  O122  1  0.97609000  0.77461000  0.01695000  1.0
  O  O123  1  0.02392000  0.22539000  0.51695000  1.0
  O  O124  1  0.79094000  0.70835000  0.91533000  1.0
  O  O125  1  0.20907000  0.29165000  0.41533000  1.0
  O  O126  1  0.67579000  0.66979000  0.77362000  1.0
  O  O127  1  0.32420000  0.33021000  0.27362000  1.0
  O  O128  1  0.14063000  0.74693000  0.75797000  1.0
  O  O129  1  0.85935000  0.25307000  0.25798000  1.0
  O  O130  1  0.49825000  0.86224000  0.74170000  1.0
  O  O131  1  0.50173000  0.13776000  0.24170000  1.0
  O  O132  1  0.32390000  0.40959000  0.89834000  1.0
  O  O133  1  0.67607000  0.59042000  0.39834000  1.0
  O  O134  1  0.37968000  0.21008000  0.81778000  1.0
  O  O135  1  0.62032000  0.78993000  0.31778000  1.0
  O  O136  1  0.65782000  0.40926000  0.74434000  1.0
  O  O137  1  0.34219000  0.59074000  0.24434000  1.0
  O  O138  1  0.87752000  0.76564000  0.66479000  1.0
  O  O139  1  0.12249000  0.23436000  0.16479000  1.0
  O  O140  1  0.83734000  0.01316000  0.66927000  1.0
  O  O141  1  0.16264000  0.98683000  0.16927000  1.0
  O  O142  1  0.75651000  0.03341000  0.58238000  1.0
  O  O143  1  0.24348000  0.96659000  0.08239000  1.0
  O  O144  1  0.04132000  0.59088000  0.61348000  1.0
  O  O145  1  0.95868000  0.40912000  0.11348000  1.0
  O  O146  1  0.35793000  0.49176000  0.57468000  1.0
  O  O147  1  0.64207000  0.50823000  0.07468000  1.0
  O  O148  1  0.73013000  0.41144000  0.54173000  1.0
  O  O149  1  0.26989000  0.58855000  0.04173000  1.0
  O  O150  1  0.24980000  0.04294000  0.73715000  1.0
  O  O151  1  0.75019000  0.95707000  0.23715000  1.0
