# generated using pymatgen
data_AgH12C24N7O9
_symmetry_space_group_name_H-M   'P 1'
_cell_length_a   9.14663000
_cell_length_b   20.83980000
_cell_length_c   28.39890000
_cell_angle_alpha   89.99970000
_cell_angle_beta   81.42260000
_cell_angle_gamma   89.99940000
_symmetry_Int_Tables_number   1
_chemical_formula_structural   AgH12C24N7O9
_chemical_formula_sum   'Ag8 H96 C192 N56 O72'
_cell_volume   5352.68083786
_cell_formula_units_Z   8
loop_
 _symmetry_equiv_pos_site_id
 _symmetry_equiv_pos_as_xyz
  1  'x, y, z'
loop_
 _atom_site_type_symbol
 _atom_site_label
 _atom_site_symmetry_multiplicity
 _atom_site_fract_x
 _atom_site_fract_y
 _atom_site_fract_z
 _atom_site_occupancy
  Ag  Ag0  1  0.48539000  0.79199000  0.84648000  1.0
  Ag  Ag1  1  0.01458000  0.29201000  0.15352000  1.0
  Ag  Ag2  1  0.51460000  0.20800000  0.15352000  1.0
  Ag  Ag3  1  0.98539000  0.70799000  0.84647000  1.0
  Ag  Ag4  1  0.27533000  0.79068000  0.35380000  1.0
  Ag  Ag5  1  0.22469000  0.29068000  0.64620000  1.0
  Ag  Ag6  1  0.72469000  0.20933000  0.64620000  1.0
  Ag  Ag7  1  0.77532000  0.70933000  0.35380000  1.0
  H  H8  1  0.61055000  0.86093000  0.92826000  1.0
  H  H9  1  0.88945000  0.36095000  0.07174000  1.0
  H  H10  1  0.38944000  0.13905000  0.07174000  1.0
  H  H11  1  0.11054000  0.63905000  0.92826000  1.0
  H  H12  1  0.26956000  0.72854000  0.92675000  1.0
  H  H13  1  0.23044000  0.22855000  0.07326000  1.0
  H  H14  1  0.73043000  0.27145000  0.07326000  1.0
  H  H15  1  0.76956000  0.77146000  0.92674000  1.0
  H  H16  1  0.42479000  0.87698000  0.26893000  1.0
  H  H17  1  0.07523000  0.37699000  0.73107000  1.0
  H  H18  1  0.57521000  0.12302000  0.73108000  1.0
  H  H19  1  0.92479000  0.62302000  0.26893000  1.0
  H  H20  1  0.07963000  0.74546000  0.27058000  1.0
  H  H21  1  0.42038000  0.24546000  0.72942000  1.0
  H  H22  1  0.92035000  0.25456000  0.72943000  1.0
  H  H23  1  0.57965000  0.75455000  0.27057000  1.0
  H  H24  1  0.32235000  0.99874000  0.01339000  1.0
  H  H25  1  0.17763000  0.49873000  0.98661000  1.0
  H  H26  1  0.67763000  0.00126000  0.98661000  1.0
  H  H27  1  0.82237000  0.50127000  0.01339000  1.0
  H  H28  1  0.52191000  0.86996000  0.10439000  1.0
  H  H29  1  0.97808000  0.36996000  0.89560000  1.0
  H  H30  1  0.47810000  0.13003000  0.89560000  1.0
  H  H31  1  0.02191000  0.63003000  0.10440000  1.0
  H  H32  1  0.22988000  0.02084000  0.16617000  1.0
  H  H33  1  0.27009000  0.52086000  0.83383000  1.0
  H  H34  1  0.77012000  0.97914000  0.83383000  1.0
  H  H35  1  0.72989000  0.47914000  0.16618000  1.0
  H  H36  1  0.94586000  0.85974000  0.01518000  1.0
  H  H37  1  0.55415000  0.35973000  0.98481000  1.0
  H  H38  1  0.05415000  0.14026000  0.98482000  1.0
  H  H39  1  0.44586000  0.64027000  0.01518000  1.0
  H  H40  1  0.16146000  0.72911000  0.10091000  1.0
  H  H41  1  0.33853000  0.22911000  0.89908000  1.0
  H  H42  1  0.83854000  0.27089000  0.89909000  1.0
  H  H43  1  0.66147000  0.77089000  0.10092000  1.0
  H  H44  1  0.85330000  0.87011000  0.16884000  1.0
  H  H45  1  0.64669000  0.37011000  0.83116000  1.0
  H  H46  1  0.14668000  0.12989000  0.83116000  1.0
  H  H47  1  0.35332000  0.62989000  0.16884000  1.0
  H  H48  1  0.96700000  0.15373000  0.08106000  1.0
  H  H49  1  0.53299000  0.65373000  0.91895000  1.0
  H  H50  1  0.03300000  0.84626000  0.91895000  1.0
  H  H51  1  0.46702000  0.34627000  0.08105000  1.0
  H  H52  1  0.62161000  0.02214000  0.08419000  1.0
  H  H53  1  0.87838000  0.52214000  0.91581000  1.0
  H  H54  1  0.37839000  0.97785000  0.91580000  1.0
  H  H55  1  0.12164000  0.47787000  0.08418000  1.0
  H  H56  1  0.92599000  0.83603000  0.39198000  1.0
  H  H57  1  0.57400000  0.33603000  0.60800000  1.0
  H  H58  1  0.07401000  0.16397000  0.60801000  1.0
  H  H59  1  0.42601000  0.66397000  0.39199000  1.0
  H  H60  1  0.30321000  0.94794000  0.35244000  1.0
  H  H61  1  0.19681000  0.44794000  0.64756000  1.0
  H  H62  1  0.69680000  0.05205000  0.64756000  1.0
  H  H63  1  0.80319000  0.55205000  0.35244000  1.0
  H  H64  1  0.39683000  0.12262000  0.24211000  1.0
  H  H65  1  0.10316000  0.62259000  0.75790000  1.0
  H  H66  1  0.60316000  0.87740000  0.75791000  1.0
  H  H67  1  0.89681000  0.37742000  0.24211000  1.0
  H  H68  1  0.77070000  0.23835000  0.20692000  1.0
  H  H69  1  0.72933000  0.73834000  0.79308000  1.0
  H  H70  1  0.22933000  0.76165000  0.79308000  1.0
  H  H71  1  0.27063000  0.26166000  0.20692000  1.0
  H  H72  1  0.66639000  0.00483000  0.47887000  1.0
  H  H73  1  0.83365000  0.50484000  0.52112000  1.0
  H  H74  1  0.33363000  0.99516000  0.52113000  1.0
  H  H75  1  0.16637000  0.49517000  0.47888000  1.0
  H  H76  1  0.63284000  0.98703000  0.32964000  1.0
  H  H77  1  0.86715000  0.48702000  0.67036000  1.0
  H  H78  1  0.36716000  0.01298000  0.67036000  1.0
  H  H79  1  0.13284000  0.51298000  0.32964000  1.0
  H  H80  1  0.41859000  0.14515000  0.41157000  1.0
  H  H81  1  0.08143000  0.64514000  0.58844000  1.0
  H  H82  1  0.58144000  0.85485000  0.58844000  1.0
  H  H83  1  0.91857000  0.35486000  0.41156000  1.0
  H  H84  1  0.08481000  0.12489000  0.43606000  1.0
  H  H85  1  0.41518000  0.62489000  0.56394000  1.0
  H  H86  1  0.91520000  0.87511000  0.56395000  1.0
  H  H87  1  0.58480000  0.37511000  0.43605000  1.0
  H  H88  1  0.04278000  0.11342000  0.28645000  1.0
  H  H89  1  0.45724000  0.61343000  0.71356000  1.0
  H  H90  1  0.95725000  0.88658000  0.71356000  1.0
  H  H91  1  0.54273000  0.38657000  0.28644000  1.0
  H  H92  1  0.82788000  0.26661000  0.37288000  1.0
  H  H93  1  0.67213000  0.76660000  0.62711000  1.0
  H  H94  1  0.17213000  0.73339000  0.62712000  1.0
  H  H95  1  0.32785000  0.23340000  0.37288000  1.0
  H  H96  1  0.51394000  0.15158000  0.58005000  1.0
  H  H97  1  0.98605000  0.65158000  0.41995000  1.0
  H  H98  1  0.48605000  0.84843000  0.41995000  1.0
  H  H99  1  0.01394000  0.34842000  0.58005000  1.0
  H  H100  1  0.88310000  0.26829000  0.54264000  1.0
  H  H101  1  0.61688000  0.76829000  0.45735000  1.0
  H  H102  1  0.11690000  0.73171000  0.45736000  1.0
  H  H103  1  0.38309000  0.23171000  0.54264000  1.0
  C  C104  1  0.44494000  0.85797000  0.99229000  1.0
  C  C105  1  0.05505000  0.35797000  0.00770000  1.0
  C  C106  1  0.55507000  0.14203000  0.00770000  1.0
  C  C107  1  0.94494000  0.64202000  0.99230000  1.0
  C  C108  1  0.50976000  0.83917000  0.94663000  1.0
  C  C109  1  0.99023000  0.33917000  0.05337000  1.0
  C  C110  1  0.49024000  0.16083000  0.05337000  1.0
  C  C111  1  0.00975000  0.66082000  0.94663000  1.0
  C  C112  1  0.32009000  0.76527000  0.94628000  1.0
  C  C113  1  0.17990000  0.26528000  0.05373000  1.0
  C  C114  1  0.67990000  0.23473000  0.05372000  1.0
  C  C115  1  0.82010000  0.73472000  0.94628000  1.0
  C  C116  1  0.25841000  0.78728000  0.99147000  1.0
  C  C117  1  0.24157000  0.28729000  0.00854000  1.0
  C  C118  1  0.74158000  0.21271000  0.00854000  1.0
  C  C119  1  0.75843000  0.71271000  0.99146000  1.0
  C  C120  1  0.34001000  0.85537000  0.25084000  1.0
  C  C121  1  0.16000000  0.35537000  0.74915000  1.0
  C  C122  1  0.65998000  0.14464000  0.74916000  1.0
  C  C123  1  0.84001000  0.64463000  0.25085000  1.0
  C  C124  1  0.31545000  0.87515000  0.20562000  1.0
  C  C125  1  0.18456000  0.37516000  0.79436000  1.0
  C  C126  1  0.68456000  0.12484000  0.79437000  1.0
  C  C127  1  0.81544000  0.62484000  0.20564000  1.0
  C  C128  1  0.13290000  0.80231000  0.20580000  1.0
  C  C129  1  0.36712000  0.30232000  0.79420000  1.0
  C  C130  1  0.86710000  0.19769000  0.79420000  1.0
  C  C131  1  0.63289000  0.69768000  0.20580000  1.0
  C  C132  1  0.15069000  0.78171000  0.25154000  1.0
  C  C133  1  0.34931000  0.28171000  0.74846000  1.0
  C  C134  1  0.84929000  0.21830000  0.74846000  1.0
  C  C135  1  0.65070000  0.71829000  0.25154000  1.0
  C  C136  1  0.26598000  0.01358000  0.08923000  1.0
  C  C137  1  0.23401000  0.51357000  0.91077000  1.0
  C  C138  1  0.73402000  0.98642000  0.91077000  1.0
  C  C139  1  0.76598000  0.48643000  0.08924000  1.0
  C  C140  1  0.33828000  0.98317000  0.04879000  1.0
  C  C141  1  0.16169000  0.48317000  0.95121000  1.0
  C  C142  1  0.66171000  0.01683000  0.95122000  1.0
  C  C143  1  0.83829000  0.51683000  0.04879000  1.0
  C  C144  1  0.43123000  0.93208000  0.05522000  1.0
  C  C145  1  0.06875000  0.43208000  0.94477000  1.0
  C  C146  1  0.56877000  0.06792000  0.94478000  1.0
  C  C147  1  0.93125000  0.56792000  0.05523000  1.0
  C  C148  1  0.45050000  0.91048000  0.10008000  1.0
  C  C149  1  0.04948000  0.41049000  0.89991000  1.0
  C  C150  1  0.54949000  0.08951000  0.89991000  1.0
  C  C151  1  0.95052000  0.58951000  0.10010000  1.0
  C  C152  1  0.37683000  0.94303000  0.13936000  1.0
  C  C153  1  0.12318000  0.44303000  0.86063000  1.0
  C  C154  1  0.62318000  0.05696000  0.86063000  1.0
  C  C155  1  0.87682000  0.55697000  0.13937000  1.0
  C  C156  1  0.28501000  0.99521000  0.13503000  1.0
  C  C157  1  0.21499000  0.49521000  0.86497000  1.0
  C  C158  1  0.71500000  0.00478000  0.86497000  1.0
  C  C159  1  0.78500000  0.50479000  0.13504000  1.0
  C  C160  1  0.89063000  0.86983000  0.09166000  1.0
  C  C161  1  0.60937000  0.36983000  0.90834000  1.0
  C  C162  1  0.10935000  0.13016000  0.90834000  1.0
  C  C163  1  0.39063000  0.63018000  0.09166000  1.0
  C  C164  1  0.96233000  0.84176000  0.05000000  1.0
  C  C165  1  0.53766000  0.34176000  0.95000000  1.0
  C  C166  1  0.03766000  0.15824000  0.95000000  1.0
  C  C167  1  0.46234000  0.65825000  0.05000000  1.0
  C  C168  1  0.05809000  0.79088000  0.05428000  1.0
  C  C169  1  0.44191000  0.29088000  0.94572000  1.0
  C  C170  1  0.94191000  0.20912000  0.94572000  1.0
  C  C171  1  0.55811000  0.70913000  0.05429000  1.0
  C  C172  1  0.08250000  0.76758000  0.09835000  1.0
  C  C173  1  0.41750000  0.26758000  0.90164000  1.0
  C  C174  1  0.91751000  0.23242000  0.90165000  1.0
  C  C175  1  0.58251000  0.73242000  0.09836000  1.0
  C  C176  1  0.00741000  0.79670000  0.13906000  1.0
  C  C177  1  0.49260000  0.29670000  0.86094000  1.0
  C  C178  1  0.99259000  0.20330000  0.86094000  1.0
  C  C179  1  0.50741000  0.70331000  0.13906000  1.0
  C  C180  1  0.91012000  0.84764000  0.13659000  1.0
  C  C181  1  0.58989000  0.34763000  0.86341000  1.0
  C  C182  1  0.08987000  0.15236000  0.86341000  1.0
  C  C183  1  0.41011000  0.65237000  0.13659000  1.0
  C  C184  1  0.02756000  0.05270000  0.08384000  1.0
  C  C185  1  0.47242000  0.55269000  0.91617000  1.0
  C  C186  1  0.97242000  0.94729000  0.91617000  1.0
  C  C187  1  0.52759000  0.44731000  0.08383000  1.0
  C  C188  1  0.92959000  0.10404000  0.08153000  1.0
  C  C189  1  0.57039000  0.60404000  0.91848000  1.0
  C  C190  1  0.07039000  0.89595000  0.91848000  1.0
  C  C191  1  0.42962000  0.39596000  0.08151000  1.0
  C  C192  1  0.73917000  0.03136000  0.08373000  1.0
  C  C193  1  0.76082000  0.53136000  0.91627000  1.0
  C  C194  1  0.26082000  0.96863000  0.91627000  1.0
  C  C195  1  0.23920000  0.46864000  0.08372000  1.0
  C  C196  1  0.84056000  0.98131000  0.08607000  1.0
  C  C197  1  0.65943000  0.48131000  0.91393000  1.0
  C  C198  1  0.15943000  0.01868000  0.91393000  1.0
  C  C199  1  0.34058000  0.51869000  0.08606000  1.0
  C  C200  1  0.88933000  0.93954000  0.38855000  1.0
  C  C201  1  0.61068000  0.43954000  0.61143000  1.0
  C  C202  1  0.11067000  0.06046000  0.61144000  1.0
  C  C203  1  0.38932000  0.56046000  0.38856000  1.0
  C  C204  1  0.97511000  0.88341000  0.38531000  1.0
  C  C205  1  0.52490000  0.38342000  0.61467000  1.0
  C  C206  1  0.02490000  0.11658000  0.61469000  1.0
  C  C207  1  0.47510000  0.61658000  0.38532000  1.0
  C  C208  1  0.18371000  0.94561000  0.36297000  1.0
  C  C209  1  0.31631000  0.44561000  0.63703000  1.0
  C  C210  1  0.81631000  0.05439000  0.63703000  1.0
  C  C211  1  0.68369000  0.55439000  0.36297000  1.0
  C  C212  1  0.09338000  0.00031000  0.36667000  1.0
  C  C213  1  0.40664000  0.50031000  0.63332000  1.0
  C  C214  1  0.90663000  0.99969000  0.63333000  1.0
  C  C215  1  0.59336000  0.49969000  0.36667000  1.0
  C  C216  1  0.49876000  0.14202000  0.25191000  1.0
  C  C217  1  0.00124000  0.64201000  0.74809000  1.0
  C  C218  1  0.50123000  0.85799000  0.74810000  1.0
  C  C219  1  0.99875000  0.35801000  0.25190000  1.0
  C  C220  1  0.54826000  0.12790000  0.29515000  1.0
  C  C221  1  0.95174000  0.62788000  0.70485000  1.0
  C  C222  1  0.45173000  0.87212000  0.70486000  1.0
  C  C223  1  0.04825000  0.37212000  0.29515000  1.0
  C  C224  1  0.74979000  0.19070000  0.27601000  1.0
  C  C225  1  0.75023000  0.69070000  0.72398000  1.0
  C  C226  1  0.25023000  0.80930000  0.72399000  1.0
  C  C227  1  0.24975000  0.30930000  0.27601000  1.0
  C  C228  1  0.70557000  0.20696000  0.23249000  1.0
  C  C229  1  0.79445000  0.70696000  0.76751000  1.0
  C  C230  1  0.29446000  0.79304000  0.76751000  1.0
  C  C231  1  0.20552000  0.29305000  0.23249000  1.0
  C  C232  1  0.53927000  0.07785000  0.44899000  1.0
  C  C233  1  0.96075000  0.57785000  0.55101000  1.0
  C  C234  1  0.46074000  0.92214000  0.55102000  1.0
  C  C235  1  0.03926000  0.42215000  0.44898000  1.0
  C  C236  1  0.62513000  0.02256000  0.44731000  1.0
  C  C237  1  0.87490000  0.52256000  0.55269000  1.0
  C  C238  1  0.37488000  0.97743000  0.55270000  1.0
  C  C239  1  0.12514000  0.47744000  0.44731000  1.0
  C  C240  1  0.65803000  0.99116000  0.40391000  1.0
  C  C241  1  0.84198000  0.49116000  0.59609000  1.0
  C  C242  1  0.34198000  0.00884000  0.59609000  1.0
  C  C243  1  0.15802000  0.50885000  0.40391000  1.0
  C  C244  1  0.60750000  0.01319000  0.36299000  1.0
  C  C245  1  0.89250000  0.51318000  0.63701000  1.0
  C  C246  1  0.39252000  0.98681000  0.63701000  1.0
  C  C247  1  0.10749000  0.48682000  0.36299000  1.0
  C  C248  1  0.52033000  0.06813000  0.36666000  1.0
  C  C249  1  0.97968000  0.56812000  0.63334000  1.0
  C  C250  1  0.47970000  0.93188000  0.63335000  1.0
  C  C251  1  0.02030000  0.43189000  0.36665000  1.0
  C  C252  1  0.48395000  0.10138000  0.40936000  1.0
  C  C253  1  0.01608000  0.60137000  0.59064000  1.0
  C  C254  1  0.51608000  0.89863000  0.59064000  1.0
  C  C255  1  0.98392000  0.39863000  0.40936000  1.0
  C  C256  1  0.95674000  0.19972000  0.40858000  1.0
  C  C257  1  0.54327000  0.69972000  0.59142000  1.0
  C  C258  1  0.04327000  0.80028000  0.59142000  1.0
  C  C259  1  0.45672000  0.30028000  0.40858000  1.0
  C  C260  1  0.04258000  0.14427000  0.40512000  1.0
  C  C261  1  0.45742000  0.64427000  0.59488000  1.0
  C  C262  1  0.95742000  0.85573000  0.59488000  1.0
  C  C263  1  0.54257000  0.35573000  0.40512000  1.0
  C  C264  1  0.07026000  0.11328000  0.36118000  1.0
  C  C265  1  0.42974000  0.61329000  0.63882000  1.0
  C  C266  1  0.92975000  0.88671000  0.63882000  1.0
  C  C267  1  0.57025000  0.38671000  0.36117000  1.0
  C  C268  1  0.01791000  0.13700000  0.32101000  1.0
  C  C269  1  0.48210000  0.63701000  0.67899000  1.0
  C  C270  1  0.98213000  0.86300000  0.67899000  1.0
  C  C271  1  0.51786000  0.36301000  0.32101000  1.0
  C  C272  1  0.93146000  0.19227000  0.32649000  1.0
  C  C273  1  0.56855000  0.69227000  0.67351000  1.0
  C  C274  1  0.06856000  0.80773000  0.67351000  1.0
  C  C275  1  0.43142000  0.30774000  0.32649000  1.0
  C  C276  1  0.89937000  0.22458000  0.36970000  1.0
  C  C277  1  0.60063000  0.72457000  0.63030000  1.0
  C  C278  1  0.10065000  0.77543000  0.63030000  1.0
  C  C279  1  0.39934000  0.27543000  0.36970000  1.0
  C  C280  1  0.61296000  0.14932000  0.50508000  1.0
  C  C281  1  0.88704000  0.64932000  0.49492000  1.0
  C  C282  1  0.38705000  0.85068000  0.49492000  1.0
  C  C283  1  0.11294000  0.35068000  0.50508000  1.0
  C  C284  1  0.60007000  0.16934000  0.55259000  1.0
  C  C285  1  0.89991000  0.66934000  0.44742000  1.0
  C  C286  1  0.39992000  0.83067000  0.44742000  1.0
  C  C287  1  0.10007000  0.33067000  0.55258000  1.0
  C  C288  1  0.80530000  0.23367000  0.53201000  1.0
  C  C289  1  0.69469000  0.73367000  0.46799000  1.0
  C  C290  1  0.19470000  0.76633000  0.46799000  1.0
  C  C291  1  0.30528000  0.26633000  0.53201000  1.0
  C  C292  1  0.81704000  0.21022000  0.48529000  1.0
  C  C293  1  0.68295000  0.71022000  0.51472000  1.0
  C  C294  1  0.18296000  0.78978000  0.51472000  1.0
  C  C295  1  0.31702000  0.28978000  0.48528000  1.0
  N  N296  1  0.44477000  0.79285000  0.92449000  1.0
  N  N297  1  0.05523000  0.29286000  0.07551000  1.0
  N  N298  1  0.55523000  0.20714000  0.07551000  1.0
  N  N299  1  0.94476000  0.70714000  0.92449000  1.0
  N  N300  1  0.32012000  0.83293000  0.01433000  1.0
  N  N301  1  0.17986000  0.33293000  0.98566000  1.0
  N  N302  1  0.67987000  0.16707000  0.98567000  1.0
  N  N303  1  0.82014000  0.66707000  0.01434000  1.0
  N  N304  1  0.21380000  0.84876000  0.18291000  1.0
  N  N305  1  0.28622000  0.34877000  0.81708000  1.0
  N  N306  1  0.78621000  0.15123000  0.81709000  1.0
  N  N307  1  0.71378000  0.65123000  0.18292000  1.0
  N  N308  1  0.25611000  0.80865000  0.27314000  1.0
  N  N309  1  0.24388000  0.30865000  0.72686000  1.0
  N  N310  1  0.74386000  0.19136000  0.72687000  1.0
  N  N311  1  0.75613000  0.69136000  0.27314000  1.0
  N  N312  1  0.78626000  0.09220000  0.08136000  1.0
  N  N313  1  0.71372000  0.59220000  0.91864000  1.0
  N  N314  1  0.21373000  0.90779000  0.91864000  1.0
  N  N315  1  0.28629000  0.40781000  0.08135000  1.0
  N  N316  1  0.98369000  0.99186000  0.08597000  1.0
  N  N317  1  0.51630000  0.49187000  0.91403000  1.0
  N  N318  1  0.01630000  0.00812000  0.91404000  1.0
  N  N319  1  0.48371000  0.50814000  0.08596000  1.0
  N  N320  1  0.12142000  0.88796000  0.37258000  1.0
  N  N321  1  0.37859000  0.38797000  0.62741000  1.0
  N  N322  1  0.87858000  0.11203000  0.62742000  1.0
  N  N323  1  0.62141000  0.61203000  0.37258000  1.0
  N  N324  1  0.94781000  0.99738000  0.37945000  1.0
  N  N325  1  0.55220000  0.49738000  0.62054000  1.0
  N  N326  1  0.05220000  0.00262000  0.62055000  1.0
  N  N327  1  0.44780000  0.50262000  0.37945000  1.0
  N  N328  1  0.67257000  0.15147000  0.30706000  1.0
  N  N329  1  0.82743000  0.65147000  0.69294000  1.0
  N  N330  1  0.32744000  0.84853000  0.69294000  1.0
  N  N331  1  0.17254000  0.34853000  0.30706000  1.0
  N  N332  1  0.58015000  0.18178000  0.22128000  1.0
  N  N333  1  0.91985000  0.68178000  0.77871000  1.0
  N  N334  1  0.41985000  0.81822000  0.77872000  1.0
  N  N335  1  0.08012000  0.31824000  0.22128000  1.0
  N  N336  1  0.69694000  0.21202000  0.56522000  1.0
  N  N337  1  0.80305000  0.71201000  0.43478000  1.0
  N  N338  1  0.30306000  0.78799000  0.43478000  1.0
  N  N339  1  0.19693000  0.28799000  0.56522000  1.0
  N  N340  1  0.72194000  0.16847000  0.47179000  1.0
  N  N341  1  0.77806000  0.66848000  0.52822000  1.0
  N  N342  1  0.27807000  0.83152000  0.52822000  1.0
  N  N343  1  0.22192000  0.33153000  0.47178000  1.0
  N  N344  1  0.85020000  0.84360000  0.82347000  1.0
  N  N345  1  0.64978000  0.34361000  0.17653000  1.0
  N  N346  1  0.14980000  0.15639000  0.17653000  1.0
  N  N347  1  0.35020000  0.65639000  0.82347000  1.0
  N  N348  1  0.62749000  0.84028000  0.32999000  1.0
  N  N349  1  0.87254000  0.34027000  0.67001000  1.0
  N  N350  1  0.37255000  0.15973000  0.67001000  1.0
  N  N351  1  0.12748000  0.65973000  0.32999000  1.0
  O  O352  1  0.51399000  0.90391000  0.01490000  1.0
  O  O353  1  0.98598000  0.40391000  0.98509000  1.0
  O  O354  1  0.48599000  0.09609000  0.98509000  1.0
  O  O355  1  0.01401000  0.59610000  0.01491000  1.0
  O  O356  1  0.12826000  0.76089000  0.01269000  1.0
  O  O357  1  0.37174000  0.26090000  0.98731000  1.0
  O  O358  1  0.87174000  0.23910000  0.98732000  1.0
  O  O359  1  0.62828000  0.73911000  0.01269000  1.0
  O  O360  1  0.02745000  0.77276000  0.18376000  1.0
  O  O361  1  0.47255000  0.27276000  0.81624000  1.0
  O  O362  1  0.97255000  0.22724000  0.81625000  1.0
  O  O363  1  0.52746000  0.72724000  0.18375000  1.0
  O  O364  1  0.40075000  0.92414000  0.18487000  1.0
  O  O365  1  0.09928000  0.42416000  0.81512000  1.0
  O  O366  1  0.59930000  0.07584000  0.81512000  1.0
  O  O367  1  0.90073000  0.57584000  0.18488000  1.0
  O  O368  1  0.17397000  0.06609000  0.08353000  1.0
  O  O369  1  0.32601000  0.56609000  0.91648000  1.0
  O  O370  1  0.82601000  0.93390000  0.91648000  1.0
  O  O371  1  0.67398000  0.43391000  0.08353000  1.0
  O  O372  1  0.78929000  0.91946000  0.08830000  1.0
  O  O373  1  0.71070000  0.41946000  0.91169000  1.0
  O  O374  1  0.21069000  0.08053000  0.91170000  1.0
  O  O375  1  0.28930000  0.58054000  0.08830000  1.0
  O  O376  1  0.74050000  0.93420000  0.40220000  1.0
  O  O377  1  0.75952000  0.43420000  0.59779000  1.0
  O  O378  1  0.25951000  0.06580000  0.59779000  1.0
  O  O379  1  0.24050000  0.56580000  0.40221000  1.0
  O  O380  1  0.15947000  0.05847000  0.35685000  1.0
  O  O381  1  0.34054000  0.55847000  0.64315000  1.0
  O  O382  1  0.84054000  0.94153000  0.64315000  1.0
  O  O383  1  0.65945000  0.44152000  0.35685000  1.0
  O  O384  1  0.87711000  0.21718000  0.28668000  1.0
  O  O385  1  0.62291000  0.71719000  0.71331000  1.0
  O  O386  1  0.12292000  0.78282000  0.71332000  1.0
  O  O387  1  0.37705000  0.28282000  0.28669000  1.0
  O  O388  1  0.46253000  0.08882000  0.32620000  1.0
  O  O389  1  0.03748000  0.58880000  0.67380000  1.0
  O  O390  1  0.53749000  0.91120000  0.67381000  1.0
  O  O391  1  0.96250000  0.41120000  0.32620000  1.0
  O  O392  1  0.50599000  0.10965000  0.49287000  1.0
  O  O393  1  0.99402000  0.60966000  0.50713000  1.0
  O  O394  1  0.49401000  0.89034000  0.50714000  1.0
  O  O395  1  0.00598000  0.39034000  0.49286000  1.0
  O  O396  1  0.93101000  0.23215000  0.45247000  1.0
  O  O397  1  0.56896000  0.73215000  0.54752000  1.0
  O  O398  1  0.06898000  0.76785000  0.54753000  1.0
  O  O399  1  0.43101000  0.26785000  0.45247000  1.0
  O  O400  1  0.80345000  0.88283000  0.79534000  1.0
  O  O401  1  0.69655000  0.38283000  0.20466000  1.0
  O  O402  1  0.19656000  0.11717000  0.20466000  1.0
  O  O403  1  0.30345000  0.61716000  0.79534000  1.0
  O  O404  1  0.98701000  0.83586000  0.82392000  1.0
  O  O405  1  0.51298000  0.33588000  0.17608000  1.0
  O  O406  1  0.01299000  0.16412000  0.17608000  1.0
  O  O407  1  0.48701000  0.66413000  0.82391000  1.0
  O  O408  1  0.75789000  0.80996000  0.85220000  1.0
  O  O409  1  0.74209000  0.30997000  0.14780000  1.0
  O  O410  1  0.24210000  0.19004000  0.14780000  1.0
  O  O411  1  0.25789000  0.69002000  0.85221000  1.0
  O  O412  1  0.76310000  0.84175000  0.31438000  1.0
  O  O413  1  0.73693000  0.34177000  0.68562000  1.0
  O  O414  1  0.23694000  0.15823000  0.68562000  1.0
  O  O415  1  0.26309000  0.65823000  0.31437000  1.0
  O  O416  1  0.57058000  0.79007000  0.35244000  1.0
  O  O417  1  0.92944000  0.29005000  0.64756000  1.0
  O  O418  1  0.42942000  0.20995000  0.64756000  1.0
  O  O419  1  0.07060000  0.70994000  0.35245000  1.0
  O  O420  1  0.54269000  0.88672000  0.32425000  1.0
  O  O421  1  0.95738000  0.38671000  0.67573000  1.0
  O  O422  1  0.45738000  0.11329000  0.67573000  1.0
  O  O423  1  0.04265000  0.61329000  0.32427000  1.0
