# generated using pymatgen
data_Cu2H17C9N4Cl3
_symmetry_space_group_name_H-M   'P 1'
_cell_length_a   6.93783000
_cell_length_b   7.58397000
_cell_length_c   12.95120000
_cell_angle_alpha   92.30630000
_cell_angle_beta   98.59250000
_cell_angle_gamma   101.25100000
_symmetry_Int_Tables_number   1
_chemical_formula_structural   Cu2H17C9N4Cl3
_chemical_formula_sum   'Cu4 H34 C18 N8 Cl6'
_cell_volume   659.15253778
_cell_formula_units_Z   2
loop_
 _symmetry_equiv_pos_site_id
 _symmetry_equiv_pos_as_xyz
  1  'x, y, z'
loop_
 _atom_site_type_symbol
 _atom_site_label
 _atom_site_symmetry_multiplicity
 _atom_site_fract_x
 _atom_site_fract_y
 _atom_site_fract_z
 _atom_site_occupancy
  Cu  Cu0  1  0.91308000  0.58531000  0.60088000  1.0
  Cu  Cu1  1  0.08691000  0.41469000  0.39912000  1.0
  Cu  Cu2  1  0.96122000  0.48836000  0.88708000  1.0
  Cu  Cu3  1  0.03878000  0.51164000  0.11292000  1.0
  H  H4  1  0.90240000  0.09204000  0.85847000  1.0
  H  H5  1  0.09760000  0.90796000  0.14153000  1.0
  H  H6  1  0.86981000  0.16598000  0.72645000  1.0
  H  H7  1  0.13019000  0.83402000  0.27355000  1.0
  H  H8  1  0.36983000  0.88364000  0.64819000  1.0
  H  H9  1  0.63017000  0.11636000  0.35181000  1.0
  H  H10  1  0.56491000  0.04677000  0.60743000  1.0
  H  H11  1  0.43509000  0.95323000  0.39258000  1.0
  H  H12  1  0.18575000  0.97641000  0.77654000  1.0
  H  H13  1  0.81425000  0.02359000  0.22346000  1.0
  H  H14  1  0.23719000  0.20947000  0.82634000  1.0
  H  H15  1  0.76281000  0.79053000  0.17366000  1.0
  H  H16  1  0.49173000  0.41855000  0.77210000  1.0
  H  H17  1  0.50828000  0.58145000  0.22790000  1.0
  H  H18  1  0.63550000  0.35251000  0.67725000  1.0
  H  H19  1  0.36451000  0.64749000  0.32275000  1.0
  H  H20  1  0.54143000  0.32843000  0.94584000  1.0
  H  H21  1  0.45857000  0.67157000  0.05416000  1.0
  H  H22  1  0.71273000  0.18375000  0.98288000  1.0
  H  H23  1  0.28727000  0.81625000  0.01712000  1.0
  H  H24  1  0.41215000  0.79010000  0.82759000  1.0
  H  H25  1  0.58785000  0.20991000  0.17241000  1.0
  H  H26  1  0.64090000  0.87955000  0.91667000  1.0
  H  H27  1  0.35910000  0.12045000  0.08333000  1.0
  H  H28  1  0.59850000  0.68315000  0.72013000  1.0
  H  H29  1  0.40149000  0.31685000  0.27987000  1.0
  H  H30  1  0.83157000  0.78284000  0.79688000  1.0
  H  H31  1  0.16842000  0.21716000  0.20312000  1.0
  H  H32  1  0.93718000  0.92534000  0.62683000  1.0
  H  H33  1  0.06281000  0.07465000  0.37317000  1.0
  H  H34  1  0.55769000  0.64208000  0.53440000  1.0
  H  H35  1  0.44231000  0.35792000  0.46560000  1.0
  H  H36  1  0.75057000  0.75731000  0.46097000  1.0
  H  H37  1  0.24942000  0.24269000  0.53903000  1.0
  C  C38  1  0.79708000  0.12652000  0.79412000  1.0
  C  C39  1  0.20292000  0.87348000  0.20588000  1.0
  C  C40  1  0.48449000  0.00610000  0.67228000  1.0
  C  C41  1  0.51551000  0.99390000  0.32772000  1.0
  C  C42  1  0.30200000  0.09799000  0.80013000  1.0
  C  C43  1  0.69800000  0.90202000  0.19987000  1.0
  C  C44  1  0.55929000  0.31070000  0.74348000  1.0
  C  C45  1  0.44072000  0.68930000  0.25652000  1.0
  C  C46  1  0.60424000  0.21582000  0.91934000  1.0
  C  C47  1  0.39576000  0.78418000  0.08066000  1.0
  C  C48  1  0.52870000  0.91021000  0.85451000  1.0
  C  C49  1  0.47129000  0.08980000  0.14549000  1.0
  C  C50  1  0.72292000  0.79986000  0.72871000  1.0
  C  C51  1  0.27707000  0.20014000  0.27129000  1.0
  C  C52  1  0.80989000  0.81572000  0.62924000  1.0
  C  C53  1  0.19012000  0.18429000  0.37077000  1.0
  C  C54  1  0.70711000  0.72286000  0.53636000  1.0
  C  C55  1  0.29286000  0.27712000  0.46362000  1.0
  N  N56  1  0.70936000  0.27243000  0.83017000  1.0
  N  N57  1  0.29065000  0.72757000  0.16984000  1.0
  N  N58  1  0.63666000  0.95811000  0.75991000  1.0
  N  N59  1  0.36334000  0.04189000  0.24009000  1.0
  N  N60  1  0.40143000  0.15112000  0.71016000  1.0
  N  N61  1  0.59858000  0.84888000  0.28984000  1.0
  N  N62  1  0.44494000  0.05725000  0.88712000  1.0
  N  N63  1  0.55506000  0.94275000  0.11288000  1.0
  Cl  Cl64  1  0.12657000  0.55706000  0.75014000  1.0
  Cl  Cl65  1  0.87343000  0.44294000  0.24986000  1.0
  Cl  Cl66  1  0.82802000  0.29945000  0.52291000  1.0
  Cl  Cl67  1  0.17198000  0.70055000  0.47709000  1.0
  Cl  Cl68  1  0.85674000  0.68348000  0.99370000  1.0
  Cl  Cl69  1  0.14326000  0.31652000  0.00630000  1.0
