# generated using pymatgen
data_LaH13(C4O3)4
_symmetry_space_group_name_H-M   'P 1'
_cell_length_a   9.04522000
_cell_length_b   9.89395000
_cell_length_c   12.20420000
_cell_angle_alpha   100.14200000
_cell_angle_beta   104.11500000
_cell_angle_gamma   108.42300000
_symmetry_Int_Tables_number   1
_chemical_formula_structural   LaH13(C4O3)4
_chemical_formula_sum   'La2 H26 C32 O24'
_cell_volume   966.14290178
_cell_formula_units_Z   2
loop_
 _symmetry_equiv_pos_site_id
 _symmetry_equiv_pos_as_xyz
  1  'x, y, z'
loop_
 _atom_site_type_symbol
 _atom_site_label
 _atom_site_symmetry_multiplicity
 _atom_site_fract_x
 _atom_site_fract_y
 _atom_site_fract_z
 _atom_site_occupancy
  La  La0  1  0.26907000  0.03781000  0.95957000  1.0
  La  La1  1  0.73093000  0.96219000  0.04042000  1.0
  H  H2  1  0.68368000  0.42749000  0.32878000  1.0
  H  H3  1  0.31632000  0.57251000  0.67122000  1.0
  H  H4  1  0.67848000  0.46468000  0.68536000  1.0
  H  H5  1  0.32153000  0.53533000  0.31465000  1.0
  H  H6  1  0.28421000  0.11962000  0.39865000  1.0
  H  H7  1  0.71581000  0.88038000  0.60135000  1.0
  H  H8  1  0.34163000  0.49811000  0.05260000  1.0
  H  H9  1  0.65837000  0.50189000  0.94740000  1.0
  H  H10  1  0.22538000  0.86350000  0.20584000  1.0
  H  H11  1  0.77462000  0.13651000  0.79415000  1.0
  H  H12  1  0.90764000  0.41176000  0.15662000  1.0
  H  H13  1  0.09236000  0.58824000  0.84338000  1.0
  H  H14  1  0.01335000  0.71937000  0.50715000  1.0
  H  H15  1  0.98664000  0.28063000  0.49285000  1.0
  H  H16  1  0.43981000  0.27515000  0.70437000  1.0
  H  H17  1  0.56018000  0.72484000  0.29563000  1.0
  H  H18  1  0.87251000  0.62535000  0.24912000  1.0
  H  H19  1  0.12749000  0.37465000  0.75088000  1.0
  H  H20  1  0.13874000  0.78164000  0.73477000  1.0
  H  H21  1  0.86125000  0.21837000  0.26522000  1.0
  H  H22  1  0.92120000  0.96635000  0.78704000  1.0
  H  H23  1  0.07880000  0.03366000  0.21296000  1.0
  H  H24  1  0.32881000  0.80213000  0.79316000  1.0
  H  H25  1  0.67118000  0.19787000  0.20683000  1.0
  H  H26  1  0.03768000  0.11154000  0.76929000  1.0
  H  H27  1  0.96232000  0.88847000  0.23072000  1.0
  C  C28  1  0.40473000  0.18950000  0.22183000  1.0
  C  C29  1  0.59528000  0.81050000  0.77818000  1.0
  C  C30  1  0.47772000  0.26490000  0.35051000  1.0
  C  C31  1  0.52228000  0.73509000  0.64949000  1.0
  C  C32  1  0.62623000  0.38735000  0.39124000  1.0
  C  C33  1  0.37375000  0.61264000  0.60875000  1.0
  C  C34  1  0.69791000  0.45787000  0.51158000  1.0
  C  C35  1  0.30209000  0.54212000  0.48843000  1.0
  C  C36  1  0.62151000  0.40714000  0.59195000  1.0
  C  C37  1  0.37849000  0.59285000  0.40806000  1.0
  C  C38  1  0.47154000  0.28522000  0.55058000  1.0
  C  C39  1  0.52845000  0.71476000  0.44941000  1.0
  C  C40  1  0.40069000  0.21425000  0.42963000  1.0
  C  C41  1  0.59932000  0.78574000  0.57037000  1.0
  C  C42  1  0.85468000  0.58845000  0.55616000  1.0
  C  C43  1  0.14533000  0.41156000  0.44385000  1.0
  C  C44  1  0.07982000  0.27710000  0.05270000  1.0
  C  C45  1  0.92018000  0.72290000  0.94730000  1.0
  C  C46  1  0.11998000  0.43950000  0.09972000  1.0
  C  C47  1  0.88003000  0.56050000  0.90028000  1.0
  C  C48  1  0.26246000  0.53983000  0.09098000  1.0
  C  C49  1  0.73754000  0.46017000  0.90902000  1.0
  C  C50  1  0.29839000  0.69184000  0.12776000  1.0
  C  C51  1  0.70162000  0.30817000  0.87224000  1.0
  C  C52  1  0.19752000  0.74483000  0.17829000  1.0
  C  C53  1  0.80248000  0.25517000  0.82171000  1.0
  C  C54  1  0.06000000  0.64382000  0.19210000  1.0
  C  C55  1  0.94000000  0.35618000  0.80790000  1.0
  C  C56  1  0.01818000  0.49134000  0.15032000  1.0
  C  C57  1  0.98182000  0.50866000  0.84968000  1.0
  C  C58  1  0.44543000  0.79456000  0.10955000  1.0
  C  C59  1  0.55457000  0.20544000  0.89045000  1.0
  O  O60  1  0.26070000  0.08848000  0.17961000  1.0
  O  O61  1  0.73932000  0.91153000  0.82039000  1.0
  O  O62  1  0.49146000  0.22712000  0.15539000  1.0
  O  O63  1  0.50853000  0.77287000  0.84460000  1.0
  O  O64  1  0.91407000  0.62915000  0.46983000  1.0
  O  O65  1  0.08594000  0.37084000  0.53016000  1.0
  O  O66  1  0.92743000  0.65553000  0.66047000  1.0
  O  O67  1  0.07256000  0.34448000  0.33955000  1.0
  O  O68  1  0.38458000  0.22923000  0.61954000  1.0
  O  O69  1  0.61542000  0.77076000  0.38045000  1.0
  O  O70  1  0.17720000  0.24117000  0.00550000  1.0
  O  O71  1  0.82280000  0.75883000  0.99450000  1.0
  O  O72  1  0.95171000  0.18470000  0.06150000  1.0
  O  O73  1  0.04829000  0.81531000  0.93850000  1.0
  O  O74  1  0.57898000  0.77219000  0.13766000  1.0
  O  O75  1  0.42102000  0.22782000  0.86235000  1.0
  O  O76  1  0.43399000  0.89951000  0.06346000  1.0
  O  O77  1  0.56601000  0.10049000  0.93654000  1.0
  O  O78  1  0.96945000  0.70296000  0.24721000  1.0
  O  O79  1  0.03055000  0.29704000  0.75279000  1.0
  O  O80  1  0.03111000  0.01333000  0.77861000  1.0
  O  O81  1  0.96889000  0.98668000  0.22139000  1.0
  O  O82  1  0.25177000  0.85423000  0.77687000  1.0
  O  O83  1  0.74822000  0.14578000  0.22312000  1.0
