# generated using pymatgen
data_Cu2H10C14N4O7
_symmetry_space_group_name_H-M   'P 1'
_cell_length_a   7.10437000
_cell_length_b   15.50880000
_cell_length_c   17.55110000
_cell_angle_alpha   110.57200000
_cell_angle_beta   100.08600000
_cell_angle_gamma   90.37390000
_symmetry_Int_Tables_number   1
_chemical_formula_structural   Cu2H10C14N4O7
_chemical_formula_sum   'Cu8 H40 C56 N16 O28'
_cell_volume   1777.62491790
_cell_formula_units_Z   4
loop_
 _symmetry_equiv_pos_site_id
 _symmetry_equiv_pos_as_xyz
  1  'x, y, z'
loop_
 _atom_site_type_symbol
 _atom_site_label
 _atom_site_symmetry_multiplicity
 _atom_site_fract_x
 _atom_site_fract_y
 _atom_site_fract_z
 _atom_site_occupancy
  Cu  Cu0  1  0.00697000  0.41306000  0.51160000  1.0
  Cu  Cu1  1  0.82230000  0.40853000  0.32742000  1.0
  Cu  Cu2  1  0.48735000  0.08609000  0.48900000  1.0
  Cu  Cu3  1  0.50764000  0.09208000  0.67380000  1.0
  Cu  Cu4  1  0.99298000  0.58693000  0.48842000  1.0
  Cu  Cu5  1  0.17765000  0.59143000  0.67258000  1.0
  Cu  Cu6  1  0.51281000  0.91393000  0.51100000  1.0
  Cu  Cu7  1  0.49246000  0.90795000  0.32620000  1.0
  H  H8  1  0.28465000  0.48298000  0.80762000  1.0
  H  H9  1  0.02997000  0.25073000  0.59911000  1.0
  H  H10  1  0.08638000  0.23996000  0.73707000  1.0
  H  H11  1  0.31832000  0.26790000  0.76668000  1.0
  H  H12  1  0.91847000  0.11310000  0.44534000  1.0
  H  H13  1  0.96636000  0.15396000  0.21791000  1.0
  H  H14  1  0.02138000  0.98611000  0.15346000  1.0
  H  H15  1  0.33159000  0.31808000  0.13658000  1.0
  H  H16  1  0.03309000  0.88606000  0.23675000  1.0
  H  H17  1  0.47889000  0.01867000  0.19210000  1.0
  H  H18  1  0.41975000  0.24981000  0.40296000  1.0
  H  H19  1  0.34543000  0.26107000  0.26560000  1.0
  H  H20  1  0.54905000  0.23480000  0.23372000  1.0
  H  H21  1  0.48837000  0.38877000  0.55485000  1.0
  H  H22  1  0.74317000  0.34408000  0.77929000  1.0
  H  H23  1  0.86525000  0.51112000  0.84393000  1.0
  H  H24  1  0.19980000  0.18476000  0.87160000  1.0
  H  H25  1  0.80505000  0.61254000  0.76201000  1.0
  H  H26  1  0.71545000  0.51699000  0.19238000  1.0
  H  H27  1  0.97005000  0.74924000  0.40091000  1.0
  H  H28  1  0.91361000  0.76007000  0.26302000  1.0
  H  H29  1  0.68171000  0.73207000  0.23334000  1.0
  H  H30  1  0.08159000  0.88688000  0.55471000  1.0
  H  H31  1  0.03353000  0.84599000  0.78212000  1.0
  H  H32  1  0.97871000  0.01386000  0.84660000  1.0
  H  H33  1  0.66828000  0.68193000  0.86338000  1.0
  H  H34  1  0.96714000  0.11393000  0.76335000  1.0
  H  H35  1  0.52122000  0.98135000  0.80789000  1.0
  H  H36  1  0.58021000  0.75017000  0.59704000  1.0
  H  H37  1  0.65431000  0.73888000  0.73435000  1.0
  H  H38  1  0.45083000  0.76529000  0.76631000  1.0
  H  H39  1  0.51166000  0.61122000  0.44508000  1.0
  H  H40  1  0.25681000  0.65602000  0.22071000  1.0
  H  H41  1  0.13475000  0.48899000  0.15604000  1.0
  H  H42  1  0.80011000  0.81528000  0.12837000  1.0
  H  H43  1  0.19483000  0.38751000  0.23791000  1.0
  H  H44  1  0.78762000  0.25135000  0.99808000  1.0
  H  H45  1  0.09140000  0.25194000  0.00653000  1.0
  H  H46  1  0.21230000  0.74862000  0.00194000  1.0
  H  H47  1  0.90848000  0.74813000  0.99342000  1.0
  C  C48  1  0.21697000  0.44115000  0.74499000  1.0
  C  C49  1  0.08616000  0.32186000  0.63604000  1.0
  C  C50  1  0.94430000  0.92355000  0.38682000  1.0
  C  C51  1  0.94022000  0.08583000  0.38141000  1.0
  C  C52  1  0.94345000  0.14379000  0.33561000  1.0
  C  C53  1  0.96582000  0.99178000  0.34450000  1.0
  C  C54  1  0.92433000  0.24495000  0.37236000  1.0
  C  C55  1  0.96703000  0.10769000  0.25249000  1.0
  C  C56  1  0.99775000  0.01471000  0.21705000  1.0
  C  C57  1  0.72285000  0.32778000  0.15442000  1.0
  C  C58  1  0.57515000  0.28855000  0.07604000  1.0
  C  C59  1  0.37835000  0.28862000  0.07766000  1.0
  C  C60  1  0.00060000  0.95770000  0.26347000  1.0
  C  C61  1  0.46866000  0.06011000  0.25508000  1.0
  C  C62  1  0.44015000  0.17882000  0.36529000  1.0
  C  C63  1  0.57369000  0.57823000  0.61510000  1.0
  C  C64  1  0.57045000  0.41484000  0.61808000  1.0
  C  C65  1  0.61366000  0.35601000  0.66289000  1.0
  C  C66  1  0.63364000  0.50858000  0.65535000  1.0
  C  C67  1  0.55554000  0.25520000  0.62661000  1.0
  C  C68  1  0.71500000  0.39094000  0.74532000  1.0
  C  C69  1  0.78242000  0.48345000  0.78089000  1.0
  C  C70  1  0.57015000  0.17483000  0.84579000  1.0
  C  C71  1  0.50063000  0.21403000  0.92635000  1.0
  C  C72  1  0.30423000  0.21401000  0.92892000  1.0
  C  C73  1  0.74502000  0.54125000  0.73531000  1.0
  C  C74  1  0.78309000  0.55882000  0.25501000  1.0
  C  C75  1  0.91384000  0.67811000  0.36398000  1.0
  C  C76  1  0.05592000  0.07645000  0.61327000  1.0
  C  C77  1  0.05985000  0.91415000  0.61864000  1.0
  C  C78  1  0.05656000  0.85618000  0.66443000  1.0
  C  C79  1  0.03436000  0.00821000  0.65557000  1.0
  C  C80  1  0.07566000  0.75503000  0.62766000  1.0
  C  C81  1  0.03293000  0.89227000  0.74755000  1.0
  C  C82  1  0.00230000  0.98526000  0.78300000  1.0
  C  C83  1  0.27703000  0.67219000  0.84558000  1.0
  C  C84  1  0.42475000  0.71143000  0.92395000  1.0
  C  C85  1  0.62154000  0.71139000  0.92230000  1.0
  C  C86  1  0.99958000  0.04228000  0.73660000  1.0
  C  C87  1  0.53142000  0.93990000  0.74491000  1.0
  C  C88  1  0.55985000  0.82118000  0.63469000  1.0
  C  C89  1  0.42607000  0.42171000  0.38480000  1.0
  C  C90  1  0.42956000  0.58515000  0.38186000  1.0
  C  C91  1  0.38641000  0.64402000  0.33708000  1.0
  C  C92  1  0.36629000  0.49142000  0.34458000  1.0
  C  C93  1  0.44462000  0.74482000  0.37338000  1.0
  C  C94  1  0.28504000  0.60914000  0.25466000  1.0
  C  C95  1  0.21758000  0.51663000  0.21908000  1.0
  C  C96  1  0.42981000  0.82516000  0.15421000  1.0
  C  C97  1  0.49930000  0.78598000  0.07363000  1.0
  C  C98  1  0.69568000  0.78602000  0.07105000  1.0
  C  C99  1  0.25491000  0.45879000  0.26462000  1.0
  C  C100  1  0.63535000  0.25132000  0.00006000  1.0
  C  C101  1  0.24373000  0.25147000  0.00444000  1.0
  C  C102  1  0.36456000  0.74866000  0.99993000  1.0
  C  C103  1  0.75616000  0.74856000  0.99552000  1.0
  N  N104  1  0.08361000  0.39585000  0.61520000  1.0
  N  N105  1  0.16611000  0.46964000  0.68219000  1.0
  N  N106  1  0.16897000  0.34890000  0.71773000  1.0
  N  N107  1  0.18679000  0.29525000  0.76772000  1.0
  N  N108  1  0.45497000  0.10430000  0.38533000  1.0
  N  N109  1  0.47469000  0.03085000  0.31753000  1.0
  N  N110  1  0.44712000  0.15239000  0.28325000  1.0
  N  N111  1  0.41776000  0.20642000  0.23378000  1.0
  N  N112  1  0.91639000  0.60412000  0.38481000  1.0
  N  N113  1  0.83393000  0.53033000  0.31781000  1.0
  N  N114  1  0.83108000  0.65108000  0.28228000  1.0
  N  N115  1  0.81328000  0.70475000  0.23233000  1.0
  N  N116  1  0.54513000  0.89570000  0.61466000  1.0
  N  N117  1  0.52545000  0.96916000  0.68246000  1.0
  N  N118  1  0.55288000  0.84762000  0.71674000  1.0
  N  N119  1  0.58216000  0.79358000  0.76620000  1.0
  O  O120  1  0.84909000  0.28262000  0.32144000  1.0
  O  O121  1  0.98403000  0.28424000  0.45043000  1.0
  O  O122  1  0.05001000  0.85592000  0.37298000  1.0
  O  O123  1  0.81164000  0.93459000  0.42881000  1.0
  O  O124  1  0.98261000  0.46109000  0.42844000  1.0
  O  O125  1  0.64870000  0.35927000  0.22211000  1.0
  O  O126  1  0.89722000  0.33028000  0.15362000  1.0
  O  O127  1  0.52964000  0.21783000  0.67846000  1.0
  O  O128  1  0.53642000  0.21555000  0.54804000  1.0
  O  O129  1  0.69451000  0.64431000  0.62610000  1.0
  O  O130  1  0.40033000  0.56966000  0.57777000  1.0
  O  O131  1  0.57531000  0.03911000  0.57099000  1.0
  O  O132  1  0.43158000  0.14061000  0.78043000  1.0
  O  O133  1  0.74379000  0.17494000  0.84312000  1.0
  O  O134  1  0.15094000  0.71736000  0.67857000  1.0
  O  O135  1  0.01594000  0.71575000  0.54960000  1.0
  O  O136  1  0.95007000  0.14403000  0.62706000  1.0
  O  O137  1  0.18874000  0.06554000  0.57137000  1.0
  O  O138  1  0.01718000  0.53888000  0.57157000  1.0
  O  O139  1  0.35123000  0.64072000  0.77790000  1.0
  O  O140  1  0.10266000  0.66967000  0.84637000  1.0
  O  O141  1  0.47066000  0.78220000  0.32155000  1.0
  O  O142  1  0.46369000  0.78447000  0.45194000  1.0
  O  O143  1  0.30517000  0.35566000  0.37379000  1.0
  O  O144  1  0.59942000  0.43020000  0.42210000  1.0
  O  O145  1  0.42480000  0.96093000  0.42901000  1.0
  O  O146  1  0.56842000  0.85940000  0.21954000  1.0
  O  O147  1  0.25618000  0.82501000  0.15691000  1.0
