# generated using pymatgen
data_CuH20C20(NO2)2
_symmetry_space_group_name_H-M   'P 1'
_cell_length_a   7.56065000
_cell_length_b   9.43177000
_cell_length_c   15.98810000
_cell_angle_alpha   90.00000000
_cell_angle_beta   94.35190000
_cell_angle_gamma   89.99970000
_symmetry_Int_Tables_number   1
_chemical_formula_structural   CuH20C20(NO2)2
_chemical_formula_sum   'Cu2 H40 C40 N4 O8'
_cell_volume   1136.82922099
_cell_formula_units_Z   2
loop_
 _symmetry_equiv_pos_site_id
 _symmetry_equiv_pos_as_xyz
  1  'x, y, z'
loop_
 _atom_site_type_symbol
 _atom_site_label
 _atom_site_symmetry_multiplicity
 _atom_site_fract_x
 _atom_site_fract_y
 _atom_site_fract_z
 _atom_site_occupancy
  Cu  Cu0  1  0.00000000  0.00000000  0.00000000  1.0
  Cu  Cu1  1  0.50000000  0.50000000  0.50000000  1.0
  H  H2  1  0.85326000  0.34816000  0.16299000  1.0
  H  H3  1  0.35325000  0.15185000  0.66299000  1.0
  H  H4  1  0.14674000  0.65184000  0.83702000  1.0
  H  H5  1  0.64675000  0.84815000  0.33700000  1.0
  H  H6  1  0.06797000  0.39442000  0.21087000  1.0
  H  H7  1  0.56797000  0.10559000  0.71087000  1.0
  H  H8  1  0.93203000  0.60558000  0.78914000  1.0
  H  H9  1  0.43204000  0.89442000  0.28912000  1.0
  H  H10  1  0.94704000  0.25430000  0.25224000  1.0
  H  H11  1  0.44704000  0.24571000  0.75224000  1.0
  H  H12  1  0.05296000  0.74570000  0.74776000  1.0
  H  H13  1  0.55296000  0.75429000  0.24775000  1.0
  H  H14  1  0.53978000  0.91590000  0.10618000  1.0
  H  H15  1  0.03980000  0.58411000  0.60619000  1.0
  H  H16  1  0.46021000  0.08411000  0.89382000  1.0
  H  H17  1  0.96021000  0.41591000  0.39381000  1.0
  H  H18  1  0.56324000  0.04975000  0.18627000  1.0
  H  H19  1  0.06323000  0.45025000  0.68629000  1.0
  H  H20  1  0.43677000  0.95025000  0.81372000  1.0
  H  H21  1  0.93675000  0.54977000  0.31372000  1.0
  H  H22  1  0.59787000  0.08955000  0.07989000  1.0
  H  H23  1  0.09789000  0.41045000  0.57990000  1.0
  H  H24  1  0.40212000  0.91045000  0.92010000  1.0
  H  H25  1  0.90212000  0.58956000  0.42010000  1.0
  H  H26  1  0.49030000  0.37089000  0.16239000  1.0
  H  H27  1  0.99028000  0.12909000  0.66238000  1.0
  H  H28  1  0.50972000  0.62909000  0.83764000  1.0
  H  H29  1  0.00972000  0.87090000  0.33761000  1.0
  H  H30  1  0.15012000  0.03498000  0.79360000  1.0
  H  H31  1  0.65012000  0.46500000  0.29362000  1.0
  H  H32  1  0.84987000  0.96502000  0.20638000  1.0
  H  H33  1  0.34989000  0.53497000  0.70641000  1.0
  H  H34  1  0.88950000  0.31093000  0.94249000  1.0
  H  H35  1  0.38947000  0.18905000  0.44250000  1.0
  H  H36  1  0.11051000  0.68907000  0.05749000  1.0
  H  H37  1  0.61050000  0.81093000  0.55752000  1.0
  H  H38  1  0.21646000  0.08381000  0.31764000  1.0
  H  H39  1  0.71647000  0.41618000  0.81764000  1.0
  H  H40  1  0.78353000  0.91617000  0.68237000  1.0
  H  H41  1  0.28354000  0.58383000  0.18235000  1.0
  C  C42  1  0.97717000  0.30682000  0.19351000  1.0
  C  C43  1  0.47717000  0.19319000  0.69351000  1.0
  C  C44  1  0.02283000  0.69318000  0.80650000  1.0
  C  C45  1  0.52284000  0.80681000  0.30648000  1.0
  C  C46  1  0.05784000  0.20162000  0.13607000  1.0
  C  C47  1  0.55785000  0.29840000  0.63607000  1.0
  C  C48  1  0.94215000  0.79839000  0.86393000  1.0
  C  C49  1  0.44216000  0.70160000  0.36392000  1.0
  C  C50  1  0.23683000  0.15953000  0.15334000  1.0
  C  C51  1  0.73684000  0.34048000  0.65334000  1.0
  C  C52  1  0.76316000  0.84047000  0.84667000  1.0
  C  C53  1  0.26318000  0.65952000  0.34664000  1.0
  C  C54  1  0.32342000  0.06188000  0.10237000  1.0
  C  C55  1  0.82343000  0.43812000  0.60238000  1.0
  C  C56  1  0.67658000  0.93812000  0.89763000  1.0
  C  C57  1  0.17658000  0.56189000  0.39761000  1.0
  C  C58  1  0.51694000  0.02754000  0.12108000  1.0
  C  C59  1  0.01694000  0.47247000  0.62109000  1.0
  C  C60  1  0.48306000  0.97247000  0.87892000  1.0
  C  C61  1  0.98306000  0.52754000  0.37891000  1.0
  C  C62  1  0.33785000  0.21932000  0.22893000  1.0
  C  C63  1  0.83786000  0.28067000  0.72892000  1.0
  C  C64  1  0.66214000  0.78066000  0.77109000  1.0
  C  C65  1  0.16215000  0.71934000  0.27106000  1.0
  C  C66  1  0.46358000  0.32759000  0.22347000  1.0
  C  C67  1  0.96357000  0.17241000  0.72347000  1.0
  C  C68  1  0.53643000  0.67240000  0.77655000  1.0
  C  C69  1  0.03643000  0.82760000  0.27652000  1.0
  C  C70  1  0.05370000  0.12075000  0.79651000  1.0
  C  C71  1  0.55370000  0.37924000  0.29653000  1.0
  C  C72  1  0.94631000  0.87925000  0.20347000  1.0
  C  C73  1  0.44630000  0.62074000  0.70350000  1.0
  C  C74  1  0.90904000  0.27420000  0.87903000  1.0
  C  C75  1  0.40902000  0.22580000  0.37903000  1.0
  C  C76  1  0.09097000  0.72581000  0.12096000  1.0
  C  C77  1  0.59096000  0.77419000  0.62099000  1.0
  C  C78  1  0.31187000  0.16858000  0.30958000  1.0
  C  C79  1  0.81188000  0.33142000  0.80958000  1.0
  C  C80  1  0.68812000  0.83141000  0.69043000  1.0
  C  C81  1  0.18813000  0.66859000  0.19041000  1.0
  N  N82  1  0.02856000  0.16981000  0.87355000  1.0
  N  N83  1  0.52853000  0.33018000  0.37356000  1.0
  N  N84  1  0.97144000  0.83021000  0.12644000  1.0
  N  N85  1  0.47145000  0.66980000  0.62646000  1.0
  O  O86  1  0.95280000  0.15806000  0.07481000  1.0
  O  O87  1  0.45280000  0.34196000  0.57481000  1.0
  O  O88  1  0.04720000  0.84195000  0.92519000  1.0
  O  O89  1  0.54720000  0.65805000  0.42518000  1.0
  O  O90  1  0.24959000  0.99698000  0.03886000  1.0
  O  O91  1  0.74959000  0.50304000  0.53886000  1.0
  O  O92  1  0.75041000  0.00305000  0.96114000  1.0
  O  O93  1  0.25041000  0.49698000  0.46113000  1.0
