# generated using pymatgen
data_SnH21C21NO3
_symmetry_space_group_name_H-M   'P 1'
_cell_length_a   7.36329000
_cell_length_b   11.49950000
_cell_length_c   11.69560000
_cell_angle_alpha   104.26600000
_cell_angle_beta   105.77200000
_cell_angle_gamma   97.81010000
_symmetry_Int_Tables_number   1
_chemical_formula_structural   SnH21C21NO3
_chemical_formula_sum   'Sn2 H42 C42 N2 O6'
_cell_volume   901.52638403
_cell_formula_units_Z   2
loop_
 _symmetry_equiv_pos_site_id
 _symmetry_equiv_pos_as_xyz
  1  'x, y, z'
loop_
 _atom_site_type_symbol
 _atom_site_label
 _atom_site_symmetry_multiplicity
 _atom_site_fract_x
 _atom_site_fract_y
 _atom_site_fract_z
 _atom_site_occupancy
  Sn  Sn0  1  0.83889000  0.71070000  0.19976000  1.0
  Sn  Sn1  1  0.16111000  0.28930000  0.80024000  1.0
  H  H2  1  0.91198000  0.69250000  0.51840000  1.0
  H  H3  1  0.08803000  0.30750000  0.48160000  1.0
  H  H4  1  0.57776000  0.45543000  0.15528000  1.0
  H  H5  1  0.42223000  0.54456000  0.84472000  1.0
  H  H6  1  0.40823000  0.25013000  0.13987000  1.0
  H  H7  1  0.59176000  0.74986000  0.86013000  1.0
  H  H8  1  0.32505000  0.09230000  0.23580000  1.0
  H  H9  1  0.67495000  0.90769000  0.76420000  1.0
  H  H10  1  0.34566000  0.02342000  0.42113000  1.0
  H  H11  1  0.65434000  0.97658000  0.57887000  1.0
  H  H12  1  0.54557000  0.16497000  0.63260000  1.0
  H  H13  1  0.45442000  0.83504000  0.36741000  1.0
  H  H14  1  0.71251000  0.37074000  0.65607000  1.0
  H  H15  1  0.28748000  0.62927000  0.34393000  1.0
  H  H16  1  0.81431000  0.53823000  0.66845000  1.0
  H  H17  1  0.18569000  0.46177000  0.33154000  1.0
  H  H18  1  0.87588000  0.68157000  0.82873000  1.0
  H  H19  1  0.12412000  0.31843000  0.17127000  1.0
  H  H20  1  0.32217000  0.00488000  0.03138000  1.0
  H  H21  1  0.67784000  0.99513000  0.96862000  1.0
  H  H22  1  0.37054000  0.02382000  0.83257000  1.0
  H  H23  1  0.62945000  0.97618000  0.16742000  1.0
  H  H24  1  0.17768000  0.86770000  0.63233000  1.0
  H  H25  1  0.82231000  0.13230000  0.36766000  1.0
  H  H26  1  0.10744000  0.85242000  0.41465000  1.0
  H  H27  1  0.89257000  0.14758000  0.58535000  1.0
  H  H28  1  0.87433000  0.88235000  0.41392000  1.0
  H  H29  1  0.12568000  0.11765000  0.58608000  1.0
  H  H30  1  0.00542000  0.94869000  0.32757000  1.0
  H  H31  1  0.99459000  0.05131000  0.67243000  1.0
  H  H32  1  0.46167000  0.68791000  0.19005000  1.0
  H  H33  1  0.53834000  0.31209000  0.80995000  1.0
  H  H34  1  0.47269000  0.59635000  0.04587000  1.0
  H  H35  1  0.52732000  0.40365000  0.95413000  1.0
  H  H36  1  0.49911000  0.75852000  0.07627000  1.0
  H  H37  1  0.50089000  0.24148000  0.92373000  1.0
  H  H38  1  0.10658000  0.58382000  0.14307000  1.0
  H  H39  1  0.89342000  0.41617000  0.85693000  1.0
  H  H40  1  0.86954000  0.49740000  0.05174000  1.0
  H  H41  1  0.13046000  0.50260000  0.94826000  1.0
  H  H42  1  0.95982000  0.49920000  0.20934000  1.0
  H  H43  1  0.04016000  0.50080000  0.79066000  1.0
  C  C44  1  0.70300000  0.51414000  0.35631000  1.0
  C  C45  1  0.29699000  0.48585000  0.64368000  1.0
  C  C46  1  0.58793000  0.42772000  0.23888000  1.0
  C  C47  1  0.41207000  0.57229000  0.76111000  1.0
  C  C48  1  0.49501000  0.31332000  0.23099000  1.0
  C  C49  1  0.50498000  0.68667000  0.76901000  1.0
  C  C50  1  0.50590000  0.27374000  0.33883000  1.0
  C  C51  1  0.49411000  0.72627000  0.66117000  1.0
  C  C52  1  0.40908000  0.15462000  0.32763000  1.0
  C  C53  1  0.59092000  0.84537000  0.67238000  1.0
  C  C54  1  0.42081000  0.11556000  0.43160000  1.0
  C  C55  1  0.57920000  0.88446000  0.56841000  1.0
  C  C56  1  0.53140000  0.19539000  0.54987000  1.0
  C  C57  1  0.46859000  0.80460000  0.45013000  1.0
  C  C58  1  0.62733000  0.31268000  0.56288000  1.0
  C  C59  1  0.37267000  0.68733000  0.43713000  1.0
  C  C60  1  0.61714000  0.35594000  0.45871000  1.0
  C  C61  1  0.38285000  0.64406000  0.54129000  1.0
  C  C62  1  0.71438000  0.47824000  0.46759000  1.0
  C  C63  1  0.28562000  0.52176000  0.53241000  1.0
  C  C64  1  0.81562000  0.56292000  0.58466000  1.0
  C  C65  1  0.18438000  0.43708000  0.41534000  1.0
  C  C66  1  0.01765000  0.76261000  0.71703000  1.0
  C  C67  1  0.98235000  0.23739000  0.28298000  1.0
  C  C68  1  0.98622000  0.75425000  0.82780000  1.0
  C  C69  1  0.01378000  0.24575000  0.17220000  1.0
  C  C70  1  0.09600000  0.84132000  0.94079000  1.0
  C  C71  1  0.90400000  0.15868000  0.05921000  1.0
  C  C72  1  0.23647000  0.93784000  0.94272000  1.0
  C  C73  1  0.76353000  0.06216000  0.05727000  1.0
  C  C74  1  0.26271000  0.94829000  0.83172000  1.0
  C  C75  1  0.73729000  0.05171000  0.16828000  1.0
  C  C76  1  0.15410000  0.86126000  0.71885000  1.0
  C  C77  1  0.84590000  0.13874000  0.28115000  1.0
  C  C78  1  0.06538000  0.82937000  0.05996000  1.0
  C  C79  1  0.93463000  0.17063000  0.94005000  1.0
  C  C80  1  0.97292000  0.86855000  0.35887000  1.0
  C  C81  1  0.02709000  0.13145000  0.64113000  1.0
  C  C82  1  0.53137000  0.68523000  0.11813000  1.0
  C  C83  1  0.46864000  0.31477000  0.88188000  1.0
  C  C84  1  0.96003000  0.55410000  0.14523000  1.0
  C  C85  1  0.03997000  0.44590000  0.85477000  1.0
  N  N86  1  0.91621000  0.67424000  0.60196000  1.0
  N  N87  1  0.08380000  0.32576000  0.39804000  1.0
  O  O88  1  0.79356000  0.62162000  0.36287000  1.0
  O  O89  1  0.20644000  0.37838000  0.63713000  1.0
  O  O90  1  0.89052000  0.77355000  0.04669000  1.0
  O  O91  1  0.10948000  0.22645000  0.95331000  1.0
  O  O92  1  0.20135000  0.86930000  0.15982000  1.0
  O  O93  1  0.79865000  0.13070000  0.84017000  1.0
