# generated using pymatgen
data_CuH4C6NO4
_symmetry_space_group_name_H-M   'P 1'
_cell_length_a   7.23608000
_cell_length_b   7.67981000
_cell_length_c   7.67972000
_cell_angle_alpha   100.63700000
_cell_angle_beta   107.22300000
_cell_angle_gamma   107.22300000
_symmetry_Int_Tables_number   1
_chemical_formula_structural   CuH4C6NO4
_chemical_formula_sum   'Cu2 H8 C12 N2 O8'
_cell_volume   371.61863425
_cell_formula_units_Z   2
loop_
 _symmetry_equiv_pos_site_id
 _symmetry_equiv_pos_as_xyz
  1  'x, y, z'
loop_
 _atom_site_type_symbol
 _atom_site_label
 _atom_site_symmetry_multiplicity
 _atom_site_fract_x
 _atom_site_fract_y
 _atom_site_fract_z
 _atom_site_occupancy
  Cu  Cu0  1  0.51791000  0.60019000  0.14462000  1.0
  Cu  Cu1  1  0.48209000  0.85537000  0.39981000  1.0
  H  H2  1  0.06206000  0.08497000  0.15540000  1.0
  H  H3  1  0.93793000  0.84460000  0.91504000  1.0
  H  H4  1  0.93774000  0.37108000  0.38950000  1.0
  H  H5  1  0.06227000  0.61053000  0.62892000  1.0
  H  H6  1  0.51368000  0.53737000  0.72995000  1.0
  H  H7  1  0.48632000  0.27004000  0.46261000  1.0
  H  H8  1  0.51368000  0.18574000  0.08156000  1.0
  H  H9  1  0.48630000  0.91843000  0.81425000  1.0
  C  C10  1  0.79013000  0.98698000  0.23699000  1.0
  C  C11  1  0.20987000  0.76301000  0.01302000  1.0
  C  C12  1  0.97246000  0.13494000  0.23015000  1.0
  C  C13  1  0.02754000  0.76987000  0.86507000  1.0
  C  C14  1  0.02742000  0.32120000  0.31483000  1.0
  C  C15  1  0.97259000  0.68521000  0.67882000  1.0
  C  C16  1  0.20975000  0.46904000  0.30794000  1.0
  C  C17  1  0.79027000  0.69208000  0.53096000  1.0
  C  C18  1  0.50801000  0.39868000  0.74873000  1.0
  C  C19  1  0.49199000  0.25126000  0.60131000  1.0
  C  C20  1  0.50800000  0.20447000  0.94286000  1.0
  C  C21  1  0.49199000  0.05712000  0.79552000  1.0
  N  N22  1  0.51623000  0.37523000  0.91942000  1.0
  N  N23  1  0.48376000  0.08057000  0.62476000  1.0
  O  O24  1  0.73882000  0.81859000  0.12964000  1.0
  O  O25  1  0.26119000  0.87035000  0.18142000  1.0
  O  O26  1  0.29691000  0.65249000  0.95988000  1.0
  O  O27  1  0.70307000  0.04011000  0.34750000  1.0
  O  O28  1  0.26201000  0.63726000  0.41612000  1.0
  O  O29  1  0.73801000  0.58389000  0.36274000  1.0
  O  O30  1  0.29594000  0.41605000  0.19653000  1.0
  O  O31  1  0.70407000  0.80348000  0.58394000  1.0
