# generated using pymatgen
data_Ni2H76C53(NO)12
_symmetry_space_group_name_H-M   'P 1'
_cell_length_a   8.95597000
_cell_length_b   18.88960000
_cell_length_c   23.40616076
_cell_angle_alpha   88.71008372
_cell_angle_beta   78.96085485
_cell_angle_gamma   76.27940000
_symmetry_Int_Tables_number   1
_chemical_formula_structural   Ni2H76C53(NO)12
_chemical_formula_sum   'Ni4 H152 C106 N24 O24'
_cell_volume   3774.46751755
_cell_formula_units_Z   2
loop_
 _symmetry_equiv_pos_site_id
 _symmetry_equiv_pos_as_xyz
  1  'x, y, z'
loop_
 _atom_site_type_symbol
 _atom_site_label
 _atom_site_symmetry_multiplicity
 _atom_site_fract_x
 _atom_site_fract_y
 _atom_site_fract_z
 _atom_site_occupancy
  Ni  Ni0  1  0.50000000  0.50000000  0.00000000  1.0
  Ni  Ni1  1  0.50000000  0.00000000  0.50000000  1.0
  Ni  Ni2  1  0.50000000  0.00000000  0.00000000  1.0
  Ni  Ni3  1  1.00000000  0.50000000  0.50000000  1.0
  H  H4  1  0.33934000  0.61657000  0.04950000  1.0
  H  H5  1  0.23156000  0.47254000  0.02922000  1.0
  H  H6  1  0.50124000  0.52354000  0.13408000  1.0
  H  H7  1  0.35100000  0.60513000  0.15433000  1.0
  H  H8  1  0.22961000  0.41533000  0.12382000  1.0
  H  H9  1  0.43331000  0.41602000  0.11336000  1.0
  H  H10  1  0.66300000  0.58494000  0.07216000  1.0
  H  H11  1  0.53430000  0.67330000  0.07680000  1.0
  H  H12  1  0.28628000  0.34301000  0.01938000  1.0
  H  H13  1  0.47982000  0.33934000  0.02918000  1.0
  H  H14  1  0.10164000  0.58015000  0.08517000  1.0
  H  H15  1  0.08366000  0.60446000  0.15947000  1.0
  H  H16  1  0.03479000  0.52268000  0.14160000  1.0
  H  H17  1  0.55843000  0.08771000  0.92220000  1.0
  H  H18  1  0.69708000  0.05386000  0.03785000  1.0
  H  H19  1  0.47365000  0.01415000  0.13503000  1.0
  H  H20  1  0.66777000  0.02117000  0.13763000  1.0
  H  H21  1  0.37428000  0.12666000  0.09158000  1.0
  H  H22  1  0.54345000  0.15709000  0.10131000  1.0
  H  H23  1  0.33602000  0.10871000  0.87400000  1.0
  H  H24  1  0.22638000  0.08007000  0.93847000  1.0
  H  H25  1  0.36928000  0.20597000  0.95170000  1.0
  H  H26  1  0.27252000  0.15722000  0.00781000  1.0
  H  H27  1  0.72009000  0.13935000  0.96864000  1.0
  H  H28  1  0.68882000  0.21058000  0.02200000  1.0
  H  H29  1  0.61430000  0.22856000  0.95698000  1.0
  H  H30  1  0.52884000  0.86630000  0.76849000  1.0
  H  H31  1  0.43405000  0.82569000  0.72142000  1.0
  H  H32  1  0.73443000  0.79159000  0.81290000  1.0
  H  H33  1  0.62195000  0.72779000  0.84196000  1.0
  H  H34  1  0.96344000  0.71780000  0.96953000  1.0
  H  H35  1  0.00010000  0.01300000  0.80808000  1.0
  H  H36  1  0.25607000  0.93086000  0.76164000  1.0
  H  H37  1  0.78710000  0.75115000  0.89823000  1.0
  H  H38  1  0.09673000  0.58519000  0.77861000  1.0
  H  H39  1  0.26738000  0.55009000  0.85309000  1.0
  H  H40  1  0.94827000  0.86307000  0.94624000  1.0
  H  H41  1  0.20047000  0.77864000  0.89962000  1.0
  H  H42  1  0.50545000  0.88341000  0.45057000  1.0
  H  H43  1  0.23293000  0.02730000  0.47104000  1.0
  H  H44  1  0.65832000  0.97655000  0.36591000  1.0
  H  H45  1  0.61014000  0.89489000  0.34571000  1.0
  H  H46  1  0.26766000  0.08445000  0.37642000  1.0
  H  H47  1  0.46157000  0.08401000  0.38672000  1.0
  H  H48  1  0.82007000  0.91514000  0.42761000  1.0
  H  H49  1  0.78449000  0.82675000  0.42307000  1.0
  H  H50  1  0.14797000  0.15682000  0.48087000  1.0
  H  H51  1  0.34765000  0.16057000  0.47085000  1.0
  H  H52  1  0.26668000  0.91962000  0.41490000  1.0
  H  H53  1  0.34745000  0.89541000  0.34058000  1.0
  H  H54  1  0.19869000  0.97711000  0.35851000  1.0
  H  H55  1  0.06853000  0.41227000  0.57776000  1.0
  H  H56  1  0.28895000  0.44605000  0.46205000  1.0
  H  H57  1  0.12276000  0.48573000  0.36495000  1.0
  H  H58  1  0.32649000  0.47878000  0.36229000  1.0
  H  H59  1  0.09260000  0.37328000  0.40839000  1.0
  H  H60  1  0.30196000  0.34280000  0.39867000  1.0
  H  H61  1  0.81896000  0.39138000  0.62609000  1.0
  H  H62  1  0.74496000  0.41998000  0.56168000  1.0
  H  H63  1  0.02694000  0.29405000  0.54834000  1.0
  H  H64  1  0.93747000  0.34281000  0.49223000  1.0
  H  H65  1  0.32821000  0.36056000  0.53130000  1.0
  H  H66  1  0.42144000  0.28934000  0.47789000  1.0
  H  H67  1  0.30001000  0.27135000  0.54294000  1.0
  H  H68  1  0.66323000  0.63343000  0.73152000  1.0
  H  H69  1  0.48099000  0.67420000  0.77873000  1.0
  H  H70  1  0.83925000  0.70814000  0.68708000  1.0
  H  H71  1  0.69163000  0.77172000  0.65799000  1.0
  H  H72  1  0.15033000  0.78214000  0.53030000  1.0
  H  H73  1  0.32063000  0.48686000  0.69194000  1.0
  H  H74  1  0.44793000  0.56895000  0.73845000  1.0
  H  H75  1  0.93596000  0.74882000  0.60158000  1.0
  H  H76  1  0.95991000  0.91475000  0.72122000  1.0
  H  H77  1  0.16999000  0.94983000  0.64676000  1.0
  H  H78  1  0.25723000  0.63689000  0.55383000  1.0
  H  H79  1  0.37824000  0.72127000  0.60052000  1.0
  H  H80  1  0.66067000  0.38343000  0.95050000  1.0
  H  H81  1  0.76844000  0.52746000  0.97078000  1.0
  H  H82  1  0.49876000  0.47646000  0.86592000  1.0
  H  H83  1  0.64900000  0.39487000  0.84567000  1.0
  H  H84  1  0.77039000  0.58467000  0.87618000  1.0
  H  H85  1  0.56669000  0.58398000  0.88664000  1.0
  H  H86  1  0.33700000  0.41506000  0.92784000  1.0
  H  H87  1  0.46570000  0.32670000  0.92320000  1.0
  H  H88  1  0.71372000  0.65699000  0.98062000  1.0
  H  H89  1  0.52018000  0.66066000  0.97082000  1.0
  H  H90  1  0.89836000  0.41985000  0.91483000  1.0
  H  H91  1  0.91635000  0.39554000  0.84053000  1.0
  H  H92  1  0.96521000  0.47732000  0.85840000  1.0
  H  H93  1  0.44156000  0.91229000  0.07780000  1.0
  H  H94  1  0.30293000  0.94614000  0.96215000  1.0
  H  H95  1  0.52636000  0.98585000  0.86496000  1.0
  H  H96  1  0.33223000  0.97883000  0.86237000  1.0
  H  H97  1  0.62573000  0.87334000  0.90842000  1.0
  H  H98  1  0.45657000  0.84291000  0.89868000  1.0
  H  H99  1  0.66398000  0.89129000  0.12600000  1.0
  H  H100  1  0.77362000  0.91993000  0.06153000  1.0
  H  H101  1  0.63072000  0.79403000  0.04830000  1.0
  H  H102  1  0.72749000  0.84278000  0.99219000  1.0
  H  H103  1  0.27991000  0.86064000  0.03136000  1.0
  H  H104  1  0.31119000  0.78942000  0.97800000  1.0
  H  H105  1  0.38571000  0.77144000  0.04301000  1.0
  H  H106  1  0.47117000  0.13370000  0.23151000  1.0
  H  H107  1  0.56595000  0.17431000  0.27859000  1.0
  H  H108  1  0.26558000  0.20840000  0.18709000  1.0
  H  H109  1  0.37806000  0.27221000  0.15804000  1.0
  H  H110  1  0.03657000  0.28219000  0.03047000  1.0
  H  H111  1  0.99991000  0.98699000  0.19192000  1.0
  H  H112  1  0.74394000  0.06914000  0.23837000  1.0
  H  H113  1  0.21291000  0.24885000  0.10177000  1.0
  H  H114  1  0.90327000  0.41480000  0.22139000  1.0
  H  H115  1  0.73262000  0.44990000  0.14691000  1.0
  H  H116  1  0.05173000  0.13693000  0.05376000  1.0
  H  H117  1  0.79952000  0.22136000  0.10039000  1.0
  H  H118  1  0.49455000  0.11660000  0.54943000  1.0
  H  H119  1  0.76707000  0.97271000  0.52896000  1.0
  H  H120  1  0.34168000  0.02346000  0.63409000  1.0
  H  H121  1  0.38985000  0.10511000  0.65429000  1.0
  H  H122  1  0.73232000  0.91555000  0.62359000  1.0
  H  H123  1  0.53842000  0.91600000  0.61328000  1.0
  H  H124  1  0.17992000  0.08487000  0.57239000  1.0
  H  H125  1  0.21551000  0.17326000  0.57693000  1.0
  H  H126  1  0.85203000  0.84319000  0.51913000  1.0
  H  H127  1  0.65236000  0.83943000  0.52915000  1.0
  H  H128  1  0.73331000  0.08039000  0.58510000  1.0
  H  H129  1  0.65255000  0.10460000  0.65942000  1.0
  H  H130  1  0.80130000  0.02289000  0.64149000  1.0
  H  H131  1  0.93147000  0.58773000  0.42224000  1.0
  H  H132  1  0.71107000  0.55395000  0.53794000  1.0
  H  H133  1  0.87725000  0.51427000  0.63505000  1.0
  H  H134  1  0.67353000  0.52122000  0.63770000  1.0
  H  H135  1  0.90740000  0.62671000  0.59161000  1.0
  H  H136  1  0.69804000  0.65719000  0.60133000  1.0
  H  H137  1  0.18104000  0.60862000  0.37391000  1.0
  H  H138  1  0.25503000  0.58002000  0.43832000  1.0
  H  H139  1  0.97306000  0.70595000  0.45166000  1.0
  H  H140  1  0.06254000  0.65719000  0.50776000  1.0
  H  H141  1  0.67179000  0.63944000  0.46870000  1.0
  H  H142  1  0.57856000  0.71066000  0.52211000  1.0
  H  H143  1  0.69999000  0.72865000  0.45706000  1.0
  H  H144  1  0.33677000  0.36657000  0.26848000  1.0
  H  H145  1  0.51901000  0.32580000  0.22127000  1.0
  H  H146  1  0.16075000  0.29186000  0.31292000  1.0
  H  H147  1  0.30837000  0.22828000  0.34201000  1.0
  H  H148  1  0.84966000  0.21786000  0.46970000  1.0
  H  H149  1  0.67938000  0.51314000  0.30806000  1.0
  H  H150  1  0.55207000  0.43105000  0.26155000  1.0
  H  H151  1  0.06404000  0.25119000  0.39842000  1.0
  H  H152  1  0.04009000  0.08525000  0.27878000  1.0
  H  H153  1  0.83000000  0.05018000  0.35324000  1.0
  H  H154  1  0.74278000  0.36311000  0.44617000  1.0
  H  H155  1  0.62176000  0.27873000  0.39948000  1.0
  C  C156  1  0.39332000  0.55804000  0.12331000  1.0
  C  C157  1  0.31850000  0.44491000  0.10446000  1.0
  C  C158  1  0.56592000  0.61946000  0.05425000  1.0
  C  C159  1  0.38131000  0.37188000  0.01107000  1.0
  C  C160  1  0.11642000  0.55797000  0.12845000  1.0
  C  C161  1  0.59334000  0.00672000  0.10954000  1.0
  C  C162  1  0.49335000  0.13012000  0.07085000  1.0
  C  C163  1  0.34474000  0.07268000  0.91170000  1.0
  C  C164  1  0.38691000  0.15964000  0.98155000  1.0
  C  C165  1  0.63509000  0.18785000  0.99059000  1.0
  C  C166  1  0.48957000  0.81716000  0.75991000  1.0
  C  C167  1  0.95876000  0.94346000  0.87996000  1.0
  C  C168  1  0.70340000  0.74053000  0.80380000  1.0
  C  C169  1  0.93215000  0.66985000  0.83367000  1.0
  C  C170  1  0.99076000  0.68874000  0.92768000  1.0
  C  C171  1  0.12549000  0.63201000  0.91609000  1.0
  C  C172  1  0.04617000  0.96166000  0.82791000  1.0
  C  C173  1  0.24385000  0.85024000  0.82889000  1.0
  C  C174  1  0.18898000  0.91575000  0.80202000  1.0
  C  C175  1  0.89320000  0.70793000  0.88722000  1.0
  C  C176  1  0.80364000  0.99222000  0.90714000  1.0
  C  C177  1  0.06830000  0.61339000  0.82086000  1.0
  C  C178  1  0.16264000  0.59458000  0.86208000  1.0
  C  C179  1  0.01625000  0.87732000  0.90580000  1.0
  C  C180  1  0.22760000  0.61257000  0.96084000  1.0
  C  C181  1  0.15651000  0.83079000  0.88056000  1.0
  C  C182  1  0.57427000  0.94199000  0.37674000  1.0
  C  C183  1  0.36698000  0.05499000  0.39570000  1.0
  C  C184  1  0.73977000  0.88059000  0.44565000  1.0
  C  C185  1  0.26370000  0.12802000  0.48907000  1.0
  C  C186  1  0.30251000  0.94186000  0.37165000  1.0
  C  C187  1  0.20953000  0.49319000  0.39041000  1.0
  C  C188  1  0.19439000  0.36980000  0.42912000  1.0
  C  C189  1  0.82927000  0.42740000  0.58838000  1.0
  C  C190  1  0.02806000  0.34036000  0.51847000  1.0
  C  C191  1  0.31363000  0.31207000  0.50935000  1.0
  C  C192  1  0.56637000  0.68262000  0.74015000  1.0
  C  C193  1  0.28163000  0.55650000  0.62012000  1.0
  C  C194  1  0.74779000  0.75913000  0.69614000  1.0
  C  C195  1  0.93518000  0.83007000  0.66617000  1.0
  C  C196  1  0.10674000  0.81120000  0.57216000  1.0
  C  C197  1  0.17315000  0.86792000  0.58376000  1.0
  C  C198  1  0.33515000  0.53822000  0.67216000  1.0
  C  C199  1  0.42244000  0.64961000  0.67123000  1.0
  C  C200  1  0.40615000  0.58410000  0.69808000  1.0
  C  C201  1  0.98789000  0.79200000  0.61261000  1.0
  C  C202  1  0.20280000  0.50769000  0.59285000  1.0
  C  C203  1  0.00202000  0.88653000  0.67898000  1.0
  C  C204  1  0.11882000  0.90534000  0.63776000  1.0
  C  C205  1  0.29885000  0.62264000  0.59430000  1.0
  C  C206  1  0.30094000  0.88727000  0.53911000  1.0
  C  C207  1  0.36734000  0.66912000  0.61956000  1.0
  C  C208  1  0.60668000  0.44196000  0.87669000  1.0
  C  C209  1  0.68150000  0.55509000  0.89554000  1.0
  C  C210  1  0.43408000  0.38054000  0.94575000  1.0
  C  C211  1  0.61868000  0.62812000  0.98894000  1.0
  C  C212  1  0.88359000  0.44203000  0.87155000  1.0
  C  C213  1  0.40667000  0.99329000  0.89045000  1.0
  C  C214  1  0.50666000  0.86988000  0.92915000  1.0
  C  C215  1  0.65526000  0.92733000  0.08830000  1.0
  C  C216  1  0.61309000  0.84036000  0.01845000  1.0
  C  C217  1  0.36492000  0.81215000  0.00940000  1.0
  C  C218  1  0.51043000  0.18284000  0.24009000  1.0
  C  C219  1  0.04124000  0.05654000  0.12004000  1.0
  C  C220  1  0.29659000  0.25947000  0.19621000  1.0
  C  C221  1  0.06786000  0.33014000  0.16633000  1.0
  C  C222  1  0.00924000  0.31125000  0.07232000  1.0
  C  C223  1  0.87451000  0.36798000  0.08391000  1.0
  C  C224  1  0.95383000  0.03834000  0.17209000  1.0
  C  C225  1  0.75615000  0.14976000  0.17111000  1.0
  C  C226  1  0.81103000  0.08425000  0.19798000  1.0
  C  C227  1  0.10680000  0.29206000  0.11278000  1.0
  C  C228  1  0.19636000  0.00777000  0.09286000  1.0
  C  C229  1  0.93171000  0.38661000  0.17914000  1.0
  C  C230  1  0.83736000  0.40541000  0.13792000  1.0
  C  C231  1  0.98376000  0.12268000  0.09419000  1.0
  C  C232  1  0.77241000  0.38742000  0.03915000  1.0
  C  C233  1  0.84349000  0.16921000  0.11944000  1.0
  C  C234  1  0.42573000  0.05802000  0.62326000  1.0
  C  C235  1  0.63302000  0.94501000  0.60430000  1.0
  C  C236  1  0.26022000  0.11942000  0.55435000  1.0
  C  C237  1  0.73630000  0.87199000  0.51093000  1.0
  C  C238  1  0.69749000  0.05815000  0.62835000  1.0
  C  C239  1  0.79047000  0.50681000  0.60959000  1.0
  C  C240  1  0.80561000  0.63020000  0.57088000  1.0
  C  C241  1  0.17073000  0.57260000  0.41162000  1.0
  C  C242  1  0.97194000  0.65963000  0.48153000  1.0
  C  C243  1  0.68637000  0.68793000  0.49065000  1.0
  C  C244  1  0.43364000  0.31737000  0.25985000  1.0
  C  C245  1  0.71837000  0.44349000  0.37988000  1.0
  C  C246  1  0.25221000  0.24087000  0.30386000  1.0
  C  C247  1  0.06481000  0.16994000  0.33384000  1.0
  C  C248  1  0.89324000  0.18881000  0.42784000  1.0
  C  C249  1  0.82683000  0.13209000  0.41625000  1.0
  C  C250  1  0.66486000  0.46177000  0.32784000  1.0
  C  C251  1  0.57757000  0.35039000  0.32877000  1.0
  C  C252  1  0.59386000  0.41590000  0.30192000  1.0
  C  C253  1  0.01211000  0.20801000  0.38739000  1.0
  C  C254  1  0.79720000  0.49231000  0.40715000  1.0
  C  C255  1  0.99797000  0.11347000  0.32102000  1.0
  C  C256  1  0.88118000  0.09466000  0.36224000  1.0
  C  C257  1  0.70115000  0.37736000  0.40570000  1.0
  C  C258  1  0.69904000  0.11274000  0.46089000  1.0
  C  C259  1  0.63266000  0.33088000  0.38044000  1.0
  C  C260  1  0.62759000  0.74985000  0.74999000  1.0
  C  C261  1  0.37242000  0.25016000  0.25000000  1.0
  N  N262  1  0.43581000  0.58308000  0.06330000  1.0
  N  N263  1  0.33516000  0.44469000  0.03978000  1.0
  N  N264  1  0.27502000  0.51662000  0.13103000  1.0
  N  N265  1  0.44854000  0.09002000  0.94814000  1.0
  N  N266  1  0.58535000  0.05367000  0.05838000  1.0
  N  N267  1  0.48539000  0.17415000  0.01989000  1.0
  N  N268  1  0.58213000  0.91694000  0.43673000  1.0
  N  N269  1  0.31912000  0.05519000  0.46039000  1.0
  N  N270  1  0.42210000  0.98331000  0.36911000  1.0
  N  N271  1  0.98678000  0.41001000  0.55186000  1.0
  N  N272  1  0.19745000  0.44625000  0.44158000  1.0
  N  N273  1  0.17943000  0.32582000  0.48010000  1.0
  N  N274  1  0.56419000  0.41692000  0.93670000  1.0
  N  N275  1  0.66483000  0.55531000  0.96023000  1.0
  N  N276  1  0.72498000  0.48338000  0.86897000  1.0
  N  N277  1  0.55146000  0.90998000  0.05186000  1.0
  N  N278  1  0.41466000  0.94633000  0.94162000  1.0
  N  N279  1  0.51461000  0.82585000  0.98011000  1.0
  N  N280  1  0.41786000  0.08307000  0.56327000  1.0
  N  N281  1  0.68088000  0.94482000  0.53961000  1.0
  N  N282  1  0.57789000  0.01670000  0.63090000  1.0
  N  N283  1  0.01322000  0.58999000  0.44814000  1.0
  N  N284  1  0.80255000  0.55375000  0.55842000  1.0
  N  N285  1  0.82057000  0.67418000  0.51990000  1.0
  O  O286  1  0.38265000  0.80132000  0.80944000  1.0
  O  O287  1  0.73311000  0.96799000  0.95406000  1.0
  O  O288  1  0.75335000  0.05102000  0.88273000  1.0
  O  O289  1  0.33434000  0.55287000  0.95037000  1.0
  O  O290  1  0.20218000  0.65507000  0.00448000  1.0
  O  O291  1  0.84197000  0.68277000  0.79183000  1.0
  O  O292  1  0.49283000  0.69852000  0.69070000  1.0
  O  O293  1  0.15484000  0.53199000  0.54597000  1.0
  O  O294  1  0.18727000  0.44878000  0.61715000  1.0
  O  O295  1  0.33789000  0.94682000  0.54972000  1.0
  O  O296  1  0.36163000  0.84483000  0.49544000  1.0
  O  O297  1  0.81623000  0.81705000  0.70803000  1.0
  O  O298  1  0.61736000  0.19868000  0.19056000  1.0
  O  O299  1  0.26690000  0.03201000  0.04594000  1.0
  O  O300  1  0.24663000  0.94897000  0.11725000  1.0
  O  O301  1  0.66566000  0.44712000  0.04963000  1.0
  O  O302  1  0.79783000  0.34492000  0.99552000  1.0
  O  O303  1  0.15804000  0.31723000  0.20817000  1.0
  O  O304  1  0.50717000  0.30148000  0.30930000  1.0
  O  O305  1  0.84516000  0.46801000  0.45403000  1.0
  O  O306  1  0.81273000  0.55121000  0.38285000  1.0
  O  O307  1  0.66210000  0.05318000  0.45028000  1.0
  O  O308  1  0.63833000  0.15519000  0.50456000  1.0
  O  O309  1  0.18377000  0.18294000  0.29197000  1.0
