# generated using pymatgen
data_CoH8(C3N2)4
_symmetry_space_group_name_H-M   'P 1'
_cell_length_a   6.90257000
_cell_length_b   9.60361000
_cell_length_c   10.34580000
_cell_angle_alpha   109.90100000
_cell_angle_beta   102.97900000
_cell_angle_gamma   104.84400000
_symmetry_Int_Tables_number   1
_chemical_formula_structural   CoH8(C3N2)4
_chemical_formula_sum   'Co2 H16 C24 N16'
_cell_volume   585.51587864
_cell_formula_units_Z   2
loop_
 _symmetry_equiv_pos_site_id
 _symmetry_equiv_pos_as_xyz
  1  'x, y, z'
loop_
 _atom_site_type_symbol
 _atom_site_label
 _atom_site_symmetry_multiplicity
 _atom_site_fract_x
 _atom_site_fract_y
 _atom_site_fract_z
 _atom_site_occupancy
  Co  Co0  1  0.09671000  0.88686000  0.39561000  1.0
  Co  Co1  1  0.90329000  0.11314000  0.60439000  1.0
  H  H2  1  0.16242000  0.95958000  0.13667000  1.0
  H  H3  1  0.83758000  0.04042000  0.86333000  1.0
  H  H4  1  0.01533000  0.79615000  0.86747000  1.0
  H  H5  1  0.98467000  0.20385000  0.13253000  1.0
  H  H6  1  0.76447000  0.50958000  0.76561000  1.0
  H  H7  1  0.23554000  0.49043000  0.23440000  1.0
  H  H8  1  0.56687000  0.28506000  0.82276000  1.0
  H  H9  1  0.43313000  0.71494000  0.17724000  1.0
  H  H10  1  0.48351000  0.19426000  0.00766000  1.0
  H  H11  1  0.51649000  0.80574000  0.99234000  1.0
  H  H12  1  0.52142000  0.26246000  0.27875000  1.0
  H  H13  1  0.47858000  0.73755000  0.72125000  1.0
  H  H14  1  0.69274000  0.46822000  0.53771000  1.0
  H  H15  1  0.30726000  0.53178000  0.46230000  1.0
  H  H16  1  0.93191000  0.73898000  0.59397000  1.0
  H  H17  1  0.06809000  0.26103000  0.40603000  1.0
  C  C18  1  0.04887000  0.83810000  0.08981000  1.0
  C  C19  1  0.95112000  0.16189000  0.91018000  1.0
  C  C20  1  0.96357000  0.74369000  0.93796000  1.0
  C  C21  1  0.03644000  0.25632000  0.06205000  1.0
  C  C22  1  0.82782000  0.58710000  0.88232000  1.0
  C  C23  1  0.17218000  0.41290000  0.11768000  1.0
  C  C24  1  0.63356000  0.36623000  0.93869000  1.0
  C  C25  1  0.36645000  0.63378000  0.06131000  1.0
  C  C26  1  0.58721000  0.31634000  0.04127000  1.0
  C  C27  1  0.41279000  0.68366000  0.95874000  1.0
  C  C28  1  0.62787000  0.38161000  0.30569000  1.0
  C  C29  1  0.37213000  0.61839000  0.69431000  1.0
  C  C30  1  0.72224000  0.49617000  0.44882000  1.0
  C  C31  1  0.27777000  0.50383000  0.55118000  1.0
  C  C32  1  0.85921000  0.64914000  0.48184000  1.0
  C  C33  1  0.14079000  0.35086000  0.51816000  1.0
  C  C34  1  0.77283000  0.52511000  0.98034000  1.0
  C  C35  1  0.22717000  0.47488000  0.01966000  1.0
  C  C36  1  0.67328000  0.42172000  0.19371000  1.0
  C  C37  1  0.32672000  0.57827000  0.80628000  1.0
  C  C38  1  0.86344000  0.62862000  0.13079000  1.0
  C  C39  1  0.13656000  0.37137000  0.86921000  1.0
  C  C40  1  0.81260000  0.57833000  0.23650000  1.0
  C  C41  1  0.18741000  0.42167000  0.76351000  1.0
  N  N42  1  0.83674000  0.99631000  0.39486000  1.0
  N  N43  1  0.16326000  0.00368000  0.60514000  1.0
  N  N44  1  0.77136000  0.02948000  0.29524000  1.0
  N  N45  1  0.22863000  0.97052000  0.70475000  1.0
  N  N46  1  0.71113000  0.05465000  0.19338000  1.0
  N  N47  1  0.28887000  0.94535000  0.80663000  1.0
  N  N48  1  0.35822000  0.78207000  0.42318000  1.0
  N  N49  1  0.64178000  0.21793000  0.57682000  1.0
  N  N50  1  0.52942000  0.85820000  0.51254000  1.0
  N  N51  1  0.47057000  0.14180000  0.48746000  1.0
  N  N52  1  0.70094000  0.93163000  0.60673000  1.0
  N  N53  1  0.29906000  0.06837000  0.39327000  1.0
  N  N54  1  0.00199000  0.78211000  0.18558000  1.0
  N  N55  1  0.99801000  0.21790000  0.81442000  1.0
  N  N56  1  0.90498000  0.69129000  0.37830000  1.0
  N  N57  1  0.09502000  0.30870000  0.62170000  1.0
