# generated using pymatgen
data_NiAg2H6C14(NO5)2
_symmetry_space_group_name_H-M   'P 1'
_cell_length_a   5.04180000
_cell_length_b   8.92076000
_cell_length_c   9.02309000
_cell_angle_alpha   96.05550000
_cell_angle_beta   95.78280000
_cell_angle_gamma   102.70500000
_symmetry_Int_Tables_number   1
_chemical_formula_structural   NiAg2H6C14(NO5)2
_chemical_formula_sum   'Ni1 Ag2 H6 C14 N2 O10'
_cell_volume   390.45577455
_cell_formula_units_Z   1
loop_
 _symmetry_equiv_pos_site_id
 _symmetry_equiv_pos_as_xyz
  1  'x, y, z'
loop_
 _atom_site_type_symbol
 _atom_site_label
 _atom_site_symmetry_multiplicity
 _atom_site_fract_x
 _atom_site_fract_y
 _atom_site_fract_z
 _atom_site_occupancy
  Ni  Ni0  1  0.50000000  0.50000000  0.50000000  1.0
  Ag  Ag1  1  0.09879000  0.46922000  0.85506000  1.0
  Ag  Ag2  1  0.90120000  0.53077000  0.14494000  1.0
  H  H3  1  0.78370000  0.05374000  0.95336000  1.0
  H  H4  1  0.21631000  0.94626000  0.04665000  1.0
  H  H5  1  0.49070000  0.17811000  0.78788000  1.0
  H  H6  1  0.50931000  0.82190000  0.21212000  1.0
  H  H7  1  0.19843000  0.01901000  0.56191000  1.0
  H  H8  1  0.80158000  0.98099000  0.43809000  1.0
  C  C9  1  0.64201000  0.83023000  0.82257000  1.0
  C  C10  1  0.35799000  0.16976000  0.17743000  1.0
  C  C11  1  0.65326000  0.98720000  0.85432000  1.0
  C  C12  1  0.34674000  0.01280000  0.14568000  1.0
  C  C13  1  0.49166000  0.05636000  0.76130000  1.0
  C  C14  1  0.50834000  0.94364000  0.23870000  1.0
  C  C15  1  0.32596000  0.96705000  0.63567000  1.0
  C  C16  1  0.67404000  0.03295000  0.36433000  1.0
  C  C17  1  0.32114000  0.81074000  0.60283000  1.0
  C  C18  1  0.67886000  0.18926000  0.39717000  1.0
  C  C19  1  0.79657000  0.73434000  0.91102000  1.0
  C  C20  1  0.20343000  0.26565000  0.08898000  1.0
  C  C21  1  0.16189000  0.71461000  0.46199000  1.0
  C  C22  1  0.83811000  0.28539000  0.53800000  1.0
  N  N23  1  0.47653000  0.74719000  0.69952000  1.0
  N  N24  1  0.52347000  0.25281000  0.30048000  1.0
  O  O25  1  0.45556000  0.59265000  0.68738000  1.0
  O  O26  1  0.54444000  0.40735000  0.31262000  1.0
  O  O27  1  0.00511000  0.70674000  0.85685000  1.0
  O  O28  1  0.99489000  0.29326000  0.14315000  1.0
  O  O29  1  0.70001000  0.69224000  0.02791000  1.0
  O  O30  1  0.29998000  0.30775000  0.97209000  1.0
  O  O31  1  0.24511000  0.59576000  0.40377000  1.0
  O  O32  1  0.75489000  0.40424000  0.59623000  1.0
  O  O33  1  0.96478000  0.75741000  0.39951000  1.0
  O  O34  1  0.03522000  0.24259000  0.60049000  1.0
