# generated using pymatgen
data_Cu2H19C13SI2N3O
_symmetry_space_group_name_H-M   'P 1'
_cell_length_a   8.69445000
_cell_length_b   9.62376000
_cell_length_c   11.73850000
_cell_angle_alpha   93.40160000
_cell_angle_beta   110.12000000
_cell_angle_gamma   96.99100000
_symmetry_Int_Tables_number   1
_chemical_formula_structural   Cu2H19C13SI2N3O
_chemical_formula_sum   'Cu4 H38 C26 S2 I4 N6 O2'
_cell_volume   909.99004532
_cell_formula_units_Z   2
loop_
 _symmetry_equiv_pos_site_id
 _symmetry_equiv_pos_as_xyz
  1  'x, y, z'
loop_
 _atom_site_type_symbol
 _atom_site_label
 _atom_site_symmetry_multiplicity
 _atom_site_fract_x
 _atom_site_fract_y
 _atom_site_fract_z
 _atom_site_occupancy
  Cu  Cu0  1  0.87499000  0.08547000  0.23811000  1.0
  Cu  Cu1  1  0.12500000  0.91454000  0.76188000  1.0
  Cu  Cu2  1  0.57011000  0.93884000  0.09630000  1.0
  Cu  Cu3  1  0.42989000  0.06116000  0.90370000  1.0
  H  H4  1  0.47639000  0.31127000  0.20991000  1.0
  H  H5  1  0.52361000  0.68873000  0.79009000  1.0
  H  H6  1  0.39835000  0.67929000  0.14609000  1.0
  H  H7  1  0.60165000  0.32071000  0.85391000  1.0
  H  H8  1  0.83754000  0.78080000  0.08382000  1.0
  H  H9  1  0.16245000  0.21919000  0.91618000  1.0
  H  H10  1  0.91241000  0.53834000  0.12089000  1.0
  H  H11  1  0.08759000  0.46166000  0.87910000  1.0
  H  H12  1  0.71585000  0.36121000  0.17098000  1.0
  H  H13  1  0.28415000  0.63879000  0.82902000  1.0
  H  H14  1  0.26574000  0.19679000  0.23662000  1.0
  H  H15  1  0.73426000  0.80321000  0.76338000  1.0
  H  H16  1  0.09678000  0.22670000  0.10922000  1.0
  H  H17  1  0.90322000  0.77330000  0.89078000  1.0
  H  H18  1  0.03186000  0.18036000  0.50795000  1.0
  H  H19  1  0.96814000  0.81964000  0.49205000  1.0
  H  H20  1  0.97526000  0.35146000  0.49427000  1.0
  H  H21  1  0.02474000  0.64853000  0.50573000  1.0
  H  H22  1  0.15123000  0.32297000  0.61916000  1.0
  H  H23  1  0.84877000  0.67702000  0.38084000  1.0
  H  H24  1  0.39593000  0.24655000  0.57579000  1.0
  H  H25  1  0.60408000  0.75345000  0.42421000  1.0
  H  H26  1  0.41430000  0.25284000  0.43017000  1.0
  H  H27  1  0.58570000  0.74716000  0.56983000  1.0
  H  H28  1  0.27177000  0.11834000  0.45462000  1.0
  H  H29  1  0.72823000  0.88166000  0.54537000  1.0
  H  H30  1  0.17886000  0.55014000  0.45255000  1.0
  H  H31  1  0.82113000  0.44986000  0.54745000  1.0
  H  H32  1  0.35411000  0.50478000  0.42262000  1.0
  H  H33  1  0.64589000  0.49522000  0.57738000  1.0
  H  H34  1  0.34915000  0.50443000  0.57259000  1.0
  H  H35  1  0.65086000  0.49557000  0.42741000  1.0
  H  H36  1  0.36604000  0.86958000  0.31315000  1.0
  H  H37  1  0.63395000  0.13042000  0.68685000  1.0
  H  H38  1  0.23117000  0.70368000  0.27743000  1.0
  H  H39  1  0.76881000  0.29632000  0.72256000  1.0
  H  H40  1  0.30965000  0.79163000  0.43063000  1.0
  H  H41  1  0.69035000  0.20838000  0.56937000  1.0
  C  C42  1  0.51158000  0.64505000  0.14341000  1.0
  C  C43  1  0.48842000  0.35495000  0.85659000  1.0
  C  C44  1  0.75730000  0.70032000  0.10718000  1.0
  C  C45  1  0.24270000  0.29968000  0.89282000  1.0
  C  C46  1  0.79760000  0.56605000  0.12754000  1.0
  C  C47  1  0.20240000  0.43395000  0.87246000  1.0
  C  C48  1  0.68903000  0.46790000  0.15601000  1.0
  C  C49  1  0.31097000  0.53210000  0.84399000  1.0
  C  C50  1  0.54225000  0.50706000  0.16356000  1.0
  C  C51  1  0.45776000  0.49294000  0.83644000  1.0
  C  C52  1  0.27390000  0.41196000  0.18294000  1.0
  C  C53  1  0.72611000  0.58804000  0.81706000  1.0
  C  C54  1  0.18337000  0.27402000  0.20005000  1.0
  C  C55  1  0.81663000  0.72598000  0.79995000  1.0
  C  C56  1  0.19378000  0.32582000  0.44856000  1.0
  C  C57  1  0.80622000  0.67418000  0.55144000  1.0
  C  C58  1  0.08072000  0.29303000  0.52149000  1.0
  C  C59  1  0.91928000  0.70697000  0.47851000  1.0
  C  C60  1  0.32589000  0.22981000  0.47699000  1.0
  C  C61  1  0.67412000  0.77019000  0.52301000  1.0
  C  C62  1  0.27328000  0.48045000  0.47509000  1.0
  C  C63  1  0.72672000  0.51955000  0.52491000  1.0
  C  C64  1  0.12590000  0.88062000  0.30601000  1.0
  C  C65  1  0.87408000  0.11939000  0.69399000  1.0
  C  C66  1  0.26566000  0.80633000  0.33318000  1.0
  C  C67  1  0.73434000  0.19367000  0.66683000  1.0
  S  S68  1  0.04983000  0.29638000  0.28623000  1.0
  S  S69  1  0.95017000  0.70363000  0.71377000  1.0
  I  I70  1  0.76050000  0.07464000  0.99269000  1.0
  I  I71  1  0.23950000  0.92536000  0.00731000  1.0
  I  I72  1  0.62462000  0.09656000  0.31023000  1.0
  I  I73  1  0.37538000  0.90345000  0.68977000  1.0
  N  N74  1  0.61775000  0.73953000  0.11597000  1.0
  N  N75  1  0.38226000  0.26047000  0.88403000  1.0
  N  N76  1  0.43336000  0.40526000  0.19021000  1.0
  N  N77  1  0.56665000  0.59473000  0.80979000  1.0
  N  N78  1  0.01454000  0.94324000  0.28485000  1.0
  N  N79  1  0.98547000  0.05676000  0.71516000  1.0
  O  O80  1  0.20553000  0.51771000  0.16010000  1.0
  O  O81  1  0.79448000  0.48229000  0.83990000  1.0
