# generated using pymatgen
data_ZnH14C13N3O5
_symmetry_space_group_name_H-M   'P 1'
_cell_length_a   6.04970000
_cell_length_b   9.16886000
_cell_length_c   25.15400000
_cell_angle_alpha   90.00000000
_cell_angle_beta   96.91600000
_cell_angle_gamma   90.00000000
_symmetry_Int_Tables_number   1
_chemical_formula_structural   ZnH14C13N3O5
_chemical_formula_sum   'Zn4 H56 C52 N12 O20'
_cell_volume   1385.11123222
_cell_formula_units_Z   4
loop_
 _symmetry_equiv_pos_site_id
 _symmetry_equiv_pos_as_xyz
  1  'x, y, z'
loop_
 _atom_site_type_symbol
 _atom_site_label
 _atom_site_symmetry_multiplicity
 _atom_site_fract_x
 _atom_site_fract_y
 _atom_site_fract_z
 _atom_site_occupancy
  Zn  Zn0  1  0.03153000  0.38944000  0.27925000  1.0
  Zn  Zn1  1  0.96846000  0.88944000  0.22075000  1.0
  Zn  Zn2  1  0.96847000  0.61056000  0.72075000  1.0
  Zn  Zn3  1  0.03154000  0.11056000  0.77925000  1.0
  H  H4  1  0.71936000  0.10309000  0.29753000  1.0
  H  H5  1  0.28063000  0.60309000  0.20247000  1.0
  H  H6  1  0.28064000  0.89691000  0.70247000  1.0
  H  H7  1  0.71937000  0.39691000  0.79753000  1.0
  H  H8  1  0.73500000  0.57167000  0.50265000  1.0
  H  H9  1  0.26500000  0.07168000  0.99735000  1.0
  H  H10  1  0.26499000  0.42832000  0.49735000  1.0
  H  H11  1  0.73502000  0.92832000  0.00265000  1.0
  H  H12  1  0.07809000  0.37931000  0.41042000  1.0
  H  H13  1  0.92190000  0.87931000  0.08957000  1.0
  H  H14  1  0.92190000  0.62069000  0.58957000  1.0
  H  H15  1  0.07810000  0.12069000  0.91043000  1.0
  H  H16  1  0.13945000  0.74727000  0.38803000  1.0
  H  H17  1  0.86054000  0.24726000  0.11197000  1.0
  H  H18  1  0.86054000  0.25274000  0.61197000  1.0
  H  H19  1  0.13947000  0.75274000  0.88803000  1.0
  H  H20  1  0.45515000  0.49032000  0.42707000  1.0
  H  H21  1  0.54485000  0.99033000  0.07293000  1.0
  H  H22  1  0.54485000  0.50967000  0.57293000  1.0
  H  H23  1  0.45516000  0.00967000  0.92707000  1.0
  H  H24  1  0.57909000  0.92757000  0.35911000  1.0
  H  H25  1  0.42090000  0.42757000  0.14089000  1.0
  H  H26  1  0.42090000  0.07243000  0.64089000  1.0
  H  H27  1  0.57909000  0.57243000  0.85911000  1.0
  H  H28  1  0.73394000  0.91104000  0.42323000  1.0
  H  H29  1  0.26606000  0.41104000  0.07677000  1.0
  H  H30  1  0.26606000  0.08896000  0.57678000  1.0
  H  H31  1  0.73394000  0.58896000  0.92322000  1.0
  H  H32  1  0.07876000  0.69997000  0.48303000  1.0
  H  H33  1  0.92124000  0.19997000  0.01697000  1.0
  H  H34  1  0.92123000  0.30003000  0.51698000  1.0
  H  H35  1  0.07877000  0.80004000  0.98303000  1.0
  H  H36  1  0.34226000  0.12281000  0.39994000  1.0
  H  H37  1  0.65774000  0.62281000  0.10006000  1.0
  H  H38  1  0.65774000  0.87719000  0.60006000  1.0
  H  H39  1  0.34226000  0.37719000  0.89994000  1.0
  H  H40  1  0.30082000  0.93944000  0.41636000  1.0
  H  H41  1  0.69918000  0.43944000  0.08364000  1.0
  H  H42  1  0.69919000  0.06056000  0.58364000  1.0
  H  H43  1  0.30081000  0.56055000  0.91636000  1.0
  H  H44  1  0.30259000  0.10737000  0.49411000  1.0
  H  H45  1  0.69741000  0.60737000  0.00589000  1.0
  H  H46  1  0.69742000  0.89264000  0.50589000  1.0
  H  H47  1  0.30259000  0.39263000  0.99411000  1.0
  H  H48  1  0.58230000  0.15479000  0.48941000  1.0
  H  H49  1  0.41770000  0.65479000  0.01059000  1.0
  H  H50  1  0.41771000  0.84521000  0.51059000  1.0
  H  H51  1  0.58229000  0.34521000  0.98941000  1.0
  H  H52  1  0.62043000  0.27082000  0.22822000  1.0
  H  H53  1  0.37957000  0.77081000  0.27178000  1.0
  H  H54  1  0.37958000  0.72919000  0.77178000  1.0
  H  H55  1  0.62043000  0.22919000  0.72822000  1.0
  H  H56  1  0.59903000  0.43993000  0.23968000  1.0
  H  H57  1  0.40096000  0.93993000  0.26032000  1.0
  H  H58  1  0.40097000  0.56007000  0.76032000  1.0
  H  H59  1  0.59904000  0.06007000  0.73968000  1.0
  C  C60  1  0.82748000  0.65186000  0.35494000  1.0
  C  C61  1  0.17251000  0.15186000  0.14506000  1.0
  C  C62  1  0.17252000  0.34814000  0.64506000  1.0
  C  C63  1  0.82749000  0.84814000  0.85494000  1.0
  C  C64  1  0.87117000  0.69334000  0.29924000  1.0
  C  C65  1  0.12882000  0.19334000  0.20076000  1.0
  C  C66  1  0.12883000  0.30666000  0.70076000  1.0
  C  C67  1  0.87117000  0.80666000  0.79924000  1.0
  C  C68  1  0.46305000  0.52884000  0.32160000  1.0
  C  C69  1  0.53694000  0.02885000  0.17840000  1.0
  C  C70  1  0.53695000  0.47115000  0.67840000  1.0
  C  C71  1  0.46306000  0.97116000  0.82160000  1.0
  C  C72  1  0.63454000  0.57828000  0.36616000  1.0
  C  C73  1  0.36546000  0.07829000  0.13384000  1.0
  C  C74  1  0.36546000  0.42172000  0.63384000  1.0
  C  C75  1  0.63454000  0.92171000  0.86616000  1.0
  C  C76  1  0.79159000  0.15403000  0.33466000  1.0
  C  C77  1  0.20840000  0.65403000  0.16534000  1.0
  C  C78  1  0.20840000  0.84597000  0.66534000  1.0
  C  C79  1  0.79160000  0.34597000  0.83466000  1.0
  C  C80  1  0.76203000  0.59340000  0.46133000  1.0
  C  C81  1  0.23797000  0.09340000  0.03867000  1.0
  C  C82  1  0.23796000  0.40660000  0.53867000  1.0
  C  C83  1  0.76204000  0.90660000  0.96133000  1.0
  C  C84  1  0.97296000  0.29151000  0.39326000  1.0
  C  C85  1  0.02704000  0.79151000  0.10674000  1.0
  C  C86  1  0.02704000  0.70849000  0.60674000  1.0
  C  C87  1  0.97297000  0.20849000  0.89326000  1.0
  C  C88  1  0.98899000  0.69186000  0.39717000  1.0
  C  C89  1  0.01099000  0.19186000  0.10283000  1.0
  C  C90  1  0.01099000  0.30814000  0.60283000  1.0
  C  C91  1  0.98901000  0.80814000  0.89717000  1.0
  C  C92  1  0.60468000  0.54921000  0.41955000  1.0
  C  C93  1  0.39531000  0.04921000  0.08045000  1.0
  C  C94  1  0.39531000  0.45079000  0.58045000  1.0
  C  C95  1  0.60469000  0.95079000  0.91954000  1.0
  C  C96  1  0.62674000  0.98441000  0.39712000  1.0
  C  C97  1  0.37326000  0.48441000  0.10288000  1.0
  C  C98  1  0.37326000  0.01559000  0.60288000  1.0
  C  C99  1  0.62674000  0.51559000  0.89712000  1.0
  C  C100  1  0.95633000  0.66409000  0.45020000  1.0
  C  C101  1  0.04365000  0.16409000  0.04980000  1.0
  C  C102  1  0.04365000  0.33591000  0.54980000  1.0
  C  C103  1  0.95636000  0.83592000  0.95020000  1.0
  C  C104  1  0.42059000  0.02995000  0.42261000  1.0
  C  C105  1  0.57941000  0.52995000  0.07739000  1.0
  C  C106  1  0.57941000  0.97005000  0.57739000  1.0
  C  C107  1  0.42059000  0.47005000  0.92261000  1.0
  C  C108  1  0.46033000  0.06549000  0.48247000  1.0
  C  C109  1  0.53967000  0.56549000  0.01754000  1.0
  C  C110  1  0.53968000  0.93451000  0.51754000  1.0
  C  C111  1  0.46032000  0.43450000  0.98246000  1.0
  N  N112  1  0.92454000  0.27133000  0.33929000  1.0
  N  N113  1  0.07545000  0.77133000  0.16071000  1.0
  N  N114  1  0.07545000  0.72867000  0.66071000  1.0
  N  N115  1  0.92456000  0.22867000  0.83929000  1.0
  N  N116  1  0.76296000  0.10749000  0.38382000  1.0
  N  N117  1  0.23704000  0.60749000  0.11618000  1.0
  N  N118  1  0.23704000  0.89251000  0.61618000  1.0
  N  N119  1  0.76296000  0.39251000  0.88382000  1.0
  N  N120  1  0.87757000  0.19386000  0.42199000  1.0
  N  N121  1  0.12244000  0.69387000  0.07801000  1.0
  N  N122  1  0.12243000  0.80614000  0.57801000  1.0
  N  N123  1  0.87757000  0.30614000  0.92199000  1.0
  O  O124  1  0.96261000  0.60430000  0.27003000  1.0
  O  O125  1  0.03739000  0.10430000  0.22997000  1.0
  O  O126  1  0.03740000  0.39570000  0.72998000  1.0
  O  O127  1  0.96262000  0.89570000  0.77003000  1.0
  O  O128  1  0.83190000  0.82590000  0.28588000  1.0
  O  O129  1  0.16808000  0.32590000  0.21412000  1.0
  O  O130  1  0.16809000  0.17411000  0.71412000  1.0
  O  O131  1  0.83191000  0.67410000  0.78588000  1.0
  O  O132  1  0.69964000  0.36511000  0.22763000  1.0
  O  O133  1  0.30036000  0.86511000  0.27237000  1.0
  O  O134  1  0.30036000  0.63489000  0.77237000  1.0
  O  O135  1  0.69965000  0.13489000  0.72763000  1.0
  O  O136  1  0.47293000  0.58311000  0.27527000  1.0
  O  O137  1  0.52706000  0.08312000  0.22473000  1.0
  O  O138  1  0.52707000  0.41688000  0.72472000  1.0
  O  O139  1  0.47294000  0.91688000  0.77528000  1.0
  O  O140  1  0.32188000  0.43447000  0.33294000  1.0
  O  O141  1  0.67811000  0.93448000  0.16706000  1.0
  O  O142  1  0.67811000  0.56552000  0.66706000  1.0
  O  O143  1  0.32189000  0.06552000  0.83294000  1.0
