# generated using pymatgen
data_MnH14C11S2N11O
_symmetry_space_group_name_H-M   'P 1'
_cell_length_a   7.88027000
_cell_length_b   8.30899000
_cell_length_c   14.74770000
_cell_angle_alpha   85.61440000
_cell_angle_beta   76.29570000
_cell_angle_gamma   78.43950000
_symmetry_Int_Tables_number   1
_chemical_formula_structural   MnH14C11S2N11O
_chemical_formula_sum   'Mn2 H28 C22 S4 N22 O2'
_cell_volume   918.68802926
_cell_formula_units_Z   2
loop_
 _symmetry_equiv_pos_site_id
 _symmetry_equiv_pos_as_xyz
  1  'x, y, z'
loop_
 _atom_site_type_symbol
 _atom_site_label
 _atom_site_symmetry_multiplicity
 _atom_site_fract_x
 _atom_site_fract_y
 _atom_site_fract_z
 _atom_site_occupancy
  Mn  Mn0  1  0.50000000  0.50000000  0.50000000  1.0
  Mn  Mn1  1  0.00000000  0.50000000  0.00000000  1.0
  H  H2  1  0.23051000  0.67994000  0.41514000  1.0
  H  H3  1  0.76948000  0.32006000  0.58486000  1.0
  H  H4  1  0.42018000  0.67580000  0.34279000  1.0
  H  H5  1  0.57982000  0.32419000  0.65721000  1.0
  H  H6  1  0.06960000  0.48543000  0.62129000  1.0
  H  H7  1  0.93040000  0.51457000  0.37871000  1.0
  H  H8  1  0.39758000  0.13609000  0.43173000  1.0
  H  H9  1  0.60242000  0.86391000  0.56827000  1.0
  H  H10  1  0.17379000  0.96440000  0.42454000  1.0
  H  H11  1  0.82620000  0.03560000  0.57546000  1.0
  H  H12  1  0.97731000  0.10706000  0.41177000  1.0
  H  H13  1  0.02268000  0.89294000  0.58823000  1.0
  H  H14  1  0.20082000  0.83813000  0.91002000  1.0
  H  H15  1  0.79918000  0.16187000  0.08998000  1.0
  H  H16  1  0.06476000  0.67263000  0.19003000  1.0
  H  H17  1  0.93524000  0.32736000  0.80997000  1.0
  H  H18  1  0.70240000  0.44047000  0.21696000  1.0
  H  H19  1  0.29760000  0.55953000  0.78304000  1.0
  H  H20  1  0.68771000  0.83894000  0.02230000  1.0
  H  H21  1  0.31229000  0.16106000  0.97770000  1.0
  H  H22  1  0.19326000  0.86446000  0.26280000  1.0
  H  H23  1  0.80674000  0.13554000  0.73720000  1.0
  H  H24  1  0.14204000  0.06537000  0.21339000  1.0
  H  H25  1  0.85796000  0.93463000  0.78661000  1.0
  H  H26  1  0.45514000  0.04368000  0.12172000  1.0
  H  H27  1  0.54486000  0.95632000  0.87828000  1.0
  H  H28  1  0.44757000  0.01571000  0.24273000  1.0
  H  H29  1  0.55243000  0.98429000  0.75727000  1.0
  C  C30  1  0.11717000  0.38138000  0.57558000  1.0
  C  C31  1  0.88283000  0.61862000  0.42442000  1.0
  C  C32  1  0.28590000  0.20645000  0.47978000  1.0
  C  C33  1  0.71410000  0.79355000  0.52022000  1.0
  C  C34  1  0.05579000  0.04769000  0.46180000  1.0
  C  C35  1  0.94421000  0.95232000  0.53820000  1.0
  C  C36  1  0.30372000  0.77543000  0.65418000  1.0
  C  C37  1  0.69628000  0.22460000  0.34583000  1.0
  C  C38  1  0.18475000  0.82666000  0.98544000  1.0
  C  C39  1  0.81525000  0.17334000  0.01456000  1.0
  C  C40  1  0.11161000  0.74082000  0.12639000  1.0
  C  C41  1  0.88839000  0.25918000  0.87361000  1.0
  C  C42  1  0.66624000  0.55922000  0.18375000  1.0
  C  C43  1  0.33376000  0.44078000  0.81625000  1.0
  C  C44  1  0.65969000  0.75796000  0.08329000  1.0
  C  C45  1  0.34031000  0.24204000  0.91671000  1.0
  C  C46  1  0.22827000  0.94432000  0.20125000  1.0
  C  C47  1  0.77173000  0.05568000  0.79875000  1.0
  C  C48  1  0.42197000  0.96216000  0.18263000  1.0
  C  C49  1  0.57804000  0.03784000  0.81737000  1.0
  C  C50  1  0.14634000  0.35881000  0.17944000  1.0
  C  C51  1  0.85365000  0.64119000  0.82056000  1.0
  S  S52  1  0.25010000  0.94733000  0.70833000  1.0
  S  S53  1  0.74990000  0.05268000  0.29167000  1.0
  S  S54  1  0.24137000  0.36586000  0.26472000  1.0
  S  S55  1  0.75864000  0.63414000  0.73528000  1.0
  N  N56  1  0.12108000  0.17199000  0.50141000  1.0
  N  N57  1  0.87892000  0.82801000  0.49859000  1.0
  N  N58  1  0.01106000  0.28343000  0.56266000  1.0
  N  N59  1  0.98893000  0.71657000  0.43734000  1.0
  N  N60  1  0.28762000  0.33910000  0.52526000  1.0
  N  N61  1  0.71237000  0.66091000  0.47474000  1.0
  N  N62  1  0.34419000  0.64938000  0.61404000  1.0
  N  N63  1  0.65582000  0.35062000  0.38595000  1.0
  N  N64  1  0.19188000  0.86975000  0.12353000  1.0
  N  N65  1  0.80812000  0.13025000  0.87647000  1.0
  N  N66  1  0.24060000  0.92619000  0.03379000  1.0
  N  N67  1  0.75940000  0.07381000  0.96621000  1.0
  N  N68  1  0.10481000  0.71028000  0.03985000  1.0
  N  N69  1  0.89520000  0.28972000  0.96015000  1.0
  N  N70  1  0.54212000  0.80524000  0.16300000  1.0
  N  N71  1  0.45789000  0.19476000  0.83700000  1.0
  N  N72  1  0.54397000  0.67932000  0.22780000  1.0
  N  N73  1  0.45603000  0.32068000  0.77220000  1.0
  N  N74  1  0.74115000  0.60281000  0.09447000  1.0
  N  N75  1  0.25885000  0.39719000  0.90553000  1.0
  N  N76  1  0.07692000  0.35525000  0.11607000  1.0
  N  N77  1  0.92308000  0.64474000  0.88393000  1.0
  O  O78  1  0.35862000  0.67882000  0.41036000  1.0
  O  O79  1  0.64137000  0.32118000  0.58964000  1.0
