# generated using pymatgen
data_CdH8C6S(NO2)2
_symmetry_space_group_name_H-M   'P 1'
_cell_length_a   4.97133000
_cell_length_b   4.97130000
_cell_length_c   16.99140000
_cell_angle_alpha   90.00000000
_cell_angle_beta   89.99960000
_cell_angle_gamma   93.57430000
_symmetry_Int_Tables_number   1
_chemical_formula_structural   CdH8C6S(NO2)2
_chemical_formula_sum   'Cd2 H16 C12 S2 N4 O8'
_cell_volume   419.10815674
_cell_formula_units_Z   2
loop_
 _symmetry_equiv_pos_site_id
 _symmetry_equiv_pos_as_xyz
  1  'x, y, z'
loop_
 _atom_site_type_symbol
 _atom_site_label
 _atom_site_symmetry_multiplicity
 _atom_site_fract_x
 _atom_site_fract_y
 _atom_site_fract_z
 _atom_site_occupancy
  Cd  Cd0  1  0.94384000  0.05615000  0.25000000  1.0
  Cd  Cd1  1  0.05615000  0.94387000  0.75000000  1.0
  H  H2  1  0.56897000  0.18608000  0.14033000  1.0
  H  H3  1  0.43106000  0.81393000  0.64034000  1.0
  H  H4  1  0.81395000  0.43103000  0.35967000  1.0
  H  H5  1  0.18603000  0.56892000  0.85966000  1.0
  H  H6  1  0.43108000  0.81397000  0.85965000  1.0
  H  H7  1  0.56893000  0.18600000  0.35967000  1.0
  H  H8  1  0.18600000  0.56890000  0.64035000  1.0
  H  H9  1  0.81401000  0.43108000  0.14033000  1.0
  H  H10  1  0.57997000  0.78906000  0.05878000  1.0
  H  H11  1  0.42001000  0.21093000  0.55879000  1.0
  H  H12  1  0.21096000  0.42002000  0.44122000  1.0
  H  H13  1  0.78904000  0.57998000  0.94121000  1.0
  H  H14  1  0.42005000  0.21096000  0.94121000  1.0
  H  H15  1  0.57995000  0.78900000  0.44122000  1.0
  H  H16  1  0.78903000  0.57995000  0.55878000  1.0
  H  H17  1  0.21100000  0.42006000  0.05878000  1.0
  C  C18  1  0.76467000  0.87990000  0.03281000  1.0
  C  C19  1  0.23533000  0.12009000  0.53282000  1.0
  C  C20  1  0.12013000  0.23532000  0.46719000  1.0
  C  C21  1  0.87988000  0.76467000  0.96717000  1.0
  C  C22  1  0.23537000  0.12013000  0.96717000  1.0
  C  C23  1  0.76464000  0.87986000  0.46719000  1.0
  C  C24  1  0.87983000  0.76462000  0.53282000  1.0
  C  C25  1  0.12015000  0.23536000  0.03281000  1.0
  C  C26  1  0.88383000  0.11620000  0.06569000  1.0
  C  C27  1  0.11614000  0.88381000  0.56569000  1.0
  C  C28  1  0.88378000  0.11614000  0.43431000  1.0
  C  C29  1  0.11618000  0.88386000  0.93431000  1.0
  S  S30  1  0.36788000  0.63210000  0.25001000  1.0
  S  S31  1  0.63213000  0.36793000  0.75000000  1.0
  N  N32  1  0.77235000  0.22771000  0.13474000  1.0
  N  N33  1  0.22763000  0.77231000  0.63474000  1.0
  N  N34  1  0.77232000  0.22765000  0.36526000  1.0
  N  N35  1  0.22765000  0.77235000  0.86526000  1.0
  O  O36  1  0.24894000  0.75103000  0.17844000  1.0
  O  O37  1  0.75109000  0.24901000  0.67842000  1.0
  O  O38  1  0.24896000  0.75102000  0.32158000  1.0
  O  O39  1  0.75107000  0.24901000  0.82157000  1.0
  O  O40  1  0.32214000  0.33086000  0.25000000  1.0
  O  O41  1  0.67786000  0.66918000  0.75000000  1.0
  O  O42  1  0.66912000  0.67786000  0.25000000  1.0
  O  O43  1  0.33089000  0.32214000  0.75000000  1.0
