# generated using pymatgen
data_Cd2H22C35(N2O3)3
_symmetry_space_group_name_H-M   'P 1'
_cell_length_a   8.28477000
_cell_length_b   15.48760000
_cell_length_c   25.33120000
_cell_angle_alpha   89.99970000
_cell_angle_beta   89.99950000
_cell_angle_gamma   75.58200000
_symmetry_Int_Tables_number   1
_chemical_formula_structural   Cd2H22C35(N2O3)3
_chemical_formula_sum   'Cd8 H88 C140 N24 O36'
_cell_volume   3147.90925167
_cell_formula_units_Z   4
loop_
 _symmetry_equiv_pos_site_id
 _symmetry_equiv_pos_as_xyz
  1  'x, y, z'
loop_
 _atom_site_type_symbol
 _atom_site_label
 _atom_site_symmetry_multiplicity
 _atom_site_fract_x
 _atom_site_fract_y
 _atom_site_fract_z
 _atom_site_occupancy
  Cd  Cd0  1  0.80954000  0.45002000  0.72012000  1.0
  Cd  Cd1  1  0.69046000  0.54998000  0.22011000  1.0
  Cd  Cd2  1  0.19046000  0.54999000  0.27988000  1.0
  Cd  Cd3  1  0.30953000  0.45002000  0.77988000  1.0
  Cd  Cd4  1  0.22819000  0.95173000  0.53083000  1.0
  Cd  Cd5  1  0.27181000  0.04828000  0.03083000  1.0
  Cd  Cd6  1  0.77180000  0.04828000  0.46917000  1.0
  Cd  Cd7  1  0.72819000  0.95172000  0.96917000  1.0
  H  H8  1  0.58768000  0.55499000  0.79441000  1.0
  H  H9  1  0.91231000  0.44502000  0.29440000  1.0
  H  H10  1  0.41231000  0.44501000  0.20559000  1.0
  H  H11  1  0.08768000  0.55498000  0.70559000  1.0
  H  H12  1  0.76098000  0.56361000  0.81667000  1.0
  H  H13  1  0.73903000  0.43639000  0.31667000  1.0
  H  H14  1  0.23902000  0.43639000  0.18333000  1.0
  H  H15  1  0.26097000  0.56361000  0.68333000  1.0
  H  H16  1  0.56011000  0.88096000  0.44477000  1.0
  H  H17  1  0.93988000  0.11904000  0.94477000  1.0
  H  H18  1  0.43988000  0.11905000  0.55523000  1.0
  H  H19  1  0.06012000  0.88096000  0.05523000  1.0
  H  H20  1  0.89942000  0.68047000  0.59114000  1.0
  H  H21  1  0.60057000  0.31952000  0.09113000  1.0
  H  H22  1  0.10057000  0.31953000  0.40887000  1.0
  H  H23  1  0.39944000  0.68047000  0.90887000  1.0
  H  H24  1  0.83337000  0.83170000  0.54966000  1.0
  H  H25  1  0.66663000  0.16830000  0.04965000  1.0
  H  H26  1  0.16662000  0.16831000  0.45035000  1.0
  H  H27  1  0.33333333  0.83170000  0.95035000  1.0
  H  H28  1  0.39586000  0.01021000  0.65651000  1.0
  H  H29  1  0.10413000  0.98979000  0.15650000  1.0
  H  H30  1  0.60413000  0.98980000  0.34350000  1.0
  H  H31  1  0.89587000  0.01021000  0.84350000  1.0
  H  H32  1  0.25342000  0.98313000  0.73823000  1.0
  H  H33  1  0.24658000  0.01686000  0.23822000  1.0
  H  H34  1  0.74657000  0.01687000  0.26177000  1.0
  H  H35  1  0.75343000  0.98313000  0.76177000  1.0
  H  H36  1  0.30816000  0.82986000  0.77606000  1.0
  H  H37  1  0.19183000  0.17013000  0.27605000  1.0
  H  H38  1  0.69183000  0.17014000  0.22394000  1.0
  H  H39  1  0.80818000  0.82986000  0.72394000  1.0
  H  H40  1  0.51008000  0.70526000  0.73376000  1.0
  H  H41  1  0.98991000  0.29474000  0.23375000  1.0
  H  H42  1  0.48991000  0.29474000  0.26625000  1.0
  H  H43  1  0.01009000  0.70526000  0.76625000  1.0
  H  H44  1  0.83684000  0.06225000  0.65784000  1.0
  H  H45  1  0.66316000  0.93775000  0.15784000  1.0
  H  H46  1  0.16316000  0.93775000  0.34216000  1.0
  H  H47  1  0.33685000  0.06225000  0.84216000  1.0
  H  H48  1  0.62889000  0.16690000  0.71468000  1.0
  H  H49  1  0.87110000  0.83310000  0.21467000  1.0
  H  H50  1  0.37110000  0.83311000  0.28532000  1.0
  H  H51  1  0.12890000  0.16690000  0.78532000  1.0
  H  H52  1  0.52573000  0.44870000  0.62632000  1.0
  H  H53  1  0.97429000  0.55130000  0.12632000  1.0
  H  H54  1  0.47428000  0.55131000  0.37368000  1.0
  H  H55  1  0.02572000  0.44869000  0.87368000  1.0
  H  H56  1  0.62894000  0.50334000  0.54378000  1.0
  H  H57  1  0.87108000  0.49666000  0.04378000  1.0
  H  H58  1  0.37107000  0.49666000  0.45621000  1.0
  H  H59  1  0.12893000  0.50334000  0.95621000  1.0
  H  H60  1  0.84489000  0.40080000  0.48989000  1.0
  H  H61  1  0.65512000  0.59920000  0.98989000  1.0
  H  H62  1  0.15512000  0.59920000  0.51011000  1.0
  H  H63  1  0.34487000  0.40080000  0.01011000  1.0
  H  H64  1  0.94472000  0.24203000  0.51455000  1.0
  H  H65  1  0.55529000  0.75796000  0.01455000  1.0
  H  H66  1  0.05528000  0.75797000  0.48545000  1.0
  H  H67  1  0.44471000  0.24203000  0.98545000  1.0
  H  H68  1  0.06303000  0.87342000  0.63947000  1.0
  H  H69  1  0.43697000  0.12658000  0.13946000  1.0
  H  H70  1  0.93697000  0.12658000  0.36053000  1.0
  H  H71  1  0.56303000  0.87342000  0.86053000  1.0
  H  H72  1  0.08547000  0.72684000  0.68755000  1.0
  H  H73  1  0.41452000  0.27316000  0.18755000  1.0
  H  H74  1  0.91452000  0.27316000  0.31245000  1.0
  H  H75  1  0.58549000  0.72683000  0.81245000  1.0
  H  H76  1  0.46768000  0.60131000  0.58709000  1.0
  H  H77  1  0.03231000  0.39869000  0.08709000  1.0
  H  H78  1  0.53233000  0.39869000  0.41291000  1.0
  H  H79  1  0.96770000  0.60131000  0.91292000  1.0
  H  H80  1  0.73656000  0.81538000  0.37466000  1.0
  H  H81  1  0.76344000  0.18462000  0.87466000  1.0
  H  H82  1  0.26343000  0.18463000  0.62533000  1.0
  H  H83  1  0.23656000  0.81537000  0.12534000  1.0
  H  H84  1  0.95307000  0.74005000  0.31050000  1.0
  H  H85  1  0.54694000  0.25995000  0.81050000  1.0
  H  H86  1  0.04692000  0.25995000  0.68950000  1.0
  H  H87  1  0.45306000  0.74005000  0.18950000  1.0
  H  H88  1  0.01446000  0.49631000  0.38477000  1.0
  H  H89  1  0.48554000  0.50369000  0.88477000  1.0
  H  H90  1  0.98553000  0.50369000  0.61523000  1.0
  H  H91  1  0.51447000  0.49631000  0.11523000  1.0
  H  H92  1  0.79394000  0.56039000  0.45178000  1.0
  H  H93  1  0.70606000  0.43962000  0.95178000  1.0
  H  H94  1  0.20605000  0.43962000  0.54822000  1.0
  H  H95  1  0.29395000  0.56038000  0.04822000  1.0
  C  C96  1  0.76366000  0.62755000  0.67698000  1.0
  C  C97  1  0.73634000  0.37245000  0.17697000  1.0
  C  C98  1  0.23633000  0.37245000  0.32302000  1.0
  C  C99  1  0.26367000  0.62755000  0.82303000  1.0
  C  C100  1  0.71127000  0.71749000  0.65091000  1.0
  C  C101  1  0.78873000  0.28250000  0.15090000  1.0
  C  C102  1  0.28873000  0.28251000  0.34909000  1.0
  C  C103  1  0.21128000  0.71749000  0.84910000  1.0
  C  C104  1  0.79989000  0.73378000  0.60732000  1.0
  C  C105  1  0.70011000  0.26622000  0.10731000  1.0
  C  C106  1  0.20010000  0.26622000  0.39269000  1.0
  C  C107  1  0.29990000  0.73378000  0.89269000  1.0
  C  C108  1  0.76329000  0.81857000  0.58391000  1.0
  C  C109  1  0.73670000  0.18143000  0.08391000  1.0
  C  C110  1  0.23670000  0.18144000  0.41609000  1.0
  C  C111  1  0.26330000  0.81857000  0.91609000  1.0
  C  C112  1  0.63708000  0.88772000  0.60331000  1.0
  C  C113  1  0.86292000  0.11227000  0.10330000  1.0
  C  C114  1  0.36291000  0.11228000  0.39669000  1.0
  C  C115  1  0.13709000  0.88772000  0.89670000  1.0
  C  C116  1  0.60170000  0.97271000  0.57232000  1.0
  C  C117  1  0.89829000  0.02729000  0.07231000  1.0
  C  C118  1  0.39829000  0.02729000  0.42769000  1.0
  C  C119  1  0.10171000  0.97271000  0.92769000  1.0
  C  C120  1  0.54567000  0.87450000  0.64928000  1.0
  C  C121  1  0.95432000  0.12550000  0.14927000  1.0
  C  C122  1  0.45432000  0.12551000  0.35073000  1.0
  C  C123  1  0.04568000  0.87449000  0.85073000  1.0
  C  C124  1  0.42534000  0.94426000  0.67423000  1.0
  C  C125  1  0.07465000  0.05574000  0.17423000  1.0
  C  C126  1  0.57465000  0.05575000  0.32577000  1.0
  C  C127  1  0.92535000  0.94425000  0.82577000  1.0
  C  C128  1  0.34478000  0.92862000  0.71957000  1.0
  C  C129  1  0.15522000  0.07138000  0.21956000  1.0
  C  C130  1  0.65521000  0.07139000  0.28044000  1.0
  C  C131  1  0.84479000  0.92862000  0.78044000  1.0
  C  C132  1  0.37629000  0.84205000  0.74126000  1.0
  C  C133  1  0.12370000  0.15795000  0.24125000  1.0
  C  C134  1  0.62370000  0.15796000  0.25875000  1.0
  C  C135  1  0.87630000  0.84204000  0.75875000  1.0
  C  C136  1  0.49079000  0.77252000  0.71788000  1.0
  C  C137  1  0.00921000  0.22748000  0.21788000  1.0
  C  C138  1  0.50921000  0.22748000  0.28212000  1.0
  C  C139  1  0.99079000  0.77252000  0.78213000  1.0
  C  C140  1  0.58195000  0.78700000  0.67267000  1.0
  C  C141  1  0.91804000  0.21300000  0.17267000  1.0
  C  C142  1  0.41804000  0.21300000  0.32733000  1.0
  C  C143  1  0.08196000  0.78700000  0.82734000  1.0
  C  C144  1  0.97668000  0.09368000  0.57013000  1.0
  C  C145  1  0.52332000  0.90632000  0.07013000  1.0
  C  C146  1  0.02332000  0.90632000  0.42987000  1.0
  C  C147  1  0.47668000  0.09368000  0.92987000  1.0
  C  C148  1  0.85118000  0.16133000  0.60076000  1.0
  C  C149  1  0.64882000  0.83867000  0.10076000  1.0
  C  C150  1  0.14882000  0.83867000  0.39924000  1.0
  C  C151  1  0.35118000  0.16133000  0.89924000  1.0
  C  C152  1  0.79105000  0.13201000  0.64671000  1.0
  C  C153  1  0.70894000  0.86799000  0.14671000  1.0
  C  C154  1  0.20894000  0.86799000  0.35329000  1.0
  C  C155  1  0.29106000  0.13201000  0.85329000  1.0
  C  C156  1  0.67495000  0.19063000  0.67854000  1.0
  C  C157  1  0.82504000  0.80937000  0.17854000  1.0
  C  C158  1  0.32504000  0.80937000  0.32146000  1.0
  C  C159  1  0.17496000  0.19063000  0.82146000  1.0
  C  C160  1  0.62144000  0.28024000  0.66584000  1.0
  C  C161  1  0.87857000  0.71976000  0.16584000  1.0
  C  C162  1  0.37856000  0.71976000  0.33416000  1.0
  C  C163  1  0.12144000  0.28024000  0.83416000  1.0
  C  C164  1  0.51686000  0.33967000  0.70610000  1.0
  C  C165  1  0.98314000  0.66033000  0.20610000  1.0
  C  C166  1  0.48314000  0.66034000  0.29390000  1.0
  C  C167  1  0.01686000  0.33966000  0.79390000  1.0
  C  C168  1  0.67565000  0.31316000  0.61795000  1.0
  C  C169  1  0.82435000  0.68684000  0.11794000  1.0
  C  C170  1  0.32435000  0.68685000  0.38205000  1.0
  C  C171  1  0.17565000  0.31315000  0.88205000  1.0
  C  C172  1  0.61635000  0.40345000  0.60162000  1.0
  C  C173  1  0.88366000  0.59655000  0.10162000  1.0
  C  C174  1  0.38366000  0.59655000  0.39837000  1.0
  C  C175  1  0.11634000  0.40345000  0.89838000  1.0
  C  C176  1  0.67446000  0.43400000  0.55607000  1.0
  C  C177  1  0.82555000  0.56600000  0.05607000  1.0
  C  C178  1  0.32555000  0.56600000  0.44392000  1.0
  C  C179  1  0.17445000  0.43400000  0.94392000  1.0
  C  C180  1  0.79612000  0.37578000  0.52519000  1.0
  C  C181  1  0.70388000  0.62422000  0.02519000  1.0
  C  C182  1  0.20388000  0.62422000  0.47481000  1.0
  C  C183  1  0.29612000  0.37577000  0.97481000  1.0
  C  C184  1  0.85341000  0.28736000  0.53893000  1.0
  C  C185  1  0.64659000  0.71264000  0.03893000  1.0
  C  C186  1  0.14659000  0.71264000  0.46107000  1.0
  C  C187  1  0.35341000  0.28735000  0.96107000  1.0
  C  C188  1  0.79334000  0.25256000  0.58482000  1.0
  C  C189  1  0.70666000  0.74744000  0.08482000  1.0
  C  C190  1  0.20665000  0.74744000  0.41518000  1.0
  C  C191  1  0.29334000  0.25256000  0.91518000  1.0
  C  C192  1  0.15115000  0.81188000  0.62739000  1.0
  C  C193  1  0.34885000  0.18812000  0.12739000  1.0
  C  C194  1  0.84885000  0.18812000  0.37261000  1.0
  C  C195  1  0.65115000  0.81187000  0.87261000  1.0
  C  C196  1  0.16541000  0.73135000  0.65409000  1.0
  C  C197  1  0.33459000  0.26865000  0.15409000  1.0
  C  C198  1  0.83459000  0.26865000  0.34590000  1.0
  C  C199  1  0.66542000  0.73134000  0.84591000  1.0
  C  C200  1  0.37365000  0.66120000  0.59790000  1.0
  C  C201  1  0.12634000  0.33880000  0.09790000  1.0
  C  C202  1  0.62636000  0.33880000  0.40210000  1.0
  C  C203  1  0.87366000  0.66120000  0.90210000  1.0
  C  C204  1  0.35777000  0.74102000  0.57015000  1.0
  C  C205  1  0.14222000  0.25898000  0.07015000  1.0
  C  C206  1  0.64223000  0.25898000  0.42985000  1.0
  C  C207  1  0.85778000  0.74102000  0.92985000  1.0
  C  C208  1  0.45924000  0.75041000  0.52440000  1.0
  C  C209  1  0.04076000  0.24959000  0.02440000  1.0
  C  C210  1  0.54076000  0.24960000  0.47560000  1.0
  C  C211  1  0.95924000  0.75040000  0.97560000  1.0
  C  C212  1  0.62685000  0.73190000  0.45978000  1.0
  C  C213  1  0.87314000  0.26810000  0.95978000  1.0
  C  C214  1  0.37314000  0.26810000  0.54022000  1.0
  C  C215  1  0.12686000  0.73190000  0.04022000  1.0
  C  C216  1  0.74869000  0.69330000  0.41932000  1.0
  C  C217  1  0.75131000  0.30670000  0.91932000  1.0
  C  C218  1  0.25131000  0.30670000  0.58068000  1.0
  C  C219  1  0.24869000  0.69330000  0.08068000  1.0
  C  C220  1  0.79314000  0.74422000  0.37863000  1.0
  C  C221  1  0.70687000  0.25578000  0.87863000  1.0
  C  C222  1  0.20686000  0.25578000  0.62137000  1.0
  C  C223  1  0.29313000  0.74422000  0.12137000  1.0
  C  C224  1  0.91424000  0.70272000  0.34254000  1.0
  C  C225  1  0.58577000  0.29728000  0.84254000  1.0
  C  C226  1  0.08576000  0.29728000  0.65746000  1.0
  C  C227  1  0.41423000  0.70272000  0.15746000  1.0
  C  C228  1  0.94802000  0.56647000  0.38373000  1.0
  C  C229  1  0.55198000  0.43353000  0.88373000  1.0
  C  C230  1  0.05197000  0.43354000  0.61627000  1.0
  C  C231  1  0.44803000  0.56647000  0.11627000  1.0
  C  C232  1  0.82703000  0.60196000  0.42101000  1.0
  C  C233  1  0.67296000  0.39804000  0.92101000  1.0
  C  C234  1  0.17296000  0.39805000  0.57899000  1.0
  C  C235  1  0.32704000  0.60196000  0.07899000  1.0
  N  N236  1  0.24574000  0.81614000  0.58542000  1.0
  N  N237  1  0.25426000  0.18386000  0.08541000  1.0
  N  N238  1  0.75426000  0.18387000  0.41458000  1.0
  N  N239  1  0.74574000  0.81613000  0.91458000  1.0
  N  N240  1  0.27637000  0.65654000  0.63943000  1.0
  N  N241  1  0.22362000  0.34346000  0.13943000  1.0
  N  N242  1  0.72363000  0.34346000  0.36056000  1.0
  N  N243  1  0.77639000  0.65653000  0.86057000  1.0
  N  N244  1  0.57283000  0.68636000  0.49850000  1.0
  N  N245  1  0.92717000  0.31364000  0.99850000  1.0
  N  N246  1  0.42718000  0.31365000  0.50150000  1.0
  N  N247  1  0.07283000  0.68636000  0.00150000  1.0
  N  N248  1  0.44303000  0.83188000  0.50401000  1.0
  N  N249  1  0.05697000  0.16812000  0.00401000  1.0
  N  N250  1  0.55697000  0.16812000  0.49599000  1.0
  N  N251  1  0.94303000  0.83188000  0.99599000  1.0
  N  N252  1  0.54861000  0.81998000  0.46336000  1.0
  N  N253  1  0.95139000  0.18002000  0.96336000  1.0
  N  N254  1  0.45138000  0.18003000  0.53664000  1.0
  N  N255  1  0.04861000  0.81997000  0.03664000  1.0
  N  N256  1  0.99239000  0.61566000  0.34516000  1.0
  N  N257  1  0.50761000  0.38434000  0.84516000  1.0
  N  N258  1  0.00760000  0.38435000  0.65484000  1.0
  N  N259  1  0.49239000  0.61566000  0.15484000  1.0
  O  O260  1  0.68364000  0.56957000  0.66612000  1.0
  O  O261  1  0.81638000  0.43042000  0.16612000  1.0
  O  O262  1  0.31635000  0.43043000  0.33388000  1.0
  O  O263  1  0.18364000  0.56958000  0.83388000  1.0
  O  O264  1  0.88817000  0.61479000  0.70778000  1.0
  O  O265  1  0.61184000  0.38521000  0.20777000  1.0
  O  O266  1  0.11183000  0.38521000  0.29222000  1.0
  O  O267  1  0.38817000  0.61479000  0.79222000  1.0
  O  O268  1  0.72499000  0.99137000  0.54998000  1.0
  O  O269  1  0.77501000  0.00862000  0.04998000  1.0
  O  O270  1  0.27500000  0.00863000  0.45002000  1.0
  O  O271  1  0.22500000  0.99137000  0.95002000  1.0
  O  O272  1  0.44977000  0.02005000  0.56911000  1.0
  O  O273  1  0.05022000  0.97995000  0.06910000  1.0
  O  O274  1  0.55022000  0.97995000  0.43090000  1.0
  O  O275  1  0.94978000  0.02005000  0.93090000  1.0
  O  O276  1  0.07858000  0.03374000  0.59658000  1.0
  O  O277  1  0.42143000  0.96627000  0.09657000  1.0
  O  O278  1  0.92142000  0.96626000  0.40343000  1.0
  O  O279  1  0.57859000  0.03374000  0.90342000  1.0
  O  O280  1  0.98072000  0.09624000  0.51965000  1.0
  O  O281  1  0.51927000  0.90375000  0.01965000  1.0
  O  O282  1  0.01928000  0.90376000  0.48035000  1.0
  O  O283  1  0.48073000  0.09624000  0.98034000  1.0
  O  O284  1  0.40043000  0.31426000  0.72873000  1.0
  O  O285  1  0.09957000  0.68573000  0.22873000  1.0
  O  O286  1  0.59957000  0.68574000  0.27127000  1.0
  O  O287  1  0.90043000  0.31426000  0.77127000  1.0
  O  O288  1  0.55252000  0.41350000  0.71818000  1.0
  O  O289  1  0.94748000  0.58651000  0.21818000  1.0
  O  O290  1  0.44748000  0.58651000  0.28182000  1.0
  O  O291  1  0.05252000  0.41349000  0.78182000  1.0
  O  O292  1  0.70683000  0.52270000  0.79710000  1.0
  O  O293  1  0.79316000  0.47731000  0.29710000  1.0
  O  O294  1  0.29316000  0.47730000  0.20290000  1.0
  O  O295  1  0.20683000  0.52269000  0.70290000  1.0
