# generated using pymatgen
data_Cu5H52C62(NO12)2
_symmetry_space_group_name_H-M   'P 1'
_cell_length_a   11.76230000
_cell_length_b   11.88280000
_cell_length_c   12.46520000
_cell_angle_alpha   81.43410000
_cell_angle_beta   83.38310000
_cell_angle_gamma   87.95240000
_symmetry_Int_Tables_number   1
_chemical_formula_structural   Cu5H52C62(NO12)2
_chemical_formula_sum   'Cu5 H52 C62 N2 O24'
_cell_volume   1711.03310770
_cell_formula_units_Z   1
loop_
 _symmetry_equiv_pos_site_id
 _symmetry_equiv_pos_as_xyz
  1  'x, y, z'
loop_
 _atom_site_type_symbol
 _atom_site_label
 _atom_site_symmetry_multiplicity
 _atom_site_fract_x
 _atom_site_fract_y
 _atom_site_fract_z
 _atom_site_occupancy
  Cu  Cu0  1  0.90063000  0.46579000  0.58161000  1.0
  Cu  Cu1  1  0.09937000  0.53421000  0.41839000  1.0
  Cu  Cu2  1  0.03821000  0.67971000  0.63937000  1.0
  Cu  Cu3  1  0.96179000  0.32029000  0.36063000  1.0
  Cu  Cu4  1  0.00000000  0.50000000  0.00000000  1.0
  H  H5  1  0.54260000  0.88404000  0.58536000  1.0
  H  H6  1  0.45740000  0.11596000  0.41464000  1.0
  H  H7  1  0.62909000  0.93458000  0.39318000  1.0
  H  H8  1  0.37091000  0.06542000  0.60683000  1.0
  H  H9  1  0.36557000  0.75064000  0.28593000  1.0
  H  H10  1  0.63443000  0.24936000  0.71407000  1.0
  H  H11  1  0.51209000  0.71976000  0.16126000  1.0
  H  H12  1  0.48791000  0.28024000  0.83874000  1.0
  H  H13  1  0.69821000  0.95173000  0.91021000  1.0
  H  H14  1  0.30179000  0.04827000  0.08979000  1.0
  H  H15  1  0.60956000  0.04595000  0.22998000  1.0
  H  H16  1  0.39043000  0.95405000  0.77002000  1.0
  H  H17  1  0.42582000  0.69166000  0.00944000  1.0
  H  H18  1  0.57418000  0.30835000  0.99056000  1.0
  H  H19  1  0.42133000  0.54554000  0.88820000  1.0
  H  H20  1  0.57867000  0.45447000  0.11180000  1.0
  H  H21  1  0.77080000  0.77363000  0.86951000  1.0
  H  H22  1  0.22920000  0.22637000  0.13049000  1.0
  H  H23  1  0.68359000  0.13757000  0.86521000  1.0
  H  H24  1  0.31641000  0.86244000  0.13479000  1.0
  H  H25  1  0.79548000  0.31153000  0.80208000  1.0
  H  H26  1  0.20452000  0.68847000  0.19792000  1.0
  H  H27  1  0.77897000  0.13131000  0.18814000  1.0
  H  H28  1  0.22102000  0.86869000  0.81186000  1.0
  H  H29  1  0.08748000  0.93807000  0.67835000  1.0
  H  H30  1  0.91252000  0.06193000  0.32165000  1.0
  H  H31  1  0.13453000  0.06441000  0.58917000  1.0
  H  H32  1  0.86547000  0.93559000  0.41083000  1.0
  H  H33  1  0.22968000  0.94553000  0.61471000  1.0
  H  H34  1  0.77032000  0.05447000  0.38529000  1.0
  H  H35  1  0.18861000  0.86855000  0.27716000  1.0
  H  H36  1  0.81139000  0.13145000  0.72285000  1.0
  H  H37  1  0.09160000  0.98638000  0.25333000  1.0
  H  H38  1  0.90840000  0.01362000  0.74667000  1.0
  H  H39  1  0.04505000  0.85783000  0.33943000  1.0
  H  H40  1  0.95495000  0.14217000  0.66057000  1.0
  H  H41  1  0.18483000  0.13479000  0.36724000  1.0
  H  H42  1  0.81517000  0.86521000  0.63277000  1.0
  H  H43  1  0.28931000  0.03933000  0.31255000  1.0
  H  H44  1  0.71069000  0.96067000  0.68745000  1.0
  H  H45  1  0.28037000  0.05408000  0.45264000  1.0
  H  H46  1  0.71963000  0.94592000  0.54737000  1.0
  H  H47  1  0.66018000  0.49021000  0.70438000  1.0
  H  H48  1  0.33982000  0.50979000  0.29562000  1.0
  H  H49  1  0.29167000  0.72223000  0.65047000  1.0
  H  H50  1  0.70833000  0.27777000  0.34953000  1.0
  H  H51  1  0.94738000  0.66659000  0.47748000  1.0
  H  H52  1  0.05262000  0.33341000  0.52252000  1.0
  H  H53  1  0.08510000  0.45184000  0.71267000  1.0
  H  H54  1  0.91490000  0.54815000  0.28733000  1.0
  H  H55  1  0.97702000  0.40871000  0.78872000  1.0
  H  H56  1  0.02298000  0.59129000  0.21128000  1.0
  C  C57  1  0.25037000  0.68534000  0.47982000  1.0
  C  C58  1  0.74963000  0.31466000  0.52018000  1.0
  C  C59  1  0.35506000  0.75361000  0.45775000  1.0
  C  C60  1  0.64494000  0.24639000  0.54225000  1.0
  C  C61  1  0.40514000  0.79164000  0.54386000  1.0
  C  C62  1  0.59486000  0.20836000  0.45614000  1.0
  C  C63  1  0.50460000  0.85626000  0.51837000  1.0
  C  C64  1  0.49540000  0.14374000  0.48163000  1.0
  C  C65  1  0.55157000  0.88447000  0.41090000  1.0
  C  C66  1  0.44843000  0.11553000  0.58910000  1.0
  C  C67  1  0.50303000  0.84893000  0.32338000  1.0
  C  C68  1  0.49697000  0.15107000  0.67662000  1.0
  C  C69  1  0.40562000  0.78226000  0.34979000  1.0
  C  C70  1  0.59438000  0.21774000  0.65021000  1.0
  C  C71  1  0.55478000  0.87924000  0.20904000  1.0
  C  C72  1  0.44522000  0.12076000  0.79096000  1.0
  C  C73  1  0.55089000  0.80266000  0.13393000  1.0
  C  C74  1  0.44912000  0.19734000  0.86607000  1.0
  C  C75  1  0.60163000  0.82812000  0.02575000  1.0
  C  C76  1  0.39837000  0.17188000  0.97425000  1.0
  C  C77  1  0.65752000  0.93192000  0.99377000  1.0
  C  C78  1  0.34248000  0.06808000  0.00623000  1.0
  C  C79  1  0.66331000  0.01021000  0.06685000  1.0
  C  C80  1  0.33669000  0.98979000  0.93315000  1.0
  C  C81  1  0.61015000  0.98327000  0.17418000  1.0
  C  C82  1  0.38985000  0.01673000  0.82582000  1.0
  C  C83  1  0.59879000  0.74451000  0.94923000  1.0
  C  C84  1  0.40121000  0.25549000  0.05076000  1.0
  C  C85  1  0.50085000  0.67803000  0.95266000  1.0
  C  C86  1  0.49915000  0.32197000  0.04734000  1.0
  C  C87  1  0.49722000  0.59640000  0.88492000  1.0
  C  C88  1  0.50278000  0.40360000  0.11508000  1.0
  C  C89  1  0.59235000  0.57581000  0.81116000  1.0
  C  C90  1  0.40765000  0.42419000  0.18884000  1.0
  C  C91  1  0.69169000  0.64289000  0.80444000  1.0
  C  C92  1  0.30832000  0.35711000  0.19556000  1.0
  C  C93  1  0.69242000  0.72605000  0.87381000  1.0
  C  C94  1  0.30758000  0.27395000  0.12619000  1.0
  C  C95  1  0.79407000  0.62438000  0.72777000  1.0
  C  C96  1  0.20593000  0.37561000  0.27223000  1.0
  C  C97  1  0.72547000  0.11752000  0.03112000  1.0
  C  C98  1  0.27453000  0.88248000  0.96889000  1.0
  C  C99  1  0.73173000  0.17225000  0.92204000  1.0
  C  C100  1  0.26826000  0.82775000  0.07796000  1.0
  C  C101  1  0.79308000  0.27052000  0.88654000  1.0
  C  C102  1  0.20692000  0.72948000  0.11346000  1.0
  C  C103  1  0.85418000  0.32089000  0.95837000  1.0
  C  C104  1  0.14582000  0.67911000  0.04163000  1.0
  C  C105  1  0.84462000  0.26914000  0.06971000  1.0
  C  C106  1  0.15538000  0.73086000  0.93029000  1.0
  C  C107  1  0.78193000  0.16895000  0.10281000  1.0
  C  C108  1  0.21807000  0.83106000  0.89719000  1.0
  C  C109  1  0.89721000  0.31788000  0.15336000  1.0
  C  C110  1  0.10279000  0.68212000  0.84664000  1.0
  C  C111  1  0.10225000  0.92040000  0.51007000  1.0
  C  C112  1  0.89775000  0.07960000  0.48993000  1.0
  C  C113  1  0.14065000  0.97120000  0.60352000  1.0
  C  C114  1  0.85935000  0.02880000  0.39648000  1.0
  C  C115  1  0.11637000  0.91568000  0.31406000  1.0
  C  C116  1  0.88363000  0.08432000  0.68594000  1.0
  C  C117  1  0.23013000  0.05260000  0.38449000  1.0
  C  C118  1  0.76987000  0.94740000  0.61552000  1.0
  N  N119  1  0.14942000  0.95982000  0.40833000  1.0
  N  N120  1  0.85058000  0.04018000  0.59167000  1.0
  O  O121  1  0.20822000  0.65623000  0.58035000  1.0
  O  O122  1  0.79178000  0.34377000  0.41965000  1.0
  O  O123  1  0.20747000  0.65827000  0.39790000  1.0
  O  O124  1  0.79253000  0.34173000  0.60210000  1.0
  O  O125  1  0.58467000  0.49167000  0.75067000  1.0
  O  O126  1  0.41533000  0.50833000  0.24933000  1.0
  O  O127  1  0.78552000  0.54412000  0.66898000  1.0
  O  O128  1  0.21448000  0.45588000  0.33102000  1.0
  O  O129  1  0.88106000  0.68627000  0.72185000  1.0
  O  O130  1  0.11894000  0.31373000  0.27815000  1.0
  O  O131  1  0.91759000  0.41048000  0.91753000  1.0
  O  O132  1  0.08241000  0.58952000  0.08247000  1.0
  O  O133  1  0.93794000  0.41854000  0.13785000  1.0
  O  O134  1  0.06207000  0.58146000  0.86215000  1.0
  O  O135  1  0.89761000  0.25685000  0.24744000  1.0
  O  O136  1  0.10239000  0.74315000  0.75256000  1.0
  O  O137  1  0.36076000  0.76980000  0.64937000  1.0
  O  O138  1  0.63924000  0.23020000  0.35063000  1.0
  O  O139  1  0.02815000  0.84348000  0.52633000  1.0
  O  O140  1  0.97185000  0.15652000  0.47367000  1.0
  O  O141  1  0.98796000  0.60708000  0.52197000  1.0
  O  O142  1  0.01204000  0.39292000  0.47803000  1.0
  O  O143  1  0.01769000  0.40625000  0.71341000  1.0
  O  O144  1  0.98231000  0.59375000  0.28659000  1.0
