# generated using pymatgen
data_HgH9C13Br2N
_symmetry_space_group_name_H-M   'P 1'
_cell_length_a   7.49299000
_cell_length_b   9.98263521
_cell_length_c   9.98250000
_cell_angle_alpha   62.96126739
_cell_angle_beta   74.60900000
_cell_angle_gamma   74.60672212
_symmetry_Int_Tables_number   1
_chemical_formula_structural   HgH9C13Br2N
_chemical_formula_sum   'Hg2 H18 C26 Br4 N2'
_cell_volume   632.04368209
_cell_formula_units_Z   2
loop_
 _symmetry_equiv_pos_site_id
 _symmetry_equiv_pos_as_xyz
  1  'x, y, z'
loop_
 _atom_site_type_symbol
 _atom_site_label
 _atom_site_symmetry_multiplicity
 _atom_site_fract_x
 _atom_site_fract_y
 _atom_site_fract_z
 _atom_site_occupancy
  Hg  Hg0  1  0.24999000  0.07162000  0.92839000  1.0
  Hg  Hg1  1  0.75001000  0.92838000  0.07161000  1.0
  H  H2  1  0.24998000  0.66685000  0.33316000  1.0
  H  H3  1  0.75002000  0.33314000  0.66685000  1.0
  H  H4  1  0.00721000  0.80071000  0.47261000  1.0
  H  H5  1  0.49275000  0.52741000  0.19930000  1.0
  H  H6  1  0.99279000  0.19929000  0.52739000  1.0
  H  H7  1  0.50725000  0.47259000  0.80070000  1.0
  H  H8  1  0.79137000  0.79316000  0.71465000  1.0
  H  H9  1  0.70860000  0.28538000  0.20684000  1.0
  H  H10  1  0.20863000  0.20684000  0.28535000  1.0
  H  H11  1  0.29141000  0.71463000  0.79315000  1.0
  H  H12  1  0.00325000  0.31518000  0.94555000  1.0
  H  H13  1  0.49674000  0.05446000  0.68482000  1.0
  H  H14  1  0.99675000  0.68482000  0.05445000  1.0
  H  H15  1  0.50327000  0.94554000  0.31518000  1.0
  H  H16  1  0.79099000  0.55062000  0.94630000  1.0
  H  H17  1  0.70900000  0.05372000  0.44938000  1.0
  H  H18  1  0.20901000  0.44937000  0.05371000  1.0
  H  H19  1  0.29100000  0.94628000  0.55062000  1.0
  C  C20  1  0.24997000  0.56204000  0.43798000  1.0
  C  C21  1  0.75002000  0.43796000  0.56202000  1.0
  C  C22  1  0.12921000  0.56219000  0.57133000  1.0
  C  C23  1  0.37075000  0.42869000  0.43782000  1.0
  C  C24  1  0.87078000  0.43781000  0.42868000  1.0
  C  C25  1  0.62925000  0.57131000  0.56218000  1.0
  C  C26  1  0.13102000  0.42154000  0.70768000  1.0
  C  C27  1  0.36895000  0.29233000  0.57846000  1.0
  C  C28  1  0.86898000  0.57846000  0.29232000  1.0
  C  C29  1  0.63105000  0.70767000  0.42154000  1.0
  C  C30  1  0.00477000  0.69580000  0.57683000  1.0
  C  C31  1  0.49519000  0.42319000  0.30421000  1.0
  C  C32  1  0.99523000  0.30419000  0.42318000  1.0
  C  C33  1  0.50480000  0.57681000  0.69579000  1.0
  C  C34  1  0.88672000  0.69157000  0.70930000  1.0
  C  C35  1  0.61325000  0.29072000  0.30842000  1.0
  C  C36  1  0.11327000  0.30842000  0.29071000  1.0
  C  C37  1  0.38675000  0.70929000  0.69157000  1.0
  C  C38  1  0.00530000  0.42116000  0.84218000  1.0
  C  C39  1  0.49468000  0.15783000  0.57884000  1.0
  C  C40  1  0.99470000  0.57884000  0.15782000  1.0
  C  C41  1  0.50533000  0.84217000  0.42115000  1.0
  C  C42  1  0.88690000  0.55258000  0.84228000  1.0
  C  C43  1  0.61308000  0.15773000  0.44742000  1.0
  C  C44  1  0.11310000  0.44742000  0.15771000  1.0
  C  C45  1  0.38692000  0.84227000  0.55258000  1.0
  Br  Br46  1  0.49000000  0.81145000  0.98015000  1.0
  Br  Br47  1  0.01002000  0.01984000  0.18856000  1.0
  Br  Br48  1  0.51003000  0.18856000  0.01983000  1.0
  Br  Br49  1  0.99000000  0.98016000  0.81144000  1.0
  N  N50  1  0.24999000  0.29252000  0.70748000  1.0
  N  N51  1  0.75001000  0.70748000  0.29252000  1.0
