# generated using pymatgen
data_Zn2H25C37N8
_symmetry_space_group_name_H-M   'P 1'
_cell_length_a   19.78649551
_cell_length_b   19.83680000
_cell_length_c   19.87070000
_cell_angle_alpha   74.96000000
_cell_angle_beta   69.76568067
_cell_angle_gamma   112.84029454
_symmetry_Int_Tables_number   1
_chemical_formula_structural   Zn2H25C37N8
_chemical_formula_sum   'Zn4 H50 C74 N16'
_cell_volume   6004.41351105
_cell_formula_units_Z   2
loop_
 _symmetry_equiv_pos_site_id
 _symmetry_equiv_pos_as_xyz
  1  'x, y, z'
loop_
 _atom_site_type_symbol
 _atom_site_label
 _atom_site_symmetry_multiplicity
 _atom_site_fract_x
 _atom_site_fract_y
 _atom_site_fract_z
 _atom_site_occupancy
  Zn  Zn0  1  0.89452000  0.39267000  0.99735000  1.0
  Zn  Zn1  1  0.12208000  0.62088000  0.99553000  1.0
  Zn  Zn2  1  0.10293000  0.50043000  0.90739000  1.0
  Zn  Zn3  1  0.91429000  0.51295000  0.08455000  1.0
  H  H4  1  0.13859000  0.68850000  0.49217000  1.0
  H  H5  1  0.72463000  0.48785000  0.15140000  1.0
  H  H6  1  0.86451000  0.23596000  0.13075000  1.0
  H  H7  1  0.31088000  0.78985000  0.83774000  1.0
  H  H8  1  0.86296000  0.52975000  0.25617000  1.0
  H  H9  1  0.14236000  0.64161000  0.75000000  1.0
  H  H10  1  0.14325000  0.37754000  0.83927000  1.0
  H  H11  1  0.88237000  0.63119000  0.96865000  1.0
  H  H12  1  0.72704000  0.97700000  0.43277000  1.0
  H  H13  1  0.50289000  0.03159000  0.54794000  1.0
  H  H14  1  0.83862000  0.23768000  0.88803000  1.0
  H  H15  1  0.85874000  0.55154000  0.51071000  1.0
  H  H16  1  0.83115000  0.16368000  0.96742000  1.0
  H  H17  1  0.80246000  0.23491000  0.98470000  1.0
  H  H18  1  0.20924000  0.84326000  0.81836000  1.0
  H  H19  1  0.15967000  0.86751000  0.89347000  1.0
  H  H20  1  0.20039000  0.80393000  0.91444000  1.0
  H  H21  1  0.64711000  0.95201000  0.59381000  1.0
  H  H22  1  0.58304000  0.05691000  0.38684000  1.0
  H  H23  1  0.56555000  0.90055000  0.44501000  1.0
  H  H24  1  0.66442000  0.10823000  0.53573000  1.0
  H  H25  1  0.15954000  0.73426000  0.30009000  1.0
  H  H26  1  0.88347000  0.02941000  0.87043000  1.0
  H  H27  1  0.21062000  0.71739000  0.35551000  1.0
  H  H28  1  0.15359000  0.63958000  0.33361000  1.0
  H  H29  1  0.84008000  0.59675000  0.67087000  1.0
  H  H30  1  0.78647000  0.51754000  0.64869000  1.0
  H  H31  1  0.84025000  0.50517000  0.70248000  1.0
  H  H32  1  0.42368000  0.21065000  0.14610000  1.0
  H  H33  1  0.38265000  0.22103000  0.07951000  1.0
  H  H34  1  0.48898000  0.29408000  0.04852000  1.0
  H  H35  1  0.24299000  0.41619000  0.26639000  1.0
  H  H36  1  0.34587000  0.47878000  0.25076000  1.0
  H  H37  1  0.14891000  0.02617000  0.79805000  1.0
  H  H38  1  0.32097000  0.50442000  0.17344000  1.0
  H  H39  1  0.29543000  0.27780000  0.10088000  1.0
  H  H40  1  0.43990000  0.43164000  0.21879000  1.0
  H  H41  1  0.89223000  0.39535000  0.24585000  1.0
  H  H42  1  0.28844000  0.62141000  0.73378000  1.0
  H  H43  1  0.16220000  0.53196000  0.17660000  1.0
  H  H44  1  0.26212000  0.55559000  0.10482000  1.0
  H  H45  1  0.22155000  0.61816000  0.07981000  1.0
  H  H46  1  0.62800000  0.22835000  0.10989000  1.0
  H  H47  1  0.63309000  0.29821000  0.02916000  1.0
  H  H48  1  0.88150000  0.90155000  0.87889000  1.0
  H  H49  1  0.72090000  0.28553000  0.01308000  1.0
  H  H50  1  0.15076000  0.15392000  0.78995000  1.0
  H  H51  1  0.13550000  0.65993000  0.15153000  1.0
  H  H52  1  0.86792000  0.49725000  0.86698000  1.0
  H  H53  1  0.10681000  0.35520000  0.02416000  1.0
  C  C54  1  0.93621000  0.28589000  0.91700000  1.0
  C  C55  1  0.59621000  0.03248000  0.43360000  1.0
  C  C56  1  0.67667000  0.98856000  0.45885000  1.0
  C  C57  1  0.55355000  0.02041000  0.52169000  1.0
  C  C58  1  0.81141000  0.21402000  0.29640000  1.0
  C  C59  1  0.40578000  0.80001000  0.68138000  1.0
  C  C60  1  0.64188000  0.06148000  0.51616000  1.0
  C  C61  1  0.58823000  0.94734000  0.46451000  1.0
  C  C62  1  0.68674000  0.07578000  0.42618000  1.0
  C  C63  1  0.54337000  0.93310000  0.55449000  1.0
  C  C64  1  0.75766000  0.14987000  0.35820000  1.0
  C  C65  1  0.08348000  0.74527000  0.91496000  1.0
  C  C66  1  0.46935000  0.86072000  0.62156000  1.0
  C  C67  1  0.07739000  0.65917000  0.49533000  1.0
  C  C68  1  0.91998000  0.58200000  0.50727000  1.0
  C  C69  1  0.07062000  0.62742000  0.16418000  1.0
  C  C70  1  0.93413000  0.52611000  0.85087000  1.0
  C  C71  1  0.00328000  0.62530000  0.56926000  1.0
  C  C72  1  0.99400000  0.61469000  0.43380000  1.0
  C  C73  1  0.92270000  0.58627000  0.57511000  1.0
  C  C74  1  0.07463000  0.65441000  0.42767000  1.0
  C  C75  1  0.00841000  0.62460000  0.63865000  1.0
  C  C76  1  0.99550000  0.59699000  0.23573000  1.0
  C  C77  1  0.98911000  0.60725000  0.36661000  1.0
  C  C78  1  0.98952000  0.60189000  0.30659000  1.0
  C  C79  1  0.00983000  0.61426000  0.70144000  1.0
  C  C80  1  0.32740000  0.31094000  0.12721000  1.0
  C  C81  1  0.40728000  0.39774000  0.19332000  1.0
  C  C82  1  0.30116000  0.36066000  0.15358000  1.0
  C  C83  1  0.43717000  0.35253000  0.16193000  1.0
  C  C84  1  0.34010000  0.40264000  0.19023000  1.0
  C  C85  1  0.39424000  0.30565000  0.13077000  1.0
  C  C86  1  0.24188000  0.37402000  0.13765000  1.0
  C  C87  1  0.00709000  0.58695000  0.77566000  1.0
  C  C88  1  0.51283000  0.35872000  0.15586000  1.0
  C  C89  1  0.58300000  0.37083000  0.14126000  1.0
  C  C90  1  0.19960000  0.39422000  0.11466000  1.0
  C  C91  1  0.94046000  0.95710000  0.85894000  1.0
  C  C92  1  0.09205000  0.09860000  0.80895000  1.0
  C  C93  1  0.12147000  0.40686000  0.03791000  1.0
  C  C94  1  0.72880000  0.44729000  0.12467000  1.0
  C  C95  1  0.01452000  0.95408000  0.84136000  1.0
  C  C96  1  0.01669000  0.09994000  0.83201000  1.0
  C  C97  1  0.09098000  0.02729000  0.81346000  1.0
  C  C98  1  0.16111000  0.42852000  0.08219000  1.0
  C  C99  1  0.94157000  0.02851000  0.85431000  1.0
  C  C100  1  0.01185000  0.87908000  0.85749000  1.0
  C  C101  1  0.01552000  0.16870000  0.83875000  1.0
  C  C102  1  0.01424000  0.22474000  0.85290000  1.0
  C  C103  1  0.00920000  0.81414000  0.88056000  1.0
  C  C104  1  0.89197000  0.36793000  0.20516000  1.0
  C  C105  1  0.28119000  0.65161000  0.77188000  1.0
  C  C106  1  0.16406000  0.50195000  0.07928000  1.0
  C  C107  1  0.70704000  0.35501000  0.07764000  1.0
  C  C108  1  0.87790000  0.28659000  0.14606000  1.0
  C  C109  1  0.66585000  0.38871000  0.11824000  1.0
  C  C110  1  0.29215000  0.73736000  0.82544000  1.0
  C  C111  1  0.93118000  0.56086000  0.21811000  1.0
  C  C112  1  0.07458000  0.60002000  0.79086000  1.0
  C  C113  1  0.07592000  0.35492000  0.86733000  1.0
  C  C114  1  0.94774000  0.66023000  0.95517000  1.0
  C  C115  1  0.01005000  0.28507000  0.87540000  1.0
  C  C116  1  0.01225000  0.74404000  0.91225000  1.0
  C  C117  1  0.84743000  0.22755000  0.94074000  1.0
  C  C118  1  0.16785000  0.81859000  0.88342000  1.0
  C  C119  1  0.15411000  0.68848000  0.35030000  1.0
  C  C120  1  0.86141000  0.28505000  0.22158000  1.0
  C  C121  1  0.84287000  0.54927000  0.65323000  1.0
  C  C122  1  0.42343000  0.25494000  0.09958000  1.0
  C  C123  1  0.31123000  0.45318000  0.22204000  1.0
  C  C124  1  0.20408000  0.55468000  0.11205000  1.0
  C  C125  1  0.67066000  0.28852000  0.05604000  1.0
  C  C126  1  0.33230000  0.73417000  0.75332000  1.0
  C  C127  1  0.63377000  0.97622000  0.54714000  1.0
  N  N128  1  0.95787000  0.35105000  0.93227000  1.0
  N  N129  1  0.78792000  0.39189000  0.06142000  1.0
  N  N130  1  0.91312000  0.36367000  0.09057000  1.0
  N  N131  1  0.22338000  0.66341000  0.88162000  1.0
  N  N132  1  0.96568000  0.56955000  0.14266000  1.0
  N  N133  1  0.04341000  0.54914000  0.86816000  1.0
  N  N134  1  0.04440000  0.39399000  0.90131000  1.0
  N  N135  1  0.97808000  0.61554000  0.98152000  1.0
  N  N136  1  0.06124000  0.66760000  0.95604000  1.0
  N  N137  1  0.05240000  0.61075000  0.10927000  1.0
  N  N138  1  0.95733000  0.50396000  0.90474000  1.0
  N  N139  1  0.10302000  0.46305000  0.01059000  1.0
  N  N140  1  0.80132000  0.44881000  0.09076000  1.0
  N  N141  1  0.92181000  0.41377000  0.12662000  1.0
  N  N142  1  0.21658000  0.60990000  0.84845000  1.0
  N  N143  1  0.12838000  0.52060000  0.03658000  1.0
