# generated using pymatgen
data_H18PbC28(NO2)2
_symmetry_space_group_name_H-M   'P 1'
_cell_length_a   8.12249000
_cell_length_b   10.86910000
_cell_length_c   12.77190000
_cell_angle_alpha   89.41280000
_cell_angle_beta   84.76760000
_cell_angle_gamma   85.18550000
_symmetry_Int_Tables_number   1
_chemical_formula_structural   H18PbC28(NO2)2
_chemical_formula_sum   'H36 Pb2 C56 N4 O8'
_cell_volume   1118.89221288
_cell_formula_units_Z   2
loop_
 _symmetry_equiv_pos_site_id
 _symmetry_equiv_pos_as_xyz
  1  'x, y, z'
loop_
 _atom_site_type_symbol
 _atom_site_label
 _atom_site_symmetry_multiplicity
 _atom_site_fract_x
 _atom_site_fract_y
 _atom_site_fract_z
 _atom_site_occupancy
  H  H0  1  0.46515000  0.86797000  0.47087000  1.0
  H  H1  1  0.53484000  0.13202000  0.52913000  1.0
  H  H2  1  0.90785000  0.04773000  0.10466000  1.0
  H  H3  1  0.09219000  0.95230000  0.89535000  1.0
  H  H4  1  0.31677000  0.30576000  0.35703000  1.0
  H  H5  1  0.68329000  0.69426000  0.64296000  1.0
  H  H6  1  0.16306000  0.50219000  0.42571000  1.0
  H  H7  1  0.83703000  0.49785000  0.57429000  1.0
  H  H8  1  0.44877000  0.17534000  0.87605000  1.0
  H  H9  1  0.55118000  0.82464000  0.12394000  1.0
  H  H10  1  0.37190000  0.31486000  0.73285000  1.0
  H  H11  1  0.62808000  0.68515000  0.26716000  1.0
  H  H12  1  0.17371000  0.69914000  0.92173000  1.0
  H  H13  1  0.82625000  0.30087000  0.07827000  1.0
  H  H14  1  0.11019000  0.74544000  0.10674000  1.0
  H  H15  1  0.88977000  0.25453000  0.89326000  1.0
  H  H16  1  0.47364000  0.48138000  0.65177000  1.0
  H  H17  1  0.52635000  0.51864000  0.34824000  1.0
  H  H18  1  0.43198000  0.62141000  0.50119000  1.0
  H  H19  1  0.56800000  0.37858000  0.49881000  1.0
  H  H20  1  0.18756000  0.77760000  0.50828000  1.0
  H  H21  1  0.81247000  0.22242000  0.49173000  1.0
  H  H22  1  0.98554000  0.78886000  0.66849000  1.0
  H  H23  1  0.01450000  0.21118000  0.33151000  1.0
  H  H24  1  0.02437000  0.64892000  0.81579000  1.0
  H  H25  1  0.97561000  0.35110000  0.18421000  1.0
  H  H26  1  0.25213000  0.82193000  0.24301000  1.0
  H  H27  1  0.74787000  0.17805000  0.75699000  1.0
  H  H28  1  0.10771000  0.01208000  0.31897000  1.0
  H  H29  1  0.89234000  0.98790000  0.68106000  1.0
  H  H30  1  0.84729000  0.00359000  0.43891000  1.0
  H  H31  1  0.15273000  0.99641000  0.56109000  1.0
  H  H32  1  0.73661000  0.80213000  0.48251000  1.0
  H  H33  1  0.26338000  0.19788000  0.51748000  1.0
  H  H34  1  0.87890000  0.60899000  0.40172000  1.0
  H  H35  1  0.12108000  0.39102000  0.59827000  1.0
  Pb  Pb36  1  0.47748000  0.14485000  0.14338000  1.0
  Pb  Pb37  1  0.52256000  0.85501000  0.85657000  1.0
  C  C38  1  0.46991000  0.01657000  0.35155000  1.0
  C  C39  1  0.53006000  0.98343000  0.64846000  1.0
  C  C40  1  0.48204000  0.96592000  0.45966000  1.0
  C  C41  1  0.51793000  0.03407000  0.54034000  1.0
  C  C42  1  0.18039000  0.04698000  0.07619000  1.0
  C  C43  1  0.81963000  0.95302000  0.92381000  1.0
  C  C44  1  0.01265000  0.02296000  0.04689000  1.0
  C  C45  1  0.98738000  0.97706000  0.95311000  1.0
  C  C46  1  0.27996000  0.37994000  0.30383000  1.0
  C  C47  1  0.72008000  0.62006000  0.69617000  1.0
  C  C48  1  0.19524000  0.49027000  0.34150000  1.0
  C  C49  1  0.80476000  0.50973000  0.65849000  1.0
  C  C50  1  0.15793000  0.58591000  0.27249000  1.0
  C  C51  1  0.84206000  0.41408000  0.72751000  1.0
  C  C52  1  0.20079000  0.56470000  0.16280000  1.0
  C  C53  1  0.79918000  0.43530000  0.83721000  1.0
  C  C54  1  0.27855000  0.44685000  0.13133000  1.0
  C  C55  1  0.72144000  0.55317000  0.86867000  1.0
  C  C56  1  0.30824000  0.41683000  0.02045000  1.0
  C  C57  1  0.69174000  0.58319000  0.97954000  1.0
  C  C58  1  0.39682000  0.26928000  0.89416000  1.0
  C  C59  1  0.60314000  0.73070000  0.10585000  1.0
  C  C60  1  0.35483000  0.35010000  0.81295000  1.0
  C  C61  1  0.64513000  0.64989000  0.18705000  1.0
  C  C62  1  0.28989000  0.47092000  0.83492000  1.0
  C  C63  1  0.71013000  0.52909000  0.16508000  1.0
  C  C64  1  0.26498000  0.50684000  0.94331000  1.0
  C  C65  1  0.73501000  0.49315000  0.05667000  1.0
  C  C66  1  0.19964000  0.62715000  0.97900000  1.0
  C  C67  1  0.80029000  0.37284000  0.02101000  1.0
  C  C68  1  0.16543000  0.65404000  0.08336000  1.0
  C  C69  1  0.83453000  0.34596000  0.91664000  1.0
  C  C70  1  0.25539000  0.55573000  0.74673000  1.0
  C  C71  1  0.74462000  0.44426000  0.25326000  1.0
  C  C72  1  0.36537000  0.54794000  0.65475000  1.0
  C  C73  1  0.63462000  0.45207000  0.34524000  1.0
  C  C74  1  0.34205000  0.62720000  0.57014000  1.0
  C  C75  1  0.65795000  0.37282000  0.42986000  1.0
  C  C76  1  0.20635000  0.71550000  0.57442000  1.0
  C  C77  1  0.79366000  0.28452000  0.42560000  1.0
  C  C78  1  0.09395000  0.72240000  0.66385000  1.0
  C  C79  1  0.90603000  0.27760000  0.33616000  1.0
  C  C80  1  0.11773000  0.64351000  0.74893000  1.0
  C  C81  1  0.88227000  0.35649000  0.25106000  1.0
  C  C82  1  0.07236000  0.70235000  0.31482000  1.0
  C  C83  1  0.92763000  0.29765000  0.68518000  1.0
  C  C84  1  0.13608000  0.81671000  0.29226000  1.0
  C  C85  1  0.86393000  0.18328000  0.70776000  1.0
  C  C86  1  0.05596000  0.92441000  0.33752000  1.0
  C  C87  1  0.94405000  0.07558000  0.66248000  1.0
  C  C88  1  0.91120000  0.91934000  0.40473000  1.0
  C  C89  1  0.08883000  0.08065000  0.59528000  1.0
  C  C90  1  0.84816000  0.80576000  0.42866000  1.0
  C  C91  1  0.15185000  0.19424000  0.57136000  1.0
  C  C92  1  0.92842000  0.69791000  0.38422000  1.0
  C  C93  1  0.07156000  0.30210000  0.61577000  1.0
  N  N94  1  0.32197000  0.35858000  0.20215000  1.0
  N  N95  1  0.67806000  0.64142000  0.79785000  1.0
  N  N96  1  0.37432000  0.30121000  0.99495000  1.0
  N  N97  1  0.62568000  0.69881000  0.00505000  1.0
  O  O98  1  0.44464000  0.13411000  0.34127000  1.0
  O  O99  1  0.55531000  0.86588000  0.65874000  1.0
  O  O100  1  0.48724000  0.94164000  0.27486000  1.0
  O  O101  1  0.51274000  0.05836000  0.72514000  1.0
  O  O102  1  0.18380000  0.12010000  0.15453000  1.0
  O  O103  1  0.81622000  0.87988000  0.84549000  1.0
  O  O104  1  0.31073000  0.99966000  0.02464000  1.0
  O  O105  1  0.68930000  0.00036000  0.97536000  1.0
