# generated using pymatgen
data_CaH12(C5O4)2
_symmetry_space_group_name_H-M   'P 1'
_cell_length_a   7.74611000
_cell_length_b   9.89150000
_cell_length_c   15.79500000
_cell_angle_alpha   90.64590000
_cell_angle_beta   90.00000000
_cell_angle_gamma   90.00000000
_symmetry_Int_Tables_number   1
_chemical_formula_structural   CaH12(C5O4)2
_chemical_formula_sum   'Ca4 H48 C40 O32'
_cell_volume   1210.14622220
_cell_formula_units_Z   4
loop_
 _symmetry_equiv_pos_site_id
 _symmetry_equiv_pos_as_xyz
  1  'x, y, z'
loop_
 _atom_site_type_symbol
 _atom_site_label
 _atom_site_symmetry_multiplicity
 _atom_site_fract_x
 _atom_site_fract_y
 _atom_site_fract_z
 _atom_site_occupancy
  Ca  Ca0  1  0.45530000  0.31091000  0.63405000  1.0
  Ca  Ca1  1  0.95531000  0.18908000  0.36595000  1.0
  Ca  Ca2  1  0.54470000  0.68908000  0.36595000  1.0
  Ca  Ca3  1  0.04469000  0.81091000  0.63405000  1.0
  H  H4  1  0.27590000  0.47146000  0.50978000  1.0
  H  H5  1  0.77589000  0.02854000  0.49022000  1.0
  H  H6  1  0.72410000  0.52854000  0.49023000  1.0
  H  H7  1  0.22410000  0.97146000  0.50977000  1.0
  H  H8  1  0.20405000  0.51231000  0.60139000  1.0
  H  H9  1  0.70405000  0.98769000  0.39861000  1.0
  H  H10  1  0.79595000  0.48768000  0.39861000  1.0
  H  H11  1  0.29595000  0.01231000  0.60139000  1.0
  H  H12  1  0.36207000  0.24875000  0.45074000  1.0
  H  H13  1  0.86207000  0.25126000  0.54926000  1.0
  H  H14  1  0.63793000  0.75126000  0.54926000  1.0
  H  H15  1  0.13793000  0.74874000  0.45073000  1.0
  H  H16  1  0.53377000  0.16180000  0.47017000  1.0
  H  H17  1  0.03377000  0.33820000  0.52983000  1.0
  H  H18  1  0.46624000  0.83821000  0.52982000  1.0
  H  H19  1  0.96623000  0.66180000  0.47017000  1.0
  H  H20  1  0.93756000  0.42677000  0.69259000  1.0
  H  H21  1  0.43756000  0.07323000  0.30741000  1.0
  H  H22  1  0.06244000  0.57323000  0.30741000  1.0
  H  H23  1  0.56244000  0.92676000  0.69259000  1.0
  H  H24  1  0.86233000  0.55422000  0.76509000  1.0
  H  H25  1  0.36234000  0.94579000  0.23490000  1.0
  H  H26  1  0.13767000  0.44578000  0.23491000  1.0
  H  H27  1  0.63767000  0.05422000  0.76509000  1.0
  H  H28  1  0.50205000  0.33324000  0.87394000  1.0
  H  H29  1  0.00205000  0.16677000  0.12606000  1.0
  H  H30  1  0.49795000  0.66677000  0.12606000  1.0
  H  H31  1  0.99795000  0.83324000  0.87394000  1.0
  H  H32  1  0.56875000  0.16682000  0.98871000  1.0
  H  H33  1  0.06875000  0.33319000  0.01129000  1.0
  H  H34  1  0.43126000  0.83318000  0.01129000  1.0
  H  H35  1  0.93126000  0.66682000  0.98871000  1.0
  H  H36  1  0.85622000  0.05317000  0.99271000  1.0
  H  H37  1  0.35622000  0.44684000  0.00729000  1.0
  H  H38  1  0.14379000  0.94684000  0.00729000  1.0
  H  H39  1  0.64378000  0.55317000  0.99271000  1.0
  H  H40  1  0.00588000  0.26646000  0.76702000  1.0
  H  H41  1  0.50588000  0.23354000  0.23298000  1.0
  H  H42  1  0.99413000  0.73354000  0.23298000  1.0
  H  H43  1  0.49413000  0.76646000  0.76702000  1.0
  H  H44  1  0.36092000  0.10064000  0.86776000  1.0
  H  H45  1  0.86092000  0.39935000  0.13225000  1.0
  H  H46  1  0.63908000  0.89935000  0.13224000  1.0
  H  H47  1  0.13907000  0.60065000  0.86776000  1.0
  H  H48  1  0.24447000  0.24051000  0.82719000  1.0
  H  H49  1  0.74447000  0.25949000  0.17281000  1.0
  H  H50  1  0.75553000  0.75949000  0.17281000  1.0
  H  H51  1  0.25553000  0.74051000  0.82719000  1.0
  C  C52  1  0.74451000  0.55317000  0.64014000  1.0
  C  C53  1  0.24452000  0.94682000  0.35986000  1.0
  C  C54  1  0.25548000  0.44682000  0.35986000  1.0
  C  C55  1  0.75548000  0.05318000  0.64014000  1.0
  C  C56  1  0.82248000  0.48121000  0.71597000  1.0
  C  C57  1  0.32248000  0.01879000  0.28402000  1.0
  C  C58  1  0.17752000  0.51879000  0.28403000  1.0
  C  C59  1  0.67752000  0.98120000  0.71597000  1.0
  C  C60  1  0.74839000  0.30638000  0.81446000  1.0
  C  C61  1  0.24839000  0.19362000  0.18554000  1.0
  C  C62  1  0.25161000  0.69362000  0.18554000  1.0
  C  C63  1  0.75161000  0.80638000  0.81446000  1.0
  C  C64  1  0.62480000  0.27990000  0.87630000  1.0
  C  C65  1  0.12480000  0.22010000  0.12370000  1.0
  C  C66  1  0.37520000  0.72010000  0.12370000  1.0
  C  C67  1  0.87520000  0.77990000  0.87630000  1.0
  C  C68  1  0.66427000  0.18751000  0.93975000  1.0
  C  C69  1  0.16427000  0.31250000  0.06025000  1.0
  C  C70  1  0.33573000  0.81250000  0.06025000  1.0
  C  C71  1  0.83573000  0.68750000  0.93975000  1.0
  C  C72  1  0.82441000  0.12406000  0.94283000  1.0
  C  C73  1  0.32441000  0.37595000  0.05717000  1.0
  C  C74  1  0.17559000  0.87594000  0.05717000  1.0
  C  C75  1  0.67559000  0.62406000  0.94283000  1.0
  C  C76  1  0.94853000  0.15449000  0.88121000  1.0
  C  C77  1  0.44854000  0.34551000  0.11879000  1.0
  C  C78  1  0.05147000  0.84551000  0.11879000  1.0
  C  C79  1  0.55147000  0.65449000  0.88121000  1.0
  C  C80  1  0.91167000  0.24543000  0.81617000  1.0
  C  C81  1  0.41167000  0.25458000  0.18383000  1.0
  C  C82  1  0.08833000  0.75458000  0.18383000  1.0
  C  C83  1  0.58834000  0.74542000  0.81617000  1.0
  C  C84  1  0.24146000  0.13031000  0.83532000  1.0
  C  C85  1  0.74146000  0.36968000  0.16468000  1.0
  C  C86  1  0.75854000  0.86968000  0.16468000  1.0
  C  C87  1  0.25854000  0.63032000  0.83532000  1.0
  C  C88  1  0.24105000  0.05808000  0.74899000  1.0
  C  C89  1  0.74105000  0.44192000  0.25101000  1.0
  C  C90  1  0.75894000  0.94192000  0.25100000  1.0
  C  C91  1  0.25894000  0.55807000  0.74900000  1.0
  O  O92  1  0.63517000  0.48961000  0.59482000  1.0
  O  O93  1  0.13518000  0.01038000  0.40518000  1.0
  O  O94  1  0.36482000  0.51039000  0.40518000  1.0
  O  O95  1  0.86483000  0.98961000  0.59482000  1.0
  O  O96  1  0.79823000  0.67095000  0.62381000  1.0
  O  O97  1  0.29824000  0.82905000  0.37619000  1.0
  O  O98  1  0.20177000  0.32905000  0.37619000  1.0
  O  O99  1  0.70178000  0.17095000  0.62381000  1.0
  O  O100  1  0.69663000  0.39070000  0.74972000  1.0
  O  O101  1  0.19664000  0.10930000  0.25028000  1.0
  O  O102  1  0.30337000  0.60930000  0.25028000  1.0
  O  O103  1  0.80337000  0.89070000  0.74972000  1.0
  O  O104  1  0.10453000  0.09068000  0.89003000  1.0
  O  O105  1  0.60453000  0.40932000  0.10997000  1.0
  O  O106  1  0.89547000  0.90932000  0.10997000  1.0
  O  O107  1  0.39547000  0.59068000  0.89003000  1.0
  O  O108  1  0.31132000  0.12165000  0.68754000  1.0
  O  O109  1  0.81132000  0.37834000  0.31246000  1.0
  O  O110  1  0.68866000  0.87834000  0.31245000  1.0
  O  O111  1  0.18866000  0.62166000  0.68755000  1.0
  O  O112  1  0.18066000  0.94026000  0.74377000  1.0
  O  O113  1  0.68066000  0.55973000  0.25623000  1.0
  O  O114  1  0.81934000  0.05972000  0.25623000  1.0
  O  O115  1  0.31932000  0.44027000  0.74377000  1.0
  O  O116  1  0.22670000  0.43372000  0.56249000  1.0
  O  O117  1  0.72669000  0.06628000  0.43751000  1.0
  O  O118  1  0.77331000  0.56628000  0.43752000  1.0
  O  O119  1  0.27331000  0.93372000  0.56248000  1.0
  O  O120  1  0.43625000  0.21225000  0.49590000  1.0
  O  O121  1  0.93625000  0.28775000  0.50410000  1.0
  O  O122  1  0.56376000  0.78776000  0.50409000  1.0
  O  O123  1  0.06375000  0.71225000  0.49590000  1.0
