# generated using pymatgen
data_ZnH24C29O6
_symmetry_space_group_name_H-M   'P 1'
_cell_length_a   5.38754000
_cell_length_b   8.19877000
_cell_length_c   26.10081551
_cell_angle_alpha   86.07475151
_cell_angle_beta   85.79384301
_cell_angle_gamma   89.79750000
_symmetry_Int_Tables_number   1
_chemical_formula_structural   ZnH24C29O6
_chemical_formula_sum   'Zn2 H48 C58 O12'
_cell_volume   1147.10067751
_cell_formula_units_Z   2
loop_
 _symmetry_equiv_pos_site_id
 _symmetry_equiv_pos_as_xyz
  1  'x, y, z'
loop_
 _atom_site_type_symbol
 _atom_site_label
 _atom_site_symmetry_multiplicity
 _atom_site_fract_x
 _atom_site_fract_y
 _atom_site_fract_z
 _atom_site_occupancy
  Zn  Zn0  1  0.08079000  0.64731000  0.91494000  1.0
  Zn  Zn1  1  0.99432000  0.14767000  0.91346000  1.0
  H  H2  1  0.53269000  0.64161000  0.88942000  1.0
  H  H3  1  0.55646000  0.14687000  0.89104000  1.0
  H  H4  1  0.44780000  0.83087000  0.88799000  1.0
  H  H5  1  0.64694000  0.33497000  0.88671000  1.0
  H  H6  1  0.47103000  0.95019000  0.98216000  1.0
  H  H7  1  0.55874000  0.43457000  0.98460000  1.0
  H  H8  1  0.71430000  0.04716000  0.00985000  1.0
  H  H9  1  0.29990000  0.54295000  0.00964000  1.0
  H  H10  1  0.37520000  0.88813000  0.07201000  1.0
  H  H11  1  0.56673000  0.37991000  0.07572000  1.0
  H  H12  1  0.51713000  0.70870000  0.05138000  1.0
  H  H13  1  0.44130000  0.20133000  0.05445000  1.0
  H  H14  1  0.34985000  0.64398000  0.13386000  1.0
  H  H15  1  0.51962000  0.13364000  0.13869000  1.0
  H  H16  1  0.29206000  0.50809000  0.21956000  1.0
  H  H17  1  0.48363000  0.99774000  0.22452000  1.0
  H  H18  1  0.97362000  0.72701000  0.26028000  1.0
  H  H19  1  0.77743000  0.23830000  0.25569000  1.0
  H  H20  1  0.02849000  0.86228000  0.17346000  1.0
  H  H21  1  0.81746000  0.37324000  0.16874000  1.0
  H  H22  1  0.26137000  0.38818000  0.28761000  1.0
  H  H23  1  0.44061000  0.87965000  0.29277000  1.0
  H  H24  1  0.21025000  0.25564000  0.37438000  1.0
  H  H25  1  0.39499000  0.74548000  0.37933000  1.0
  H  H26  1  0.50983000  0.31126000  0.44002000  1.0
  H  H27  1  0.03142000  0.80845000  0.44004000  1.0
  H  H28  1  0.86125000  0.50621000  0.41575000  1.0
  H  H29  1  0.71380000  0.01080000  0.41069000  1.0
  H  H30  1  0.91594000  0.63764000  0.32924000  1.0
  H  H31  1  0.75506000  0.14332000  0.32430000  1.0
  H  H32  1  0.21280000  0.66371000  0.75294000  1.0
  H  H33  1  0.01188000  0.16080000  0.74775000  1.0
  H  H34  1  0.25729000  0.60270000  0.66205000  1.0
  H  H35  1  0.07612000  0.10104000  0.65697000  1.0
  H  H36  1  0.56959000  0.32566000  0.68357000  1.0
  H  H37  1  0.73928000  0.82704000  0.69152000  1.0
  H  H38  1  0.52958000  0.39086000  0.77407000  1.0
  H  H39  1  0.67211000  0.89175000  0.78179000  1.0
  H  H40  1  0.28694000  0.55810000  0.59042000  1.0
  H  H41  1  0.13117000  0.05745000  0.58569000  1.0
  H  H42  1  0.33834000  0.48643000  0.50139000  1.0
  H  H43  1  0.18570000  0.98782000  0.49648000  1.0
  H  H44  1  0.03413000  0.30066000  0.46634000  1.0
  H  H45  1  0.53360000  0.80525000  0.46730000  1.0
  H  H46  1  0.67112000  0.19231000  0.52394000  1.0
  H  H47  1  0.83213000  0.69995000  0.53087000  1.0
  H  H48  1  0.61611000  0.26507000  0.61299000  1.0
  H  H49  1  0.78088000  0.77055000  0.62025000  1.0
  C  C50  1  0.81775000  0.83575000  0.97126000  1.0
  C  C51  1  0.21541000  0.33198000  0.97154000  1.0
  C  C52  1  0.63396000  0.92697000  0.00465000  1.0
  C  C53  1  0.37522000  0.41952000  0.00580000  1.0
  C  C54  1  0.55349000  0.83844000  0.05622000  1.0
  C  C55  1  0.40344000  0.33198000  0.05830000  1.0
  C  C56  1  0.74537000  0.84893000  0.09532000  1.0
  C  C57  1  0.17482000  0.34823000  0.09480000  1.0
  C  C58  1  0.69667000  0.76228000  0.14725000  1.0
  C  C59  1  0.16755000  0.26213000  0.14714000  1.0
  C  C60  1  0.48888000  0.66197000  0.16126000  1.0
  C  C61  1  0.35477000  0.15640000  0.16397000  1.0
  C  C62  1  0.45573000  0.58500000  0.21054000  1.0
  C  C63  1  0.33412000  0.07934000  0.21335000  1.0
  C  C64  1  0.62764000  0.60515000  0.24779000  1.0
  C  C65  1  0.12660000  0.10505000  0.24797000  1.0
  C  C66  1  0.83483000  0.70687000  0.23315000  1.0
  C  C67  1  0.94125000  0.21295000  0.23063000  1.0
  C  C68  1  0.86814000  0.78350000  0.18415000  1.0
  C  C69  1  0.96137000  0.28946000  0.18149000  1.0
  C  C70  1  0.59411000  0.52408000  0.30046000  1.0
  C  C71  1  0.10173000  0.02326000  0.30060000  1.0
  C  C72  1  0.39524000  0.41557000  0.31511000  1.0
  C  C73  1  0.27979000  0.91020000  0.31802000  1.0
  C  C74  1  0.36521000  0.33995000  0.36470000  1.0
  C  C75  1  0.25493000  0.83390000  0.36756000  1.0
  C  C76  1  0.53225000  0.37113000  0.40133000  1.0
  C  C77  1  0.05191000  0.86912000  0.40144000  1.0
  C  C78  1  0.72947000  0.47930000  0.38768000  1.0
  C  C79  1  0.87389000  0.98125000  0.38497000  1.0
  C  C80  1  0.76017000  0.55390000  0.33806000  1.0
  C  C81  1  0.89796000  0.05640000  0.33535000  1.0
  C  C82  1  0.84701000  0.56544000  0.82492000  1.0
  C  C83  1  0.29468000  0.06485000  0.82599000  1.0
  C  C84  1  0.86943000  0.53043000  0.76954000  1.0
  C  C85  1  0.33644000  0.02932000  0.77085000  1.0
  C  C86  1  0.07271000  0.59002000  0.73718000  1.0
  C  C87  1  0.17127000  0.08814000  0.73492000  1.0
  C  C88  1  0.09578000  0.55465000  0.68574000  1.0
  C  C89  1  0.20953000  0.05344000  0.68356000  1.0
  C  C90  1  0.91790000  0.45806000  0.66465000  1.0
  C  C91  1  0.41331000  0.95828000  0.66603000  1.0
  C  C92  1  0.71320000  0.40050000  0.69766000  1.0
  C  C93  1  0.57855000  0.90094000  0.70269000  1.0
  C  C94  1  0.68906000  0.43611000  0.74913000  1.0
  C  C95  1  0.54158000  0.93612000  0.75406000  1.0
  C  C96  1  0.94738000  0.41706000  0.60995000  1.0
  C  C97  1  0.44980000  0.91883000  0.61125000  1.0
  C  C98  1  0.14951000  0.47751000  0.57678000  1.0
  C  C99  1  0.28612000  0.97860000  0.57468000  1.0
  C  C100  1  0.17929000  0.43707000  0.52571000  1.0
  C  C101  1  0.31668000  0.93913000  0.52353000  1.0
  C  C102  1  0.00865000  0.33436000  0.50608000  1.0
  C  C103  1  0.51174000  0.83801000  0.50718000  1.0
  C  C104  1  0.80610000  0.27379000  0.53817000  1.0
  C  C105  1  0.67797000  0.77893000  0.54262000  1.0
  C  C106  1  0.77596000  0.31496000  0.58919000  1.0
  C  C107  1  0.64775000  0.81913000  0.59375000  1.0
  O  O108  1  0.85986000  0.68447000  0.98049000  1.0
  O  O109  1  0.16707000  0.18053000  0.97974000  1.0
  O  O110  1  0.92848000  0.90831000  0.93044000  1.0
  O  O111  1  0.13459000  0.40726000  0.93098000  1.0
  O  O112  1  0.93776000  0.93011000  0.08530000  1.0
  O  O113  1  0.99705000  0.43375000  0.08217000  1.0
  O  O114  1  0.01684000  0.65367000  0.84096000  1.0
  O  O115  1  0.10608000  0.15219000  0.83905000  1.0
  O  O116  1  0.66029000  0.50872000  0.85345000  1.0
  O  O117  1  0.44911000  0.00954000  0.85771000  1.0
  O  O118  1  0.43319000  0.72435000  0.90922000  1.0
  O  O119  1  0.64732000  0.23076000  0.90915000  1.0
