# generated using pymatgen
data_NaH7C4O7
_symmetry_space_group_name_H-M   'P 1'
_cell_length_a   6.51806000
_cell_length_b   7.03831000
_cell_length_c   7.98023000
_cell_angle_alpha   90.45090000
_cell_angle_beta   102.10000000
_cell_angle_gamma   109.92300000
_symmetry_Int_Tables_number   1
_chemical_formula_structural   NaH7C4O7
_chemical_formula_sum   'Na2 H14 C8 O14'
_cell_volume   335.29002992
_cell_formula_units_Z   2
loop_
 _symmetry_equiv_pos_site_id
 _symmetry_equiv_pos_as_xyz
  1  'x, y, z'
loop_
 _atom_site_type_symbol
 _atom_site_label
 _atom_site_symmetry_multiplicity
 _atom_site_fract_x
 _atom_site_fract_y
 _atom_site_fract_z
 _atom_site_occupancy
  Na  Na0  1  0.09655000  0.76535000  0.98423000  1.0
  Na  Na1  1  0.90345000  0.23464000  0.01577000  1.0
  H  H2  1  0.24370000  0.64957000  0.58662000  1.0
  H  H3  1  0.75630000  0.35043000  0.41337000  1.0
  H  H4  1  0.31221000  0.16796000  0.97502000  1.0
  H  H5  1  0.68779000  0.83203000  0.02498000  1.0
  H  H6  1  0.65735000  0.44308000  0.80682000  1.0
  H  H7  1  0.34264000  0.55692000  0.19318000  1.0
  H  H8  1  0.05726000  0.08224000  0.63097000  1.0
  H  H9  1  0.94274000  0.91776000  0.36903000  1.0
  H  H10  1  0.44729000  0.24218000  0.57798000  1.0
  H  H11  1  0.55270000  0.75782000  0.42202000  1.0
  H  H12  1  0.68354000  0.75172000  0.74183000  1.0
  H  H13  1  0.31646000  0.24828000  0.25817000  1.0
  H  H14  1  0.78397000  0.63388000  0.62488000  1.0
  H  H15  1  0.21603000  0.36612000  0.37512000  1.0
  C  C16  1  0.18214000  0.39593000  0.72254000  1.0
  C  C17  1  0.81788000  0.60406000  0.27744000  1.0
  C  C18  1  0.19642000  0.18291000  0.73067000  1.0
  C  C19  1  0.80358000  0.81710000  0.26933000  1.0
  C  C20  1  0.42232000  0.18218000  0.70205000  1.0
  C  C21  1  0.57768000  0.81783000  0.29794000  1.0
  C  C22  1  0.42134000  0.96399000  0.69163000  1.0
  C  C23  1  0.57865000  0.03601000  0.30836000  1.0
  O  O24  1  0.12542000  0.47217000  0.83705000  1.0
  O  O25  1  0.87458000  0.52785000  0.16297000  1.0
  O  O26  1  0.23424000  0.48453000  0.58518000  1.0
  O  O27  1  0.76576000  0.51547000  0.41483000  1.0
  O  O28  1  0.16727000  0.10716000  0.89222000  1.0
  O  O29  1  0.83274000  0.89284000  0.10779000  1.0
  O  O30  1  0.59478000  0.30011000  0.84041000  1.0
  O  O31  1  0.40522000  0.69989000  0.15959000  1.0
  O  O32  1  0.57291000  0.92038000  0.79107000  1.0
  O  O33  1  0.42710000  0.07962000  0.20893000  1.0
  O  O34  1  0.26035000  0.84051000  0.57754000  1.0
  O  O35  1  0.73964000  0.15949000  0.42246000  1.0
  O  O36  1  0.77683000  0.66427000  0.74391000  1.0
  O  O37  1  0.22317000  0.33573000  0.25609000  1.0
