# generated using pymatgen
data_AlH4C10SBrO6
_symmetry_space_group_name_H-M   'P 1'
_cell_length_a   6.70279000
_cell_length_b   11.08671801
_cell_length_c   12.55410000
_cell_angle_alpha   91.70838017
_cell_angle_beta   101.64600000
_cell_angle_gamma   106.83173531
_symmetry_Int_Tables_number   1
_chemical_formula_structural   AlH4C10SBrO6
_chemical_formula_sum   'Al2 H8 C20 S2 Br2 O12'
_cell_volume   870.68471333
_cell_formula_units_Z   2
loop_
 _symmetry_equiv_pos_site_id
 _symmetry_equiv_pos_as_xyz
  1  'x, y, z'
loop_
 _atom_site_type_symbol
 _atom_site_label
 _atom_site_symmetry_multiplicity
 _atom_site_fract_x
 _atom_site_fract_y
 _atom_site_fract_z
 _atom_site_occupancy
  Al  Al0  1  0.00233000  0.50452000  0.50181000  1.0
  Al  Al1  1  0.50229000  0.50359000  0.50311000  1.0
  H  H2  1  0.33422000  0.57782000  0.63063000  1.0
  H  H3  1  0.64914000  0.34995000  0.44133000  1.0
  H  H4  1  0.50184000  0.76380000  0.35662000  1.0
  H  H5  1  0.77248000  0.22978000  0.35136000  1.0
  H  H6  1  0.36080000  0.11852000  0.56422000  1.0
  H  H7  1  0.23434000  0.88192000  0.55437000  1.0
  H  H8  1  0.36209000  0.46747000  0.87674000  1.0
  H  H9  1  0.81474000  0.51250000  0.25603000  1.0
  C  C10  1  0.85197000  0.72748000  0.48157000  1.0
  C  C11  1  0.83429000  0.51402000  0.69998000  1.0
  C  C12  1  0.13952000  0.27411000  0.49609000  1.0
  C  C13  1  0.17510000  0.49569000  0.30311000  1.0
  C  C14  1  0.08914000  0.49503000  0.87459000  1.0
  C  C15  1  0.92308000  0.50923000  0.13011000  1.0
  C  C16  1  0.89780000  0.51133000  0.81778000  1.0
  C  C17  1  0.11676000  0.49417000  0.18567000  1.0
  C  C18  1  0.91503000  0.51163000  0.01662000  1.0
  C  C19  1  0.09852000  0.49587000  0.98881000  1.0
  C  C20  1  0.91629000  0.86646000  0.47056000  1.0
  C  C21  1  0.77277000  0.93076000  0.41670000  1.0
  C  C22  1  0.12651000  0.93383000  0.51789000  1.0
  C  C23  1  0.56209000  0.86603000  0.35754000  1.0
  C  C24  1  0.43211000  0.93013000  0.30100000  1.0
  C  C25  1  0.06118000  0.13306000  0.47723000  1.0
  C  C26  1  0.19799000  0.06631000  0.52234000  1.0
  C  C27  1  0.84885000  0.06633000  0.41808000  1.0
  C  C28  1  0.71325000  0.12855000  0.35640000  1.0
  C  C29  1  0.50941000  0.06330000  0.29978000  1.0
  S  S30  1  0.73453000  0.53074000  0.90501000  1.0
  S  S31  1  0.28638000  0.48244000  0.10012000  1.0
  Br  Br32  1  0.15293000  0.83705000  0.22402000  1.0
  Br  Br33  1  0.34144000  0.15651000  0.22071000  1.0
  O  O34  1  0.99634000  0.67360000  0.48410000  1.0
  O  O35  1  0.64239000  0.51183000  0.65734000  1.0
  O  O36  1  0.33843000  0.32760000  0.50284000  1.0
  O  O37  1  0.02176000  0.49390000  0.35225000  1.0
  O  O38  1  0.00203000  0.33033000  0.50575000  1.0
  O  O39  1  0.36282000  0.49862000  0.35069000  1.0
  O  O40  1  0.66215000  0.67382000  0.49183000  1.0
  O  O41  1  0.98159000  0.51872000  0.64836000  1.0
  O  O42  1  0.29881000  0.56127000  0.55147000  1.0
  O  O43  1  0.70376000  0.44149000  0.45588000  1.0
  O  O44  1  0.24077000  0.47930000  0.82438000  1.0
  O  O45  1  0.76651000  0.52181000  0.17654000  1.0
