# generated using pymatgen
data_CdP2H18C14(NO3)2
_symmetry_space_group_name_H-M   'P 1'
_cell_length_a   5.77988000
_cell_length_b   10.38600000
_cell_length_c   14.65470000
_cell_angle_alpha   96.97960000
_cell_angle_beta   89.99990000
_cell_angle_gamma   89.99980000
_symmetry_Int_Tables_number   1
_chemical_formula_structural   CdP2H18C14(NO3)2
_chemical_formula_sum   'Cd2 P4 H36 C28 N4 O12'
_cell_volume   873.20002684
_cell_formula_units_Z   2
loop_
 _symmetry_equiv_pos_site_id
 _symmetry_equiv_pos_as_xyz
  1  'x, y, z'
loop_
 _atom_site_type_symbol
 _atom_site_label
 _atom_site_symmetry_multiplicity
 _atom_site_fract_x
 _atom_site_fract_y
 _atom_site_fract_z
 _atom_site_occupancy
  Cd  Cd0  1  0.00000000  0.00000000  0.00000000  1.0
  Cd  Cd1  1  0.50000000  0.00000000  0.50000000  1.0
  P  P2  1  0.50368000  0.16382000  0.06157000  1.0
  P  P3  1  0.00369000  0.83618000  0.43843000  1.0
  P  P4  1  0.49632000  0.83618000  0.93843000  1.0
  P  P5  1  0.99631000  0.16382000  0.56157000  1.0
  H  H6  1  0.50504000  0.15023000  0.96419000  1.0
  H  H7  1  0.00504000  0.84978000  0.53581000  1.0
  H  H8  1  0.49495000  0.84978000  0.03581000  1.0
  H  H9  1  0.99496000  0.15022000  0.46418000  1.0
  H  H10  1  0.83911000  0.35955000  0.02697000  1.0
  H  H11  1  0.33912000  0.64045000  0.47303000  1.0
  H  H12  1  0.16089000  0.64045000  0.97303000  1.0
  H  H13  1  0.66089000  0.35955000  0.52697000  1.0
  H  H14  1  0.84843000  0.59988000  0.07073000  1.0
  H  H15  1  0.34844000  0.40012000  0.42928000  1.0
  H  H16  1  0.15157000  0.40012000  0.92927000  1.0
  H  H17  1  0.65157000  0.59988000  0.57073000  1.0
  H  H18  1  0.53717000  0.70808000  0.16731000  1.0
  H  H19  1  0.03717000  0.29192000  0.33270000  1.0
  H  H20  1  0.46283000  0.29192000  0.83269000  1.0
  H  H21  1  0.96283000  0.70808000  0.66730000  1.0
  H  H22  1  0.21145000  0.57801000  0.22082000  1.0
  H  H23  1  0.71145000  0.42199000  0.27919000  1.0
  H  H24  1  0.78856000  0.42199000  0.77918000  1.0
  H  H25  1  0.28855000  0.57801000  0.72081000  1.0
  H  H26  1  0.18984000  0.34127000  0.17012000  1.0
  H  H27  1  0.68984000  0.65873000  0.32988000  1.0
  H  H28  1  0.81016000  0.65873000  0.82988000  1.0
  H  H29  1  0.31016000  0.34126000  0.67012000  1.0
  H  H30  1  0.00541000  0.24350000  0.78594000  1.0
  H  H31  1  0.50542000  0.75649000  0.71406000  1.0
  H  H32  1  0.99459000  0.75650000  0.21406000  1.0
  H  H33  1  0.49458000  0.24351000  0.28594000  1.0
  H  H34  1  0.77771000  0.08075000  0.71533000  1.0
  H  H35  1  0.27771000  0.91925000  0.78467000  1.0
  H  H36  1  0.22229000  0.91925000  0.28467000  1.0
  H  H37  1  0.72229000  0.08075000  0.21533000  1.0
  H  H38  1  0.75573000  0.00224000  0.81854000  1.0
  H  H39  1  0.25573000  0.99776000  0.68146000  1.0
  H  H40  1  0.24427000  0.99777000  0.18146000  1.0
  H  H41  1  0.74427000  0.00224000  0.31854000  1.0
  C  C42  1  0.51346000  0.33593000  0.09632000  1.0
  C  C43  1  0.01347000  0.66407000  0.40368000  1.0
  C  C44  1  0.48653000  0.66407000  0.90368000  1.0
  C  C45  1  0.98654000  0.33592000  0.59632000  1.0
  C  C46  1  0.70094000  0.40829000  0.06869000  1.0
  C  C47  1  0.20094000  0.59172000  0.43131000  1.0
  C  C48  1  0.29906000  0.59171000  0.93131000  1.0
  C  C49  1  0.79906000  0.40828000  0.56869000  1.0
  C  C50  1  0.70758000  0.54198000  0.09366000  1.0
  C  C51  1  0.20759000  0.45802000  0.40634000  1.0
  C  C52  1  0.29242000  0.45802000  0.90634000  1.0
  C  C53  1  0.79241000  0.54198000  0.59365000  1.0
  C  C54  1  0.53083000  0.60336000  0.14786000  1.0
  C  C55  1  0.03084000  0.39664000  0.35215000  1.0
  C  C56  1  0.46917000  0.39664000  0.85214000  1.0
  C  C57  1  0.96917000  0.60335000  0.64786000  1.0
  C  C58  1  0.34688000  0.53139000  0.17684000  1.0
  C  C59  1  0.84688000  0.46861000  0.32317000  1.0
  C  C60  1  0.65313000  0.46861000  0.82316000  1.0
  C  C61  1  0.15312000  0.53139000  0.67683000  1.0
  C  C62  1  0.33578000  0.39788000  0.14980000  1.0
  C  C63  1  0.83579000  0.60212000  0.35020000  1.0
  C  C64  1  0.66422000  0.60212000  0.85020000  1.0
  C  C65  1  0.16422000  0.39787000  0.64980000  1.0
  C  C66  1  0.94867000  0.16750000  0.82770000  1.0
  C  C67  1  0.44869000  0.83249000  0.67229000  1.0
  C  C68  1  0.05132000  0.83250000  0.17229000  1.0
  C  C69  1  0.55131000  0.16750000  0.32771000  1.0
  N  N70  1  0.81295000  0.07734000  0.78414000  1.0
  N  N71  1  0.31296000  0.92266000  0.71586000  1.0
  N  N72  1  0.18704000  0.92267000  0.21586000  1.0
  N  N73  1  0.68704000  0.07734000  0.28414000  1.0
  O  O74  1  0.72518000  0.10189000  0.09392000  1.0
  O  O75  1  0.22519000  0.89811000  0.40608000  1.0
  O  O76  1  0.27481000  0.89811000  0.90608000  1.0
  O  O77  1  0.77481000  0.10189000  0.59392000  1.0
  O  O78  1  0.27793000  0.10834000  0.09464000  1.0
  O  O79  1  0.77794000  0.89166000  0.40536000  1.0
  O  O80  1  0.72207000  0.89166000  0.90536000  1.0
  O  O81  1  0.22206000  0.10834000  0.59464000  1.0
  O  O82  1  0.01494000  0.17316000  0.90993000  1.0
  O  O83  1  0.51496000  0.82684000  0.59007000  1.0
  O  O84  1  0.98505000  0.82685000  0.09007000  1.0
  O  O85  1  0.48505000  0.17316000  0.40993000  1.0
