# generated using pymatgen
data_AlH7C15BrO5
_symmetry_space_group_name_H-M   'P 1'
_cell_length_a   6.62503000
_cell_length_b   11.11023314
_cell_length_c   15.19690000
_cell_angle_alpha   88.81137261
_cell_angle_beta   77.69940000
_cell_angle_gamma   73.15479368
_symmetry_Int_Tables_number   1
_chemical_formula_structural   AlH7C15BrO5
_chemical_formula_sum   'Al2 H14 C30 Br2 O10'
_cell_volume   1044.99804632
_cell_formula_units_Z   2
loop_
 _symmetry_equiv_pos_site_id
 _symmetry_equiv_pos_as_xyz
  1  'x, y, z'
loop_
 _atom_site_type_symbol
 _atom_site_label
 _atom_site_symmetry_multiplicity
 _atom_site_fract_x
 _atom_site_fract_y
 _atom_site_fract_z
 _atom_site_occupancy
  Al  Al0  1  0.99723000  0.50182000  0.49885000  1.0
  Al  Al1  1  0.49933000  0.49837000  0.49786000  1.0
  H  H2  1  0.34436000  0.35438000  0.43722000  1.0
  H  H3  1  0.64535000  0.65272000  0.54322000  1.0
  H  H4  1  0.11762000  0.59739000  0.23175000  1.0
  H  H5  1  0.31514000  0.66504000  0.08938000  1.0
  H  H6  1  0.63359000  0.41319000  0.22235000  1.0
  H  H7  1  0.59431000  0.33954000  0.07443000  1.0
  H  H8  1  0.88197000  0.40403000  0.76558000  1.0
  H  H9  1  0.68699000  0.33473000  0.90777000  1.0
  H  H10  1  0.36903000  0.58627000  0.77447000  1.0
  H  H11  1  0.40883000  0.65965000  0.92278000  1.0
  H  H12  1  0.56985000  0.23621000  0.63106000  1.0
  H  H13  1  0.36208000  0.12057000  0.73430000  1.0
  H  H14  1  0.81359000  0.76735000  0.62400000  1.0
  H  H15  1  0.48551000  0.88494000  0.73085000  1.0
  C  C16  1  0.86318000  0.27453000  0.50526000  1.0
  C  C17  1  0.82035000  0.50232000  0.33572000  1.0
  C  C18  1  0.13688000  0.72667000  0.49189000  1.0
  C  C19  1  0.17947000  0.49793000  0.66127000  1.0
  C  C20  1  0.03219000  0.55742000  0.19172000  1.0
  C  C21  1  0.08121000  0.56025000  0.09734000  1.0
  C  C22  1  0.23674000  0.61888000  0.04997000  1.0
  C  C23  1  0.76003000  0.45188000  0.18625000  1.0
  C  C24  1  0.81415000  0.44504000  0.09177000  1.0
  C  C25  1  0.71435000  0.38349000  0.03911000  1.0
  C  C26  1  0.96847000  0.44333000  0.80548000  1.0
  C  C27  1  0.92055000  0.43977000  0.89981000  1.0
  C  C28  1  0.76546000  0.38085000  0.94716000  1.0
  C  C29  1  0.24206000  0.54795000  0.81061000  1.0
  C  C30  1  0.18826000  0.55464000  0.90519000  1.0
  C  C31  1  0.28827000  0.61595000  0.95798000  1.0
  C  C32  1  0.87141000  0.50499000  0.23546000  1.0
  C  C33  1  0.97450000  0.50129000  0.04640000  1.0
  C  C34  1  0.12941000  0.49550000  0.76157000  1.0
  C  C35  1  0.02778000  0.49850000  0.95064000  1.0
  C  C36  1  0.93563000  0.13333000  0.50248000  1.0
  C  C37  1  0.81191000  0.06857000  0.56367000  1.0
  C  C38  1  0.11716000  0.06701000  0.43985000  1.0
  C  C39  1  0.62380000  0.13378000  0.62819000  1.0
  C  C40  1  0.50741000  0.06875000  0.68615000  1.0
  C  C41  1  0.06830000  0.86793000  0.49497000  1.0
  C  C42  1  0.18351000  0.93326000  0.43557000  1.0
  C  C43  1  0.88052000  0.93353000  0.56042000  1.0
  C  C44  1  0.76024000  0.86965000  0.62332000  1.0
  C  C45  1  0.57679000  0.93581000  0.68398000  1.0
  Br  Br46  1  0.42268000  0.84413000  0.34509000  1.0
  Br  Br47  1  0.26996000  0.15443000  0.35402000  1.0
  O  O48  1  0.99353000  0.33115000  0.52080000  1.0
  O  O49  1  0.62547000  0.51044000  0.37360000  1.0
  O  O50  1  0.32339000  0.67133000  0.50540000  1.0
  O  O51  1  0.02069000  0.51824000  0.62241000  1.0
  O  O52  1  0.99919000  0.67338000  0.47943000  1.0
  O  O53  1  0.37651000  0.48214000  0.62262000  1.0
  O  O54  1  0.67539000  0.32647000  0.49164000  1.0
  O  O55  1  0.97639000  0.48950000  0.37517000  1.0
  O  O56  1  0.29366000  0.44097000  0.46097000  1.0
  O  O57  1  0.69943000  0.56155000  0.53624000  1.0
