# generated using pymatgen
data_AgH15C13(NO)3
_symmetry_space_group_name_H-M   'P 1'
_cell_length_a   5.73166000
_cell_length_b   13.32270000
_cell_length_c   16.98770000
_cell_angle_alpha   90.00000000
_cell_angle_beta   90.00000000
_cell_angle_gamma   89.98010000
_symmetry_Int_Tables_number   1
_chemical_formula_structural   AgH15C13(NO)3
_chemical_formula_sum   'Ag4 H60 C52 N12 O12'
_cell_volume   1297.20085276
_cell_formula_units_Z   4
loop_
 _symmetry_equiv_pos_site_id
 _symmetry_equiv_pos_as_xyz
  1  'x, y, z'
loop_
 _atom_site_type_symbol
 _atom_site_label
 _atom_site_symmetry_multiplicity
 _atom_site_fract_x
 _atom_site_fract_y
 _atom_site_fract_z
 _atom_site_occupancy
  Ag  Ag0  1  0.57580000  0.76897000  0.64073000  1.0
  Ag  Ag1  1  0.42420000  0.73103000  0.14072000  1.0
  Ag  Ag2  1  0.42422000  0.23103000  0.35927000  1.0
  Ag  Ag3  1  0.57580000  0.26897000  0.85927000  1.0
  H  H4  1  0.21043000  0.97418000  0.48662000  1.0
  H  H5  1  0.78956000  0.52580000  0.98660000  1.0
  H  H6  1  0.78956000  0.02580000  0.51339000  1.0
  H  H7  1  0.21045000  0.47419000  0.01339000  1.0
  H  H8  1  0.53100000  0.99688000  0.38954000  1.0
  H  H9  1  0.46896000  0.50312000  0.88953000  1.0
  H  H10  1  0.46900000  0.00311000  0.61047000  1.0
  H  H11  1  0.53104000  0.49688000  0.11046000  1.0
  H  H12  1  0.37400000  0.70747000  0.28879000  1.0
  H  H13  1  0.62597000  0.79253000  0.78880000  1.0
  H  H14  1  0.62599000  0.29253000  0.71120000  1.0
  H  H15  1  0.37404000  0.20747000  0.21122000  1.0
  H  H16  1  0.03864000  0.68960000  0.37833000  1.0
  H  H17  1  0.96134000  0.81039000  0.87833000  1.0
  H  H18  1  0.96135000  0.31040000  0.62166000  1.0
  H  H19  1  0.03866000  0.18961000  0.12168000  1.0
  H  H20  1  0.76575000  0.93703000  0.28880000  1.0
  H  H21  1  0.23421000  0.56297000  0.78880000  1.0
  H  H22  1  0.23424000  0.06298000  0.71120000  1.0
  H  H23  1  0.76579000  0.43703000  0.21120000  1.0
  H  H24  1  0.78727000  0.80432000  0.27644000  1.0
  H  H25  1  0.21271000  0.69569000  0.77643000  1.0
  H  H26  1  0.21272000  0.19568000  0.72356000  1.0
  H  H27  1  0.78730000  0.30432000  0.22356000  1.0
  H  H28  1  0.50404000  0.03004000  0.20624000  1.0
  H  H29  1  0.49596000  0.46996000  0.70624000  1.0
  H  H30  1  0.49595000  0.96996000  0.79376000  1.0
  H  H31  1  0.50405000  0.53005000  0.29376000  1.0
  H  H32  1  0.26765000  0.94733000  0.22267000  1.0
  H  H33  1  0.73235000  0.55268000  0.72267000  1.0
  H  H34  1  0.73235000  0.05268000  0.77733000  1.0
  H  H35  1  0.26766000  0.44732000  0.27732000  1.0
  H  H36  1  0.21622000  0.04077000  0.09928000  1.0
  H  H37  1  0.78378000  0.45923000  0.59928000  1.0
  H  H38  1  0.78377000  0.95923000  0.90072000  1.0
  H  H39  1  0.21623000  0.54077000  0.40072000  1.0
  H  H40  1  0.24038000  0.91055000  0.07978000  1.0
  H  H41  1  0.75961000  0.58945000  0.57978000  1.0
  H  H42  1  0.75961000  0.08945000  0.92022000  1.0
  H  H43  1  0.24039000  0.41055000  0.42022000  1.0
  H  H44  1  0.62691000  0.06649000  0.05964000  1.0
  H  H45  1  0.37308000  0.43351000  0.55964000  1.0
  H  H46  1  0.37307000  0.93351000  0.94036000  1.0
  H  H47  1  0.62692000  0.56649000  0.44036000  1.0
  H  H48  1  0.64370000  0.83924000  0.03120000  1.0
  H  H49  1  0.35630000  0.66076000  0.53120000  1.0
  H  H50  1  0.35630000  0.16076000  0.96880000  1.0
  H  H51  1  0.64370000  0.33924000  0.46880000  1.0
  H  H52  1  0.87847000  0.92372000  0.02008000  1.0
  H  H53  1  0.12153000  0.57628000  0.52007000  1.0
  H  H54  1  0.12152000  0.07628000  0.97992000  1.0
  H  H55  1  0.87847000  0.42372000  0.47993000  1.0
  H  H56  1  0.90988000  0.83305000  0.14630000  1.0
  H  H57  1  0.09012000  0.66696000  0.64629000  1.0
  H  H58  1  0.09013000  0.16696000  0.85371000  1.0
  H  H59  1  0.90989000  0.33305000  0.35371000  1.0
  H  H60  1  0.87493000  0.96486000  0.16151000  1.0
  H  H61  1  0.12506000  0.53514000  0.66151000  1.0
  H  H62  1  0.12506000  0.03514000  0.83849000  1.0
  H  H63  1  0.87494000  0.46486000  0.33849000  1.0
  C  C64  1  0.91446000  0.81770000  0.49101000  1.0
  C  C65  1  0.08552000  0.68229000  0.99100000  1.0
  C  C66  1  0.08552000  0.18229000  0.50899000  1.0
  C  C67  1  0.91449000  0.31770000  0.00900000  1.0
  C  C68  1  0.10519000  0.83041000  0.43885000  1.0
  C  C69  1  0.89480000  0.66958000  0.93885000  1.0
  C  C70  1  0.89479000  0.16959000  0.56114000  1.0
  C  C71  1  0.10521000  0.33041000  0.06116000  1.0
  C  C72  1  0.24507000  0.91696000  0.44245000  1.0
  C  C73  1  0.75491000  0.58303000  0.94244000  1.0
  C  C74  1  0.75492000  0.08303000  0.55755000  1.0
  C  C75  1  0.24509000  0.41696000  0.05755000  1.0
  C  C76  1  0.42581000  0.92863000  0.38868000  1.0
  C  C77  1  0.57416000  0.57137000  0.88867000  1.0
  C  C78  1  0.57418000  0.07136000  0.61133000  1.0
  C  C79  1  0.42584000  0.42863000  0.11133000  1.0
  C  C80  1  0.47356000  0.85428000  0.33257000  1.0
  C  C81  1  0.52642000  0.64572000  0.83257000  1.0
  C  C82  1  0.52645000  0.14572000  0.66743000  1.0
  C  C83  1  0.47358000  0.35428000  0.16743000  1.0
  C  C84  1  0.33681000  0.76700000  0.33106000  1.0
  C  C85  1  0.66317000  0.73300000  0.83106000  1.0
  C  C86  1  0.66319000  0.23300000  0.66894000  1.0
  C  C87  1  0.33684000  0.26700000  0.16894000  1.0
  C  C88  1  0.15090000  0.75529000  0.38256000  1.0
  C  C89  1  0.84909000  0.74470000  0.88256000  1.0
  C  C90  1  0.84910000  0.24471000  0.61743000  1.0
  C  C91  1  0.15092000  0.25529000  0.11745000  1.0
  C  C92  1  0.66725000  0.86849000  0.27385000  1.0
  C  C93  1  0.33272000  0.63152000  0.77385000  1.0
  C  C94  1  0.33274000  0.13152000  0.72614000  1.0
  C  C95  1  0.66729000  0.36849000  0.22614000  1.0
  C  C96  1  0.41729000  0.96166000  0.18412000  1.0
  C  C97  1  0.58270000  0.53834000  0.68412000  1.0
  C  C98  1  0.58271000  0.03834000  0.81588000  1.0
  C  C99  1  0.41730000  0.46166000  0.31588000  1.0
  C  C100  1  0.33819000  0.97722000  0.09974000  1.0
  C  C101  1  0.66181000  0.52278000  0.59974000  1.0
  C  C102  1  0.66181000  0.02278000  0.90026000  1.0
  C  C103  1  0.33820000  0.47722000  0.40026000  1.0
  C  C104  1  0.54142000  0.99510000  0.04294000  1.0
  C  C105  1  0.45858000  0.50490000  0.54294000  1.0
  C  C106  1  0.45858000  0.00490000  0.95706000  1.0
  C  C107  1  0.54142000  0.49510000  0.45706000  1.0
  C  C108  1  0.71857000  0.90982000  0.05404000  1.0
  C  C109  1  0.28143000  0.59019000  0.55404000  1.0
  C  C110  1  0.28143000  0.09019000  0.94596000  1.0
  C  C111  1  0.71857000  0.40981000  0.44596000  1.0
  C  C112  1  0.78756000  0.89618000  0.13995000  1.0
  C  C113  1  0.21243000  0.60382000  0.63994000  1.0
  C  C114  1  0.21244000  0.10382000  0.86006000  1.0
  C  C115  1  0.78758000  0.39618000  0.36006000  1.0
  N  N116  1  0.58265000  0.87609000  0.19114000  1.0
  N  N117  1  0.41734000  0.62392000  0.69114000  1.0
  N  N118  1  0.41735000  0.12391000  0.80886000  1.0
  N  N119  1  0.58267000  0.37609000  0.30886000  1.0
  N  N120  1  0.09178000  0.87440000  0.70068000  1.0
  N  N121  1  0.90822000  0.62560000  0.20069000  1.0
  N  N122  1  0.90822000  0.12560000  0.29932000  1.0
  N  N123  1  0.09178000  0.37440000  0.79931000  1.0
  N  N124  1  0.75279000  0.80595000  0.53173000  1.0
  N  N125  1  0.24720000  0.69403000  0.03172000  1.0
  N  N126  1  0.24719000  0.19405000  0.46827000  1.0
  N  N127  1  0.75282000  0.30595000  0.96827000  1.0
  O  O128  1  0.87440000  0.89223000  0.70039000  1.0
  O  O129  1  0.12560000  0.60778000  0.20039000  1.0
  O  O130  1  0.12560000  0.10777000  0.29961000  1.0
  O  O131  1  0.87441000  0.39223000  0.79961000  1.0
  O  O132  1  0.20253000  0.86777000  0.63543000  1.0
  O  O133  1  0.79748000  0.63223000  0.13543000  1.0
  O  O134  1  0.79747000  0.13222000  0.36457000  1.0
  O  O135  1  0.20254000  0.36777000  0.86457000  1.0
  O  O136  1  0.19987000  0.86416000  0.76514000  1.0
  O  O137  1  0.80014000  0.63585000  0.26514000  1.0
  O  O138  1  0.80014000  0.13585000  0.23486000  1.0
  O  O139  1  0.19986000  0.36416000  0.73485000  1.0
