# generated using pymatgen
data_ZnH9C12N2O5
_symmetry_space_group_name_H-M   'P 1'
_cell_length_a   8.08264000
_cell_length_b   11.90730000
_cell_length_c   14.87360000
_cell_angle_alpha   103.60400000
_cell_angle_beta   97.81370000
_cell_angle_gamma   102.09100000
_symmetry_Int_Tables_number   1
_chemical_formula_structural   ZnH9C12N2O5
_chemical_formula_sum   'Zn4 H36 C48 N8 O20'
_cell_volume   1334.35953019
_cell_formula_units_Z   4
loop_
 _symmetry_equiv_pos_site_id
 _symmetry_equiv_pos_as_xyz
  1  'x, y, z'
loop_
 _atom_site_type_symbol
 _atom_site_label
 _atom_site_symmetry_multiplicity
 _atom_site_fract_x
 _atom_site_fract_y
 _atom_site_fract_z
 _atom_site_occupancy
  Zn  Zn0  1  0.47267000  0.26199000  0.13954000  1.0
  Zn  Zn1  1  0.52730000  0.73802000  0.86046000  1.0
  Zn  Zn2  1  0.13176000  0.21696000  0.43251000  1.0
  Zn  Zn3  1  0.86825000  0.78306000  0.56749000  1.0
  H  H4  1  0.65823000  0.11045000  0.17412000  1.0
  H  H5  1  0.34178000  0.88957000  0.82587000  1.0
  H  H6  1  0.77364000  0.23828000  0.24626000  1.0
  H  H7  1  0.22637000  0.76172000  0.75374000  1.0
  H  H8  1  0.59438000  0.49722000  0.23154000  1.0
  H  H9  1  0.40561000  0.50279000  0.76847000  1.0
  H  H10  1  0.75520000  0.44035000  0.23604000  1.0
  H  H11  1  0.24477000  0.55965000  0.76397000  1.0
  H  H12  1  0.03058000  0.91042000  0.19412000  1.0
  H  H13  1  0.96945000  0.08959000  0.80588000  1.0
  H  H14  1  0.99563000  0.77727000  0.03045000  1.0
  H  H15  1  0.00440000  0.22272000  0.96955000  1.0
  H  H16  1  0.15589000  0.85455000  0.91561000  1.0
  H  H17  1  0.84413000  0.14545000  0.08439000  1.0
  H  H18  1  0.15909000  0.34809000  0.19936000  1.0
  H  H19  1  0.84089000  0.65194000  0.80064000  1.0
  H  H20  1  0.94705000  0.44858000  0.14057000  1.0
  H  H21  1  0.05287000  0.55139000  0.85941000  1.0
  H  H22  1  0.22719000  0.47789000  0.91380000  1.0
  H  H23  1  0.77271000  0.52205000  0.08616000  1.0
  H  H24  1  0.42123000  0.37171000  0.98167000  1.0
  H  H25  1  0.57871000  0.62828000  0.01831000  1.0
  H  H26  1  0.49876000  0.59439000  0.65508000  1.0
  H  H27  1  0.50123000  0.40561000  0.34493000  1.0
  H  H28  1  0.41645000  0.73204000  0.56524000  1.0
  H  H29  1  0.58357000  0.26798000  0.43477000  1.0
  H  H30  1  0.18291000  0.64725000  0.41733000  1.0
  H  H31  1  0.81711000  0.35276000  0.58267000  1.0
  H  H32  1  0.00189000  0.16892000  0.60016000  1.0
  H  H33  1  0.99814000  0.83107000  0.39984000  1.0
  H  H34  1  0.72107000  0.08424000  0.63757000  1.0
  H  H35  1  0.27896000  0.91575000  0.36241000  1.0
  H  H36  1  0.51102000  0.97603000  0.33681000  1.0
  H  H37  1  0.48900000  0.02399000  0.66318000  1.0
  H  H38  1  0.79818000  0.06572000  0.31338000  1.0
  H  H39  1  0.20184000  0.93430000  0.68663000  1.0
  C  C40  1  0.20960000  0.05346000  0.16626000  1.0
  C  C41  1  0.79043000  0.94654000  0.83374000  1.0
  C  C42  1  0.09953000  0.93940000  0.14234000  1.0
  C  C43  1  0.90049000  0.06059000  0.85765000  1.0
  C  C44  1  0.07990000  0.86694000  0.05114000  1.0
  C  C45  1  0.92014000  0.13306000  0.94885000  1.0
  C  C46  1  0.16820000  0.90981000  0.98689000  1.0
  C  C47  1  0.83184000  0.09018000  0.01310000  1.0
  C  C48  1  0.27660000  0.02529000  0.01631000  1.0
  C  C49  1  0.72344000  0.97472000  0.98369000  1.0
  C  C50  1  0.23757000  0.14212000  0.26086000  1.0
  C  C51  1  0.76244000  0.85785000  0.73914000  1.0
  C  C52  1  0.38348000  0.08438000  0.95478000  1.0
  C  C53  1  0.61652000  0.91563000  0.04521000  1.0
  C  C54  1  0.16768000  0.37829000  0.13613000  1.0
  C  C55  1  0.83229000  0.62170000  0.86386000  1.0
  C  C56  1  0.04888000  0.43442000  0.10183000  1.0
  C  C57  1  0.95109000  0.56558000  0.89817000  1.0
  C  C58  1  0.06321000  0.47101000  0.01960000  1.0
  C  C59  1  0.93671000  0.52896000  0.98038000  1.0
  C  C60  1  0.20258000  0.45010000  0.97655000  1.0
  C  C61  1  0.79737000  0.54989000  0.02344000  1.0
  C  C62  1  0.31499000  0.39237000  0.01487000  1.0
  C  C63  1  0.68498000  0.60762000  0.98513000  1.0
  C  C64  1  0.32152000  0.43892000  0.55787000  1.0
  C  C65  1  0.67847000  0.56109000  0.44213000  1.0
  C  C66  1  0.40009000  0.56035000  0.59149000  1.0
  C  C67  1  0.59993000  0.43965000  0.40853000  1.0
  C  C68  1  0.35319000  0.63710000  0.54062000  1.0
  C  C69  1  0.64684000  0.36293000  0.45941000  1.0
  C  C70  1  0.22578000  0.59116000  0.45892000  1.0
  C  C71  1  0.77420000  0.40885000  0.54109000  1.0
  C  C72  1  0.15191000  0.46844000  0.42935000  1.0
  C  C73  1  0.84810000  0.53156000  0.57066000  1.0
  C  C74  1  0.35993000  0.34615000  0.60713000  1.0
  C  C75  1  0.64004000  0.65384000  0.39286000  1.0
  C  C76  1  0.00615000  0.40960000  0.34516000  1.0
  C  C77  1  0.99385000  0.59040000  0.65486000  1.0
  C  C78  1  0.88755000  0.12662000  0.54471000  1.0
  C  C79  1  0.11250000  0.87337000  0.45528000  1.0
  C  C80  1  0.72927000  0.07909000  0.56446000  1.0
  C  C81  1  0.27076000  0.92091000  0.43553000  1.0
  C  C82  1  0.58574000  0.02480000  0.49068000  1.0
  C  C83  1  0.41427000  0.97519000  0.50930000  1.0
  C  C84  1  0.61302000  0.01903000  0.39864000  1.0
  C  C85  1  0.38703000  0.98099000  0.60136000  1.0
  C  C86  1  0.77488000  0.06889000  0.38419000  1.0
  C  C87  1  0.22515000  0.93114000  0.61581000  1.0
  N  N88  1  0.29459000  0.09335000  0.10426000  1.0
  N  N89  1  0.70543000  0.90666000  0.89575000  1.0
  N  N90  1  0.29771000  0.35596000  0.09305000  1.0
  N  N91  1  0.70228000  0.64404000  0.90696000  1.0
  N  N92  1  0.20347000  0.39577000  0.47749000  1.0
  N  N93  1  0.79651000  0.60424000  0.52252000  1.0
  N  N94  1  0.90984000  0.12358000  0.45611000  1.0
  N  N95  1  0.09018000  0.87641000  0.54389000  1.0
  O  O96  1  0.48575000  0.18654000  0.99587000  1.0
  O  O97  1  0.51426000  0.81348000  0.00414000  1.0
  O  O98  1  0.36439000  0.02957000  0.86898000  1.0
  O  O99  1  0.63563000  0.97044000  0.13103000  1.0
  O  O100  1  0.32229000  0.24699000  0.27187000  1.0
  O  O101  1  0.67776000  0.75300000  0.72812000  1.0
  O  O102  1  0.16720000  0.10167000  0.32343000  1.0
  O  O103  1  0.83280000  0.89834000  0.67656000  1.0
  O  O104  1  0.66064000  0.19666000  0.20187000  1.0
  O  O105  1  0.33938000  0.80336000  0.79811000  1.0
  O  O106  1  0.64151000  0.43343000  0.19468000  1.0
  O  O107  1  0.35848000  0.56658000  0.80533000  1.0
  O  O108  1  0.30004000  0.23661000  0.55782000  1.0
  O  O109  1  0.69993000  0.76338000  0.44218000  1.0
  O  O110  1  0.44326000  0.38146000  0.69027000  1.0
  O  O111  1  0.55672000  0.61853000  0.30973000  1.0
  O  O112  1  0.95748000  0.29577000  0.32321000  1.0
  O  O113  1  0.04252000  0.70424000  0.67679000  1.0
  O  O114  1  0.94307000  0.47803000  0.30542000  1.0
  O  O115  1  0.05689000  0.52198000  0.69462000  1.0
