# generated using pymatgen
data_CoH20C20(NO)4
_symmetry_space_group_name_H-M   'P 1'
_cell_length_a   11.96140000
_cell_length_b   13.91030000
_cell_length_c   26.37190000
_cell_angle_alpha   96.88540000
_cell_angle_beta   89.99990000
_cell_angle_gamma   89.99990000
_symmetry_Int_Tables_number   1
_chemical_formula_structural   CoH20C20(NO)4
_chemical_formula_sum   'Co8 H160 C160 N32 O32'
_cell_volume   4356.28631500
_cell_formula_units_Z   8
loop_
 _symmetry_equiv_pos_site_id
 _symmetry_equiv_pos_as_xyz
  1  'x, y, z'
loop_
 _atom_site_type_symbol
 _atom_site_label
 _atom_site_symmetry_multiplicity
 _atom_site_fract_x
 _atom_site_fract_y
 _atom_site_fract_z
 _atom_site_occupancy
  Co  Co0  1  0.78886000  0.84461000  0.68811000  1.0
  Co  Co1  1  0.28886000  0.15539000  0.81189000  1.0
  Co  Co2  1  0.21115000  0.15538000  0.31188000  1.0
  Co  Co3  1  0.71115000  0.84462000  0.18811000  1.0
  Co  Co4  1  0.16118000  0.35905000  0.21270000  1.0
  Co  Co5  1  0.66118000  0.64095000  0.28730000  1.0
  Co  Co6  1  0.83882000  0.64095000  0.78730000  1.0
  Co  Co7  1  0.33883000  0.35905000  0.71270000  1.0
  H  H8  1  0.01768000  0.87285000  0.73397000  1.0
  H  H9  1  0.51769000  0.12714000  0.76603000  1.0
  H  H10  1  0.98232000  0.12715000  0.26603000  1.0
  H  H11  1  0.48233000  0.87285000  0.23397000  1.0
  H  H12  1  0.10114000  0.94327000  0.81769000  1.0
  H  H13  1  0.60114000  0.05673000  0.68230000  1.0
  H  H14  1  0.89885000  0.05673000  0.18231000  1.0
  H  H15  1  0.39886000  0.94326000  0.31769000  1.0
  H  H16  1  0.77507000  0.05763000  0.86096000  1.0
  H  H17  1  0.27507000  0.94237000  0.63904000  1.0
  H  H18  1  0.22491000  0.94236000  0.13904000  1.0
  H  H19  1  0.72492000  0.05763000  0.36096000  1.0
  H  H20  1  0.70689000  0.98670000  0.77451000  1.0
  H  H21  1  0.20689000  0.01330000  0.72549000  1.0
  H  H22  1  0.29311000  0.01331000  0.22548000  1.0
  H  H23  1  0.79311000  0.98670000  0.27451000  1.0
  H  H24  1  0.08168000  0.03161000  0.90091000  1.0
  H  H25  1  0.58167000  0.96838000  0.59909000  1.0
  H  H26  1  0.91830000  0.96839000  0.09910000  1.0
  H  H27  1  0.41831000  0.03162000  0.40090000  1.0
  H  H28  1  0.83993000  0.13654000  0.01413000  1.0
  H  H29  1  0.33992000  0.86347000  0.48586000  1.0
  H  H30  1  0.16005000  0.86347000  0.98587000  1.0
  H  H31  1  0.66006000  0.13653000  0.51413000  1.0
  H  H32  1  0.15568000  0.16081000  0.03592000  1.0
  H  H33  1  0.65567000  0.83920000  0.46408000  1.0
  H  H34  1  0.84430000  0.83917000  0.96409000  1.0
  H  H35  1  0.34432000  0.16081000  0.53591000  1.0
  H  H36  1  0.23654000  0.25199000  0.11591000  1.0
  H  H37  1  0.73654000  0.74802000  0.38410000  1.0
  H  H38  1  0.76346000  0.74798000  0.88410000  1.0
  H  H39  1  0.26347000  0.25199000  0.61590000  1.0
  H  H40  1  0.92426000  0.30152000  0.18029000  1.0
  H  H41  1  0.42425000  0.69848000  0.31972000  1.0
  H  H42  1  0.07574000  0.69850000  0.81972000  1.0
  H  H43  1  0.57575000  0.30150000  0.68028000  1.0
  H  H44  1  0.82929000  0.21621000  0.10305000  1.0
  H  H45  1  0.32929000  0.78379000  0.39696000  1.0
  H  H46  1  0.17070000  0.78380000  0.89696000  1.0
  H  H47  1  0.67071000  0.21620000  0.60304000  1.0
  H  H48  1  0.55385000  0.79120000  0.65457000  1.0
  H  H49  1  0.05384000  0.20880000  0.84543000  1.0
  H  H50  1  0.44617000  0.20880000  0.34542000  1.0
  H  H51  1  0.94618000  0.79119000  0.15458000  1.0
  H  H52  1  0.45783000  0.70434000  0.57759000  1.0
  H  H53  1  0.95782000  0.29566000  0.92240000  1.0
  H  H54  1  0.54220000  0.29565000  0.42240000  1.0
  H  H55  1  0.04219000  0.70433000  0.07760000  1.0
  H  H56  1  0.78442000  0.64743000  0.51100000  1.0
  H  H57  1  0.28440000  0.35257000  0.98900000  1.0
  H  H58  1  0.21560000  0.35253000  0.48899000  1.0
  H  H59  1  0.71559000  0.64744000  0.01101000  1.0
  H  H60  1  0.86594000  0.74044000  0.58994000  1.0
  H  H61  1  0.36593000  0.25957000  0.91005000  1.0
  H  H62  1  0.13409000  0.25955000  0.41004000  1.0
  H  H63  1  0.63408000  0.74044000  0.08996000  1.0
  H  H64  1  0.62220000  0.58305000  0.46255000  1.0
  H  H65  1  0.12218000  0.41694000  0.03745000  1.0
  H  H66  1  0.37782000  0.41693000  0.53743000  1.0
  H  H67  1  0.87782000  0.58306000  0.96256000  1.0
  H  H68  1  0.27316000  0.61973000  0.44670000  1.0
  H  H69  1  0.77314000  0.38026000  0.05330000  1.0
  H  H70  1  0.72685000  0.38027000  0.55330000  1.0
  H  H71  1  0.22685000  0.61973000  0.94670000  1.0
  H  H72  1  0.45510000  0.45840000  0.35243000  1.0
  H  H73  1  0.95508000  0.54159000  0.14757000  1.0
  H  H74  1  0.54489000  0.54160000  0.64757000  1.0
  H  H75  1  0.04490000  0.45841000  0.85243000  1.0
  H  H76  1  0.38773000  0.38421000  0.26774000  1.0
  H  H77  1  0.88772000  0.61580000  0.23226000  1.0
  H  H78  1  0.61226000  0.61580000  0.73226000  1.0
  H  H79  1  0.11227000  0.38421000  0.76774000  1.0
  H  H80  1  0.07816000  0.51545000  0.28907000  1.0
  H  H81  1  0.57814000  0.48456000  0.21093000  1.0
  H  H82  1  0.92184000  0.48456000  0.71092000  1.0
  H  H83  1  0.42185000  0.51544000  0.78907000  1.0
  H  H84  1  0.12991000  0.59203000  0.37649000  1.0
  H  H85  1  0.62989000  0.40797000  0.12352000  1.0
  H  H86  1  0.87008000  0.40798000  0.62351000  1.0
  H  H87  1  0.37010000  0.59202000  0.87649000  1.0
  H  H88  1  0.08328000  0.75115000  0.64874000  1.0
  H  H89  1  0.58328000  0.24886000  0.85126000  1.0
  H  H90  1  0.91673000  0.24886000  0.35126000  1.0
  H  H91  1  0.41672000  0.75114000  0.14874000  1.0
  H  H92  1  0.06588000  0.53268000  0.65363000  1.0
  H  H93  1  0.56588000  0.46733000  0.84638000  1.0
  H  H94  1  0.93411000  0.46733000  0.34638000  1.0
  H  H95  1  0.43412000  0.53268000  0.15362000  1.0
  H  H96  1  0.00012000  0.59896000  0.60850000  1.0
  H  H97  1  0.50013000  0.40104000  0.89150000  1.0
  H  H98  1  0.99988000  0.40105000  0.39150000  1.0
  H  H99  1  0.49987000  0.59896000  0.10850000  1.0
  H  H100  1  0.17263000  0.50948000  0.57421000  1.0
  H  H101  1  0.67263000  0.49052000  0.92579000  1.0
  H  H102  1  0.82736000  0.49053000  0.42579000  1.0
  H  H103  1  0.32736000  0.50947000  0.07421000  1.0
  H  H104  1  0.18496000  0.63615000  0.57268000  1.0
  H  H105  1  0.68497000  0.36385000  0.92732000  1.0
  H  H106  1  0.81503000  0.36386000  0.42732000  1.0
  H  H107  1  0.31503000  0.63614000  0.07268000  1.0
  H  H108  1  0.36010000  0.57923000  0.60356000  1.0
  H  H109  1  0.86011000  0.42077000  0.89644000  1.0
  H  H110  1  0.63989000  0.42077000  0.39644000  1.0
  H  H111  1  0.13989000  0.57923000  0.10356000  1.0
  H  H112  1  0.30043000  0.73866000  0.64429000  1.0
  H  H113  1  0.80042000  0.26134000  0.85571000  1.0
  H  H114  1  0.69958000  0.26134000  0.35571000  1.0
  H  H115  1  0.19958000  0.73867000  0.14429000  1.0
  H  H116  1  0.37156000  0.67577000  0.68926000  1.0
  H  H117  1  0.87156000  0.32422000  0.81075000  1.0
  H  H118  1  0.62845000  0.32422000  0.31075000  1.0
  H  H119  1  0.12844000  0.67579000  0.18926000  1.0
  H  H120  1  0.18907000  0.62933000  0.72590000  1.0
  H  H121  1  0.68908000  0.37067000  0.77411000  1.0
  H  H122  1  0.81093000  0.37067000  0.27411000  1.0
  H  H123  1  0.31092000  0.62933000  0.22589000  1.0
  H  H124  1  0.19860000  0.75627000  0.72777000  1.0
  H  H125  1  0.69860000  0.24373000  0.77223000  1.0
  H  H126  1  0.80141000  0.24373000  0.27223000  1.0
  H  H127  1  0.30141000  0.75627000  0.22777000  1.0
  H  H128  1  0.54269000  0.73418000  0.82493000  1.0
  H  H129  1  0.04268000  0.26582000  0.67507000  1.0
  H  H130  1  0.45732000  0.26582000  0.17507000  1.0
  H  H131  1  0.95731000  0.73418000  0.32493000  1.0
  H  H132  1  0.65314000  0.87070000  0.87058000  1.0
  H  H133  1  0.15313000  0.12930000  0.62942000  1.0
  H  H134  1  0.34688000  0.12931000  0.12941000  1.0
  H  H135  1  0.84687000  0.87070000  0.37059000  1.0
  H  H136  1  0.57927000  0.95371000  0.83709000  1.0
  H  H137  1  0.07927000  0.04629000  0.66291000  1.0
  H  H138  1  0.42073000  0.04629000  0.16291000  1.0
  H  H139  1  0.92073000  0.95371000  0.33709000  1.0
  H  H140  1  0.49635000  0.95208000  0.92218000  1.0
  H  H141  1  0.99635000  0.04793000  0.57782000  1.0
  H  H142  1  0.50368000  0.04792000  0.07782000  1.0
  H  H143  1  0.00366000  0.95209000  0.42218000  1.0
  H  H144  1  0.47726000  0.82484000  0.91122000  1.0
  H  H145  1  0.97725000  0.17516000  0.58878000  1.0
  H  H146  1  0.52277000  0.17517000  0.08878000  1.0
  H  H147  1  0.02276000  0.82484000  0.41122000  1.0
  H  H148  1  0.29873000  0.89600000  0.89797000  1.0
  H  H149  1  0.79873000  0.10400000  0.60203000  1.0
  H  H150  1  0.70128000  0.10400000  0.10204000  1.0
  H  H151  1  0.20128000  0.89600000  0.39797000  1.0
  H  H152  1  0.33368000  0.75662000  0.83616000  1.0
  H  H153  1  0.83367000  0.24338000  0.66384000  1.0
  H  H154  1  0.66634000  0.24340000  0.16384000  1.0
  H  H155  1  0.16632000  0.75661000  0.33617000  1.0
  H  H156  1  0.26218000  0.84377000  0.80477000  1.0
  H  H157  1  0.76218000  0.15623000  0.69523000  1.0
  H  H158  1  0.73782000  0.15623000  0.19523000  1.0
  H  H159  1  0.23782000  0.84377000  0.30477000  1.0
  H  H160  1  0.41908000  0.76762000  0.75154000  1.0
  H  H161  1  0.91908000  0.23237000  0.74846000  1.0
  H  H162  1  0.58091000  0.23237000  0.24846000  1.0
  H  H163  1  0.08092000  0.76762000  0.25155000  1.0
  H  H164  1  0.44326000  0.89255000  0.76677000  1.0
  H  H165  1  0.94326000  0.10744000  0.73323000  1.0
  H  H166  1  0.55674000  0.10744000  0.23323000  1.0
  H  H167  1  0.05673000  0.89255000  0.26677000  1.0
  C  C168  1  0.96680000  0.91310000  0.76353000  1.0
  C  C169  1  0.46681000  0.08690000  0.73646000  1.0
  C  C170  1  0.03320000  0.08690000  0.23646000  1.0
  C  C171  1  0.53320000  0.91310000  0.26354000  1.0
  C  C172  1  0.01238000  0.95097000  0.80994000  1.0
  C  C173  1  0.51239000  0.04903000  0.69006000  1.0
  C  C174  1  0.98761000  0.04903000  0.19006000  1.0
  C  C175  1  0.48761000  0.95096000  0.30994000  1.0
  C  C176  1  0.94329000  0.00191000  0.84699000  1.0
  C  C177  1  0.44329000  0.99809000  0.65300000  1.0
  C  C178  1  0.05670000  0.99809000  0.15301000  1.0
  C  C179  1  0.55670000  0.00190000  0.34699000  1.0
  C  C180  1  0.83114000  0.01670000  0.83388000  1.0
  C  C181  1  0.33114000  0.98329000  0.66612000  1.0
  C  C182  1  0.16885000  0.98329000  0.16611000  1.0
  C  C183  1  0.66886000  0.01671000  0.33389000  1.0
  C  C184  1  0.79313000  0.97740000  0.78629000  1.0
  C  C185  1  0.29314000  0.02260000  0.71371000  1.0
  C  C186  1  0.20686000  0.02260000  0.21371000  1.0
  C  C187  1  0.70687000  0.97740000  0.28629000  1.0
  C  C188  1  0.99075000  0.03759000  0.89636000  1.0
  C  C189  1  0.49074000  0.96241000  0.60364000  1.0
  C  C190  1  0.00924000  0.96241000  0.10364000  1.0
  C  C191  1  0.50924000  0.03759000  0.39635000  1.0
  C  C192  1  0.93184000  0.13926000  0.01587000  1.0
  C  C193  1  0.43184000  0.86075000  0.48414000  1.0
  C  C194  1  0.06814000  0.86074000  0.98414000  1.0
  C  C195  1  0.56815000  0.13926000  0.51586000  1.0
  C  C196  1  0.98511000  0.18221000  0.06261000  1.0
  C  C197  1  0.48510000  0.81779000  0.43740000  1.0
  C  C198  1  0.01487000  0.81779000  0.93740000  1.0
  C  C199  1  0.51489000  0.18220000  0.56260000  1.0
  C  C200  1  0.10213000  0.19116000  0.06719000  1.0
  C  C201  1  0.60212000  0.80884000  0.43281000  1.0
  C  C202  1  0.89786000  0.80882000  0.93281000  1.0
  C  C203  1  0.39787000  0.19116000  0.56719000  1.0
  C  C204  1  0.14687000  0.24076000  0.11110000  1.0
  C  C205  1  0.64686000  0.75924000  0.38891000  1.0
  C  C206  1  0.85313000  0.75921000  0.88891000  1.0
  C  C207  1  0.35314000  0.24077000  0.61109000  1.0
  C  C208  1  0.97185000  0.26936000  0.14730000  1.0
  C  C209  1  0.47184000  0.73065000  0.35271000  1.0
  C  C210  1  0.02815000  0.73065000  0.85271000  1.0
  C  C211  1  0.52816000  0.26934000  0.64729000  1.0
  C  C212  1  0.92018000  0.22144000  0.10435000  1.0
  C  C213  1  0.42017000  0.77856000  0.39565000  1.0
  C  C214  1  0.07981000  0.77857000  0.89565000  1.0
  C  C215  1  0.57982000  0.22143000  0.60434000  1.0
  C  C216  1  0.60088000  0.75876000  0.62148000  1.0
  C  C217  1  0.10088000  0.24124000  0.87852000  1.0
  C  C218  1  0.39915000  0.24122000  0.37851000  1.0
  C  C219  1  0.89913000  0.75877000  0.12149000  1.0
  C  C220  1  0.54850000  0.70970000  0.57928000  1.0
  C  C221  1  0.04849000  0.29030000  0.92072000  1.0
  C  C222  1  0.45153000  0.29028000  0.42071000  1.0
  C  C223  1  0.95151000  0.70971000  0.07928000  1.0
  C  C224  1  0.61348000  0.66766000  0.53811000  1.0
  C  C225  1  0.11347000  0.33234000  0.96189000  1.0
  C  C226  1  0.38653000  0.33231000  0.46189000  1.0
  C  C227  1  0.88652000  0.66767000  0.03811000  1.0
  C  C228  1  0.73011000  0.67854000  0.54196000  1.0
  C  C229  1  0.23010000  0.32146000  0.95804000  1.0
  C  C230  1  0.26991000  0.32143000  0.45803000  1.0
  C  C231  1  0.76990000  0.67855000  0.04196000  1.0
  C  C232  1  0.77604000  0.72988000  0.58538000  1.0
  C  C233  1  0.27602000  0.27012000  0.91462000  1.0
  C  C234  1  0.22399000  0.27010000  0.41461000  1.0
  C  C235  1  0.72398000  0.72989000  0.08539000  1.0
  C  C236  1  0.56511000  0.61562000  0.49249000  1.0
  C  C237  1  0.06509000  0.38437000  0.00751000  1.0
  C  C238  1  0.43490000  0.38436000  0.50750000  1.0
  C  C239  1  0.93490000  0.61562000  0.99250000  1.0
  C  C240  1  0.33162000  0.57205000  0.42325000  1.0
  C  C241  1  0.83159000  0.42794000  0.07676000  1.0
  C  C242  1  0.66839000  0.42795000  0.57675000  1.0
  C  C243  1  0.16839000  0.57206000  0.92324000  1.0
  C  C244  1  0.29636000  0.52795000  0.37308000  1.0
  C  C245  1  0.79634000  0.47205000  0.12692000  1.0
  C  C246  1  0.70364000  0.47206000  0.62692000  1.0
  C  C247  1  0.20365000  0.52795000  0.87307000  1.0
  C  C248  1  0.36939000  0.46948000  0.34094000  1.0
  C  C249  1  0.86936000  0.53051000  0.15906000  1.0
  C  C250  1  0.63061000  0.53053000  0.65905000  1.0
  C  C251  1  0.13062000  0.46948000  0.84094000  1.0
  C  C252  1  0.33260000  0.42951000  0.29334000  1.0
  C  C253  1  0.83258000  0.57049000  0.20666000  1.0
  C  C254  1  0.66740000  0.57050000  0.70666000  1.0
  C  C255  1  0.16741000  0.42951000  0.79334000  1.0
  C  C256  1  0.16005000  0.50347000  0.30531000  1.0
  C  C257  1  0.66003000  0.49653000  0.19470000  1.0
  C  C258  1  0.83995000  0.49654000  0.69469000  1.0
  C  C259  1  0.33996000  0.50347000  0.80531000  1.0
  C  C260  1  0.18970000  0.54579000  0.35380000  1.0
  C  C261  1  0.68968000  0.45421000  0.14621000  1.0
  C  C262  1  0.81030000  0.45422000  0.64620000  1.0
  C  C263  1  0.31031000  0.54579000  0.85379000  1.0
  C  C264  1  0.97848000  0.69559000  0.70319000  1.0
  C  C265  1  0.47849000  0.30441000  0.79681000  1.0
  C  C266  1  0.02152000  0.30441000  0.29681000  1.0
  C  C267  1  0.52152000  0.69560000  0.20319000  1.0
  C  C268  1  0.08389000  0.68809000  0.67049000  1.0
  C  C269  1  0.58390000  0.31191000  0.82951000  1.0
  C  C270  1  0.91611000  0.31191000  0.32951000  1.0
  C  C271  1  0.41611000  0.68809000  0.17048000  1.0
  C  C272  1  0.07544000  0.59524000  0.63216000  1.0
  C  C273  1  0.57544000  0.40476000  0.86785000  1.0
  C  C274  1  0.92456000  0.40477000  0.36785000  1.0
  C  C275  1  0.42456000  0.59524000  0.13215000  1.0
  C  C276  1  0.17962000  0.57937000  0.59844000  1.0
  C  C277  1  0.67962000  0.42063000  0.90157000  1.0
  C  C278  1  0.82038000  0.42064000  0.40157000  1.0
  C  C279  1  0.32037000  0.57937000  0.09844000  1.0
  C  C280  1  0.28780000  0.58223000  0.62971000  1.0
  C  C281  1  0.78780000  0.41776000  0.87029000  1.0
  C  C282  1  0.71220000  0.41776000  0.37029000  1.0
  C  C283  1  0.21219000  0.58225000  0.12971000  1.0
  C  C284  1  0.29458000  0.67662000  0.66666667  1.0
  C  C285  1  0.79459000  0.32337000  0.83339000  1.0
  C  C286  1  0.70542000  0.32337000  0.33339000  1.0
  C  C287  1  0.20541000  0.67664000  0.16661000  1.0
  C  C288  1  0.19219000  0.68851000  0.70166000  1.0
  C  C289  1  0.69219000  0.31149000  0.79834000  1.0
  C  C290  1  0.80782000  0.31149000  0.29834000  1.0
  C  C291  1  0.30782000  0.68852000  0.20166000  1.0
  C  C292  1  0.30270000  0.49586000  0.65965000  1.0
  C  C293  1  0.80269000  0.50413000  0.84034000  1.0
  C  C294  1  0.69730000  0.50414000  0.34035000  1.0
  C  C295  1  0.19730000  0.49587000  0.15966000  1.0
  C  C296  1  0.64800000  0.79200000  0.77201000  1.0
  C  C297  1  0.14801000  0.20800000  0.72798000  1.0
  C  C298  1  0.35200000  0.20801000  0.22798000  1.0
  C  C299  1  0.85200000  0.79200000  0.27202000  1.0
  C  C300  1  0.54854000  0.80344000  0.80845000  1.0
  C  C301  1  0.04854000  0.19656000  0.69155000  1.0
  C  C302  1  0.45146000  0.19656000  0.19155000  1.0
  C  C303  1  0.95146000  0.80344000  0.30846000  1.0
  C  C304  1  0.57266000  0.88398000  0.85260000  1.0
  C  C305  1  0.07266000  0.11602000  0.64740000  1.0
  C  C306  1  0.42735000  0.11602000  0.14739000  1.0
  C  C307  1  0.92734000  0.88399000  0.35261000  1.0
  C  C308  1  0.47899000  0.89159000  0.89240000  1.0
  C  C309  1  0.97899000  0.10842000  0.60760000  1.0
  C  C310  1  0.52103000  0.10842000  0.10760000  1.0
  C  C311  1  0.02102000  0.89159000  0.39240000  1.0
  C  C312  1  0.36345000  0.90499000  0.86909000  1.0
  C  C313  1  0.86345000  0.09501000  0.63091000  1.0
  C  C314  1  0.63656000  0.09501000  0.13092000  1.0
  C  C315  1  0.13656000  0.90499000  0.36908000  1.0
  C  C316  1  0.34218000  0.82834000  0.82263000  1.0
  C  C317  1  0.84218000  0.17166000  0.67737000  1.0
  C  C318  1  0.65783000  0.17167000  0.17737000  1.0
  C  C319  1  0.15782000  0.82833000  0.32263000  1.0
  C  C320  1  0.43709000  0.82387000  0.78340000  1.0
  C  C321  1  0.93709000  0.17613000  0.71660000  1.0
  C  C322  1  0.56291000  0.17614000  0.21661000  1.0
  C  C323  1  0.06291000  0.82386000  0.28340000  1.0
  C  C324  1  0.34276000  0.00615000  0.85407000  1.0
  C  C325  1  0.84276000  0.99386000  0.64593000  1.0
  C  C326  1  0.65725000  0.99386000  0.14594000  1.0
  C  C327  1  0.15725000  0.00614000  0.35406000  1.0
  N  N328  1  0.85827000  0.92332000  0.75198000  1.0
  N  N329  1  0.35828000  0.07668000  0.74802000  1.0
  N  N330  1  0.14173000  0.07669000  0.24801000  1.0
  N  N331  1  0.64173000  0.92332000  0.25199000  1.0
  N  N332  1  0.92840000  0.07549000  0.93388000  1.0
  N  N333  1  0.42840000  0.92451000  0.56612000  1.0
  N  N334  1  0.07157000  0.92451000  0.06612000  1.0
  N  N335  1  0.57158000  0.07549000  0.43388000  1.0
  N  N336  1  0.99151000  0.10755000  0.97636000  1.0
  N  N337  1  0.49151000  0.89245000  0.52365000  1.0
  N  N338  1  0.00846000  0.89246000  0.02365000  1.0
  N  N339  1  0.50847000  0.10754000  0.47635000  1.0
  N  N340  1  0.08342000  0.28027000  0.15071000  1.0
  N  N341  1  0.58341000  0.71974000  0.34930000  1.0
  N  N342  1  0.91658000  0.71972000  0.84929000  1.0
  N  N343  1  0.41659000  0.28026000  0.65071000  1.0
  N  N344  1  0.71297000  0.76949000  0.62481000  1.0
  N  N345  1  0.21296000  0.23051000  0.87519000  1.0
  N  N346  1  0.28706000  0.23050000  0.37518000  1.0
  N  N347  1  0.78704000  0.76949000  0.12481000  1.0
  N  N348  1  0.45772000  0.60876000  0.48562000  1.0
  N  N349  1  0.95770000  0.39123000  0.01438000  1.0
  N  N350  1  0.54229000  0.39122000  0.51437000  1.0
  N  N351  1  0.04229000  0.60877000  0.98562000  1.0
  N  N352  1  0.43236000  0.55824000  0.43899000  1.0
  N  N353  1  0.93234000  0.44175000  0.06101000  1.0
  N  N354  1  0.56765000  0.44175000  0.56100000  1.0
  N  N355  1  0.06765000  0.55825000  0.93899000  1.0
  N  N356  1  0.22890000  0.44380000  0.27562000  1.0
  N  N357  1  0.72887000  0.55620000  0.22438000  1.0
  N  N358  1  0.77111000  0.55621000  0.72437000  1.0
  N  N359  1  0.27112000  0.44380000  0.77562000  1.0
  O  O360  1  0.89211000  0.73322000  0.68552000  1.0
  O  O361  1  0.39212000  0.26678000  0.81448000  1.0
  O  O362  1  0.10789000  0.26678000  0.31448000  1.0
  O  O363  1  0.60789000  0.73323000  0.18552000  1.0
  O  O364  1  0.97964000  0.65962000  0.74550000  1.0
  O  O365  1  0.47965000  0.34037000  0.75450000  1.0
  O  O366  1  0.02036000  0.34039000  0.25450000  1.0
  O  O367  1  0.52035000  0.65963000  0.24550000  1.0
  O  O368  1  0.23057000  0.42821000  0.65836000  1.0
  O  O369  1  0.73056000  0.57179000  0.84163000  1.0
  O  O370  1  0.76943000  0.57179000  0.34164000  1.0
  O  O371  1  0.26943000  0.42822000  0.15837000  1.0
  O  O372  1  0.39107000  0.49245000  0.68679000  1.0
  O  O373  1  0.89107000  0.50754000  0.81320000  1.0
  O  O374  1  0.60892000  0.50754000  0.31321000  1.0
  O  O375  1  0.10892000  0.49247000  0.18680000  1.0
  O  O376  1  0.73367000  0.74917000  0.78688000  1.0
  O  O377  1  0.23367000  0.25083000  0.71312000  1.0
  O  O378  1  0.26634000  0.25083000  0.21312000  1.0
  O  O379  1  0.76633000  0.74917000  0.28688000  1.0
  O  O380  1  0.64393000  0.82832000  0.72979000  1.0
  O  O381  1  0.14393000  0.17168000  0.77021000  1.0
  O  O382  1  0.35607000  0.17168000  0.27020000  1.0
  O  O383  1  0.85607000  0.82832000  0.22980000  1.0
  O  O384  1  0.24382000  0.02343000  0.83831000  1.0
  O  O385  1  0.74382000  0.97657000  0.66169000  1.0
  O  O386  1  0.75618000  0.97658000  0.16170000  1.0
  O  O387  1  0.25618000  0.02342000  0.33830000  1.0
  O  O388  1  0.41788000  0.07058000  0.85543000  1.0
  O  O389  1  0.91788000  0.92942000  0.64457000  1.0
  O  O390  1  0.58212000  0.92942000  0.14458000  1.0
  O  O391  1  0.08213000  0.07058000  0.35542000  1.0
