# generated using pymatgen
data_Zn4H32C58N14O13
_symmetry_space_group_name_H-M   'P 1'
_cell_length_a   19.18850000
_cell_length_b   19.19830000
_cell_length_c   19.25850000
_cell_angle_alpha   89.49600000
_cell_angle_beta   85.54360000
_cell_angle_gamma   85.33630000
_symmetry_Int_Tables_number   1
_chemical_formula_structural   Zn4H32C58N14O13
_chemical_formula_sum   'Zn4 H32 C58 N14 O13'
_cell_volume   7049.68392573
_cell_formula_units_Z   1
loop_
 _symmetry_equiv_pos_site_id
 _symmetry_equiv_pos_as_xyz
  1  'x, y, z'
loop_
 _atom_site_type_symbol
 _atom_site_label
 _atom_site_symmetry_multiplicity
 _atom_site_fract_x
 _atom_site_fract_y
 _atom_site_fract_z
 _atom_site_occupancy
  Zn  Zn0  1  0.55907000  0.55740000  0.43947000  1.0
  Zn  Zn1  1  0.55803000  0.43662000  0.55601000  1.0
  Zn  Zn2  1  0.44753000  0.44610000  0.44003000  1.0
  Zn  Zn3  1  0.43410000  0.55982000  0.56552000  1.0
  H  H4  1  0.47343000  0.59234000  0.91243000  1.0
  H  H5  1  0.24651000  0.50612000  0.38750000  1.0
  H  H6  1  0.59413000  0.07785000  0.49761000  1.0
  H  H7  1  0.59841000  0.75840000  0.45214000  1.0
  H  H8  1  0.48413000  0.27999000  0.82668000  1.0
  H  H9  1  0.57585000  0.28911000  0.81897000  1.0
  H  H10  1  0.53890000  0.23728000  0.88658000  1.0
  H  H11  1  0.56500000  0.35046000  0.93591000  1.0
  H  H12  1  0.47529000  0.34127000  0.94460000  1.0
  H  H13  1  0.31629000  0.15563000  0.42651000  1.0
  H  H14  1  0.35299000  0.06739000  0.42254000  1.0
  H  H15  1  0.57084000  0.60093000  0.22446000  1.0
  H  H16  1  0.26654000  0.08753000  0.46149000  1.0
  H  H17  1  0.35033000  0.06339000  0.55388000  1.0
  H  H18  1  0.31385000  0.15117000  0.55788000  1.0
  H  H19  1  0.13439000  0.40075000  0.34030000  1.0
  H  H20  1  0.04642000  0.42664000  0.37113000  1.0
  H  H21  1  0.07454000  0.43898000  0.28189000  1.0
  H  H22  1  0.06628000  0.55191000  0.34783000  1.0
  H  H23  1  0.15355000  0.52828000  0.31392000  1.0
  H  H24  1  0.69829000  0.12091000  0.51109000  1.0
  H  H25  1  0.68247000  0.12467000  0.42147000  1.0
  H  H26  1  0.51558000  0.38003000  0.76523000  1.0
  H  H27  1  0.74085000  0.18050000  0.45517000  1.0
  H  H28  1  0.63029000  0.25067000  0.43892000  1.0
  H  H29  1  0.64286000  0.24412000  0.52767000  1.0
  H  H30  1  0.44460000  0.43085000  0.09711000  1.0
  H  H31  1  0.44536000  0.42498000  0.22762000  1.0
  H  H32  1  0.91295000  0.55051000  0.41191000  1.0
  H  H33  1  0.07817000  0.53187000  0.59633000  1.0
  H  H34  1  0.76147000  0.45094000  0.60306000  1.0
  H  H35  1  0.88984000  0.46041000  0.61676000  1.0
  C  C36  1  0.49352000  0.49275000  0.68892000  1.0
  C  C37  1  0.54955000  0.11682000  0.50253000  1.0
  C  C38  1  0.50826000  0.51242000  0.23328000  1.0
  C  C39  1  0.50823000  0.50830000  0.31075000  1.0
  C  C40  1  0.47246000  0.46441000  0.19762000  1.0
  C  C41  1  0.47193000  0.46753000  0.12574000  1.0
  C  C42  1  0.50669000  0.51922000  0.08822000  1.0
  C  C43  1  0.54158000  0.56858000  0.12402000  1.0
  C  C44  1  0.54294000  0.56420000  0.19657000  1.0
  C  C45  1  0.48152000  0.54602000  0.87964000  1.0
  C  C46  1  0.47964000  0.55180000  0.80741000  1.0
  C  C47  1  0.51541000  0.90942000  0.52128000  1.0
  C  C48  1  0.49419000  0.48045000  0.91089000  1.0
  C  C49  1  0.49247000  0.49050000  0.76650000  1.0
  C  C50  1  0.50535000  0.42568000  0.79867000  1.0
  C  C51  1  0.68793000  0.49297000  0.49712000  1.0
  C  C52  1  0.50534000  0.41839000  0.87080000  1.0
  C  C53  1  0.23495000  0.51629000  0.49833000  1.0
  C  C54  1  0.20891000  0.51285000  0.43284000  1.0
  C  C55  1  0.13721000  0.51785000  0.42383000  1.0
  C  C56  1  0.09061000  0.52288000  0.48455000  1.0
  C  C57  1  0.11561000  0.52703000  0.55085000  1.0
  C  C58  1  0.45842000  0.88080000  0.55940000  1.0
  C  C59  1  0.18760000  0.52485000  0.55849000  1.0
  C  C60  1  0.87935000  0.52949000  0.45381000  1.0
  C  C61  1  0.80781000  0.52556000  0.44655000  1.0
  C  C62  1  0.90840000  0.50596000  0.51531000  1.0
  C  C63  1  0.31272000  0.51100000  0.50161000  1.0
  C  C64  1  0.76495000  0.49685000  0.50123000  1.0
  C  C65  1  0.79510000  0.47310000  0.56186000  1.0
  C  C66  1  0.86593000  0.47822000  0.56952000  1.0
  C  C67  1  0.50456000  0.31224000  0.49682000  1.0
  C  C68  1  0.49840000  0.68662000  0.51136000  1.0
  C  C69  1  0.45227000  0.80751000  0.55813000  1.0
  C  C70  1  0.50295000  0.76397000  0.51815000  1.0
  C  C71  1  0.55994000  0.79288000  0.48244000  1.0
  C  C72  1  0.56731000  0.86449000  0.48459000  1.0
  C  C73  1  0.37044000  0.25966000  0.51739000  1.0
  C  C74  1  0.57630000  0.62198000  0.08650000  1.0
  C  C75  1  0.51907000  0.34823000  0.90529000  1.0
  C  C76  1  0.53001000  0.28551000  0.85641000  1.0
  C  C77  1  0.78199000  0.54901000  0.38183000  1.0
  C  C78  1  0.34880000  0.11354000  0.52622000  1.0
  C  C79  1  0.31949000  0.10564000  0.45481000  1.0
  C  C80  1  0.42104000  0.13887000  0.51820000  1.0
  C  C81  1  0.21005000  0.52788000  0.62742000  1.0
  C  C82  1  0.11161000  0.51372000  0.35221000  1.0
  C  C83  1  0.09057000  0.44058000  0.33535000  1.0
  C  C84  1  0.40794000  0.92431000  0.60086000  1.0
  C  C85  1  0.39263000  0.78194000  0.59605000  1.0
  C  C86  1  0.63180000  0.21312000  0.48256000  1.0
  C  C87  1  0.69126000  0.15644000  0.46670000  1.0
  C  C88  1  0.62553000  0.89356000  0.44747000  1.0
  C  C89  1  0.46930000  0.61993000  0.77752000  1.0
  C  C90  1  0.43105000  0.21080000  0.51187000  1.0
  C  C91  1  0.48226000  0.09270000  0.51358000  1.0
  C  C92  1  0.49873000  0.23486000  0.50166000  1.0
  C  C93  1  0.55938000  0.18757000  0.49642000  1.0
  N  N94  1  0.52668000  0.98040000  0.51814000  1.0
  N  N95  1  0.22381000  0.52897000  0.68540000  1.0
  N  N96  1  0.36648000  0.95713000  0.63744000  1.0
  N  N97  1  0.34097000  0.76765000  0.62708000  1.0
  N  N98  1  0.67374000  0.91567000  0.41653000  1.0
  N  N99  1  0.46347000  0.67715000  0.75635000  1.0
  N  N100  1  0.47142000  0.02113000  0.51731000  1.0
  N  N101  1  0.50830000  0.52691000  0.01545000  1.0
  N  N102  1  0.49604000  0.47233000  0.98348000  1.0
  N  N103  1  0.01878000  0.52308000  0.47411000  1.0
  N  N104  1  0.98024000  0.50651000  0.52706000  1.0
  N  N105  1  0.32004000  0.29826000  0.52303000  1.0
  N  N106  1  0.60525000  0.66686000  0.05850000  1.0
  N  N107  1  0.76685000  0.56788000  0.32675000  1.0
  O  O108  1  0.49951000  0.50090000  0.50116000  1.0
  O  O109  1  0.54400000  0.33784000  0.53842000  1.0
  O  O110  1  0.45047000  0.65909000  0.54856000  1.0
  O  O111  1  0.46892000  0.34502000  0.45218000  1.0
  O  O112  1  0.54384000  0.65598000  0.46772000  1.0
  O  O113  1  0.65851000  0.53293000  0.45313000  1.0
  O  O114  1  0.33704000  0.54297000  0.55086000  1.0
  O  O115  1  0.53460000  0.44611000  0.65646000  1.0
  O  O116  1  0.47334000  0.46126000  0.34069000  1.0
  O  O117  1  0.45386000  0.54024000  0.66221000  1.0
  O  O118  1  0.54277000  0.55196000  0.34066000  1.0
  O  O119  1  0.65827000  0.45045000  0.53892000  1.0
  O  O120  1  0.34772000  0.47528000  0.45325000  1.0
