# generated using pymatgen
data_Mn2H43C41N7O10
_symmetry_space_group_name_H-M   'P 1'
_cell_length_a   11.95320000
_cell_length_b   11.95330000
_cell_length_c   16.06980000
_cell_angle_alpha   72.25430000
_cell_angle_beta   72.25430000
_cell_angle_gamma   77.58020000
_symmetry_Int_Tables_number   1
_chemical_formula_structural   Mn2H43C41N7O10
_chemical_formula_sum   'Mn4 H86 C82 N14 O20'
_cell_volume   2063.77799065
_cell_formula_units_Z   2
loop_
 _symmetry_equiv_pos_site_id
 _symmetry_equiv_pos_as_xyz
  1  'x, y, z'
loop_
 _atom_site_type_symbol
 _atom_site_label
 _atom_site_symmetry_multiplicity
 _atom_site_fract_x
 _atom_site_fract_y
 _atom_site_fract_z
 _atom_site_occupancy
  Mn  Mn0  1  0.39299000  0.17035000  0.94776000  1.0
  Mn  Mn1  1  0.82965000  0.60701000  0.55224000  1.0
  Mn  Mn2  1  0.60701000  0.82965000  0.05224000  1.0
  Mn  Mn3  1  0.17035000  0.39299000  0.44776000  1.0
  H  H4  1  0.66085000  0.80215000  0.78184000  1.0
  H  H5  1  0.19786000  0.33915000  0.71815000  1.0
  H  H6  1  0.33915000  0.19786000  0.21815000  1.0
  H  H7  1  0.80215000  0.66085000  0.28185000  1.0
  H  H8  1  0.42797000  0.17194000  0.53120000  1.0
  H  H9  1  0.82806000  0.57202000  0.96880000  1.0
  H  H10  1  0.57202000  0.82806000  0.46880000  1.0
  H  H11  1  0.17194000  0.42798000  0.03120000  1.0
  H  H12  1  0.64410000  0.27714000  0.50267000  1.0
  H  H13  1  0.72286000  0.35590000  0.99734000  1.0
  H  H14  1  0.35590000  0.72286000  0.49733000  1.0
  H  H15  1  0.27714000  0.64410000  0.00266000  1.0
  H  H16  1  0.48240000  0.15824000  0.74715000  1.0
  H  H17  1  0.84176000  0.51761000  0.75284000  1.0
  H  H18  1  0.51760000  0.84176000  0.25285000  1.0
  H  H19  1  0.15824000  0.48240000  0.24716000  1.0
  H  H20  1  0.57335000  0.98554000  0.52983000  1.0
  H  H21  1  0.01446000  0.42665000  0.97017000  1.0
  H  H22  1  0.42664000  0.01446000  0.47017000  1.0
  H  H23  1  0.98554000  0.57336000  0.02983000  1.0
  H  H24  1  0.39817000  0.47125000  0.68407000  1.0
  H  H25  1  0.52875000  0.60183000  0.81593000  1.0
  H  H26  1  0.60183000  0.52875000  0.31593000  1.0
  H  H27  1  0.47124000  0.39817000  0.18407000  1.0
  H  H28  1  0.36612000  0.27026000  0.68038000  1.0
  H  H29  1  0.72974000  0.63388000  0.81962000  1.0
  H  H30  1  0.63388000  0.72974000  0.31962000  1.0
  H  H31  1  0.27026000  0.36612000  0.18038000  1.0
  H  H32  1  0.35018000  0.34010000  0.57045000  1.0
  H  H33  1  0.65990000  0.64982000  0.92955000  1.0
  H  H34  1  0.64982000  0.65990000  0.42955000  1.0
  H  H35  1  0.34010000  0.35018000  0.07045000  1.0
  H  H36  1  0.79508000  0.40707000  0.48320000  1.0
  H  H37  1  0.59293000  0.20492000  0.01680000  1.0
  H  H38  1  0.20492000  0.59293000  0.51680000  1.0
  H  H39  1  0.40707000  0.79508000  0.98320000  1.0
  H  H40  1  0.55878000  0.59321000  0.65764000  1.0
  H  H41  1  0.40680000  0.44122000  0.84236000  1.0
  H  H42  1  0.44123000  0.40679000  0.34236000  1.0
  H  H43  1  0.59320000  0.55878000  0.15764000  1.0
  H  H44  1  0.21896000  0.00017000  0.10005000  1.0
  H  H45  1  0.99983000  0.78104000  0.39995000  1.0
  H  H46  1  0.78104000  0.99983000  0.89995000  1.0
  H  H47  1  0.00017000  0.21896000  0.60005000  1.0
  H  H48  1  0.07825000  0.81414000  0.98510000  1.0
  H  H49  1  0.18586000  0.92175000  0.51490000  1.0
  H  H50  1  0.92175000  0.18586000  0.01489000  1.0
  H  H51  1  0.81414000  0.07825000  0.48511000  1.0
  H  H52  1  0.22335000  0.85239000  0.92377000  1.0
  H  H53  1  0.14761000  0.77665000  0.57623000  1.0
  H  H54  1  0.77666000  0.14761000  0.07623000  1.0
  H  H55  1  0.85239000  0.22334000  0.42378000  1.0
  H  H56  1  0.09856000  0.96269000  0.92095000  1.0
  H  H57  1  0.03732000  0.90144000  0.57905000  1.0
  H  H58  1  0.90145000  0.03732000  0.07905000  1.0
  H  H59  1  0.96268000  0.09856000  0.42095000  1.0
  H  H60  1  0.99573000  0.83459000  0.13374000  1.0
  H  H61  1  0.16541000  0.00428000  0.36626000  1.0
  H  H62  1  0.00427000  0.16541000  0.86626000  1.0
  H  H63  1  0.83459000  0.99573000  0.63374000  1.0
  H  H64  1  0.07822000  0.89035000  0.18387000  1.0
  H  H65  1  0.10965000  0.92178000  0.31613000  1.0
  H  H66  1  0.92179000  0.10964000  0.81613000  1.0
  H  H67  1  0.89036000  0.07821000  0.68387000  1.0
  H  H68  1  0.13252000  0.75211000  0.15273000  1.0
  H  H69  1  0.24790000  0.86749000  0.34727000  1.0
  H  H70  1  0.86749000  0.24789000  0.84726000  1.0
  H  H71  1  0.75211000  0.13251000  0.65274000  1.0
  H  H72  1  0.11779000  0.13659000  0.71715000  1.0
  H  H73  1  0.86340000  0.88220000  0.78286000  1.0
  H  H74  1  0.88220000  0.86341000  0.28286000  1.0
  H  H75  1  0.13660000  0.11780000  0.21714000  1.0
  H  H76  1  0.24251000  0.10999000  0.62841000  1.0
  H  H77  1  0.89001000  0.75749000  0.87159000  1.0
  H  H78  1  0.75749000  0.89001000  0.37159000  1.0
  H  H79  1  0.11000000  0.24251000  0.12841000  1.0
  H  H80  1  0.26158000  0.09229000  0.73713000  1.0
  H  H81  1  0.90770000  0.73842000  0.76287000  1.0
  H  H82  1  0.73842000  0.90770000  0.26287000  1.0
  H  H83  1  0.09230000  0.26158000  0.23713000  1.0
  H  H84  1  0.32876000  0.67124000  0.75000000  1.0
  H  H85  1  0.67125000  0.32876000  0.25000000  1.0
  H  H86  1  0.36898000  0.88162000  0.70809000  1.0
  H  H87  1  0.11838000  0.63102000  0.79190000  1.0
  H  H88  1  0.63102000  0.11838000  0.29190000  1.0
  H  H89  1  0.88162000  0.36898000  0.20809000  1.0
  C  C90  1  0.61957000  0.87974000  0.74042000  1.0
  C  C91  1  0.12026000  0.38043000  0.75958000  1.0
  C  C92  1  0.38043000  0.12026000  0.25958000  1.0
  C  C93  1  0.87974000  0.61957000  0.24042000  1.0
  C  C94  1  0.57035000  0.98006000  0.77302000  1.0
  C  C95  1  0.01994000  0.42965000  0.72698000  1.0
  C  C96  1  0.42965000  0.01994000  0.22698000  1.0
  C  C97  1  0.98006000  0.57035000  0.27302000  1.0
  C  C98  1  0.51472000  0.08431000  0.63207000  1.0
  C  C99  1  0.91569000  0.48527000  0.86793000  1.0
  C  C100  1  0.48527000  0.91569000  0.36793000  1.0
  C  C101  1  0.08431000  0.51473000  0.13207000  1.0
  C  C102  1  0.62252000  0.34657000  0.53815000  1.0
  C  C103  1  0.65343000  0.37748000  0.96185000  1.0
  C  C104  1  0.37747000  0.65343000  0.46185000  1.0
  C  C105  1  0.34657000  0.62252000  0.03815000  1.0
  C  C106  1  0.62017000  0.88262000  0.65260000  1.0
  C  C107  1  0.11738000  0.37982000  0.84740000  1.0
  C  C108  1  0.37982000  0.11738000  0.34740000  1.0
  C  C109  1  0.88262000  0.62018000  0.15260000  1.0
  C  C110  1  0.51938000  0.08186000  0.71938000  1.0
  C  C111  1  0.91814000  0.48063000  0.78062000  1.0
  C  C112  1  0.48062000  0.91814000  0.28062000  1.0
  C  C113  1  0.08186000  0.51937000  0.21938000  1.0
  C  C114  1  0.68219000  0.77940000  0.61474000  1.0
  C  C115  1  0.22060000  0.31781000  0.88526000  1.0
  C  C116  1  0.31781000  0.22060000  0.38526000  1.0
  C  C117  1  0.77940000  0.68219000  0.11474000  1.0
  C  C118  1  0.50903000  0.36429000  0.59477000  1.0
  C  C119  1  0.63571000  0.49096000  0.90523000  1.0
  C  C120  1  0.49096000  0.63571000  0.40523000  1.0
  C  C121  1  0.36429000  0.50904000  0.09477000  1.0
  C  C122  1  0.56867000  0.98370000  0.59900000  1.0
  C  C123  1  0.01630000  0.43133000  0.90100000  1.0
  C  C124  1  0.43133000  0.01630000  0.40100000  1.0
  C  C125  1  0.98370000  0.56867000  0.09900000  1.0
  C  C126  1  0.57594000  0.97888000  0.86522000  1.0
  C  C127  1  0.02112000  0.42406000  0.63478000  1.0
  C  C128  1  0.42406000  0.02112000  0.13478000  1.0
  C  C129  1  0.97888000  0.57594000  0.36522000  1.0
  C  C130  1  0.48517000  0.45478000  0.63861000  1.0
  C  C131  1  0.54522000  0.51482000  0.86139000  1.0
  C  C132  1  0.51483000  0.54521000  0.36139000  1.0
  C  C133  1  0.45479000  0.48517000  0.13861000  1.0
  C  C134  1  0.41517000  0.28898000  0.60838000  1.0
  C  C135  1  0.71102000  0.58483000  0.89162000  1.0
  C  C136  1  0.58483000  0.71102000  0.39162000  1.0
  C  C137  1  0.28898000  0.41517000  0.10838000  1.0
  C  C138  1  0.70614000  0.41791000  0.52759000  1.0
  C  C139  1  0.58209000  0.29386000  0.97241000  1.0
  C  C140  1  0.29386000  0.58209000  0.47241000  1.0
  C  C141  1  0.41791000  0.70614000  0.02759000  1.0
  C  C142  1  0.57367000  0.52228000  0.62445000  1.0
  C  C143  1  0.47772000  0.42632000  0.87555000  1.0
  C  C144  1  0.42633000  0.47772000  0.37555000  1.0
  C  C145  1  0.52228000  0.57367000  0.12445000  1.0
  C  C146  1  0.21762000  0.98549000  0.03590000  1.0
  C  C147  1  0.01451000  0.78238000  0.46410000  1.0
  C  C148  1  0.78238000  0.01451000  0.96410000  1.0
  C  C149  1  0.98549000  0.21762000  0.53590000  1.0
  C  C150  1  0.13628000  0.88258000  0.96426000  1.0
  C  C151  1  0.11742000  0.86372000  0.53574000  1.0
  C  C152  1  0.86372000  0.11742000  0.03573000  1.0
  C  C153  1  0.88258000  0.13628000  0.46427000  1.0
  C  C154  1  0.08554000  0.84209000  0.13388000  1.0
  C  C155  1  0.15791000  0.91446000  0.36612000  1.0
  C  C156  1  0.91446000  0.15790000  0.86612000  1.0
  C  C157  1  0.84210000  0.08554000  0.63388000  1.0
  C  C158  1  0.18270000  0.95243000  0.72706000  1.0
  C  C159  1  0.04757000  0.81729000  0.77294000  1.0
  C  C160  1  0.81730000  0.04757000  0.27294000  1.0
  C  C161  1  0.95243000  0.18271000  0.22706000  1.0
  C  C162  1  0.20208000  0.07968000  0.70133000  1.0
  C  C163  1  0.92032000  0.79792000  0.79868000  1.0
  C  C164  1  0.79792000  0.92032000  0.29868000  1.0
  C  C165  1  0.07968000  0.20208000  0.20132000  1.0
  C  C166  1  0.25578000  0.74422000  0.75000000  1.0
  C  C167  1  0.74422000  0.25579000  0.25000000  1.0
  C  C168  1  0.27861000  0.86091000  0.72651000  1.0
  C  C169  1  0.13909000  0.72139000  0.77349000  1.0
  C  C170  1  0.72139000  0.13910000  0.27348000  1.0
  C  C171  1  0.86091000  0.27861000  0.22651000  1.0
  N  N172  1  0.46304000  0.18237000  0.57860000  1.0
  N  N173  1  0.81764000  0.53696000  0.92140000  1.0
  N  N174  1  0.53696000  0.81763000  0.42140000  1.0
  N  N175  1  0.18236000  0.46304000  0.07860000  1.0
  N  N176  1  0.68303000  0.50465000  0.57015000  1.0
  N  N177  1  0.49536000  0.31696000  0.92985000  1.0
  N  N178  1  0.31697000  0.49535000  0.42985000  1.0
  N  N179  1  0.50464000  0.68303000  0.07015000  1.0
  N  N180  1  0.14663000  0.90785000  0.04474000  1.0
  N  N181  1  0.09215000  0.85337000  0.45526000  1.0
  N  N182  1  0.85337000  0.09215000  0.95526000  1.0
  N  N183  1  0.90785000  0.14663000  0.54474000  1.0
  N  N184  1  0.06958000  0.93042000  0.75000000  1.0
  N  N185  1  0.93042000  0.06958000  0.25000000  1.0
  O  O186  1  0.69425000  0.78647000  0.53151000  1.0
  O  O187  1  0.21353000  0.30575000  0.96849000  1.0
  O  O188  1  0.30575000  0.21352000  0.46850000  1.0
  O  O189  1  0.78647000  0.69425000  0.03151000  1.0
  O  O190  1  0.72509000  0.68602000  0.66612000  1.0
  O  O191  1  0.31398000  0.27492000  0.83388000  1.0
  O  O192  1  0.27491000  0.31398000  0.33388000  1.0
  O  O193  1  0.68602000  0.72509000  0.16613000  1.0
  O  O194  1  0.61413000  0.88027000  0.91382000  1.0
  O  O195  1  0.11973000  0.38587000  0.58618000  1.0
  O  O196  1  0.38587000  0.11973000  0.08618000  1.0
  O  O197  1  0.88027000  0.61413000  0.41382000  1.0
  O  O198  1  0.54664000  0.07562000  0.88945000  1.0
  O  O199  1  0.92439000  0.45336000  0.61055000  1.0
  O  O200  1  0.45336000  0.92439000  0.11055000  1.0
  O  O201  1  0.07562000  0.54664000  0.38945000  1.0
  O  O202  1  0.27833000  0.03829000  0.96099000  1.0
  O  O203  1  0.96172000  0.72167000  0.53901000  1.0
  O  O204  1  0.72167000  0.96171000  0.03901000  1.0
  O  O205  1  0.03828000  0.27833000  0.46099000  1.0
