# generated using pymatgen
data_CdH11C10S2N3O4
_symmetry_space_group_name_H-M   'P 1'
_cell_length_a   7.19273000
_cell_length_b   9.84752000
_cell_length_c   19.03940000
_cell_angle_alpha   90.00010000
_cell_angle_beta   90.00010000
_cell_angle_gamma   78.23200000
_symmetry_Int_Tables_number   1
_chemical_formula_structural   CdH11C10S2N3O4
_chemical_formula_sum   'Cd4 H44 C40 S8 N12 O16'
_cell_volume   1320.22620779
_cell_formula_units_Z   4
loop_
 _symmetry_equiv_pos_site_id
 _symmetry_equiv_pos_as_xyz
  1  'x, y, z'
loop_
 _atom_site_type_symbol
 _atom_site_label
 _atom_site_symmetry_multiplicity
 _atom_site_fract_x
 _atom_site_fract_y
 _atom_site_fract_z
 _atom_site_occupancy
  Cd  Cd0  1  0.20087000  0.83748000  0.81881000  1.0
  Cd  Cd1  1  0.70087000  0.83748000  0.68119000  1.0
  Cd  Cd2  1  0.79914000  0.16252000  0.18119000  1.0
  Cd  Cd3  1  0.29913000  0.16252000  0.31881000  1.0
  H  H4  1  0.46054000  0.58644000  0.80902000  1.0
  H  H5  1  0.96054000  0.58644000  0.69098000  1.0
  H  H6  1  0.53946000  0.41356000  0.19098000  1.0
  H  H7  1  0.03947000  0.41356000  0.30902000  1.0
  H  H8  1  0.29121000  0.58114000  0.75406000  1.0
  H  H9  1  0.79122000  0.58114000  0.74594000  1.0
  H  H10  1  0.70879000  0.41886000  0.24594000  1.0
  H  H11  1  0.20879000  0.41886000  0.25406000  1.0
  H  H12  1  0.27939000  0.11310000  0.00289000  1.0
  H  H13  1  0.77940000  0.11310000  0.49711000  1.0
  H  H14  1  0.72060000  0.88690000  0.99711000  1.0
  H  H15  1  0.22060000  0.88690000  0.50289000  1.0
  H  H16  1  0.22207000  0.60869000  0.92415000  1.0
  H  H17  1  0.72207000  0.60869000  0.57585000  1.0
  H  H18  1  0.77793000  0.39131000  0.07585000  1.0
  H  H19  1  0.27792000  0.39131000  0.42415000  1.0
  H  H20  1  0.32130000  0.53547000  0.04684000  1.0
  H  H21  1  0.82130000  0.53546000  0.45316000  1.0
  H  H22  1  0.67870000  0.46453000  0.95316000  1.0
  H  H23  1  0.17870000  0.46454000  0.54684000  1.0
  H  H24  1  0.38724000  0.71887000  0.13057000  1.0
  H  H25  1  0.88725000  0.71887000  0.36943000  1.0
  H  H26  1  0.61276000  0.28113000  0.86943000  1.0
  H  H27  1  0.11276000  0.28113000  0.63057000  1.0
  H  H28  1  0.34348000  0.96283000  0.08907000  1.0
  H  H29  1  0.84349000  0.96283000  0.41093000  1.0
  H  H30  1  0.65652000  0.03717000  0.91093000  1.0
  H  H31  1  0.15651000  0.03717000  0.58907000  1.0
  H  H32  1  0.22654000  0.31475000  0.95319000  1.0
  H  H33  1  0.72654000  0.31475000  0.54681000  1.0
  H  H34  1  0.77346000  0.68525000  0.04681000  1.0
  H  H35  1  0.27346000  0.68525000  0.45319000  1.0
  H  H36  1  0.08288000  0.46662000  0.85358000  1.0
  H  H37  1  0.58288000  0.46662000  0.64642000  1.0
  H  H38  1  0.91712000  0.53338000  0.14642000  1.0
  H  H39  1  0.41712000  0.53338000  0.35358000  1.0
  H  H40  1  0.93075000  0.35838000  0.75378000  1.0
  H  H41  1  0.43075000  0.35838000  0.74622000  1.0
  H  H42  1  0.06925000  0.64162000  0.24622000  1.0
  H  H43  1  0.56925000  0.64162000  0.25378000  1.0
  H  H44  1  0.94886000  0.10458000  0.75622000  1.0
  H  H45  1  0.44886000  0.10458000  0.74378000  1.0
  H  H46  1  0.05114000  0.89542000  0.24378000  1.0
  H  H47  1  0.55114000  0.89542000  0.25622000  1.0
  C  C48  1  0.25023000  0.68324000  0.96292000  1.0
  C  C49  1  0.75022000  0.68324000  0.53708000  1.0
  C  C50  1  0.74977000  0.31676000  0.03708000  1.0
  C  C51  1  0.24977000  0.31676000  0.46292000  1.0
  C  C52  1  0.30629000  0.64308000  0.03055000  1.0
  C  C53  1  0.80629000  0.64308000  0.46945000  1.0
  C  C54  1  0.69371000  0.35692000  0.96945000  1.0
  C  C55  1  0.19371000  0.35692000  0.53055000  1.0
  C  C56  1  0.34249000  0.74536000  0.07672000  1.0
  C  C57  1  0.84249000  0.74536000  0.42328000  1.0
  C  C58  1  0.65751000  0.25464000  0.92328000  1.0
  C  C59  1  0.15751000  0.25464000  0.57672000  1.0
  C  C60  1  0.31863000  0.88113000  0.05377000  1.0
  C  C61  1  0.81863000  0.88113000  0.44623000  1.0
  C  C62  1  0.68137000  0.11887000  0.94623000  1.0
  C  C63  1  0.18137000  0.11887000  0.55377000  1.0
  C  C64  1  0.26091000  0.91387000  0.98383000  1.0
  C  C65  1  0.76091000  0.91387000  0.51617000  1.0
  C  C66  1  0.73908000  0.08613000  0.01617000  1.0
  C  C67  1  0.23908000  0.08613000  0.48383000  1.0
  C  C68  1  0.16494000  0.12866000  0.90628000  1.0
  C  C69  1  0.66494000  0.12866000  0.59372000  1.0
  C  C70  1  0.83506000  0.87134000  0.09372000  1.0
  C  C71  1  0.33506000  0.87133000  0.40628000  1.0
  C  C72  1  0.16461000  0.27256000  0.90803000  1.0
  C  C73  1  0.66461000  0.27256000  0.59197000  1.0
  C  C74  1  0.83539000  0.72744000  0.09197000  1.0
  C  C75  1  0.33539000  0.72744000  0.40803000  1.0
  C  C76  1  0.08344000  0.35599000  0.85324000  1.0
  C  C77  1  0.58344000  0.35599000  0.64676000  1.0
  C  C78  1  0.91656000  0.64401000  0.14676000  1.0
  C  C79  1  0.41656000  0.64401000  0.35324000  1.0
  C  C80  1  0.00053000  0.29679000  0.79735000  1.0
  C  C81  1  0.50054000  0.29679000  0.70265000  1.0
  C  C82  1  0.99947000  0.70321000  0.20265000  1.0
  C  C83  1  0.49947000  0.70321000  0.29736000  1.0
  C  C84  1  0.00922000  0.15553000  0.79894000  1.0
  C  C85  1  0.50922000  0.15553000  0.70106000  1.0
  C  C86  1  0.99078000  0.84447000  0.20106000  1.0
  C  C87  1  0.49078000  0.84447000  0.29894000  1.0
  S  S88  1  0.56177000  0.88613000  0.80692000  1.0
  S  S89  1  0.06177000  0.88613000  0.69308000  1.0
  S  S90  1  0.43823000  0.11387000  0.19308000  1.0
  S  S91  1  0.93823000  0.11387000  0.30693000  1.0
  S  S92  1  0.72964000  0.72131000  0.86072000  1.0
  S  S93  1  0.22965000  0.72131000  0.63928000  1.0
  S  S94  1  0.27036000  0.27869000  0.13928000  1.0
  S  S95  1  0.77035000  0.27869000  0.36072000  1.0
  N  N96  1  0.22875000  0.81509000  0.93924000  1.0
  N  N97  1  0.72875000  0.81509000  0.56076000  1.0
  N  N98  1  0.77125000  0.18491000  0.06076000  1.0
  N  N99  1  0.27125000  0.18491000  0.43924000  1.0
  N  N100  1  0.09238000  0.07113000  0.85102000  1.0
  N  N101  1  0.59238000  0.07113000  0.64898000  1.0
  N  N102  1  0.90762000  0.92887000  0.14898000  1.0
  N  N103  1  0.40762000  0.92887000  0.35102000  1.0
  N  N104  1  0.24226000  0.05155000  0.96378000  1.0
  N  N105  1  0.74226000  0.05155000  0.53622000  1.0
  N  N106  1  0.75774000  0.94845000  0.03622000  1.0
  N  N107  1  0.25774000  0.94845000  0.46378000  1.0
  O  O108  1  0.92785000  0.72625000  0.84557000  1.0
  O  O109  1  0.42785000  0.72624000  0.65443000  1.0
  O  O110  1  0.07215000  0.27376000  0.15443000  1.0
  O  O111  1  0.57215000  0.27375000  0.34557000  1.0
  O  O112  1  0.67669000  0.74215000  0.93478000  1.0
  O  O113  1  0.17669000  0.74215000  0.56522000  1.0
  O  O114  1  0.32331000  0.25785000  0.06522000  1.0
  O  O115  1  0.82331000  0.25785000  0.43478000  1.0
  O  O116  1  0.68574000  0.59041000  0.83185000  1.0
  O  O117  1  0.18574000  0.59041000  0.66814000  1.0
  O  O118  1  0.31426000  0.40959000  0.16815000  1.0
  O  O119  1  0.81426000  0.40959000  0.33186000  1.0
  O  O120  1  0.32065000  0.59589000  0.80393000  1.0
  O  O121  1  0.82065000  0.59589000  0.69607000  1.0
  O  O122  1  0.67935000  0.40411000  0.19607000  1.0
  O  O123  1  0.17935000  0.40411000  0.30393000  1.0
