# generated using pymatgen
data_SnH4C8O3
_symmetry_space_group_name_H-M   'P 1'
_cell_length_a   7.09570000
_cell_length_b   7.27646000
_cell_length_c   23.45150000
_cell_angle_alpha   81.33400000
_cell_angle_beta   85.19180000
_cell_angle_gamma   63.02140000
_symmetry_Int_Tables_number   1
_chemical_formula_structural   SnH4C8O3
_chemical_formula_sum   'Sn6 H24 C48 O18'
_cell_volume   1066.58612412
_cell_formula_units_Z   6
loop_
 _symmetry_equiv_pos_site_id
 _symmetry_equiv_pos_as_xyz
  1  'x, y, z'
loop_
 _atom_site_type_symbol
 _atom_site_label
 _atom_site_symmetry_multiplicity
 _atom_site_fract_x
 _atom_site_fract_y
 _atom_site_fract_z
 _atom_site_occupancy
  Sn  Sn0  1  0.22520000  0.89485000  0.22994000  1.0
  Sn  Sn1  1  0.77480000  0.10515000  0.77006000  1.0
  Sn  Sn2  1  0.53730000  0.31032000  0.24300000  1.0
  Sn  Sn3  1  0.46270000  0.68968000  0.75701000  1.0
  Sn  Sn4  1  0.97710000  0.55132000  0.27145000  1.0
  Sn  Sn5  1  0.02289000  0.44869000  0.72854000  1.0
  H  H6  1  0.38187000  0.81164000  0.09952000  1.0
  H  H7  1  0.61813000  0.18836000  0.90048000  1.0
  H  H8  1  0.89476000  0.97658000  0.09177000  1.0
  H  H9  1  0.10524000  0.02341000  0.90822000  1.0
  H  H10  1  0.17020000  0.88937000  0.01226000  1.0
  H  H11  1  0.82981000  0.11063000  0.98774000  1.0
  H  H12  1  0.37294000  0.28084000  0.39967000  1.0
  H  H13  1  0.62705000  0.71916000  0.60033000  1.0
  H  H14  1  0.51098000  0.63760000  0.40883000  1.0
  H  H15  1  0.48903000  0.36240000  0.59117000  1.0
  H  H16  1  0.59356000  0.58089000  0.51335000  1.0
  H  H17  1  0.40644000  0.41911000  0.48665000  1.0
  H  H18  1  0.98627000  0.30211000  0.14979000  1.0
  H  H19  1  0.01373000  0.69788000  0.85021000  1.0
  H  H20  1  0.73157000  0.38236000  0.07322000  1.0
  H  H21  1  0.26843000  0.61762000  0.92679000  1.0
  H  H22  1  0.36889000  0.50461000  0.03053000  1.0
  H  H23  1  0.63110000  0.49540000  0.96947000  1.0
  H  H24  1  0.04409000  0.62494000  0.47094000  1.0
  H  H25  1  0.95592000  0.37505000  0.52906000  1.0
  H  H26  1  0.86303000  0.18066000  0.35026000  1.0
  H  H27  1  0.13697000  0.81933000  0.64975000  1.0
  H  H28  1  0.10923000  0.62962000  0.57367000  1.0
  H  H29  1  0.89078000  0.37038000  0.42633000  1.0
  C  C30  1  0.68409000  0.80742000  0.16464000  1.0
  C  C31  1  0.31590000  0.19259000  0.83535000  1.0
  C  C32  1  0.63829000  0.89023000  0.10239000  1.0
  C  C33  1  0.36172000  0.10977000  0.89760000  1.0
  C  C34  1  0.47523000  0.88318000  0.07550000  1.0
  C  C35  1  0.52477000  0.11682000  0.92450000  1.0
  C  C36  1  0.43489000  0.95807000  0.01626000  1.0
  C  C37  1  0.56511000  0.04192000  0.98373000  1.0
  C  C38  1  0.76719000  0.97284000  0.06998000  1.0
  C  C39  1  0.23282000  0.02716000  0.93001000  1.0
  C  C40  1  0.26910000  0.95314000  0.98761000  1.0
  C  C41  1  0.73091000  0.04685000  0.01239000  1.0
  C  C42  1  0.38891000  0.99849000  0.33630000  1.0
  C  C43  1  0.61108000  0.00151000  0.66370000  1.0
  C  C44  1  0.44079000  0.96285000  0.39831000  1.0
  C  C45  1  0.55920000  0.03715000  0.60169000  1.0
  C  C46  1  0.42546000  0.12758000  0.42460000  1.0
  C  C47  1  0.57453000  0.87242000  0.57540000  1.0
  C  C48  1  0.46887000  0.10072000  0.48372000  1.0
  C  C49  1  0.53113000  0.89928000  0.51628000  1.0
  C  C50  1  0.50162000  0.76365000  0.43058000  1.0
  C  C51  1  0.49838000  0.23636000  0.56942000  1.0
  C  C52  1  0.54676000  0.73309000  0.48813000  1.0
  C  C53  1  0.45324000  0.26691000  0.51187000  1.0
  C  C54  1  0.34074000  0.36004000  0.14032000  1.0
  C  C55  1  0.65926000  0.63996000  0.85968000  1.0
  C  C56  1  0.19368000  0.39832000  0.09390000  1.0
  C  C57  1  0.80632000  0.60168000  0.90610000  1.0
  C  C58  1  0.01411000  0.36053000  0.10595000  1.0
  C  C59  1  0.98589000  0.63947000  0.89405000  1.0
  C  C60  1  0.87379000  0.40325000  0.06316000  1.0
  C  C61  1  0.12621000  0.59676000  0.93684000  1.0
  C  C62  1  0.23037000  0.47621000  0.03885000  1.0
  C  C63  1  0.76962000  0.52379000  0.96115000  1.0
  C  C64  1  0.90883000  0.48157000  0.00625000  1.0
  C  C65  1  0.09116000  0.51844000  0.99375000  1.0
  C  C66  1  0.95353000  0.76869000  0.36118000  1.0
  C  C67  1  0.04647000  0.23130000  0.63882000  1.0
  C  C68  1  0.95396000  0.88998000  0.40670000  1.0
  C  C69  1  0.04604000  0.11002000  0.59330000  1.0
  C  C70  1  0.00906000  0.78849000  0.46211000  1.0
  C  C71  1  0.99095000  0.21151000  0.53789000  1.0
  C  C72  1  0.02224000  0.89276000  0.50663000  1.0
  C  C73  1  0.97776000  0.10723000  0.49338000  1.0
  C  C74  1  0.90619000  0.10336000  0.39410000  1.0
  C  C75  1  0.09382000  0.89663000  0.60590000  1.0
  C  C76  1  0.08082000  0.79110000  0.56358000  1.0
  C  C77  1  0.91919000  0.20889000  0.43643000  1.0
  O  O78  1  0.25935000  0.58712000  0.25200000  1.0
  O  O79  1  0.74063000  0.41288000  0.74800000  1.0
  O  O80  1  0.55981000  0.74521000  0.19562000  1.0
  O  O81  1  0.44019000  0.25481000  0.80437000  1.0
  O  O82  1  0.85124000  0.79416000  0.18518000  1.0
  O  O83  1  0.14875000  0.20585000  0.81482000  1.0
  O  O84  1  0.37777000  0.85073000  0.31512000  1.0
  O  O85  1  0.62223000  0.14927000  0.68487000  1.0
  O  O86  1  0.35341000  0.17438000  0.30742000  1.0
  O  O87  1  0.64659000  0.82562000  0.69258000  1.0
  O  O88  1  0.32935000  0.24882000  0.18829000  1.0
  O  O89  1  0.67066000  0.75118000  0.81171000  1.0
  O  O90  1  0.46934000  0.43765000  0.13494000  1.0
  O  O91  1  0.53066000  0.56235000  0.86506000  1.0
  O  O92  1  0.02446000  0.57272000  0.37198000  1.0
  O  O93  1  0.97554000  0.42728000  0.62802000  1.0
  O  O94  1  0.88501000  0.86185000  0.31003000  1.0
  O  O95  1  0.11500000  0.13815000  0.68997000  1.0
