# generated using pymatgen
data_Co2H78C64N4O13
_symmetry_space_group_name_H-M   'P 1'
_cell_length_a   11.96240000
_cell_length_b   12.78200000
_cell_length_c   20.48590000
_cell_angle_alpha   89.95200000
_cell_angle_beta   89.97340000
_cell_angle_gamma   89.62570000
_symmetry_Int_Tables_number   1
_chemical_formula_structural   Co2H78C64N4O13
_chemical_formula_sum   'Co4 H156 C128 N8 O26'
_cell_volume   3132.29542788
_cell_formula_units_Z   2
loop_
 _symmetry_equiv_pos_site_id
 _symmetry_equiv_pos_as_xyz
  1  'x, y, z'
loop_
 _atom_site_type_symbol
 _atom_site_label
 _atom_site_symmetry_multiplicity
 _atom_site_fract_x
 _atom_site_fract_y
 _atom_site_fract_z
 _atom_site_occupancy
  Co  Co0  1  0.30454000  0.88496000  0.82495000  1.0
  Co  Co1  1  0.80471000  0.38574000  0.17279000  1.0
  Co  Co2  1  0.16713000  0.88765000  0.67171000  1.0
  Co  Co3  1  0.66708000  0.38678000  0.32625000  1.0
  H  H4  1  0.17943000  0.03441000  0.75421000  1.0
  H  H5  1  0.67559000  0.53392000  0.24475000  1.0
  H  H6  1  0.31564000  0.02961000  0.74174000  1.0
  H  H7  1  0.81161000  0.52938000  0.25747000  1.0
  H  H8  1  0.17922000  0.39965000  0.58725000  1.0
  H  H9  1  0.67887000  0.89982000  0.41257000  1.0
  H  H10  1  0.29438000  0.33534000  0.67745000  1.0
  H  H11  1  0.79435000  0.83530000  0.32261000  1.0
  H  H12  1  0.69397000  0.76015000  0.87858000  1.0
  H  H13  1  0.19407000  0.26047000  0.12197000  1.0
  H  H14  1  0.87228000  0.01561000  0.88823000  1.0
  H  H15  1  0.37168000  0.51564000  0.11224000  1.0
  H  H16  1  0.83420000  0.19117000  0.70930000  1.0
  H  H17  1  0.33325000  0.69225000  0.29077000  1.0
  H  H18  1  0.94591000  0.27229000  0.73422000  1.0
  H  H19  1  0.44534000  0.77290000  0.26580000  1.0
  H  H20  1  0.12040000  0.28194000  0.66658000  1.0
  H  H21  1  0.61981000  0.78199000  0.33339000  1.0
  H  H22  1  0.13660000  0.20595000  0.59428000  1.0
  H  H23  1  0.63553000  0.70579000  0.40574000  1.0
  H  H24  1  0.85256000  0.08027000  0.60715000  1.0
  H  H25  1  0.35110000  0.58123000  0.39325000  1.0
  H  H26  1  0.97604000  0.08563000  0.56003000  1.0
  H  H27  1  0.47469000  0.58641000  0.44021000  1.0
  H  H28  1  0.99178000  0.43673000  0.66774000  1.0
  H  H29  1  0.49180000  0.93722000  0.33208000  1.0
  H  H30  1  0.91144000  0.46924000  0.59773000  1.0
  H  H31  1  0.41152000  0.97003000  0.40207000  1.0
  H  H32  1  0.79296000  0.37729000  0.68148000  1.0
  H  H33  1  0.29279000  0.87845000  0.31845000  1.0
  H  H34  1  0.71852000  0.23685000  0.60917000  1.0
  H  H35  1  0.21771000  0.73822000  0.39089000  1.0
  H  H36  1  0.74997000  0.35003000  0.56267000  1.0
  H  H37  1  0.24940000  0.85132000  0.43727000  1.0
  H  H38  1  0.82419000  0.19014000  0.50768000  1.0
  H  H39  1  0.32293000  0.69131000  0.49247000  1.0
  H  H40  1  0.92885000  0.35876000  0.49550000  1.0
  H  H41  1  0.42836000  0.85962000  0.50437000  1.0
  H  H42  1  0.02260000  0.25092000  0.49473000  1.0
  H  H43  1  0.52161000  0.75139000  0.50530000  1.0
  H  H44  1  0.29204000  0.53148000  0.72681000  1.0
  H  H45  1  0.79262000  0.03224000  0.27315000  1.0
  H  H46  1  0.26262000  0.57971000  0.64747000  1.0
  H  H47  1  0.76348000  0.08059000  0.35250000  1.0
  H  H48  1  0.40478000  0.69762000  0.59043000  1.0
  H  H49  1  0.90635000  0.19713000  0.40942000  1.0
  H  H50  1  0.53142000  0.73037000  0.62970000  1.0
  H  H51  1  0.03337000  0.22918000  0.37025000  1.0
  H  H52  1  0.57001000  0.66303000  0.74408000  1.0
  H  H53  1  0.07153000  0.16194000  0.25582000  1.0
  H  H54  1  0.47310000  0.58219000  0.78416000  1.0
  H  H55  1  0.97412000  0.08179000  0.21578000  1.0
  H  H56  1  0.37288000  0.51074000  0.55034000  1.0
  H  H57  1  0.87307000  0.01056000  0.44963000  1.0
  H  H58  1  0.47745000  0.41358000  0.56248000  1.0
  H  H59  1  0.97685000  0.91263000  0.43748000  1.0
  H  H60  1  0.56263000  0.59100000  0.54618000  1.0
  H  H61  1  0.06347000  0.08946000  0.45375000  1.0
  H  H62  1  0.66051000  0.46229000  0.61954000  1.0
  H  H63  1  0.16046000  0.96035000  0.38040000  1.0
  H  H64  1  0.68226000  0.59191000  0.64719000  1.0
  H  H65  1  0.18314000  0.08991000  0.35273000  1.0
  H  H66  1  0.63088000  0.47460000  0.74013000  1.0
  H  H67  1  0.13113000  0.97307000  0.25983000  1.0
  H  H68  1  0.44052000  0.39471000  0.74326000  1.0
  H  H69  1  0.94010000  0.89451000  0.25673000  1.0
  H  H70  1  0.51815000  0.34573000  0.67571000  1.0
  H  H71  1  0.01723000  0.84489000  0.32430000  1.0
  H  H72  1  0.13719000  0.57688000  0.84899000  1.0
  H  H73  1  0.63794000  0.07740000  0.15010000  1.0
  H  H74  1  0.09789000  0.66780000  0.90956000  1.0
  H  H75  1  0.59850000  0.16855000  0.08963000  1.0
  H  H76  1  0.03537000  0.57488000  0.73969000  1.0
  H  H77  1  0.53687000  0.07508000  0.25964000  1.0
  H  H78  1  0.92446000  0.66398000  0.72522000  1.0
  H  H79  1  0.42615000  0.16423000  0.27443000  1.0
  H  H80  1  0.93606000  0.79519000  0.88966000  1.0
  H  H81  1  0.43666000  0.29610000  0.11002000  1.0
  H  H82  1  0.86580000  0.79325000  0.81303000  1.0
  H  H83  1  0.36709000  0.29394000  0.18687000  1.0
  H  H84  1  0.91062000  0.64747000  0.96957000  1.0
  H  H85  1  0.41044000  0.14855000  0.03012000  1.0
  H  H86  1  0.82163000  0.54145000  0.95015000  1.0
  H  H87  1  0.32159000  0.04255000  0.04990000  1.0
  H  H88  1  0.02427000  0.49088000  0.93603000  1.0
  H  H89  1  0.52433000  0.99192000  0.06331000  1.0
  H  H90  1  0.01044000  0.42446000  0.82109000  1.0
  H  H91  1  0.51123000  0.92498000  0.17829000  1.0
  H  H92  1  0.88162000  0.40929000  0.86250000  1.0
  H  H93  1  0.38211000  0.91009000  0.13723000  1.0
  H  H94  1  0.85086000  0.48539000  0.75143000  1.0
  H  H95  1  0.35220000  0.98584000  0.24844000  1.0
  H  H96  1  0.73936000  0.64250000  0.78565000  1.0
  H  H97  1  0.24058000  0.14309000  0.21459000  1.0
  H  H98  1  0.72093000  0.53874000  0.84235000  1.0
  H  H99  1  0.22173000  0.03961000  0.15788000  1.0
  H  H100  1  0.44127000  0.23011000  0.88192000  1.0
  H  H101  1  0.94021000  0.72967000  0.11810000  1.0
  H  H102  1  0.47140000  0.11695000  0.92912000  1.0
  H  H103  1  0.97048000  0.61645000  0.07106000  1.0
  H  H104  1  0.62252000  0.98894000  0.89331000  1.0
  H  H105  1  0.12159000  0.48852000  0.10714000  1.0
  H  H106  1  0.69791000  0.01200000  0.81995000  1.0
  H  H107  1  0.19666000  0.51162000  0.18049000  1.0
  H  H108  1  0.65227000  0.17244000  0.75053000  1.0
  H  H109  1  0.15115000  0.67213000  0.24957000  1.0
  H  H110  1  0.54768000  0.26101000  0.77635000  1.0
  H  H111  1  0.04659000  0.76075000  0.22368000  1.0
  H  H112  1  0.65575000  0.10338000  0.99169000  1.0
  H  H113  1  0.15500000  0.60276000  0.00855000  1.0
  H  H114  1  0.75347000  0.20707000  0.98738000  1.0
  H  H115  1  0.25265000  0.70650000  0.01276000  1.0
  H  H116  1  0.55637000  0.27553000  0.97889000  1.0
  H  H117  1  0.05559000  0.77489000  0.02106000  1.0
  H  H118  1  0.70838000  0.37028000  0.91890000  1.0
  H  H119  1  0.20737000  0.86985000  0.08091000  1.0
  H  H120  1  0.58062000  0.37816000  0.87534000  1.0
  H  H121  1  0.07957000  0.87766000  0.12452000  1.0
  H  H122  1  0.73855000  0.33109000  0.80025000  1.0
  H  H123  1  0.23749000  0.83081000  0.19962000  1.0
  H  H124  1  0.83890000  0.15987000  0.81504000  1.0
  H  H125  1  0.33798000  0.65966000  0.18509000  1.0
  H  H126  1  0.85875000  0.24024000  0.88441000  1.0
  H  H127  1  0.35774000  0.73989000  0.11555000  1.0
  H  H128  1  0.54409000  0.81977000  0.03108000  1.0
  H  H129  1  0.04526000  0.31774000  0.96848000  1.0
  H  H130  1  0.42877000  0.92405000  0.95411000  1.0
  H  H131  1  0.93047000  0.42227000  0.04536000  1.0
  H  H132  1  0.32732000  0.66015000  0.85514000  1.0
  H  H133  1  0.82955000  0.15904000  0.14556000  1.0
  H  H134  1  0.44254000  0.54369000  0.92495000  1.0
  H  H135  1  0.94425000  0.04198000  0.07554000  1.0
  H  H136  1  0.81601000  0.76910000  0.54431000  1.0
  H  H137  1  0.31681000  0.27017000  0.45605000  1.0
  H  H138  1  0.92975000  0.87983000  0.61994000  1.0
  H  H139  1  0.43041000  0.38223000  0.38110000  1.0
  H  H140  1  0.21833000  0.71623000  0.57717000  1.0
  H  H141  1  0.71935000  0.21873000  0.42300000  1.0
  H  H142  1  0.11776000  0.59233000  0.50376000  1.0
  H  H143  1  0.61891000  0.09353000  0.49606000  1.0
  H  H144  1  0.51296000  0.45542000  0.99461000  1.0
  H  H145  1  0.01465000  0.95347000  0.00553000  1.0
  H  H146  1  0.66772000  0.73342000  0.07300000  1.0
  H  H147  1  0.16866000  0.23191000  0.92686000  1.0
  H  H148  1  0.63752000  0.35155000  0.06672000  1.0
  H  H149  1  0.13903000  0.84991000  0.93292000  1.0
  H  H150  1  0.77673000  0.61790000  0.14576000  1.0
  H  H151  1  0.27765000  0.11691000  0.85403000  1.0
  H  H152  1  0.74234000  0.60518000  0.53288000  1.0
  H  H153  1  0.24308000  0.10674000  0.46721000  1.0
  H  H154  1  0.63925000  0.48320000  0.45978000  1.0
  H  H155  1  0.13935000  0.98559000  0.54045000  1.0
  H  H156  1  0.91429000  0.44520000  0.33954000  1.0
  H  H157  1  0.41427000  0.94627000  0.66075000  1.0
  H  H158  1  0.02793000  0.56752000  0.40560000  1.0
  H  H159  1  0.52866000  0.06746000  0.59422000  1.0
  C  C160  1  0.98252000  0.17731000  0.64911000  1.0
  C  C161  1  0.48136000  0.67782000  0.35101000  1.0
  C  C162  1  0.90136000  0.24218000  0.69128000  1.0
  C  C163  1  0.40062000  0.74294000  0.30878000  1.0
  C  C164  1  0.07594000  0.25033000  0.62398000  1.0
  C  C165  1  0.57513000  0.75048000  0.37601000  1.0
  C  C166  1  0.91904000  0.13304000  0.59014000  1.0
  C  C167  1  0.41774000  0.63389000  0.41014000  1.0
  C  C168  1  0.02693000  0.34021000  0.58330000  1.0
  C  C169  1  0.52647000  0.84059000  0.41661000  1.0
  C  C170  1  0.94551000  0.40341000  0.62628000  1.0
  C  C171  1  0.44535000  0.90407000  0.37359000  1.0
  C  C172  1  0.85112000  0.33190000  0.65067000  1.0
  C  C173  1  0.35072000  0.83287000  0.34930000  1.0
  C  C174  1  0.78752000  0.28671000  0.59204000  1.0
  C  C175  1  0.28682000  0.78791000  0.40798000  1.0
  C  C176  1  0.86900000  0.22295000  0.54977000  1.0
  C  C177  1  0.36794000  0.72394000  0.45034000  1.0
  C  C178  1  0.96297000  0.29453000  0.52539000  1.0
  C  C179  1  0.46220000  0.79518000  0.47458000  1.0
  C  C180  1  0.04237000  0.09197000  0.68865000  1.0
  C  C181  1  0.54106000  0.59175000  0.31197000  1.0
  C  C182  1  0.41688000  0.64038000  0.68982000  1.0
  C  C183  1  0.91829000  0.14012000  0.31012000  1.0
  C  C184  1  0.33033000  0.55249000  0.67957000  1.0
  C  C185  1  0.83098000  0.05290000  0.32038000  1.0
  C  C186  1  0.47001000  0.66731000  0.62318000  1.0
  C  C187  1  0.97149000  0.16647000  0.37675000  1.0
  C  C188  1  0.50880000  0.60061000  0.73601000  1.0
  C  C189  1  0.00991000  0.09986000  0.26392000  1.0
  C  C190  1  0.38751000  0.45588000  0.64990000  1.0
  C  C191  1  0.88740000  0.95584000  0.35008000  1.0
  C  C192  1  0.43916000  0.48418000  0.58393000  1.0
  C  C193  1  0.93919000  0.98359000  0.41605000  1.0
  C  C194  1  0.52646000  0.57036000  0.59386000  1.0
  C  C195  1  0.02718000  0.06918000  0.40607000  1.0
  C  C196  1  0.61826000  0.53118000  0.64039000  1.0
  C  C197  1  0.11872000  0.02952000  0.35954000  1.0
  C  C198  1  0.56568000  0.50327000  0.70657000  1.0
  C  C199  1  0.06605000  0.00211000  0.29336000  1.0
  C  C200  1  0.47886000  0.41659000  0.69617000  1.0
  C  C201  1  0.97853000  0.91604000  0.30381000  1.0
  C  C202  1  0.35783000  0.73976000  0.71413000  1.0
  C  C203  1  0.86018000  0.24015000  0.28586000  1.0
  C  C204  1  0.00782000  0.68613000  0.81826000  1.0
  C  C205  1  0.50897000  0.18673000  0.18115000  1.0
  C  C206  1  0.06481000  0.61785000  0.87060000  1.0
  C  C207  1  0.56552000  0.11854000  0.12868000  1.0
  C  C208  1  0.96424000  0.61535000  0.76308000  1.0
  C  C209  1  0.46564000  0.11571000  0.23646000  1.0
  C  C210  1  0.90732000  0.74374000  0.85001000  1.0
  C  C211  1  0.40829000  0.24453000  0.14976000  1.0
  C  C212  1  0.82420000  0.66435000  0.87789000  1.0
  C  C213  1  0.32484000  0.16530000  0.12211000  1.0
  C  C214  1  0.88247000  0.59675000  0.92952000  1.0
  C  C215  1  0.38263000  0.09778000  0.07030000  1.0
  C  C216  1  0.98188000  0.53843000  0.89841000  1.0
  C  C217  1  0.48225000  0.03933000  0.10108000  1.0
  C  C218  1  0.93994000  0.46779000  0.84313000  1.0
  C  C219  1  0.44063000  0.96847000  0.15646000  1.0
  C  C220  1  0.88165000  0.53554000  0.79109000  1.0
  C  C221  1  0.38274000  0.03608000  0.20869000  1.0
  C  C222  1  0.78248000  0.59399000  0.82249000  1.0
  C  C223  1  0.28344000  0.09474000  0.17760000  1.0
  C  C224  1  0.08819000  0.76855000  0.79101000  1.0
  C  C225  1  0.58984000  0.26836000  0.20853000  1.0
  C  C226  1  0.56353000  0.12416000  0.83781000  1.0
  C  C227  1  0.06241000  0.62388000  0.16241000  1.0
  C  C228  1  0.50921000  0.17737000  0.89806000  1.0
  C  C229  1  0.00820000  0.67694000  0.10206000  1.0
  C  C230  1  0.65748000  0.05054000  0.86210000  1.0
  C  C231  1  0.15638000  0.55018000  0.13829000  1.0
  C  C232  1  0.61437000  0.20891000  0.79402000  1.0
  C  C233  1  0.11327000  0.70864000  0.20606000  1.0
  C  C234  1  0.74518000  0.11226000  0.90042000  1.0
  C  C235  1  0.24422000  0.61180000  0.09986000  1.0
  C  C236  1  0.68986000  0.16432000  0.95950000  1.0
  C  C237  1  0.18901000  0.66373000  0.04068000  1.0
  C  C238  1  0.59688000  0.23905000  0.93618000  1.0
  C  C239  1  0.09598000  0.73851000  0.06384000  1.0
  C  C240  1  0.64682000  0.32366000  0.89173000  1.0
  C  C241  1  0.14585000  0.82321000  0.10818000  1.0
  C  C242  1  0.70231000  0.27099000  0.83235000  1.0
  C  C243  1  0.20129000  0.77065000  0.16763000  1.0
  C  C244  1  0.79550000  0.19694000  0.85651000  1.0
  C  C245  1  0.29453000  0.69659000  0.14357000  1.0
  C  C246  1  0.47035000  0.06204000  0.80448000  1.0
  C  C247  1  0.96891000  0.56236000  0.19596000  1.0
  C  C248  1  0.50686000  0.67093000  0.98443000  1.0
  C  C249  1  0.00832000  0.16904000  0.01566000  1.0
  C  C250  1  0.49906000  0.77990000  0.99234000  1.0
  C  C251  1  0.00058000  0.27801000  0.00748000  1.0
  C  C252  1  0.43368000  0.83913000  0.95008000  1.0
  C  C253  1  0.93550000  0.33735000  0.04975000  1.0
  C  C254  1  0.37832000  0.69172000  0.89434000  1.0
  C  C255  1  0.88033000  0.19020000  0.10606000  1.0
  C  C256  1  0.44264000  0.62755000  0.93403000  1.0
  C  C257  1  0.94437000  0.12584000  0.06631000  1.0
  C  C258  1  0.95759000  0.67047000  0.51709000  1.0
  C  C259  1  0.45855000  0.17147000  0.48296000  1.0
  C  C260  1  0.90487000  0.75275000  0.55095000  1.0
  C  C261  1  0.40572000  0.25404000  0.44934000  1.0
  C  C262  1  0.96714000  0.81567000  0.59238000  1.0
  C  C263  1  0.46796000  0.31767000  0.40827000  1.0
  C  C264  1  0.12921000  0.72475000  0.56777000  1.0
  C  C265  1  0.63020000  0.22681000  0.43255000  1.0
  C  C266  1  0.07311000  0.65758000  0.52616000  1.0
  C  C267  1  0.57411000  0.15892000  0.47385000  1.0
  C  C268  1  0.57195000  0.49578000  0.02597000  1.0
  C  C269  1  0.07358000  0.99395000  0.97409000  1.0
  C  C270  1  0.65546000  0.64928000  0.07018000  1.0
  C  C271  1  0.15654000  0.14774000  0.92971000  1.0
  C  C272  1  0.64024000  0.43679000  0.06656000  1.0
  C  C273  1  0.14168000  0.93512000  0.93329000  1.0
  C  C274  1  0.71872000  0.58499000  0.11050000  1.0
  C  C275  1  0.21983000  0.08364000  0.88933000  1.0
  C  C276  1  0.57801000  0.60560000  0.02673000  1.0
  C  C277  1  0.07941000  0.10378000  0.97329000  1.0
  C  C278  1  0.89448000  0.59846000  0.47527000  1.0
  C  C279  1  0.39529000  0.09944000  0.52474000  1.0
  C  C280  1  0.78330000  0.57285000  0.48987000  1.0
  C  C281  1  0.28389000  0.07442000  0.51027000  1.0
  C  C282  1  0.72590000  0.50389000  0.45004000  1.0
  C  C283  1  0.22606000  0.00600000  0.55028000  1.0
  C  C284  1  0.87930000  0.48208000  0.38299000  1.0
  C  C285  1  0.37941000  0.98333000  0.61732000  1.0
  C  C286  1  0.94252000  0.55037000  0.42035000  1.0
  C  C287  1  0.44304000  0.05097000  0.57965000  1.0
  N  N288  1  0.37467000  0.79653000  0.90101000  1.0
  N  N289  1  0.87681000  0.29491000  0.09910000  1.0
  N  N290  1  0.07799000  0.80215000  0.60106000  1.0
  N  N291  1  0.57893000  0.30471000  0.39965000  1.0
  N  N292  1  0.71233000  0.47983000  0.10920000  1.0
  N  N293  1  0.21362000  0.97848000  0.89064000  1.0
  N  N294  1  0.77198000  0.45936000  0.39679000  1.0
  N  N295  1  0.27167000  0.96170000  0.60385000  1.0
  O  O296  1  0.08267000  0.11458000  0.74405000  1.0
  O  O297  1  0.57830000  0.61247000  0.25549000  1.0
  O  O298  1  0.24611000  0.98367000  0.74772000  1.0
  O  O299  1  0.74259000  0.48338000  0.25120000  1.0
  O  O300  1  0.05342000  0.00312000  0.66044000  1.0
  O  O301  1  0.55598000  0.50525000  0.34241000  1.0
  O  O302  1  0.11438000  0.40513000  0.55768000  1.0
  O  O303  1  0.61407000  0.90518000  0.44222000  1.0
  O  O304  1  0.27234000  0.76706000  0.68106000  1.0
  O  O305  1  0.77723000  0.26927000  0.32088000  1.0
  O  O306  1  0.39697000  0.78796000  0.76302000  1.0
  O  O307  1  0.89838000  0.28746000  0.23658000  1.0
  O  O308  1  0.30659000  0.37453000  0.63724000  1.0
  O  O309  1  0.80595000  0.87488000  0.36269000  1.0
  O  O310  1  0.17791000  0.78228000  0.82364000  1.0
  O  O311  1  0.68147000  0.28025000  0.17765000  1.0
  O  O312  1  0.05924000  0.81738000  0.73998000  1.0
  O  O313  1  0.56040000  0.31750000  0.25950000  1.0
  O  O314  1  0.73299000  0.71660000  0.91048000  1.0
  O  O315  1  0.23350000  0.21779000  0.08981000  1.0
  O  O316  1  0.42555000  0.09598000  0.75234000  1.0
  O  O317  1  0.92237000  0.59774000  0.24711000  1.0
  O  O318  1  0.43934000  0.98079000  0.83600000  1.0
  O  O319  1  0.93997000  0.47888000  0.16608000  1.0
  O  O320  1  0.83040000  0.04284000  0.92544000  1.0
  O  O321  1  0.32949000  0.54230000  0.07498000  1.0
