# generated using pymatgen
data_Zn4C12O13
_symmetry_space_group_name_H-M   'P 1'
_cell_length_a   15.96340000
_cell_length_b   15.99430000
_cell_length_c   16.01083454
_cell_angle_alpha   60.24004392
_cell_angle_beta   60.20930857
_cell_angle_gamma   60.18500000
_symmetry_Int_Tables_number   1
_chemical_formula_structural   Zn4C12O13
_chemical_formula_sum   'Zn8 C24 O26'
_cell_volume   2904.44869793
_cell_formula_units_Z   2
loop_
 _symmetry_equiv_pos_site_id
 _symmetry_equiv_pos_as_xyz
  1  'x, y, z'
loop_
 _atom_site_type_symbol
 _atom_site_label
 _atom_site_symmetry_multiplicity
 _atom_site_fract_x
 _atom_site_fract_y
 _atom_site_fract_z
 _atom_site_occupancy
  Zn  Zn0  1  0.95339000  0.95132000  0.92672000  1.0
  Zn  Zn1  1  0.94504000  0.15514000  0.93069000  1.0
  Zn  Zn2  1  0.15005000  0.95782000  0.93042000  1.0
  Zn  Zn3  1  0.94784000  0.95377000  0.12979000  1.0
  Zn  Zn4  1  0.55468000  0.55240000  0.52759000  1.0
  Zn  Zn5  1  0.54567000  0.35405000  0.53017000  1.0
  Zn  Zn6  1  0.54808000  0.55322000  0.32921000  1.0
  Zn  Zn7  1  0.34793000  0.55838000  0.53066000  1.0
  C  C8  1  0.84208000  0.15882000  0.81782000  1.0
  C  C9  1  0.77932000  0.22173000  0.75271000  1.0
  C  C10  1  0.72602000  0.27594000  0.69885000  1.0
  C  C11  1  0.66144000  0.34131000  0.63559000  1.0
  C  C12  1  0.16642000  0.84494000  0.82023000  1.0
  C  C13  1  0.23265000  0.78108000  0.75627000  1.0
  C  C14  1  0.28637000  0.72762000  0.70261000  1.0
  C  C15  1  0.34813000  0.66384000  0.63855000  1.0
  C  C16  1  0.84505000  0.84011000  0.13456000  1.0
  C  C17  1  0.78217000  0.77510000  0.19768000  1.0
  C  C18  1  0.72855000  0.72156000  0.25190000  1.0
  C  C19  1  0.66357000  0.65866000  0.31703000  1.0
  C  C20  1  0.15244000  0.16958000  0.82198000  1.0
  C  C21  1  0.21471000  0.23518000  0.75775000  1.0
  C  C22  1  0.26801000  0.28905000  0.70377000  1.0
  C  C23  1  0.33347000  0.35147000  0.63935000  1.0
  C  C24  1  0.83335000  0.16238000  0.14027000  1.0
  C  C25  1  0.76812000  0.22573000  0.20470000  1.0
  C  C26  1  0.71444000  0.27904000  0.25849000  1.0
  C  C27  1  0.65166000  0.34329000  0.32204000  1.0
  C  C28  1  0.15668000  0.85063000  0.14044000  1.0
  C  C29  1  0.22006000  0.78707000  0.20491000  1.0
  C  C30  1  0.27339000  0.73298000  0.25874000  1.0
  C  C31  1  0.33767000  0.66780000  0.32230000  1.0
  O  O32  1  0.99904000  0.00447000  0.97931000  1.0
  O  O33  1  0.86165000  0.20683000  0.84626000  1.0
  O  O34  1  0.87087000  0.06264000  0.83966000  1.0
  O  O35  1  0.63110000  0.29635000  0.61427000  1.0
  O  O36  1  0.64169000  0.43692000  0.60818000  1.0
  O  O37  1  0.21059000  0.87157000  0.84635000  1.0
  O  O38  1  0.07068000  0.86767000  0.84349000  1.0
  O  O39  1  0.29864000  0.64172000  0.61418000  1.0
  O  O40  1  0.44480000  0.63671000  0.61347000  1.0
  O  O41  1  0.86771000  0.86594000  0.18229000  1.0
  O  O42  1  0.87073000  0.86465000  0.03847000  1.0
  O  O43  1  0.63700000  0.63381000  0.27176000  1.0
  O  O44  1  0.63978000  0.63516000  0.41263000  1.0
  O  O45  1  0.20124000  0.07399000  0.84626000  1.0
  O  O46  1  0.05589000  0.21424000  0.84720000  1.0
  O  O47  1  0.28859000  0.44778000  0.61524000  1.0
  O  O48  1  0.42928000  0.30299000  0.61370000  1.0
  O  O49  1  0.85814000  0.20960000  0.04451000  1.0
  O  O50  1  0.85919000  0.06628000  0.18619000  1.0
  O  O51  1  0.62754000  0.29718000  0.41797000  1.0
  O  O52  1  0.62756000  0.43919000  0.27506000  1.0
  O  O53  1  0.20394000  0.87742000  0.04470000  1.0
  O  O54  1  0.06042000  0.87265000  0.18635000  1.0
  O  O55  1  0.29143000  0.64550000  0.41821000  1.0
  O  O56  1  0.43366000  0.63970000  0.27525000  1.0
  O  O57  1  0.49894000  0.50468000  0.47969000  1.0
