# generated using pymatgen
data_ZnH9C13NO4
_symmetry_space_group_name_H-M   'P 1'
_cell_length_a   7.32897000
_cell_length_b   10.28040000
_cell_length_c   16.78650000
_cell_angle_alpha   90.00010000
_cell_angle_beta   90.00010000
_cell_angle_gamma   105.52000000
_symmetry_Int_Tables_number   1
_chemical_formula_structural   ZnH9C13NO4
_chemical_formula_sum   'Zn4 H36 C52 N4 O16'
_cell_volume   1218.65719780
_cell_formula_units_Z   4
loop_
 _symmetry_equiv_pos_site_id
 _symmetry_equiv_pos_as_xyz
  1  'x, y, z'
loop_
 _atom_site_type_symbol
 _atom_site_label
 _atom_site_symmetry_multiplicity
 _atom_site_fract_x
 _atom_site_fract_y
 _atom_site_fract_z
 _atom_site_occupancy
  Zn  Zn0  1  0.31803000  0.89700000  0.49255000  1.0
  Zn  Zn1  1  0.18198000  0.60300000  0.99255000  1.0
  Zn  Zn2  1  0.68197000  0.10300000  0.50745000  1.0
  Zn  Zn3  1  0.81803000  0.39700000  0.00745000  1.0
  H  H4  1  0.95986000  0.85812000  0.65470000  1.0
  H  H5  1  0.54016000  0.64188000  0.15470000  1.0
  H  H6  1  0.04012000  0.14188000  0.34530000  1.0
  H  H7  1  0.45987000  0.35813000  0.84530000  1.0
  H  H8  1  0.05810000  0.74651000  0.77266000  1.0
  H  H9  1  0.44190000  0.75348000  0.27266000  1.0
  H  H10  1  0.94188000  0.25348000  0.22733000  1.0
  H  H11  1  0.55811000  0.24652000  0.72733000  1.0
  H  H12  1  0.47341000  0.57283000  0.83427000  1.0
  H  H13  1  0.02659000  0.92718000  0.33427000  1.0
  H  H14  1  0.52658000  0.42717000  0.16573000  1.0
  H  H15  1  0.97342000  0.07282000  0.66573000  1.0
  H  H16  1  0.37425000  0.68464000  0.71610000  1.0
  H  H17  1  0.12577000  0.81537000  0.21610000  1.0
  H  H18  1  0.62574000  0.31535000  0.28391000  1.0
  H  H19  1  0.87425000  0.18464000  0.78391000  1.0
  H  H20  1  0.90376000  0.82518000  0.52008000  1.0
  H  H21  1  0.59625000  0.67483000  0.02008000  1.0
  H  H22  1  0.09625000  0.17483000  0.47993000  1.0
  H  H23  1  0.40376000  0.32518000  0.97992000  1.0
  H  H24  1  0.61997000  0.63660000  0.48649000  1.0
  H  H25  1  0.88003000  0.86341000  0.98649000  1.0
  H  H26  1  0.38003000  0.36342000  0.51351000  1.0
  H  H27  1  0.11997000  0.13659000  0.01351000  1.0
  H  H28  1  0.66625000  0.44130000  0.40420000  1.0
  H  H29  1  0.83374000  0.05871000  0.90420000  1.0
  H  H30  1  0.33373000  0.55871000  0.59580000  1.0
  H  H31  1  0.16625000  0.94129000  0.09580000  1.0
  H  H32  1  0.99357000  0.44975000  0.35674000  1.0
  H  H33  1  0.50643000  0.05024000  0.85674000  1.0
  H  H34  1  0.00641000  0.55025000  0.64325000  1.0
  H  H35  1  0.49357000  0.94975000  0.14326000  1.0
  H  H36  1  0.26255000  0.64715000  0.39676000  1.0
  H  H37  1  0.23745000  0.85284000  0.89676000  1.0
  H  H38  1  0.73743000  0.35285000  0.60324000  1.0
  H  H39  1  0.76255000  0.14715000  0.10324000  1.0
  C  C40  1  0.66038000  0.77763000  0.67782000  1.0
  C  C41  1  0.83964000  0.72238000  0.17782000  1.0
  C  C42  1  0.33961000  0.22237000  0.32218000  1.0
  C  C43  1  0.16038000  0.27763000  0.82218000  1.0
  C  C44  1  0.85344000  0.79476000  0.69365000  1.0
  C  C45  1  0.64657000  0.70524000  0.19365000  1.0
  C  C46  1  0.14655000  0.20524000  0.30635000  1.0
  C  C47  1  0.35345000  0.29476000  0.80635000  1.0
  C  C48  1  0.90850000  0.73247000  0.75943000  1.0
  C  C49  1  0.59151000  0.76753000  0.25943000  1.0
  C  C50  1  0.09149000  0.26752000  0.24057000  1.0
  C  C51  1  0.40851000  0.23248000  0.74057000  1.0
  C  C52  1  0.77205000  0.65201000  0.81017000  1.0
  C  C53  1  0.72795000  0.84799000  0.31016000  1.0
  C  C54  1  0.22794000  0.34798000  0.18983000  1.0
  C  C55  1  0.27206000  0.15202000  0.68983000  1.0
  C  C56  1  0.57912000  0.63368000  0.79406000  1.0
  C  C57  1  0.92088000  0.86632000  0.29406000  1.0
  C  C58  1  0.42086000  0.36631000  0.20595000  1.0
  C  C59  1  0.07913000  0.13368000  0.70595000  1.0
  C  C60  1  0.52391000  0.69621000  0.72817000  1.0
  C  C61  1  0.97610000  0.80380000  0.22817000  1.0
  C  C62  1  0.47608000  0.30378000  0.27183000  1.0
  C  C63  1  0.02391000  0.19621000  0.77183000  1.0
  C  C64  1  0.60238000  0.84985000  0.60873000  1.0
  C  C65  1  0.89763000  0.65015000  0.10873000  1.0
  C  C66  1  0.39760000  0.15014000  0.39128000  1.0
  C  C67  1  0.10239000  0.34986000  0.89127000  1.0
  C  C68  1  0.83444000  0.59002000  0.88238000  1.0
  C  C69  1  0.66556000  0.90998000  0.38237000  1.0
  C  C70  1  0.16555000  0.40997000  0.11763000  1.0
  C  C71  1  0.33445000  0.09002000  0.61763000  1.0
  C  C72  1  0.91658000  0.73865000  0.48521000  1.0
  C  C73  1  0.58343000  0.76135000  0.98521000  1.0
  C  C74  1  0.08342000  0.26135000  0.51479000  1.0
  C  C75  1  0.41658000  0.23865000  0.01479000  1.0
  C  C76  1  0.75953000  0.63327000  0.46583000  1.0
  C  C77  1  0.74047000  0.86674000  0.96583000  1.0
  C  C78  1  0.24046000  0.36674000  0.53417000  1.0
  C  C79  1  0.25953000  0.13326000  0.03417000  1.0
  C  C80  1  0.78498000  0.52701000  0.41935000  1.0
  C  C81  1  0.71502000  0.97299000  0.91935000  1.0
  C  C82  1  0.21501000  0.47300000  0.58065000  1.0
  C  C83  1  0.28498000  0.02701000  0.08065000  1.0
  C  C84  1  0.96702000  0.53046000  0.39324000  1.0
  C  C85  1  0.53297000  0.96954000  0.89324000  1.0
  C  C86  1  0.03296000  0.46955000  0.60675000  1.0
  C  C87  1  0.46702000  0.03045000  0.10676000  1.0
  C  C88  1  0.11727000  0.63867000  0.41532000  1.0
  C  C89  1  0.38273000  0.86133000  0.91532000  1.0
  C  C90  1  0.88272000  0.36133000  0.58467000  1.0
  C  C91  1  0.61727000  0.13867000  0.08468000  1.0
  N  N92  1  0.09240000  0.74061000  0.46088000  1.0
  N  N93  1  0.40760000  0.75939000  0.96088000  1.0
  N  N94  1  0.90759000  0.25939000  0.53911000  1.0
  N  N95  1  0.59240000  0.24061000  0.03912000  1.0
  O  O96  1  0.43708000  0.80127000  0.57998000  1.0
  O  O97  1  0.06294000  0.69874000  0.07999000  1.0
  O  O98  1  0.56291000  0.19872000  0.42002000  1.0
  O  O99  1  0.93709000  0.30127000  0.92002000  1.0
  O  O100  1  0.72440000  0.95492000  0.58380000  1.0
  O  O101  1  0.77562000  0.54508000  0.08380000  1.0
  O  O102  1  0.27558000  0.04507000  0.41620000  1.0
  O  O103  1  0.22441000  0.45494000  0.91619000  1.0
  O  O104  1  0.00267000  0.64365000  0.90646000  1.0
  O  O105  1  0.49733000  0.85634000  0.40646000  1.0
  O  O106  1  0.99732000  0.35634000  0.09354000  1.0
  O  O107  1  0.50267000  0.14366000  0.59354000  1.0
  O  O108  1  0.71693000  0.48974000  0.91476000  1.0
  O  O109  1  0.78306000  0.01026000  0.41476000  1.0
  O  O110  1  0.28306000  0.51025000  0.08524000  1.0
  O  O111  1  0.21694000  0.98974000  0.58524000  1.0
