# generated using pymatgen
data_Cu2H7C9S2N7
_symmetry_space_group_name_H-M   'P 1'
_cell_length_a   5.72426000
_cell_length_b   9.47411000
_cell_length_c   11.38880000
_cell_angle_alpha   89.99890000
_cell_angle_beta   89.99900000
_cell_angle_gamma   86.53130000
_symmetry_Int_Tables_number   1
_chemical_formula_structural   Cu2H7C9S2N7
_chemical_formula_sum   'Cu4 H14 C18 S4 N14'
_cell_volume   616.50894636
_cell_formula_units_Z   2
loop_
 _symmetry_equiv_pos_site_id
 _symmetry_equiv_pos_as_xyz
  1  'x, y, z'
loop_
 _atom_site_type_symbol
 _atom_site_label
 _atom_site_symmetry_multiplicity
 _atom_site_fract_x
 _atom_site_fract_y
 _atom_site_fract_z
 _atom_site_occupancy
  Cu  Cu0  1  0.67707000  0.46810000  0.20979000  1.0
  Cu  Cu1  1  0.32295000  0.53189000  0.70980000  1.0
  Cu  Cu2  1  0.52730000  0.43858000  0.44751000  1.0
  Cu  Cu3  1  0.47271000  0.56142000  0.94751000  1.0
  H  H4  1  0.54790000  0.11185000  0.85381000  1.0
  H  H5  1  0.45210000  0.88816000  0.35380000  1.0
  H  H6  1  0.39820000  0.97183000  0.90769000  1.0
  H  H7  1  0.60181000  0.02816000  0.40768000  1.0
  H  H8  1  0.13845000  0.01037000  0.25246000  1.0
  H  H9  1  0.86155000  0.98962000  0.75245000  1.0
  H  H10  1  0.83590000  0.83106000  0.24546000  1.0
  H  H11  1  0.16408000  0.16893000  0.74545000  1.0
  H  H12  1  0.54313000  0.83823000  0.08311000  1.0
  H  H13  1  0.45687000  0.16177000  0.58309000  1.0
  H  H14  1  0.39963000  0.16775000  0.23800000  1.0
  H  H15  1  0.60035000  0.83225000  0.73800000  1.0
  H  H16  1  0.05572000  0.33499000  0.93413000  1.0
  H  H17  1  0.94427000  0.66502000  0.43413000  1.0
  C  C18  1  0.01226000  0.10546000  0.08859000  1.0
  C  C19  1  0.98773000  0.89454000  0.58858000  1.0
  C  C20  1  0.01360000  0.00923000  0.18062000  1.0
  C  C21  1  0.98639000  0.99076000  0.68062000  1.0
  C  C22  1  0.84094000  0.91090000  0.17683000  1.0
  C  C23  1  0.15906000  0.08909000  0.67682000  1.0
  C  C24  1  0.67881000  0.91397000  0.08652000  1.0
  C  C25  1  0.32119000  0.08603000  0.58651000  1.0
  C  C26  1  0.69837000  0.01522000  0.99661000  1.0
  C  C27  1  0.30163000  0.98479000  0.49660000  1.0
  C  C28  1  0.35750000  0.23293000  0.16175000  1.0
  C  C29  1  0.64249000  0.76707000  0.66175000  1.0
  C  C30  1  0.18201000  0.31890000  0.00435000  1.0
  C  C31  1  0.81798000  0.68110000  0.50434000  1.0
  C  C32  1  0.15228000  0.59255000  0.23188000  1.0
  C  C33  1  0.84772000  0.40745000  0.73188000  1.0
  C  C34  1  0.04342000  0.32811000  0.41682000  1.0
  C  C35  1  0.95659000  0.67189000  0.91682000  1.0
  S  S36  1  0.40764000  0.65514000  0.25503000  1.0
  S  S37  1  0.59238000  0.34486000  0.75503000  1.0
  S  S38  1  0.78814000  0.26714000  0.38710000  1.0
  S  S39  1  0.21188000  0.73286000  0.88710000  1.0
  N  N40  1  0.55181000  0.01996000  0.90075000  1.0
  N  N41  1  0.44819000  0.98005000  0.40073000  1.0
  N  N42  1  0.86573000  0.10906000  0.99772000  1.0
  N  N43  1  0.13427000  0.89095000  0.49771000  1.0
  N  N44  1  0.17686000  0.21309000  0.08580000  1.0
  N  N45  1  0.82313000  0.78691000  0.58580000  1.0
  N  N46  1  0.47014000  0.34347000  0.12763000  1.0
  N  N47  1  0.52985000  0.65653000  0.62763000  1.0
  N  N48  1  0.35888000  0.39752000  0.02746000  1.0
  N  N49  1  0.64110000  0.60249000  0.52746000  1.0
  N  N50  1  0.97139000  0.54214000  0.21479000  1.0
  N  N51  1  0.02863000  0.45786000  0.71478000  1.0
  N  N52  1  0.22652000  0.37404000  0.43581000  1.0
  N  N53  1  0.77349000  0.62596000  0.93581000  1.0
