# generated using pymatgen
data_TlH3C7(NO3)2
_symmetry_space_group_name_H-M   'P 1'
_cell_length_a   4.94258000
_cell_length_b   10.51710000
_cell_length_c   17.86520000
_cell_angle_alpha   89.99960000
_cell_angle_beta   85.83000000
_cell_angle_gamma   89.99990000
_symmetry_Int_Tables_number   1
_chemical_formula_structural   TlH3C7(NO3)2
_chemical_formula_sum   'Tl4 H12 C28 N8 O24'
_cell_volume   926.20336768
_cell_formula_units_Z   4
loop_
 _symmetry_equiv_pos_site_id
 _symmetry_equiv_pos_as_xyz
  1  'x, y, z'
loop_
 _atom_site_type_symbol
 _atom_site_label
 _atom_site_symmetry_multiplicity
 _atom_site_fract_x
 _atom_site_fract_y
 _atom_site_fract_z
 _atom_site_occupancy
  Tl  Tl0  1  0.03940000  0.82199000  0.93540000  1.0
  Tl  Tl1  1  0.46059000  0.32198000  0.56460000  1.0
  Tl  Tl2  1  0.96059000  0.17802000  0.06460000  1.0
  Tl  Tl3  1  0.53941000  0.67801000  0.43540000  1.0
  H  H4  1  0.92606000  0.08327000  0.80368000  1.0
  H  H5  1  0.57394000  0.58326000  0.69632000  1.0
  H  H6  1  0.07394000  0.91673000  0.19632000  1.0
  H  H7  1  0.42606000  0.41673000  0.30368000  1.0
  H  H8  1  0.94878000  0.49499000  0.80748000  1.0
  H  H9  1  0.55122000  0.99499000  0.69252000  1.0
  H  H10  1  0.05122000  0.50501000  0.19252000  1.0
  H  H11  1  0.44879000  0.00501000  0.30748000  1.0
  H  H12  1  0.33051000  0.29127000  0.94221000  1.0
  H  H13  1  0.16949000  0.79127000  0.55779000  1.0
  H  H14  1  0.66950000  0.70873000  0.05779000  1.0
  H  H15  1  0.83051000  0.20873000  0.44221000  1.0
  C  C16  1  0.47361000  0.05014000  0.90005000  1.0
  C  C17  1  0.02638000  0.55014000  0.59995000  1.0
  C  C18  1  0.52638000  0.94986000  0.09995000  1.0
  C  C19  1  0.97362000  0.44986000  0.40005000  1.0
  C  C20  1  0.61447000  0.17356000  0.87620000  1.0
  C  C21  1  0.88553000  0.67356000  0.62380000  1.0
  C  C22  1  0.38552000  0.82644000  0.12380000  1.0
  C  C23  1  0.11448000  0.32644000  0.37620000  1.0
  C  C24  1  0.84198000  0.17293000  0.82493000  1.0
  C  C25  1  0.65802000  0.67293000  0.67507000  1.0
  C  C26  1  0.15801000  0.82707000  0.17507000  1.0
  C  C27  1  0.34198000  0.32707000  0.32493000  1.0
  C  C28  1  0.95683000  0.28869000  0.80138000  1.0
  C  C29  1  0.54317000  0.78869000  0.69862000  1.0
  C  C30  1  0.04317000  0.71131000  0.19862000  1.0
  C  C31  1  0.45683000  0.21131000  0.30138000  1.0
  C  C32  1  0.85712000  0.40596000  0.82715000  1.0
  C  C33  1  0.64289000  0.90595000  0.67285000  1.0
  C  C34  1  0.14288000  0.59405000  0.17285000  1.0
  C  C35  1  0.35712000  0.09405000  0.32715000  1.0
  C  C36  1  0.63098000  0.40294000  0.87821000  1.0
  C  C37  1  0.86902000  0.90294000  0.62179000  1.0
  C  C38  1  0.36902000  0.59706000  0.12179000  1.0
  C  C39  1  0.13099000  0.09706000  0.37821000  1.0
  C  C40  1  0.50907000  0.28953000  0.90294000  1.0
  C  C41  1  0.99093000  0.78952000  0.59706000  1.0
  C  C42  1  0.49093000  0.71048000  0.09706000  1.0
  C  C43  1  0.00907000  0.21047000  0.40294000  1.0
  N  N44  1  0.19468000  0.28730000  0.74733000  1.0
  N  N45  1  0.30532000  0.78730000  0.75267000  1.0
  N  N46  1  0.80532000  0.71270000  0.25267000  1.0
  N  N47  1  0.69469000  0.21270000  0.24733000  1.0
  N  N48  1  0.50963000  0.52322000  0.90524000  1.0
  N  N49  1  0.99038000  0.02321000  0.59476000  1.0
  N  N50  1  0.49038000  0.47679000  0.09476000  1.0
  N  N51  1  0.00963000  0.97678000  0.40524000  1.0
  O  O52  1  0.24167000  0.06222000  0.93554000  1.0
  O  O53  1  0.25832000  0.56221000  0.56446000  1.0
  O  O54  1  0.75832000  0.93779000  0.06446000  1.0
  O  O55  1  0.74168000  0.43779000  0.43554000  1.0
  O  O56  1  0.58868000  0.94661000  0.88114000  1.0
  O  O57  1  0.91130000  0.44661000  0.61886000  1.0
  O  O58  1  0.41130000  0.05339000  0.11886000  1.0
  O  O59  1  0.08869000  0.55339000  0.38114000  1.0
  O  O60  1  0.26442000  0.18410000  0.71823000  1.0
  O  O61  1  0.23558000  0.68410000  0.78177000  1.0
  O  O62  1  0.73558000  0.81590000  0.28177000  1.0
  O  O63  1  0.76442000  0.31590000  0.21823000  1.0
  O  O64  1  0.31506000  0.38921000  0.73371000  1.0
  O  O65  1  0.18494000  0.88921000  0.76629000  1.0
  O  O66  1  0.68494000  0.61079000  0.26629000  1.0
  O  O67  1  0.81506000  0.11079000  0.23371000  1.0
  O  O68  1  0.63195000  0.62321000  0.88828000  1.0
  O  O69  1  0.86805000  0.12320000  0.61172000  1.0
  O  O70  1  0.36805000  0.37679000  0.11172000  1.0
  O  O71  1  0.13196000  0.87679000  0.38828000  1.0
  O  O72  1  0.28898000  0.51839000  0.94334000  1.0
  O  O73  1  0.21102000  0.01839000  0.55666000  1.0
  O  O74  1  0.71102000  0.48161000  0.05666000  1.0
  O  O75  1  0.78898000  0.98161000  0.44334000  1.0
