# generated using pymatgen
data_H2PbC3O4
_symmetry_space_group_name_H-M   'P 1'
_cell_length_a   5.32716000
_cell_length_b   6.95825000
_cell_length_c   12.80410000
_cell_angle_alpha   99.71630000
_cell_angle_beta   89.98540000
_cell_angle_gamma   89.99320000
_symmetry_Int_Tables_number   1
_chemical_formula_structural   H2PbC3O4
_chemical_formula_sum   'H8 Pb4 C12 O16'
_cell_volume   467.81048823
_cell_formula_units_Z   4
loop_
 _symmetry_equiv_pos_site_id
 _symmetry_equiv_pos_as_xyz
  1  'x, y, z'
loop_
 _atom_site_type_symbol
 _atom_site_label
 _atom_site_symmetry_multiplicity
 _atom_site_fract_x
 _atom_site_fract_y
 _atom_site_fract_z
 _atom_site_occupancy
  H  H0  1  0.39460000  0.70541000  0.99933000  1.0
  H  H1  1  0.89507000  0.79401000  0.00070000  1.0
  H  H2  1  0.60477000  0.29401000  0.00069000  1.0
  H  H3  1  0.10540000  0.20529000  0.99928000  1.0
  H  H4  1  0.23957000  0.52515000  0.05459000  1.0
  H  H5  1  0.73935000  0.97438000  0.94580000  1.0
  H  H6  1  0.76055000  0.47424000  0.94571000  1.0
  H  H7  1  0.26051000  0.02492000  0.05441000  1.0
  Pb  Pb8  1  0.03564000  0.60015000  0.31083000  1.0
  Pb  Pb9  1  0.53563000  0.90032000  0.68910000  1.0
  Pb  Pb10  1  0.96444000  0.40026000  0.68910000  1.0
  Pb  Pb11  1  0.46447000  0.10020000  0.31084000  1.0
  C  C12  1  0.61236000  0.53169000  0.46860000  1.0
  C  C13  1  0.11231000  0.96860000  0.53131000  1.0
  C  C14  1  0.38779000  0.46868000  0.53133000  1.0
  C  C15  1  0.88771000  0.03156000  0.46861000  1.0
  C  C16  1  0.55696000  0.65081000  0.14165000  1.0
  C  C17  1  0.05673000  0.84922000  0.85833000  1.0
  C  C18  1  0.44304000  0.34936000  0.85839000  1.0
  C  C19  1  0.94314000  0.15066000  0.14164000  1.0
  C  C20  1  0.42746000  0.57678000  0.03731000  1.0
  C  C21  1  0.92747000  0.92280000  0.96282000  1.0
  C  C22  1  0.57245000  0.42284000  0.96283000  1.0
  C  C23  1  0.07257000  0.07667000  0.03723000  1.0
  O  O24  1  0.61348000  0.46942000  0.36851000  1.0
  O  O25  1  0.11354000  0.03113000  0.63138000  1.0
  O  O26  1  0.38660000  0.53105000  0.63141000  1.0
  O  O27  1  0.88646000  0.96907000  0.36855000  1.0
  O  O28  1  0.77928000  0.63846000  0.51801000  1.0
  O  O29  1  0.27912000  0.86164000  0.48191000  1.0
  O  O30  1  0.22097000  0.36183000  0.48192000  1.0
  O  O31  1  0.72092000  0.13855000  0.51802000  1.0
  O  O32  1  0.79000000  0.61864000  0.15048000  1.0
  O  O33  1  0.28977000  0.88139000  0.84943000  1.0
  O  O34  1  0.21004000  0.38171000  0.84956000  1.0
  O  O35  1  0.71007000  0.11867000  0.15048000  1.0
  O  O36  1  0.42076000  0.74731000  0.21552000  1.0
  O  O37  1  0.92048000  0.75307000  0.78443000  1.0
  O  O38  1  0.57921000  0.25310000  0.78444000  1.0
  O  O39  1  0.07931000  0.24696000  0.21551000  1.0
