# generated using pymatgen
data_Zn2H20C29N2O9
_symmetry_space_group_name_H-M   'P 1'
_cell_length_a   9.67694000
_cell_length_b   11.08660000
_cell_length_c   13.21450000
_cell_angle_alpha   90.75870000
_cell_angle_beta   98.53170000
_cell_angle_gamma   90.83490000
_symmetry_Int_Tables_number   1
_chemical_formula_structural   Zn2H20C29N2O9
_chemical_formula_sum   'Zn2 H20 C29 N2 O9'
_cell_volume   1401.70181208
_cell_formula_units_Z   1
loop_
 _symmetry_equiv_pos_site_id
 _symmetry_equiv_pos_as_xyz
  1  'x, y, z'
loop_
 _atom_site_type_symbol
 _atom_site_label
 _atom_site_symmetry_multiplicity
 _atom_site_fract_x
 _atom_site_fract_y
 _atom_site_fract_z
 _atom_site_occupancy
  Zn  Zn0  1  0.36238000  0.49512000  0.49522000  1.0
  Zn  Zn1  1  0.64761000  0.50210000  0.51012000  1.0
  H  H2  1  0.68107000  0.52275000  0.18887000  1.0
  H  H3  1  0.23521000  0.49005000  0.16503000  1.0
  H  H4  1  0.79443000  0.51888000  0.03065000  1.0
  H  H5  1  0.21328000  0.47332000  0.97457000  1.0
  H  H6  1  0.77216000  0.50312000  0.84018000  1.0
  H  H7  1  0.32672000  0.46798000  0.81671000  1.0
  H  H8  1  0.72421000  0.89609000  0.57018000  1.0
  H  H9  1  0.72122000  0.11954000  0.55569000  1.0
  H  H10  1  0.16119000  0.10149000  0.46911000  1.0
  H  H11  1  0.99484000  0.80203000  0.36378000  1.0
  H  H12  1  0.96210000  0.94993000  0.41088000  1.0
  H  H13  1  0.21011000  0.09725000  0.34343000  1.0
  H  H14  1  0.93215000  0.82028000  0.48410000  1.0
  H  H15  1  0.22177000  0.87058000  0.35213000  1.0
  H  H16  1  0.84051000  0.38042000  0.38151000  1.0
  H  H17  1  0.10022000  0.37848000  0.37440000  1.0
  H  H18  1  0.19888000  0.61456000  0.72169000  1.0
  H  H19  1  0.17014000  0.73611000  0.63272000  1.0
  H  H20  1  0.93779000  0.60531000  0.73210000  1.0
  H  H21  1  0.91222000  0.73175000  0.64972000  1.0
  C  C22  1  0.51135000  0.73460000  0.51762000  1.0
  C  C23  1  0.62570000  0.06641000  0.53287000  1.0
  C  C24  1  0.50289000  0.12817000  0.49498000  1.0
  C  C25  1  0.53558000  0.48367000  0.70346000  1.0
  C  C26  1  0.38308000  0.05643000  0.46850000  1.0
  C  C27  1  0.23099000  0.05984000  0.42073000  1.0
  C  C28  1  0.23297000  0.91683000  0.42776000  1.0
  C  C29  1  0.95193000  0.56097000  0.57136000  1.0
  C  C30  1  0.91430000  0.43295000  0.43568000  1.0
  C  C31  1  0.05744000  0.43227000  0.43164000  1.0
  C  C32  1  0.09503000  0.56135000  0.56673000  1.0
  C  C33  1  0.43640000  0.48886000  0.97200000  1.0
  C  C34  1  0.12965000  0.64905000  0.65546000  1.0
  C  C35  1  0.96671000  0.64597000  0.66271000  1.0
  C  C36  1  0.50217000  0.26242000  0.48868000  1.0
  C  C37  1  0.47157000  0.51096000  0.30168000  1.0
  C  C38  1  0.46036000  0.50642000  0.18731000  1.0
  C  C39  1  0.54714000  0.48665000  0.81787000  1.0
  C  C40  1  0.69197000  0.50821000  0.98380000  1.0
  C  C41  1  0.68037000  0.49979000  0.87890000  1.0
  C  C42  1  0.42821000  0.48014000  0.86438000  1.0
  C  C43  1  0.00035000  0.85933000  0.43342000  1.0
  C  C44  1  0.57127000  0.50364000  0.03337000  1.0
  C  C45  1  0.57952000  0.51203000  0.14100000  1.0
  C  C46  1  0.32704000  0.49331000  0.12633000  1.0
  C  C47  1  0.31566000  0.48433000  0.02147000  1.0
  C  C48  1  0.38409000  0.93122000  0.47840000  1.0
  C  C49  1  0.50578000  0.86907000  0.51392000  1.0
  C  C50  1  0.62708000  0.94113000  0.54165000  1.0
  N  N51  1  0.85872000  0.49859000  0.50693000  1.0
  N  N52  1  0.15125000  0.49772000  0.49800000  1.0
  O  O53  1  0.39475000  0.67821000  0.51112000  1.0
  O  O54  1  0.63142000  0.68675000  0.52467000  1.0
  O  O55  1  0.41323000  0.47630000  0.65228000  1.0
  O  O56  1  0.64927000  0.49069000  0.66575000  1.0
  O  O57  1  0.38275000  0.31188000  0.47676000  1.0
  O  O58  1  0.62005000  0.31733000  0.49753000  1.0
  O  O59  1  0.35763000  0.51005000  0.33923000  1.0
  O  O60  1  0.59414000  0.51400000  0.35303000  1.0
  O  O61  1  0.13891000  0.86448000  0.48807000  1.0
