# generated using pymatgen
data_ZnH14(C5O2)2
_symmetry_space_group_name_H-M   'P 1'
_cell_length_a   6.81013000
_cell_length_b   12.40670000
_cell_length_c   12.75340000
_cell_angle_alpha   89.99990000
_cell_angle_beta   102.88200000
_cell_angle_gamma   89.99990000
_symmetry_Int_Tables_number   1
_chemical_formula_structural   ZnH14(C5O2)2
_chemical_formula_sum   'Zn4 H56 C40 O16'
_cell_volume   1050.43001212
_cell_formula_units_Z   4
loop_
 _symmetry_equiv_pos_site_id
 _symmetry_equiv_pos_as_xyz
  1  'x, y, z'
loop_
 _atom_site_type_symbol
 _atom_site_label
 _atom_site_symmetry_multiplicity
 _atom_site_fract_x
 _atom_site_fract_y
 _atom_site_fract_z
 _atom_site_occupancy
  Zn  Zn0  1  0.79442000  0.54195000  0.73767000  1.0
  Zn  Zn1  1  0.20557000  0.04195000  0.26233000  1.0
  Zn  Zn2  1  0.30351000  0.44841000  0.73939000  1.0
  Zn  Zn3  1  0.69649000  0.94841000  0.26061000  1.0
  H  H4  1  0.77265000  0.51591000  0.33886000  1.0
  H  H5  1  0.22735000  0.01591000  0.66114000  1.0
  H  H6  1  0.63430000  0.38182000  0.20891000  1.0
  H  H7  1  0.36569000  0.88182000  0.79110000  1.0
  H  H8  1  0.79862000  0.22652000  0.28865000  1.0
  H  H9  1  0.20138000  0.72652000  0.71135000  1.0
  H  H10  1  0.85916000  0.10103000  0.49189000  1.0
  H  H11  1  0.14085000  0.60104000  0.50811000  1.0
  H  H12  1  0.99603000  0.24142000  0.75354000  1.0
  H  H13  1  0.00397000  0.74141000  0.24646000  1.0
  H  H14  1  0.69180000  0.27408000  0.60459000  1.0
  H  H15  1  0.30819000  0.77407000  0.39541000  1.0
  H  H16  1  0.60324000  0.48030000  0.41905000  1.0
  H  H17  1  0.39676000  0.98030000  0.58096000  1.0
  H  H18  1  0.72716000  0.10372000  0.73379000  1.0
  H  H19  1  0.27285000  0.60371000  0.26621000  1.0
  H  H20  1  0.54220000  0.18655000  0.51069000  1.0
  H  H21  1  0.45780000  0.68656000  0.48931000  1.0
  H  H22  1  0.43794000  0.36998000  0.27733000  1.0
  H  H23  1  0.56205000  0.86998000  0.72268000  1.0
  H  H24  1  0.50884000  0.32862000  0.49751000  1.0
  H  H25  1  0.49116000  0.82862000  0.50249000  1.0
  H  H26  1  0.51748000  0.13483000  0.78753000  1.0
  H  H27  1  0.48252000  0.63482000  0.21247000  1.0
  H  H28  1  0.56667000  0.21465000  0.08423000  1.0
  H  H29  1  0.43331000  0.71466000  0.91577000  1.0
  H  H30  1  0.18755000  0.33435000  0.45765000  1.0
  H  H31  1  0.81245000  0.83435000  0.54234000  1.0
  H  H32  1  0.12238000  0.46263000  0.39847000  1.0
  H  H33  1  0.87762000  0.96264000  0.60152000  1.0
  H  H34  1  0.03873000  0.34394000  0.32481000  1.0
  H  H35  1  0.96127000  0.84395000  0.67518000  1.0
  H  H36  1  0.91759000  0.28103000  0.13926000  1.0
  H  H37  1  0.08240000  0.78103000  0.86075000  1.0
  H  H38  1  0.88161000  0.37750000  0.03307000  1.0
  H  H39  1  0.11837000  0.87750000  0.96694000  1.0
  H  H40  1  0.61222000  0.99211000  0.91014000  1.0
  H  H41  1  0.38776000  0.49210000  0.08986000  1.0
  H  H42  1  0.84387000  0.97583000  0.87301000  1.0
  H  H43  1  0.15612000  0.47583000  0.12699000  1.0
  H  H44  1  0.01454000  0.09361000  0.00823000  1.0
  H  H45  1  0.98547000  0.59361000  0.99177000  1.0
  H  H46  1  0.08282000  0.28272000  0.05073000  1.0
  H  H47  1  0.91716000  0.78271000  0.94928000  1.0
  H  H48  1  0.45980000  0.17649000  0.94991000  1.0
  H  H49  1  0.54020000  0.67649000  0.05008000  1.0
  H  H50  1  0.51540000  0.31379000  0.98216000  1.0
  H  H51  1  0.48458000  0.81379000  0.01784000  1.0
  H  H52  1  0.04621000  0.17004000  0.44172000  1.0
  H  H53  1  0.95380000  0.67004000  0.55828000  1.0
  H  H54  1  0.01858000  0.19645000  0.57429000  1.0
  H  H55  1  0.98142000  0.69645000  0.42571000  1.0
  H  H56  1  0.08311000  0.15798000  0.86671000  1.0
  H  H57  1  0.91689000  0.65798000  0.13328000  1.0
  H  H58  1  0.08700000  0.30075000  0.88150000  1.0
  H  H59  1  0.91300000  0.80075000  0.11851000  1.0
  C  C60  1  0.78061000  0.26625000  0.45094000  1.0
  C  C61  1  0.21940000  0.76624000  0.54906000  1.0
  C  C62  1  0.70856000  0.44706000  0.37385000  1.0
  C  C63  1  0.29143000  0.94706000  0.62615000  1.0
  C  C64  1  0.67945000  0.25349000  0.32842000  1.0
  C  C65  1  0.32056000  0.75349000  0.67158000  1.0
  C  C66  1  0.00103000  0.23279000  0.83978000  1.0
  C  C67  1  0.99898000  0.73278000  0.16022000  1.0
  C  C68  1  0.87566000  0.38289000  0.44980000  1.0
  C  C69  1  0.12434000  0.88289000  0.55019000  1.0
  C  C70  1  0.92649000  0.42624000  0.56492000  1.0
  C  C71  1  0.07353000  0.92624000  0.43507000  1.0
  C  C72  1  0.60194000  0.36597000  0.28804000  1.0
  C  C73  1  0.39805000  0.86597000  0.71196000  1.0
  C  C74  1  0.84988000  0.09520000  0.99916000  1.0
  C  C75  1  0.15011000  0.59520000  0.00084000  1.0
  C  C76  1  0.93590000  0.17872000  0.49188000  1.0
  C  C77  1  0.06411000  0.67872000  0.50812000  1.0
  C  C78  1  0.78543000  0.22819000  0.85824000  1.0
  C  C79  1  0.21458000  0.72819000  0.14176000  1.0
  C  C80  1  0.62115000  0.26443000  0.51908000  1.0
  C  C81  1  0.37885000  0.76443000  0.48092000  1.0
  C  C82  1  0.74343000  0.03611000  0.89594000  1.0
  C  C83  1  0.25656000  0.53611000  0.10406000  1.0
  C  C84  1  0.78333000  0.21625000  0.98182000  1.0
  C  C85  1  0.21667000  0.71625000  0.01818000  1.0
  C  C86  1  0.52513000  0.16477000  0.30740000  1.0
  C  C87  1  0.47488000  0.66477000  0.69260000  1.0
  C  C88  1  0.68115000  0.12378000  0.80873000  1.0
  C  C89  1  0.31884000  0.62377000  0.19127000  1.0
  C  C90  1  0.67453000  0.33121000  0.81299000  1.0
  C  C91  1  0.32547000  0.83120000  0.18702000  1.0
  C  C92  1  0.81455000  0.04991000  0.10284000  1.0
  C  C93  1  0.18545000  0.54991000  0.89716000  1.0
  C  C94  1  0.56898000  0.23088000  0.99985000  1.0
  C  C95  1  0.43101000  0.73088000  0.00015000  1.0
  C  C96  1  0.06750000  0.38022000  0.40528000  1.0
  C  C97  1  0.93250000  0.88023000  0.59471000  1.0
  C  C98  1  0.92506000  0.29385000  0.05510000  1.0
  C  C99  1  0.07492000  0.79385000  0.94491000  1.0
  O  O100  1  0.80147000  0.48990000  0.59342000  1.0
  O  O101  1  0.19854000  0.98990000  0.40659000  1.0
  O  O102  1  0.77302000  0.41975000  0.83305000  1.0
  O  O103  1  0.22699000  0.91974000  0.16695000  1.0
  O  O104  1  0.57950000  0.06690000  0.33135000  1.0
  O  O105  1  0.42052000  0.56691000  0.66866000  1.0
  O  O106  1  0.33959000  0.18599000  0.26887000  1.0
  O  O107  1  0.66044000  0.68599000  0.73113000  1.0
  O  O108  1  0.49320000  0.32425000  0.76012000  1.0
  O  O109  1  0.50681000  0.82424000  0.23988000  1.0
  O  O110  1  0.67540000  0.98128000  0.10321000  1.0
  O  O111  1  0.32460000  0.48128000  0.89679000  1.0
  O  O112  1  0.08824000  0.39116000  0.62629000  1.0
  O  O113  1  0.91178000  0.89116000  0.37369000  1.0
  O  O114  1  0.92257000  0.08401000  0.19266000  1.0
  O  O115  1  0.07743000  0.58401000  0.80734000  1.0
