# generated using pymatgen
data_CdH10C20Br4(NO)4
_symmetry_space_group_name_H-M   'P 1'
_cell_length_a   7.95743000
_cell_length_b   7.95737000
_cell_length_c   18.71250000
_cell_angle_alpha   86.87940000
_cell_angle_beta   86.87960000
_cell_angle_gamma   74.63350000
_symmetry_Int_Tables_number   1
_chemical_formula_structural   CdH10C20Br4(NO)4
_chemical_formula_sum   'Cd2 H20 C40 Br8 N8 O8'
_cell_volume   1139.84114092
_cell_formula_units_Z   2
loop_
 _symmetry_equiv_pos_site_id
 _symmetry_equiv_pos_as_xyz
  1  'x, y, z'
loop_
 _atom_site_type_symbol
 _atom_site_label
 _atom_site_symmetry_multiplicity
 _atom_site_fract_x
 _atom_site_fract_y
 _atom_site_fract_z
 _atom_site_occupancy
  Cd  Cd0  1  0.66806000  0.33193000  0.25000000  1.0
  Cd  Cd1  1  0.33193000  0.66807000  0.75000000  1.0
  H  H2  1  0.43214000  0.33834000  0.39621000  1.0
  H  H3  1  0.66168000  0.56786000  0.10379000  1.0
  H  H4  1  0.56785000  0.66166000  0.60379000  1.0
  H  H5  1  0.33833000  0.43215000  0.89621000  1.0
  H  H6  1  0.24959000  0.23986000  0.48331000  1.0
  H  H7  1  0.76016000  0.75040000  0.01669000  1.0
  H  H8  1  0.75039000  0.76014000  0.51669000  1.0
  H  H9  1  0.23986000  0.24960000  0.98331000  1.0
  H  H10  1  0.88910000  0.70120000  0.39602000  1.0
  H  H11  1  0.29881000  0.11089000  0.10398000  1.0
  H  H12  1  0.11088000  0.29880000  0.60398000  1.0
  H  H13  1  0.70120000  0.88910000  0.89602000  1.0
  H  H14  1  0.95359000  0.51057000  0.29144000  1.0
  H  H15  1  0.48943000  0.04641000  0.20856000  1.0
  H  H16  1  0.04640000  0.48943000  0.70856000  1.0
  H  H17  1  0.51057000  0.95359000  0.79144000  1.0
  H  H18  1  0.22508000  0.41953000  0.19031000  1.0
  H  H19  1  0.58047000  0.77492000  0.30969000  1.0
  H  H20  1  0.77492000  0.58047000  0.80969000  1.0
  H  H21  1  0.41952000  0.22508000  0.69031000  1.0
  C  C22  1  0.90300000  0.07808000  0.44027000  1.0
  C  C23  1  0.92191000  0.09700000  0.05973000  1.0
  C  C24  1  0.09699000  0.92191000  0.55973000  1.0
  C  C25  1  0.07809000  0.90302000  0.94027000  1.0
  C  C26  1  0.34111000  0.36988000  0.35335000  1.0
  C  C27  1  0.63013000  0.65889000  0.14666000  1.0
  C  C28  1  0.65889000  0.63012000  0.64666000  1.0
  C  C29  1  0.36988000  0.34111000  0.85334000  1.0
  C  C30  1  0.14226000  0.35580000  0.49101000  1.0
  C  C31  1  0.64421000  0.85774000  0.00899000  1.0
  C  C32  1  0.85773000  0.64419000  0.50899000  1.0
  C  C33  1  0.35581000  0.14226000  0.99101000  1.0
  C  C34  1  0.07458000  0.97450000  0.43083000  1.0
  C  C35  1  0.02549000  0.92543000  0.06917000  1.0
  C  C36  1  0.92542000  0.02548000  0.56917000  1.0
  C  C37  1  0.97450000  0.07459000  0.93083000  1.0
  C  C38  1  0.07915000  0.46693000  0.43237000  1.0
  C  C39  1  0.53308000  0.92084000  0.06764000  1.0
  C  C40  1  0.92083000  0.53307000  0.56764000  1.0
  C  C41  1  0.46694000  0.07916000  0.93236000  1.0
  C  C42  1  0.93612000  0.61135000  0.44113000  1.0
  C  C43  1  0.38866000  0.06388000  0.05887000  1.0
  C  C44  1  0.06387000  0.38865000  0.55887000  1.0
  C  C45  1  0.61137000  0.93612000  0.94113000  1.0
  C  C46  1  0.83008000  0.10389000  0.50986000  1.0
  C  C47  1  0.89609000  0.16993000  0.99014000  1.0
  C  C48  1  0.16992000  0.89608000  0.49014000  1.0
  C  C49  1  0.10391000  0.83009000  0.00986000  1.0
  C  C50  1  0.80193000  0.15498000  0.37478000  1.0
  C  C51  1  0.84501000  0.19807000  0.12522000  1.0
  C  C52  1  0.19806000  0.84500000  0.62522000  1.0
  C  C53  1  0.15500000  0.80195000  0.87478000  1.0
  C  C54  1  0.09281000  0.46572000  0.29740000  1.0
  C  C55  1  0.53428000  0.90719000  0.20260000  1.0
  C  C56  1  0.90719000  0.53428000  0.70260000  1.0
  C  C57  1  0.46572000  0.09281000  0.79740000  1.0
  C  C58  1  0.22909000  0.41802000  0.24814000  1.0
  C  C59  1  0.58199000  0.77091000  0.25186000  1.0
  C  C60  1  0.77091000  0.58199000  0.75186000  1.0
  C  C61  1  0.41801000  0.22909000  0.74814000  1.0
  Br  Br62  1  0.17510000  0.94481000  0.33659000  1.0
  Br  Br63  1  0.05515000  0.82489000  0.16341000  1.0
  Br  Br64  1  0.82489000  0.05517000  0.66341000  1.0
  Br  Br65  1  0.94481000  0.17511000  0.83659000  1.0
  Br  Br66  1  0.60061000  0.25077000  0.52358000  1.0
  Br  Br67  1  0.74921000  0.39939000  0.97642000  1.0
  Br  Br68  1  0.39938000  0.74922000  0.47642000  1.0
  Br  Br69  1  0.25079000  0.60062000  0.02358000  1.0
  N  N70  1  0.38309000  0.35914000  0.28378000  1.0
  N  N71  1  0.64087000  0.61691000  0.21623000  1.0
  N  N72  1  0.61690000  0.64086000  0.71623000  1.0
  N  N73  1  0.35913000  0.38309000  0.78377000  1.0
  N  N74  1  0.16552000  0.43407000  0.36414000  1.0
  N  N75  1  0.56594000  0.83447000  0.13586000  1.0
  N  N76  1  0.83447000  0.56593000  0.63586000  1.0
  N  N77  1  0.43407000  0.16553000  0.86414000  1.0
  O  O78  1  0.73707000  0.05756000  0.34068000  1.0
  O  O79  1  0.94244000  0.26292000  0.15932000  1.0
  O  O80  1  0.26291000  0.94243000  0.65933000  1.0
  O  O81  1  0.05757000  0.73711000  0.84067000  1.0
  O  O82  1  0.79407000  0.31488000  0.35763000  1.0
  O  O83  1  0.68511000  0.20593000  0.14237000  1.0
  O  O84  1  0.20593000  0.68510000  0.64237000  1.0
  O  O85  1  0.31491000  0.79407000  0.85763000  1.0
