# generated using pymatgen
data_ZnSiH32(C10O)2
_symmetry_space_group_name_H-M   'P 1'
_cell_length_a   8.36850000
_cell_length_b   11.01510000
_cell_length_c   12.65100000
_cell_angle_alpha   83.98760000
_cell_angle_beta   76.35240000
_cell_angle_gamma   89.80850000
_symmetry_Int_Tables_number   1
_chemical_formula_structural   ZnSiH32(C10O)2
_chemical_formula_sum   'Zn2 Si2 H64 C40 O4'
_cell_volume   1126.73179975
_cell_formula_units_Z   2
loop_
 _symmetry_equiv_pos_site_id
 _symmetry_equiv_pos_as_xyz
  1  'x, y, z'
loop_
 _atom_site_type_symbol
 _atom_site_label
 _atom_site_symmetry_multiplicity
 _atom_site_fract_x
 _atom_site_fract_y
 _atom_site_fract_z
 _atom_site_occupancy
  Zn  Zn0  1  0.58920000  0.10906000  0.02468000  1.0
  Zn  Zn1  1  0.41080000  0.89094000  0.97532000  1.0
  Si  Si2  1  0.61031000  0.29676000  0.37944000  1.0
  Si  Si3  1  0.38969000  0.70324000  0.62056000  1.0
  H  H4  1  0.66907000  0.91719000  0.25025000  1.0
  H  H5  1  0.33093000  0.08281000  0.74975000  1.0
  H  H6  1  0.50105000  0.92855000  0.36527000  1.0
  H  H7  1  0.49895000  0.07145000  0.63473000  1.0
  H  H8  1  0.55901000  0.05577000  0.26342000  1.0
  H  H9  1  0.44100000  0.94423000  0.73658000  1.0
  H  H10  1  0.64333000  0.70023000  0.24342000  1.0
  H  H11  1  0.35667000  0.29977000  0.75659000  1.0
  H  H12  1  0.61010000  0.71468000  0.11010000  1.0
  H  H13  1  0.38991000  0.28531000  0.88990000  1.0
  H  H14  1  0.51218000  0.59388000  0.20648000  1.0
  H  H15  1  0.48782000  0.40612000  0.79353000  1.0
  H  H16  1  0.25992000  0.54612000  0.30219000  1.0
  H  H17  1  0.74008000  0.45388000  0.69782000  1.0
  H  H18  1  0.07217000  0.60353000  0.27697000  1.0
  H  H19  1  0.92783000  0.39647000  0.72304000  1.0
  H  H20  1  0.11215000  0.60819000  0.40706000  1.0
  H  H21  1  0.88786000  0.39182000  0.59295000  1.0
  H  H22  1  0.92651000  0.94521000  0.36352000  1.0
  H  H23  1  0.07349000  0.05480000  0.63648000  1.0
  H  H24  1  0.96444000  0.81603000  0.44898000  1.0
  H  H25  1  0.03556000  0.18397000  0.55102000  1.0
  H  H26  1  0.90205000  0.79485000  0.32888000  1.0
  H  H27  1  0.09795000  0.20515000  0.67113000  1.0
  H  H28  1  0.08612000  0.10252000  0.28073000  1.0
  H  H29  1  0.91387000  0.89747000  0.71927000  1.0
  H  H30  1  0.27743000  0.14049000  0.18535000  1.0
  H  H31  1  0.72257000  0.85951000  0.81464000  1.0
  H  H32  1  0.26732000  0.12590000  0.32576000  1.0
  H  H33  1  0.73268000  0.87410000  0.67424000  1.0
  H  H34  1  0.82659000  0.22729000  0.14717000  1.0
  H  H35  1  0.17341000  0.77271000  0.85283000  1.0
  H  H36  1  0.71899000  0.31193000  0.96646000  1.0
  H  H37  1  0.28101000  0.68807000  0.03354000  1.0
  H  H38  1  0.40258000  0.37408000  0.03033000  1.0
  H  H39  1  0.59743000  0.62593000  0.96967000  1.0
  H  H40  1  0.34095000  0.38067000  0.24532000  1.0
  H  H41  1  0.65906000  0.61934000  0.75468000  1.0
  H  H42  1  0.72029000  0.08588000  0.39826000  1.0
  H  H43  1  0.27970000  0.91411000  0.60174000  1.0
  H  H44  1  0.76477000  0.17451000  0.49764000  1.0
  H  H45  1  0.23522000  0.82548000  0.50236000  1.0
  H  H46  1  0.88253000  0.19756000  0.36040000  1.0
  H  H47  1  0.11747000  0.80243000  0.63960000  1.0
  H  H48  1  0.30878000  0.32465000  0.45468000  1.0
  H  H49  1  0.69122000  0.67536000  0.54531000  1.0
  H  H50  1  0.40688000  0.27103000  0.55974000  1.0
  H  H51  1  0.59312000  0.72897000  0.44025000  1.0
  H  H52  1  0.36050000  0.16836000  0.47145000  1.0
  H  H53  1  0.63950000  0.83164000  0.52854000  1.0
  H  H54  1  0.81339000  0.46861000  0.35146000  1.0
  H  H55  1  0.18661000  0.53138000  0.64854000  1.0
  H  H56  1  0.69263000  0.45234000  0.48866000  1.0
  H  H57  1  0.30737000  0.54765000  0.51135000  1.0
  H  H58  1  0.60970000  0.52326000  0.38148000  1.0
  H  H59  1  0.39030000  0.47674000  0.61852000  1.0
  H  H60  1  0.92453000  0.88366000  0.91371000  1.0
  H  H61  1  0.07547000  0.11633000  0.08629000  1.0
  H  H62  1  0.76356000  0.86459000  0.03703000  1.0
  H  H63  1  0.23643000  0.13540000  0.96298000  1.0
  H  H64  1  0.95552000  0.20818000  0.93503000  1.0
  H  H65  1  0.04448000  0.79181000  0.06498000  1.0
  H  H66  1  0.03756000  0.08910000  0.85308000  1.0
  H  H67  1  0.96244000  0.91091000  0.14692000  1.0
  C  C68  1  0.42836000  0.91077000  0.21326000  1.0
  C  C69  1  0.57164000  0.08923000  0.78674000  1.0
  C  C70  1  0.40765000  0.77164000  0.23144000  1.0
  C  C71  1  0.59236000  0.22836000  0.76855000  1.0
  C  C72  1  0.24926000  0.74249000  0.28305000  1.0
  C  C73  1  0.75073000  0.25751000  0.71695000  1.0
  C  C74  1  0.15493000  0.85609000  0.30196000  1.0
  C  C75  1  0.84508000  0.14391000  0.69804000  1.0
  C  C76  1  0.25500000  0.95452000  0.26024000  1.0
  C  C77  1  0.74500000  0.04548000  0.73976000  1.0
  C  C78  1  0.54662000  0.95565000  0.27723000  1.0
  C  C79  1  0.45338000  0.04435000  0.72277000  1.0
  C  C80  1  0.54873000  0.69071000  0.19683000  1.0
  C  C81  1  0.45127000  0.30929000  0.80318000  1.0
  C  C82  1  0.17069000  0.61879000  0.31891000  1.0
  C  C83  1  0.82931000  0.38121000  0.68109000  1.0
  C  C84  1  0.97880000  0.85378000  0.36302000  1.0
  C  C85  1  0.02120000  0.14622000  0.63698000  1.0
  C  C86  1  0.21878000  0.08628000  0.26290000  1.0
  C  C87  1  0.78122000  0.91372000  0.73710000  1.0
  C  C88  1  0.59216000  0.30126000  0.23498000  1.0
  C  C89  1  0.40784000  0.69875000  0.76502000  1.0
  C  C90  1  0.70701000  0.26565000  0.14537000  1.0
  C  C91  1  0.29299000  0.73435000  0.85463000  1.0
  C  C92  1  0.64054000  0.28375000  0.04787000  1.0
  C  C93  1  0.35946000  0.71625000  0.95213000  1.0
  C  C94  1  0.48162000  0.34095000  0.08357000  1.0
  C  C95  1  0.51838000  0.65905000  0.91642000  1.0
  C  C96  1  0.45348000  0.34832000  0.19455000  1.0
  C  C97  1  0.54651000  0.65169000  0.80545000  1.0
  C  C98  1  0.75805000  0.17730000  0.41164000  1.0
  C  C99  1  0.24194000  0.82270000  0.58835000  1.0
  C  C100  1  0.40235000  0.26204000  0.47484000  1.0
  C  C101  1  0.59764000  0.73796000  0.52515000  1.0
  C  C102  1  0.68856000  0.44944000  0.40280000  1.0
  C  C103  1  0.31144000  0.55056000  0.59721000  1.0
  C  C104  1  0.88059000  0.91174000  0.99655000  1.0
  C  C105  1  0.11941000  0.08826000  0.00345000  1.0
  C  C106  1  0.99151000  0.11227000  0.93739000  1.0
  C  C107  1  0.00848000  0.88773000  0.06261000  1.0
  O  O108  1  0.48969000  0.95118000  0.09888000  1.0
  O  O109  1  0.51031000  0.04883000  0.90112000  1.0
  O  O110  1  0.84477000  0.04002000  0.98777000  1.0
  O  O111  1  0.15523000  0.95997000  0.01223000  1.0
