# generated using pymatgen
data_ErH6(C2N3)3
_symmetry_space_group_name_H-M   'P 1'
_cell_length_a   9.23886000
_cell_length_b   9.23885000
_cell_length_c   12.58290000
_cell_angle_alpha   91.49440000
_cell_angle_beta   91.49460000
_cell_angle_gamma   119.03000000
_symmetry_Int_Tables_number   1
_chemical_formula_structural   ErH6(C2N3)3
_chemical_formula_sum   'Er4 H24 C24 N36'
_cell_volume   937.85457543
_cell_formula_units_Z   4
loop_
 _symmetry_equiv_pos_site_id
 _symmetry_equiv_pos_as_xyz
  1  'x, y, z'
loop_
 _atom_site_type_symbol
 _atom_site_label
 _atom_site_symmetry_multiplicity
 _atom_site_fract_x
 _atom_site_fract_y
 _atom_site_fract_z
 _atom_site_occupancy
  Er  Er0  1  0.74165000  0.47947000  0.57219000  1.0
  Er  Er1  1  0.52053000  0.25835000  0.92781000  1.0
  Er  Er2  1  0.25835000  0.52053000  0.42781000  1.0
  Er  Er3  1  0.47947000  0.74165000  0.07219000  1.0
  H  H4  1  0.70779000  0.77894000  0.76290000  1.0
  H  H5  1  0.22106000  0.29221000  0.73710000  1.0
  H  H6  1  0.29221000  0.22106000  0.23710000  1.0
  H  H7  1  0.77894000  0.70779000  0.26290000  1.0
  H  H8  1  0.46305000  0.86990000  0.72671000  1.0
  H  H9  1  0.13009000  0.53695000  0.77329000  1.0
  H  H10  1  0.53695000  0.13010000  0.27329000  1.0
  H  H11  1  0.86990000  0.46305000  0.22671000  1.0
  H  H12  1  0.74343000  0.09904000  0.66274000  1.0
  H  H13  1  0.90096000  0.25658000  0.83726000  1.0
  H  H14  1  0.25658000  0.90096000  0.33726000  1.0
  H  H15  1  0.09904000  0.74342000  0.16274000  1.0
  H  H16  1  0.98923000  0.02519000  0.59966000  1.0
  H  H17  1  0.97481000  0.01078000  0.90034000  1.0
  H  H18  1  0.01078000  0.97481000  0.40034000  1.0
  H  H19  1  0.02519000  0.98922000  0.09966000  1.0
  H  H20  1  0.10832000  0.84440000  0.83860000  1.0
  H  H21  1  0.15560000  0.89168000  0.66140000  1.0
  H  H22  1  0.89168000  0.15560000  0.16140000  1.0
  H  H23  1  0.84440000  0.10832000  0.33860000  1.0
  H  H24  1  0.91474000  0.63945000  0.99513000  1.0
  H  H25  1  0.36055000  0.08526000  0.50486000  1.0
  H  H26  1  0.08527000  0.36055000  0.00486000  1.0
  H  H27  1  0.63945000  0.91474000  0.49514000  1.0
  C  C28  1  0.60964000  0.73661000  0.70160000  1.0
  C  C29  1  0.26339000  0.39036000  0.79840000  1.0
  C  C30  1  0.39036000  0.26339000  0.29840000  1.0
  C  C31  1  0.73661000  0.60964000  0.20160000  1.0
  C  C32  1  0.48839000  0.78241000  0.68323000  1.0
  C  C33  1  0.21759000  0.51161000  0.81677000  1.0
  C  C34  1  0.51161000  0.21759000  0.31677000  1.0
  C  C35  1  0.78241000  0.48839000  0.18323000  1.0
  C  C36  1  0.85244000  0.16949000  0.61776000  1.0
  C  C37  1  0.83051000  0.14756000  0.88224000  1.0
  C  C38  1  0.14756000  0.83051000  0.38224000  1.0
  C  C39  1  0.16948000  0.85243000  0.11776000  1.0
  C  C40  1  0.97481000  0.13294000  0.58614000  1.0
  C  C41  1  0.86706000  0.02519000  0.91386000  1.0
  C  C42  1  0.02519000  0.86706000  0.41386000  1.0
  C  C43  1  0.13294000  0.97481000  0.08614000  1.0
  C  C44  1  0.99555000  0.72581000  0.83115000  1.0
  C  C45  1  0.27419000  0.00445000  0.66885000  1.0
  C  C46  1  0.00445000  0.27419000  0.16885000  1.0
  C  C47  1  0.72581000  0.99555000  0.33115000  1.0
  C  C48  1  0.90006000  0.62320000  0.90945000  1.0
  C  C49  1  0.37680000  0.09994000  0.59055000  1.0
  C  C50  1  0.09994000  0.37680000  0.09055000  1.0
  C  C51  1  0.62320000  0.90006000  0.40945000  1.0
  N  N52  1  0.58666000  0.61883000  0.62631000  1.0
  N  N53  1  0.38117000  0.41334000  0.87369000  1.0
  N  N54  1  0.41334000  0.38117000  0.37370000  1.0
  N  N55  1  0.61883000  0.58666000  0.12631000  1.0
  N  N56  1  0.45519000  0.59325000  0.56549000  1.0
  N  N57  1  0.40675000  0.54481000  0.93451000  1.0
  N  N58  1  0.54481000  0.40675000  0.43451000  1.0
  N  N59  1  0.59325000  0.45519000  0.06549000  1.0
  N  N60  1  0.39381000  0.69028000  0.59745000  1.0
  N  N61  1  0.30972000  0.60619000  0.90255000  1.0
  N  N62  1  0.60619000  0.30973000  0.40255000  1.0
  N  N63  1  0.69028000  0.39381000  0.09745000  1.0
  N  N64  1  0.88804000  0.31859000  0.57993000  1.0
  N  N65  1  0.68141000  0.11196000  0.92007000  1.0
  N  N66  1  0.11196000  0.68141000  0.42007000  1.0
  N  N67  1  0.31858000  0.88804000  0.07993000  1.0
  N  N68  1  0.02714000  0.37035000  0.52736000  1.0
  N  N69  1  0.62965000  0.97286000  0.97264000  1.0
  N  N70  1  0.97286000  0.62965000  0.47264000  1.0
  N  N71  1  0.37035000  0.02714000  0.02736000  1.0
  N  N72  1  0.08211000  0.26116000  0.52945000  1.0
  N  N73  1  0.73884000  0.91789000  0.97055000  1.0
  N  N74  1  0.91789000  0.73884000  0.47055000  1.0
  N  N75  1  0.26116000  0.08211000  0.02945000  1.0
  N  N76  1  0.92451000  0.64822000  0.73581000  1.0
  N  N77  1  0.35178000  0.07549000  0.76419000  1.0
  N  N78  1  0.07549000  0.35177000  0.26418000  1.0
  N  N79  1  0.64823000  0.92451000  0.23582000  1.0
  N  N80  1  0.79209000  0.50467000  0.75601000  1.0
  N  N81  1  0.49533000  0.20791000  0.74399000  1.0
  N  N82  1  0.20791000  0.49533000  0.24399000  1.0
  N  N83  1  0.50467000  0.79209000  0.25601000  1.0
  N  N84  1  0.77330000  0.48612000  0.86055000  1.0
  N  N85  1  0.51388000  0.22670000  0.63945000  1.0
  N  N86  1  0.22670000  0.51387000  0.13945000  1.0
  N  N87  1  0.48613000  0.77330000  0.36055000  1.0
