# generated using pymatgen
data_AgH8C14N2O3F5
_symmetry_space_group_name_H-M   'P 1'
_cell_length_a   8.79950000
_cell_length_b   9.58943000
_cell_length_c   10.17480000
_cell_angle_alpha   109.36700000
_cell_angle_beta   100.16800000
_cell_angle_gamma   107.49300000
_symmetry_Int_Tables_number   1
_chemical_formula_structural   AgH8C14N2O3F5
_chemical_formula_sum   'Ag2 H16 C28 N4 O6 F10'
_cell_volume   735.22875871
_cell_formula_units_Z   2
loop_
 _symmetry_equiv_pos_site_id
 _symmetry_equiv_pos_as_xyz
  1  'x, y, z'
loop_
 _atom_site_type_symbol
 _atom_site_label
 _atom_site_symmetry_multiplicity
 _atom_site_fract_x
 _atom_site_fract_y
 _atom_site_fract_z
 _atom_site_occupancy
  Ag  Ag0  1  0.34207000  0.49153000  0.30941000  1.0
  Ag  Ag1  1  0.65793000  0.50847000  0.69058000  1.0
  H  H2  1  0.27510000  0.46133000  0.60128000  1.0
  H  H3  1  0.72490000  0.53867000  0.39872000  1.0
  H  H4  1  0.74674000  0.19148000  0.50085000  1.0
  H  H5  1  0.25326000  0.80852000  0.49915000  1.0
  H  H6  1  0.71899000  0.13795000  0.23523000  1.0
  H  H7  1  0.28101000  0.86205000  0.76477000  1.0
  H  H8  1  0.97656000  0.25093000  0.17089000  1.0
  H  H9  1  0.02344000  0.74907000  0.82911000  1.0
  H  H10  1  0.13519000  0.48762000  0.02160000  1.0
  H  H11  1  0.86481000  0.51238000  0.97840000  1.0
  H  H12  1  0.24692000  0.20818000  0.64763000  1.0
  H  H13  1  0.75308000  0.79182000  0.35237000  1.0
  H  H14  1  0.46245000  0.18332000  0.82210000  1.0
  H  H15  1  0.53755000  0.81668000  0.17790000  1.0
  H  H16  1  0.49510000  0.30225000  0.09119000  1.0
  H  H17  1  0.50490000  0.69774000  0.90881000  1.0
  C  C18  1  0.15029000  0.38497000  0.52403000  1.0
  C  C19  1  0.84971000  0.61504000  0.47597000  1.0
  C  C20  1  0.01370000  0.32369000  0.56986000  1.0
  C  C21  1  0.98630000  0.67631000  0.43014000  1.0
  C  C22  1  0.85474000  0.23562000  0.46583000  1.0
  C  C23  1  0.14526000  0.76438000  0.53417000  1.0
  C  C24  1  0.83975000  0.20646000  0.31987000  1.0
  C  C25  1  0.16025000  0.79354000  0.68012000  1.0
  C  C26  1  0.98252000  0.27022000  0.28356000  1.0
  C  C27  1  0.01748000  0.72978000  0.71644000  1.0
  C  C28  1  0.03049000  0.36177000  0.72739000  1.0
  C  C29  1  0.96951000  0.63823000  0.27261000  1.0
  C  C30  1  0.20413000  0.41777000  0.97359000  1.0
  C  C31  1  0.79587000  0.58223000  0.02641000  1.0
  C  C32  1  0.17153000  0.34925000  0.82116000  1.0
  C  C33  1  0.82847000  0.65075000  0.17884000  1.0
  C  C34  1  0.26562000  0.26300000  0.76474000  1.0
  C  C35  1  0.73439000  0.73701000  0.23526000  1.0
  C  C36  1  0.38579000  0.24770000  0.86216000  1.0
  C  C37  1  0.61421000  0.75230000  0.13784000  1.0
  C  C38  1  0.40676000  0.31584000  0.01133000  1.0
  C  C39  1  0.59324000  0.68416000  0.98867000  1.0
  C  C40  1  0.56195000  0.78150000  0.60144000  1.0
  C  C41  1  0.43805000  0.21850000  0.39856000  1.0
  C  C42  1  0.68295000  0.96090000  0.69161000  1.0
  C  C43  1  0.31705000  0.03910000  0.30839000  1.0
  C  C44  1  0.74166000  0.01978000  0.86043000  1.0
  C  C45  1  0.25834000  0.98022000  0.13957000  1.0
  N  N46  1  0.13451000  0.36064000  0.38364000  1.0
  N  N47  1  0.86549000  0.63936000  0.61636000  1.0
  N  N48  1  0.31804000  0.40093000  0.06696000  1.0
  N  N49  1  0.68196000  0.59907000  0.93304000  1.0
  O  O50  1  0.92390000  0.40005000  0.77800000  1.0
  O  O51  1  0.07610000  0.59995000  0.22201000  1.0
  O  O52  1  0.54187000  0.73849000  0.46586000  1.0
  O  O53  1  0.45813000  0.26151000  0.53414000  1.0
  O  O54  1  0.49820000  0.70592000  0.67059000  1.0
  O  O55  1  0.50180000  0.29407000  0.32940000  1.0
  F  F56  1  0.60418000  0.05715000  0.66258000  1.0
  F  F57  1  0.39582000  0.94285000  0.33742000  1.0
  F  F58  1  0.82661000  0.99406000  0.65034000  1.0
  F  F59  1  0.17339000  0.00594000  0.34967000  1.0
  F  F60  1  0.61094000  0.00864000  0.91586000  1.0
  F  F61  1  0.38906000  0.99136000  0.08414000  1.0
  F  F62  1  0.82457000  0.93561000  0.90159000  1.0
  F  F63  1  0.17543000  0.06439000  0.09841000  1.0
  F  F64  1  0.84763000  0.17718000  0.92420000  1.0
  F  F65  1  0.15237000  0.82282000  0.07580000  1.0
