# generated using pymatgen
data_CoH3(C3O2)3
_symmetry_space_group_name_H-M   'P 1'
_cell_length_a   14.33660000
_cell_length_b   17.85520000
_cell_length_c   19.98060000
_cell_angle_alpha   88.25090000
_cell_angle_beta   89.99530000
_cell_angle_gamma   89.99970000
_symmetry_Int_Tables_number   1
_chemical_formula_structural   CoH3(C3O2)3
_chemical_formula_sum   'Co12 H36 C108 O72'
_cell_volume   5112.30803575
_cell_formula_units_Z   12
loop_
 _symmetry_equiv_pos_site_id
 _symmetry_equiv_pos_as_xyz
  1  'x, y, z'
loop_
 _atom_site_type_symbol
 _atom_site_label
 _atom_site_symmetry_multiplicity
 _atom_site_fract_x
 _atom_site_fract_y
 _atom_site_fract_z
 _atom_site_occupancy
  Co  Co0  1  0.05255000  0.24528000  0.08244000  1.0
  Co  Co1  1  0.19591000  0.20095000  0.95069000  1.0
  Co  Co2  1  0.19392000  0.70254000  0.91285000  1.0
  Co  Co3  1  0.55252000  0.25474000  0.41760000  1.0
  Co  Co4  1  0.69589000  0.29909000  0.54930000  1.0
  Co  Co5  1  0.69390000  0.79746000  0.58713000  1.0
  Co  Co6  1  0.94744000  0.75474000  0.91759000  1.0
  Co  Co7  1  0.80407000  0.79907000  0.04932000  1.0
  Co  Co8  1  0.80615000  0.29745000  0.08716000  1.0
  Co  Co9  1  0.44743000  0.74527000  0.58240000  1.0
  Co  Co10  1  0.30409000  0.70096000  0.45069000  1.0
  Co  Co11  1  0.30606000  0.20255000  0.41289000  1.0
  H  H12  1  0.14605000  0.47503000  0.90171000  1.0
  H  H13  1  0.99680000  0.19619000  0.93532000  1.0
  H  H14  1  0.00994000  0.96769000  0.87510000  1.0
  H  H15  1  0.80607000  0.03372000  0.02094000  1.0
  H  H16  1  0.57920000  0.29041000  0.21975000  1.0
  H  H17  1  0.43948000  0.27935000  0.02999000  1.0
  H  H18  1  0.28156000  0.25596000  0.21353000  1.0
  H  H19  1  0.86031000  0.54494000  0.92860000  1.0
  H  H20  1  0.93545000  0.31467000  0.96204000  1.0
  H  H21  1  0.64607000  0.02502000  0.59829000  1.0
  H  H22  1  0.49681000  0.30385000  0.56468000  1.0
  H  H23  1  0.50992000  0.53235000  0.62488000  1.0
  H  H24  1  0.30607000  0.46629000  0.47905000  1.0
  H  H25  1  0.07910000  0.20945000  0.28029000  1.0
  H  H26  1  0.93930000  0.22036000  0.47004000  1.0
  H  H27  1  0.78150000  0.24405000  0.28648000  1.0
  H  H28  1  0.36035000  0.95506000  0.57140000  1.0
  H  H29  1  0.43545000  0.18535000  0.53797000  1.0
  H  H30  1  0.85395000  0.52504000  0.09831000  1.0
  H  H31  1  0.00317000  0.80383000  0.06465000  1.0
  H  H32  1  0.99007000  0.03233000  0.12488000  1.0
  H  H33  1  0.19395000  0.96627000  0.97904000  1.0
  H  H34  1  0.42087000  0.70949000  0.78027000  1.0
  H  H35  1  0.56062000  0.72049000  0.97002000  1.0
  H  H36  1  0.71847000  0.74406000  0.78647000  1.0
  H  H37  1  0.13965000  0.45506000  0.07137000  1.0
  H  H38  1  0.06459000  0.68535000  0.03792000  1.0
  H  H39  1  0.35397000  0.97501000  0.40169000  1.0
  H  H40  1  0.50322000  0.69619000  0.43531000  1.0
  H  H41  1  0.49006000  0.46770000  0.37510000  1.0
  H  H42  1  0.69393000  0.53373000  0.52092000  1.0
  H  H43  1  0.92083000  0.79054000  0.71973000  1.0
  H  H44  1  0.06060000  0.77957000  0.52996000  1.0
  H  H45  1  0.21843000  0.75599000  0.71352000  1.0
  H  H46  1  0.63969000  0.04496000  0.42863000  1.0
  H  H47  1  0.56456000  0.81467000  0.46204000  1.0
  C  C48  1  0.26553000  0.25465000  0.07719000  1.0
  C  C49  1  0.11531000  0.32568000  0.93730000  1.0
  C  C50  1  0.04747000  0.38774000  0.93036000  1.0
  C  C51  1  0.07336000  0.46109000  0.91204000  1.0
  C  C52  1  0.00506000  0.51739000  0.91100000  1.0
  C  C53  1  0.03135000  0.59809000  0.90171000  1.0
  C  C54  1  0.86309000  0.18152000  0.02532000  1.0
  C  C55  1  0.89640000  0.12176000  0.98133000  1.0
  C  C56  1  0.96986000  0.13942000  0.93749000  1.0
  C  C57  1  0.01164000  0.08452000  0.89941000  1.0
  C  C58  1  0.97658000  0.01146000  0.90337000  1.0
  C  C59  1  0.90241000  0.99349000  0.94661000  1.0
  C  C60  1  0.86143000  0.04864000  0.98563000  1.0
  C  C61  1  0.87752000  0.91270000  0.95739000  1.0
  C  C62  1  0.10118000  0.09966000  0.86212000  1.0
  C  C63  1  0.42676000  0.26638000  0.29846000  1.0
  C  C64  1  0.42981000  0.27350000  0.22399000  1.0
  C  C65  1  0.51524000  0.28475000  0.19096000  1.0
  C  C66  1  0.51802000  0.28725000  0.12106000  1.0
  C  C67  1  0.43603000  0.27818000  0.08442000  1.0
  C  C68  1  0.35096000  0.26713000  0.11745000  1.0
  C  C69  1  0.34744000  0.26521000  0.18745000  1.0
  C  C70  1  0.60706000  0.29579000  0.08214000  1.0
  C  C71  1  0.91218000  0.50045000  0.92755000  1.0
  C  C72  1  0.88706000  0.42721000  0.94635000  1.0
  C  C73  1  0.95464000  0.37128000  0.94645000  1.0
  C  C74  1  0.79270000  0.41050000  0.97592000  1.0
  C  C75  1  0.76544000  0.24530000  0.42284000  1.0
  C  C76  1  0.61531000  0.17435000  0.56271000  1.0
  C  C77  1  0.54747000  0.11229000  0.56964000  1.0
  C  C78  1  0.57338000  0.03893000  0.58797000  1.0
  C  C79  1  0.50508000  0.98263000  0.58899000  1.0
  C  C80  1  0.53137000  0.90193000  0.59828000  1.0
  C  C81  1  0.36308000  0.31848000  0.47473000  1.0
  C  C82  1  0.39640000  0.37826000  0.51869000  1.0
  C  C83  1  0.46986000  0.36061000  0.56251000  1.0
  C  C84  1  0.51165000  0.41552000  0.60057000  1.0
  C  C85  1  0.47659000  0.48857000  0.59660000  1.0
  C  C86  1  0.40242000  0.50654000  0.55337000  1.0
  C  C87  1  0.36144000  0.45139000  0.51436000  1.0
  C  C88  1  0.37751000  0.58734000  0.54259000  1.0
  C  C89  1  0.60116000  0.40037000  0.63787000  1.0
  C  C90  1  0.92673000  0.23362000  0.20158000  1.0
  C  C91  1  0.92974000  0.22646000  0.27604000  1.0
  C  C92  1  0.01514000  0.21513000  0.30908000  1.0
  C  C93  1  0.01790000  0.21255000  0.37897000  1.0
  C  C94  1  0.93589000  0.22163000  0.41560000  1.0
  C  C95  1  0.85086000  0.23276000  0.38257000  1.0
  C  C96  1  0.84736000  0.23476000  0.31258000  1.0
  C  C97  1  0.10690000  0.20390000  0.41792000  1.0
  C  C98  1  0.41221000  0.99956000  0.57245000  1.0
  C  C99  1  0.38707000  0.07279000  0.55366000  1.0
  C  C100  1  0.45463000  0.12873000  0.55356000  1.0
  C  C101  1  0.29270000  0.08946000  0.52411000  1.0
  C  C102  1  0.73452000  0.74532000  0.92281000  1.0
  C  C103  1  0.88471000  0.67436000  0.06268000  1.0
  C  C104  1  0.95255000  0.61228000  0.06962000  1.0
  C  C105  1  0.92664000  0.53894000  0.08796000  1.0
  C  C106  1  0.99492000  0.48263000  0.08899000  1.0
  C  C107  1  0.96863000  0.40194000  0.09830000  1.0
  C  C108  1  0.13690000  0.81846000  0.97469000  1.0
  C  C109  1  0.10359000  0.87824000  0.01866000  1.0
  C  C110  1  0.03012000  0.86059000  0.06249000  1.0
  C  C111  1  0.98834000  0.91549000  0.10056000  1.0
  C  C112  1  0.02342000  0.98855000  0.09660000  1.0
  C  C113  1  0.09759000  0.00651000  0.05336000  1.0
  C  C114  1  0.13857000  0.95136000  0.01435000  1.0
  C  C115  1  0.12249000  0.08731000  0.04260000  1.0
  C  C116  1  0.89881000  0.90036000  0.13785000  1.0
  C  C117  1  0.57325000  0.73363000  0.70155000  1.0
  C  C118  1  0.57023000  0.72648000  0.77602000  1.0
  C  C119  1  0.48483000  0.71517000  0.80906000  1.0
  C  C120  1  0.48205000  0.71262000  0.87896000  1.0
  C  C121  1  0.56405000  0.72171000  0.91559000  1.0
  C  C122  1  0.64909000  0.73281000  0.88256000  1.0
  C  C123  1  0.65261000  0.73478000  0.81256000  1.0
  C  C124  1  0.39301000  0.70402000  0.91787000  1.0
  C  C125  1  0.08780000  0.49955000  0.07243000  1.0
  C  C126  1  0.11294000  0.57277000  0.05363000  1.0
  C  C127  1  0.04539000  0.62872000  0.05351000  1.0
  C  C128  1  0.20730000  0.58945000  0.02405000  1.0
  C  C129  1  0.23453000  0.75472000  0.57717000  1.0
  C  C130  1  0.38470000  0.82568000  0.43730000  1.0
  C  C131  1  0.45255000  0.88774000  0.43036000  1.0
  C  C132  1  0.42666000  0.96109000  0.41204000  1.0
  C  C133  1  0.49494000  0.01741000  0.41101000  1.0
  C  C134  1  0.46864000  0.09810000  0.40174000  1.0
  C  C135  1  0.63692000  0.68154000  0.52527000  1.0
  C  C136  1  0.60361000  0.62177000  0.48129000  1.0
  C  C137  1  0.53014000  0.63942000  0.43747000  1.0
  C  C138  1  0.48836000  0.58453000  0.39940000  1.0
  C  C139  1  0.52342000  0.51146000  0.40337000  1.0
  C  C140  1  0.59758000  0.49349000  0.44661000  1.0
  C  C141  1  0.63856000  0.54864000  0.48561000  1.0
  C  C142  1  0.62248000  0.41270000  0.45738000  1.0
  C  C143  1  0.39883000  0.59968000  0.36212000  1.0
  C  C144  1  0.07323000  0.76640000  0.79843000  1.0
  C  C145  1  0.07021000  0.77356000  0.72397000  1.0
  C  C146  1  0.98479000  0.78486000  0.69093000  1.0
  C  C147  1  0.98204000  0.78741000  0.62103000  1.0
  C  C148  1  0.06404000  0.77833000  0.58440000  1.0
  C  C149  1  0.14908000  0.76724000  0.61743000  1.0
  C  C150  1  0.15257000  0.76527000  0.68743000  1.0
  C  C151  1  0.89301000  0.79600000  0.58212000  1.0
  C  C152  1  0.58781000  0.00046000  0.42756000  1.0
  C  C153  1  0.61294000  0.92723000  0.44636000  1.0
  C  C154  1  0.54538000  0.87129000  0.44646000  1.0
  C  C155  1  0.70730000  0.91056000  0.47592000  1.0
  O  O156  1  0.18642000  0.25914000  0.10534000  1.0
  O  O157  1  0.27853000  0.23965000  0.01524000  1.0
  O  O158  1  0.09269000  0.26935000  0.97933000  1.0
  O  O159  1  0.18909000  0.31994000  0.90461000  1.0
  O  O160  1  0.96570000  0.64537000  0.90668000  1.0
  O  O161  1  0.11759000  0.61394000  0.89203000  1.0
  O  O162  1  0.92140000  0.23435000  0.04183000  1.0
  O  O163  1  0.78053000  0.18680000  0.04573000  1.0
  O  O164  1  0.81287000  0.89642000  0.99996000  1.0
  O  O165  1  0.92528000  0.86548000  0.92604000  1.0
  O  O166  1  0.14199000  0.16560000  0.87498000  1.0
  O  O167  1  0.13633000  0.05440000  0.82490000  1.0
  O  O168  1  0.34910000  0.25177000  0.32628000  1.0
  O  O169  1  0.50440000  0.27523000  0.32934000  1.0
  O  O170  1  0.68382000  0.30089000  0.11938000  1.0
  O  O171  1  0.60627000  0.29547000  0.02060000  1.0
  O  O172  1  0.78266000  0.34087000  0.00060000  1.0
  O  O173  1  0.73104000  0.45817000  0.97903000  1.0
  O  O174  1  0.68635000  0.24086000  0.39467000  1.0
  O  O175  1  0.77846000  0.26033000  0.48477000  1.0
  O  O176  1  0.59269000  0.23070000  0.52069000  1.0
  O  O177  1  0.68908000  0.18012000  0.59539000  1.0
  O  O178  1  0.46575000  0.85464000  0.59330000  1.0
  O  O179  1  0.61762000  0.88609000  0.60796000  1.0
  O  O180  1  0.42138000  0.26567000  0.45820000  1.0
  O  O181  1  0.28050000  0.31315000  0.45436000  1.0
  O  O182  1  0.31287000  0.60360000  0.50003000  1.0
  O  O183  1  0.42524000  0.63456000  0.57394000  1.0
  O  O184  1  0.64198000  0.33444000  0.62500000  1.0
  O  O185  1  0.63629000  0.44562000  0.67510000  1.0
  O  O186  1  0.84909000  0.24831000  0.17379000  1.0
  O  O187  1  0.00435000  0.22473000  0.17067000  1.0
  O  O188  1  0.18373000  0.19901000  0.38071000  1.0
  O  O189  1  0.10602000  0.20395000  0.47947000  1.0
  O  O190  1  0.28258000  0.15910000  0.49945000  1.0
  O  O191  1  0.23111000  0.04174000  0.52102000  1.0
  O  O192  1  0.81362000  0.74087000  0.89462000  1.0
  O  O193  1  0.72155000  0.76033000  0.98475000  1.0
  O  O194  1  0.90732000  0.73070000  0.02065000  1.0
  O  O195  1  0.81094000  0.68011000  0.09537000  1.0
  O  O196  1  0.03426000  0.35465000  0.09336000  1.0
  O  O197  1  0.88239000  0.38610000  0.10797000  1.0
  O  O198  1  0.07860000  0.76564000  0.95817000  1.0
  O  O199  1  0.21948000  0.81315000  0.95432000  1.0
  O  O200  1  0.18715000  0.10357000  0.00002000  1.0
  O  O201  1  0.07477000  0.13453000  0.07395000  1.0
  O  O202  1  0.85801000  0.83441000  0.12501000  1.0
  O  O203  1  0.86364000  0.94564000  0.17505000  1.0
  O  O204  1  0.65092000  0.74830000  0.67376000  1.0
  O  O205  1  0.49564000  0.72476000  0.67064000  1.0
  O  O206  1  0.31623000  0.69910000  0.88062000  1.0
  O  O207  1  0.39382000  0.70417000  0.97941000  1.0
  O  O208  1  0.21740000  0.65908000  0.99939000  1.0
  O  O209  1  0.26890000  0.54174000  0.02094000  1.0
  O  O210  1  0.31362000  0.75919000  0.60534000  1.0
  O  O211  1  0.22154000  0.73969000  0.51524000  1.0
  O  O212  1  0.40731000  0.76933000  0.47933000  1.0
  O  O213  1  0.31093000  0.81992000  0.40461000  1.0
  O  O214  1  0.53429000  0.14538000  0.40672000  1.0
  O  O215  1  0.38240000  0.11396000  0.39207000  1.0
  O  O216  1  0.57859000  0.73434000  0.54181000  1.0
  O  O217  1  0.71950000  0.68685000  0.54564000  1.0
  O  O218  1  0.68713000  0.39643000  0.49995000  1.0
  O  O219  1  0.57474000  0.36549000  0.42604000  1.0
  O  O220  1  0.35803000  0.66562000  0.37499000  1.0
  O  O221  1  0.36368000  0.55441000  0.32491000  1.0
  O  O222  1  0.15088000  0.75173000  0.82623000  1.0
  O  O223  1  0.99558000  0.77526000  0.82933000  1.0
  O  O224  1  0.81621000  0.80094000  0.61937000  1.0
  O  O225  1  0.89384000  0.79586000  0.52058000  1.0
  O  O226  1  0.71739000  0.84091000  0.50057000  1.0
  O  O227  1  0.76890000  0.95826000  0.47904000  1.0
