# generated using pymatgen
data_Zn4H30C30N6O13
_symmetry_space_group_name_H-M   'P 1'
_cell_length_a   15.39770000
_cell_length_b   15.65540000
_cell_length_c   17.11200000
_cell_angle_alpha   64.25580000
_cell_angle_beta   63.58770000
_cell_angle_gamma   62.14670000
_symmetry_Int_Tables_number   1
_chemical_formula_structural   Zn4H30C30N6O13
_chemical_formula_sum   'Zn8 H60 C60 N12 O26'
_cell_volume   3129.87650643
_cell_formula_units_Z   2
loop_
 _symmetry_equiv_pos_site_id
 _symmetry_equiv_pos_as_xyz
  1  'x, y, z'
loop_
 _atom_site_type_symbol
 _atom_site_label
 _atom_site_symmetry_multiplicity
 _atom_site_fract_x
 _atom_site_fract_y
 _atom_site_fract_z
 _atom_site_occupancy
  Zn  Zn0  1  0.02751000  0.02996000  0.08078000  1.0
  Zn  Zn1  1  0.83186000  0.02974000  0.04330000  1.0
  Zn  Zn2  1  0.03406000  0.82531000  0.05445000  1.0
  Zn  Zn3  1  0.03436000  0.02001000  0.90393000  1.0
  Zn  Zn4  1  0.39448000  0.40785000  0.51990000  1.0
  Zn  Zn5  1  0.61638000  0.39900000  0.48072000  1.0
  Zn  Zn6  1  0.43636000  0.40729000  0.68021000  1.0
  Zn  Zn7  1  0.41520000  0.60335000  0.50129000  1.0
  H  H8  1  0.96996000  0.85181000  0.30129000  1.0
  H  H9  1  0.88801000  0.94313000  0.34683000  1.0
  H  H10  1  0.77406000  0.83268000  0.43715000  1.0
  H  H11  1  0.85696000  0.76860000  0.35309000  1.0
  H  H12  1  0.81262000  0.93192000  0.23305000  1.0
  H  H13  1  0.65952000  0.91712000  0.25306000  1.0
  H  H14  1  0.63847000  0.86004000  0.36394000  1.0
  H  H15  1  0.58774000  0.95913000  0.44591000  1.0
  H  H16  1  0.50740000  0.10962000  0.50278000  1.0
  H  H17  1  0.72488000  0.24323000  0.27778000  1.0
  H  H18  1  0.39433000  0.93929000  0.94815000  1.0
  H  H19  1  0.42588000  0.85769000  0.03927000  1.0
  H  H20  1  0.53677000  0.73179000  0.94964000  1.0
  H  H21  1  0.47285000  0.82034000  0.86791000  1.0
  H  H22  1  0.30541000  0.80861000  0.97831000  1.0
  H  H23  1  0.34237000  0.64059000  0.98343000  1.0
  H  H24  1  0.46592000  0.61156000  0.96399000  1.0
  H  H25  1  0.51130000  0.59417000  0.07634000  1.0
  H  H26  1  0.49263000  0.52315000  0.24109000  1.0
  H  H27  1  0.20079000  0.75975000  0.29771000  1.0
  H  H28  1  0.73169000  0.43508000  0.00983000  1.0
  H  H29  1  0.79014000  0.51464000  0.93290000  1.0
  H  H30  1  0.74027000  0.51780000  0.81652000  1.0
  H  H31  1  0.67554000  0.43318000  0.89886000  1.0
  H  H32  1  0.83456000  0.30007000  0.92176000  1.0
  H  H33  1  0.89261000  0.26987000  0.78059000  1.0
  H  H34  1  0.83856000  0.38886000  0.72994000  1.0
  H  H35  1  0.89203000  0.52715000  0.73478000  1.0
  H  H36  1  0.06550000  0.54183000  0.66051000  1.0
  H  H37  1  0.18301000  0.26321000  0.85203000  1.0
  H  H38  1  0.91488000  0.63577000  0.90309000  1.0
  H  H39  1  0.93228000  0.71802000  0.92459000  1.0
  H  H40  1  0.73192000  0.72073000  0.94111000  1.0
  H  H41  1  0.79257000  0.80743000  0.85194000  1.0
  H  H42  1  0.79117000  0.86570000  0.96629000  1.0
  H  H43  1  0.61578000  0.96870000  0.98556000  1.0
  H  H44  1  0.59021000  0.89436000  0.95983000  1.0
  H  H45  1  0.58769000  0.74512000  0.07634000  1.0
  H  H46  1  0.53848000  0.65221000  0.23838000  1.0
  H  H47  1  0.77960000  0.68623000  0.27407000  1.0
  H  H48  1  0.85013000  0.92274000  0.49166000  1.0
  H  H49  1  0.79474000  0.04615000  0.46783000  1.0
  H  H50  1  0.73955000  0.89800000  0.64444000  1.0
  H  H51  1  0.65888000  0.97250000  0.57390000  1.0
  H  H52  1  0.64456000  0.12764000  0.58762000  1.0
  H  H53  1  0.52612000  0.10702000  0.73015000  1.0
  H  H54  1  0.58986000  0.98887000  0.76858000  1.0
  H  H55  1  0.84208000  0.90970000  0.68537000  1.0
  H  H56  1  0.92485000  0.90991000  0.78084000  1.0
  H  H57  1  0.71895000  0.21149000  0.78655000  1.0
  H  H58  1  0.53206000  0.76210000  0.45535000  1.0
  H  H59  1  0.47587000  0.83899000  0.51883000  1.0
  H  H60  1  0.63690000  0.77668000  0.55536000  1.0
  H  H61  1  0.68540000  0.68753000  0.49658000  1.0
  H  H62  1  0.55756000  0.60901000  0.60323000  1.0
  H  H63  1  0.61949000  0.53772000  0.72646000  1.0
  H  H64  1  0.64459000  0.63631000  0.70826000  1.0
  H  H65  1  0.51756000  0.82589000  0.67447000  1.0
  H  H66  1  0.35368000  0.90728000  0.77824000  1.0
  H  H67  1  0.22759000  0.69355000  0.81582000  1.0
  C  C68  1  0.82514000  0.84185000  0.36630000  1.0
  C  C69  1  0.75818000  0.91826000  0.30225000  1.0
  C  C70  1  0.70082000  0.01614000  0.32880000  1.0
  C  C71  1  0.61737000  0.02177000  0.40871000  1.0
  C  C72  1  0.57228000  0.10531000  0.44072000  1.0
  C  C73  1  0.61323000  0.18383000  0.39530000  1.0
  C  C74  1  0.69462000  0.18115000  0.31379000  1.0
  C  C75  1  0.73506000  0.09965000  0.27928000  1.0
  C  C76  1  0.81373000  0.09835000  0.18731000  1.0
  C  C77  1  0.57020000  0.26837000  0.43488000  1.0
  C  C78  1  0.46404000  0.79328000  0.94104000  1.0
  C  C79  1  0.37642000  0.74806000  0.99177000  1.0
  C  C80  1  0.36155000  0.71120000  0.09343000  1.0
  C  C81  1  0.44158000  0.62930000  0.12473000  1.0
  C  C82  1  0.43276000  0.59030000  0.21656000  1.0
  C  C83  1  0.34739000  0.63914000  0.27878000  1.0
  C  C84  1  0.26818000  0.72310000  0.24898000  1.0
  C  C85  1  0.27292000  0.75567000  0.15717000  1.0
  C  C86  1  0.17635000  0.82747000  0.13045000  1.0
  C  C87  1  0.34818000  0.59401000  0.37526000  1.0
  C  C88  1  0.74243000  0.45477000  0.87958000  1.0
  C  C89  1  0.83889000  0.36308000  0.85880000  1.0
  C  C90  1  0.94009000  0.38042000  0.82891000  1.0
  C  C91  1  0.95550000  0.46825000  0.76075000  1.0
  C  C92  1  0.05241000  0.47805000  0.71948000  1.0
  C  C93  1  0.13496000  0.40394000  0.75213000  1.0
  C  C94  1  0.11897000  0.32128000  0.82662000  1.0
  C  C95  1  0.02404000  0.30699000  0.86123000  1.0
  C  C96  1  0.02549000  0.20155000  0.91499000  1.0
  C  C97  1  0.24195000  0.40407000  0.69847000  1.0
  C  C98  1  0.78447000  0.76029000  0.92337000  1.0
  C  C99  1  0.73347000  0.83323000  0.98163000  1.0
  C  C100  1  0.70664000  0.77598000  0.08276000  1.0
  C  C101  1  0.62919000  0.73385000  0.11967000  1.0
  C  C102  1  0.60246000  0.67966000  0.21068000  1.0
  C  C103  1  0.65815000  0.65907000  0.26678000  1.0
  C  C104  1  0.73770000  0.69770000  0.23122000  1.0
  C  C105  1  0.75831000  0.75972000  0.14095000  1.0
  C  C106  1  0.82841000  0.81767000  0.11037000  1.0
  C  C107  1  0.62187000  0.59907000  0.36380000  1.0
  C  C108  1  0.71896000  0.97135000  0.59342000  1.0
  C  C109  1  0.66766000  0.05556000  0.63907000  1.0
  C  C110  1  0.73490000  0.06119000  0.67907000  1.0
  C  C111  1  0.81506000  0.97625000  0.70684000  1.0
  C  C112  1  0.86119000  0.97566000  0.76083000  1.0
  C  C113  1  0.82250000  0.05816000  0.79394000  1.0
  C  C114  1  0.74548000  0.14553000  0.76415000  1.0
  C  C115  1  0.70714000  0.14855000  0.70262000  1.0
  C  C116  1  0.63771000  0.24794000  0.66040000  1.0
  C  C117  1  0.86492000  0.05076000  0.85980000  1.0
  C  C118  1  0.61394000  0.73232000  0.53718000  1.0
  C  C119  1  0.56831000  0.65966000  0.62435000  1.0
  C  C120  1  0.46505000  0.71515000  0.68206000  1.0
  C  C121  1  0.45399000  0.79704000  0.70388000  1.0
  C  C122  1  0.36298000  0.84235000  0.76293000  1.0
  C  C123  1  0.28331000  0.80182000  0.80676000  1.0
  C  C124  1  0.29125000  0.72245000  0.78396000  1.0
  C  C125  1  0.37980000  0.68300000  0.71891000  1.0
  C  C126  1  0.38354000  0.61040000  0.68156000  1.0
  C  C127  1  0.19212000  0.84449000  0.87717000  1.0
  N  N128  1  0.90978000  0.86743000  0.35743000  1.0
  N  N129  1  0.69487000  0.87241000  0.30248000  1.0
  N  N130  1  0.45065000  0.87533000  0.96972000  1.0
  N  N131  1  0.40055000  0.66977000  0.95275000  1.0
  N  N132  1  0.72995000  0.49191000  0.95032000  1.0
  N  N133  1  0.83216000  0.33411000  0.79106000  1.0
  N  N134  1  0.88068000  0.68451000  0.94135000  1.0
  N  N135  1  0.64779000  0.91692000  0.95073000  1.0
  N  N136  1  0.81228000  0.98182000  0.51898000  1.0
  N  N137  1  0.57161000  0.04216000  0.71128000  1.0
  N  N138  1  0.54569000  0.80139000  0.48086000  1.0
  N  N139  1  0.64341000  0.59530000  0.67591000  1.0
  O  O140  1  0.97743000  0.97067000  0.03678000  1.0
  O  O141  1  0.78004000  0.11325000  0.12462000  1.0
  O  O142  1  0.90631000  0.08078000  0.17964000  1.0
  O  O143  1  0.62311000  0.32506000  0.40625000  1.0
  O  O144  1  0.48222000  0.27741000  0.49692000  1.0
  O  O145  1  0.13007000  0.78323000  0.12292000  1.0
  O  O146  1  0.14815000  0.92153000  0.12030000  1.0
  O  O147  1  0.33229000  0.65033000  0.42001000  1.0
  O  O148  1  0.37136000  0.49851000  0.40322000  1.0
  O  O149  1  0.00400000  0.16268000  0.87649000  1.0
  O  O150  1  0.05315000  0.15653000  0.98673000  1.0
  O  O151  1  0.30663000  0.37561000  0.73973000  1.0
  O  O152  1  0.26037000  0.43031000  0.61222000  1.0
  O  O153  1  0.78475000  0.91348000  0.09036000  1.0
  O  O154  1  0.92314000  0.76901000  0.10726000  1.0
  O  O155  1  0.67360000  0.50550000  0.38842000  1.0
  O  O156  1  0.53640000  0.64645000  0.41340000  1.0
  O  O157  1  0.54882000  0.28488000  0.71284000  1.0
  O  O158  1  0.67563000  0.28754000  0.57577000  1.0
  O  O159  1  0.96132000  0.99994000  0.84853000  1.0
  O  O160  1  0.80484000  0.09251000  0.92408000  1.0
  O  O161  1  0.41185000  0.51700000  0.72374000  1.0
  O  O162  1  0.35843000  0.65130000  0.60825000  1.0
  O  O163  1  0.17719000  0.93415000  0.87323000  1.0
  O  O164  1  0.13547000  0.79169000  0.93723000  1.0
  O  O165  1  0.47161000  0.45716000  0.54709000  1.0
