# generated using pymatgen
data_Zn2H11C16N2ClO5
_symmetry_space_group_name_H-M   'P 1'
_cell_length_a   10.18230000
_cell_length_b   12.77040000
_cell_length_c   13.04680000
_cell_angle_alpha   89.99980000
_cell_angle_beta   106.05900000
_cell_angle_gamma   89.99980000
_symmetry_Int_Tables_number   1
_chemical_formula_structural   Zn2H11C16N2ClO5
_chemical_formula_sum   'Zn8 H44 C64 N8 Cl4 O20'
_cell_volume   1630.30006467
_cell_formula_units_Z   4
loop_
 _symmetry_equiv_pos_site_id
 _symmetry_equiv_pos_as_xyz
  1  'x, y, z'
loop_
 _atom_site_type_symbol
 _atom_site_label
 _atom_site_symmetry_multiplicity
 _atom_site_fract_x
 _atom_site_fract_y
 _atom_site_fract_z
 _atom_site_occupancy
  Zn  Zn0  1  0.90491000  0.16137000  0.24659000  1.0
  Zn  Zn1  1  0.59509000  0.66137000  0.25341000  1.0
  Zn  Zn2  1  0.09509000  0.83863000  0.75341000  1.0
  Zn  Zn3  1  0.40491000  0.33863000  0.74659000  1.0
  Zn  Zn4  1  0.65814000  0.31465000  0.06431000  1.0
  Zn  Zn5  1  0.84186000  0.81465000  0.43569000  1.0
  Zn  Zn6  1  0.34186000  0.68535000  0.93569000  1.0
  Zn  Zn7  1  0.15814000  0.18535000  0.56431000  1.0
  H  H8  1  0.90019000  0.40235000  0.28939000  1.0
  H  H9  1  0.59980000  0.90236000  0.21061000  1.0
  H  H10  1  0.09981000  0.59765000  0.71061000  1.0
  H  H11  1  0.40020000  0.09764000  0.78939000  1.0
  H  H12  1  0.94144000  0.06564000  0.79876000  1.0
  H  H13  1  0.55856000  0.56564000  0.70124000  1.0
  H  H14  1  0.05856000  0.93436000  0.20124000  1.0
  H  H15  1  0.44144000  0.43435000  0.29876000  1.0
  H  H16  1  0.92938000  0.60212000  0.82241000  1.0
  H  H17  1  0.57062000  0.10212000  0.67758000  1.0
  H  H18  1  0.07062000  0.39788000  0.17758000  1.0
  H  H19  1  0.42938000  0.89788000  0.32241000  1.0
  H  H20  1  0.00760000  0.24269000  0.73507000  1.0
  H  H21  1  0.49240000  0.74269000  0.76493000  1.0
  H  H22  1  0.99240000  0.75731000  0.26493000  1.0
  H  H23  1  0.50760000  0.25731000  0.23507000  1.0
  H  H24  1  0.67736000  0.56199000  0.03636000  1.0
  H  H25  1  0.82264000  0.06199000  0.46364000  1.0
  H  H26  1  0.32264000  0.43801000  0.96364000  1.0
  H  H27  1  0.17736000  0.93801000  0.53636000  1.0
  H  H28  1  0.79607000  0.68066000  0.93446000  1.0
  H  H29  1  0.70393000  0.18067000  0.56554000  1.0
  H  H30  1  0.20393000  0.31934000  0.06554000  1.0
  H  H31  1  0.29607000  0.81933000  0.43446000  1.0
  H  H32  1  0.81339000  0.96905000  0.90476000  1.0
  H  H33  1  0.68661000  0.46905000  0.59524000  1.0
  H  H34  1  0.18661000  0.03095000  0.09524000  1.0
  H  H35  1  0.31339000  0.53095000  0.40476000  1.0
  H  H36  1  0.00538000  0.43454000  0.74461000  1.0
  H  H37  1  0.49462000  0.93454000  0.75539000  1.0
  H  H38  1  0.99462000  0.56546000  0.25539000  1.0
  H  H39  1  0.50538000  0.06546000  0.24461000  1.0
  H  H40  1  0.68879000  0.07170000  0.01538000  1.0
  H  H41  1  0.81121000  0.57170000  0.48462000  1.0
  H  H42  1  0.31121000  0.92830000  0.98462000  1.0
  H  H43  1  0.18879000  0.42830000  0.51538000  1.0
  H  H44  1  0.70610000  0.28253000  0.38900000  1.0
  H  H45  1  0.79389000  0.78253000  0.11100000  1.0
  H  H46  1  0.29390000  0.71747000  0.61100000  1.0
  H  H47  1  0.20611000  0.21747000  0.88900000  1.0
  H  H48  1  0.79319000  0.39900000  0.44561000  1.0
  H  H49  1  0.70681000  0.89900000  0.05439000  1.0
  H  H50  1  0.20682000  0.60100000  0.55439000  1.0
  H  H51  1  0.29319000  0.10100000  0.94561000  1.0
  C  C52  1  0.89141000  0.21879000  0.85056000  1.0
  C  C53  1  0.60859000  0.71879000  0.64944000  1.0
  C  C54  1  0.10859000  0.78121000  0.14944000  1.0
  C  C55  1  0.39141000  0.28121000  0.35056000  1.0
  C  C56  1  0.69308000  0.45126000  0.24185000  1.0
  C  C57  1  0.80691000  0.95126000  0.25815000  1.0
  C  C58  1  0.30692000  0.54874000  0.75815000  1.0
  C  C59  1  0.19309000  0.04874000  0.74186000  1.0
  C  C60  1  0.82080000  0.26896000  0.91654000  1.0
  C  C61  1  0.67920000  0.76896000  0.58346000  1.0
  C  C62  1  0.17920000  0.73104000  0.08346000  1.0
  C  C63  1  0.32080000  0.23104000  0.41654000  1.0
  C  C64  1  0.88651000  0.44146000  0.86017000  1.0
  C  C65  1  0.61349000  0.94146000  0.63983000  1.0
  C  C66  1  0.11349000  0.55854000  0.13983000  1.0
  C  C67  1  0.38651000  0.05854000  0.36017000  1.0
  C  C68  1  0.81835000  0.38158000  0.92150000  1.0
  C  C69  1  0.68166000  0.88158000  0.57850000  1.0
  C  C70  1  0.18166000  0.61842000  0.07849000  1.0
  C  C71  1  0.31834000  0.11842000  0.42150000  1.0
  C  C72  1  0.79983000  0.36452000  0.28302000  1.0
  C  C73  1  0.70016000  0.86452000  0.21698000  1.0
  C  C74  1  0.20017000  0.63548000  0.71698000  1.0
  C  C75  1  0.29984000  0.13548000  0.78302000  1.0
  C  C76  1  0.88863000  0.10823000  0.84804000  1.0
  C  C77  1  0.61137000  0.60823000  0.65196000  1.0
  C  C78  1  0.11137000  0.89177000  0.15196000  1.0
  C  C79  1  0.38863000  0.39177000  0.34805000  1.0
  C  C80  1  0.92152000  0.26584000  0.45204000  1.0
  C  C81  1  0.57848000  0.76584000  0.04796000  1.0
  C  C82  1  0.07848000  0.73416000  0.54796000  1.0
  C  C83  1  0.42152000  0.23416000  0.95204000  1.0
  C  C84  1  0.87871000  0.55150000  0.86712000  1.0
  C  C85  1  0.62129000  0.05151000  0.63288000  1.0
  C  C86  1  0.12129000  0.44850000  0.13288000  1.0
  C  C87  1  0.37871000  0.94850000  0.36712000  1.0
  C  C88  1  0.95774000  0.28143000  0.78860000  1.0
  C  C89  1  0.54227000  0.78143000  0.71140000  1.0
  C  C90  1  0.04227000  0.71857000  0.21140000  1.0
  C  C91  1  0.45773000  0.21857000  0.28860000  1.0
  C  C92  1  0.73883000  0.53042000  0.98722000  1.0
  C  C93  1  0.76117000  0.03042000  0.51278000  1.0
  C  C94  1  0.26117000  0.46958000  0.01278000  1.0
  C  C95  1  0.23883000  0.96958000  0.48722000  1.0
  C  C96  1  0.80430000  0.59582000  0.93008000  1.0
  C  C97  1  0.69570000  0.09582000  0.56991000  1.0
  C  C98  1  0.19570000  0.40418000  0.06991000  1.0
  C  C99  1  0.30430000  0.90418000  0.43009000  1.0
  C  C100  1  0.81638000  0.05430000  0.90675000  1.0
  C  C101  1  0.68362000  0.55430000  0.59325000  1.0
  C  C102  1  0.18362000  0.94570000  0.09325000  1.0
  C  C103  1  0.31638000  0.44570000  0.40675000  1.0
  C  C104  1  0.95568000  0.38833000  0.79352000  1.0
  C  C105  1  0.54432000  0.88833000  0.70648000  1.0
  C  C106  1  0.04432000  0.61167000  0.20648000  1.0
  C  C107  1  0.45568000  0.11167000  0.29352000  1.0
  C  C108  1  0.74719000  0.11082000  0.96803000  1.0
  C  C109  1  0.75281000  0.61082000  0.53197000  1.0
  C  C110  1  0.25281000  0.88918000  0.03197000  1.0
  C  C111  1  0.24719000  0.38918000  0.46803000  1.0
  C  C112  1  0.79819000  0.33047000  0.39647000  1.0
  C  C113  1  0.70180000  0.83048000  0.10353000  1.0
  C  C114  1  0.20181000  0.66953000  0.60353000  1.0
  C  C115  1  0.29820000  0.16952000  0.89647000  1.0
  N  N116  1  0.74706000  0.42631000  0.98379000  1.0
  N  N117  1  0.75294000  0.92631000  0.51621000  1.0
  N  N118  1  0.25294000  0.57369000  0.01621000  1.0
  N  N119  1  0.24706000  0.07369000  0.48379000  1.0
  N  N120  1  0.75072000  0.21499000  0.97359000  1.0
  N  N121  1  0.74928000  0.71499000  0.52641000  1.0
  N  N122  1  0.24928000  0.78501000  0.02641000  1.0
  N  N123  1  0.25072000  0.28501000  0.47359000  1.0
  Cl  Cl124  1  0.07953000  0.17850000  0.17863000  1.0
  Cl  Cl125  1  0.42047000  0.67850000  0.32136000  1.0
  Cl  Cl126  1  0.92047000  0.82150000  0.82137000  1.0
  Cl  Cl127  1  0.57953000  0.32150000  0.67863000  1.0
  O  O128  1  0.59997000  0.43693000  0.15618000  1.0
  O  O129  1  0.90002000  0.93693000  0.34382000  1.0
  O  O130  1  0.40003000  0.56307000  0.84382000  1.0
  O  O131  1  0.09998000  0.06307000  0.65618000  1.0
  O  O132  1  0.77682000  0.28042000  0.21138000  1.0
  O  O133  1  0.72318000  0.78042000  0.28862000  1.0
  O  O134  1  0.22318000  0.71958000  0.78862000  1.0
  O  O135  1  0.27682000  0.21958000  0.71138000  1.0
  O  O136  1  0.70884000  0.53472000  0.29820000  1.0
  O  O137  1  0.79116000  0.03472000  0.20180000  1.0
  O  O138  1  0.29116000  0.46528000  0.70180000  1.0
  O  O139  1  0.20884000  0.96527000  0.79820000  1.0
  O  O140  1  0.99156000  0.28993000  0.54535000  1.0
  O  O141  1  0.50844000  0.78994000  0.95465000  1.0
  O  O142  1  0.00844000  0.71007000  0.45465000  1.0
  O  O143  1  0.49156000  0.21006000  0.04535000  1.0
  O  O144  1  0.95619000  0.18559000  0.40532000  1.0
  O  O145  1  0.54381000  0.68559000  0.09468000  1.0
  O  O146  1  0.04381000  0.81441000  0.59468000  1.0
  O  O147  1  0.45619000  0.31441000  0.90532000  1.0
