# generated using pymatgen
data_ZnH16C26(NO)4
_symmetry_space_group_name_H-M   'P 1'
_cell_length_a   18.36330000
_cell_length_b   22.78421952
_cell_length_c   22.78428705
_cell_angle_alpha   63.21900893
_cell_angle_beta   66.25408588
_cell_angle_gamma   66.25390040
_symmetry_Int_Tables_number   1
_chemical_formula_structural   ZnH16C26(NO)4
_chemical_formula_sum   'Zn4 H64 C104 N16 O16'
_cell_volume   7498.84041880
_cell_formula_units_Z   4
loop_
 _symmetry_equiv_pos_site_id
 _symmetry_equiv_pos_as_xyz
  1  'x, y, z'
loop_
 _atom_site_type_symbol
 _atom_site_label
 _atom_site_symmetry_multiplicity
 _atom_site_fract_x
 _atom_site_fract_y
 _atom_site_fract_z
 _atom_site_occupancy
  Zn  Zn0  1  0.01430000  0.03266000  0.53266000  1.0
  Zn  Zn1  1  0.57960000  0.46732000  0.96732000  1.0
  Zn  Zn2  1  0.42040000  0.53268000  0.03268000  1.0
  Zn  Zn3  1  0.98570000  0.96734000  0.46734000  1.0
  H  H4  1  0.78427000  0.87893000  0.62791000  1.0
  H  H5  1  0.29094000  0.62121000  0.87211000  1.0
  H  H6  1  0.70907000  0.62789000  0.87878000  1.0
  H  H7  1  0.21572000  0.87209000  0.62107000  1.0
  H  H8  1  0.21572000  0.12107000  0.37209000  1.0
  H  H9  1  0.70906000  0.37879000  0.12789000  1.0
  H  H10  1  0.29094000  0.37211000  0.12121000  1.0
  H  H11  1  0.78428000  0.12791000  0.37893000  1.0
  H  H12  1  0.74931000  0.91855000  0.83622000  1.0
  H  H13  1  0.50368000  0.58124000  0.66393000  1.0
  H  H14  1  0.49632000  0.83607000  0.91876000  1.0
  H  H15  1  0.25070000  0.66378000  0.58145000  1.0
  H  H16  1  0.25069000  0.08145000  0.16378000  1.0
  H  H17  1  0.49631000  0.41877000  0.33607000  1.0
  H  H18  1  0.50368000  0.16393000  0.08124000  1.0
  H  H19  1  0.74931000  0.33622000  0.41855000  1.0
  H  H20  1  0.85316000  0.96121000  0.72778000  1.0
  H  H21  1  0.54180000  0.53870000  0.77233000  1.0
  H  H22  1  0.45821000  0.72766000  0.96130000  1.0
  H  H23  1  0.14684000  0.77222000  0.53879000  1.0
  H  H24  1  0.14684000  0.03879000  0.27222000  1.0
  H  H25  1  0.45820000  0.46130000  0.22767000  1.0
  H  H26  1  0.54180000  0.27233000  0.03870000  1.0
  H  H27  1  0.85316000  0.22778000  0.46121000  1.0
  H  H28  1  0.67863000  0.83698000  0.73551000  1.0
  H  H29  1  0.25091000  0.66302000  0.76454000  1.0
  H  H30  1  0.74910000  0.73546000  0.83697000  1.0
  H  H31  1  0.32137000  0.76449000  0.66302000  1.0
  H  H32  1  0.32137000  0.16302000  0.26449000  1.0
  H  H33  1  0.74910000  0.33697000  0.23546000  1.0
  H  H34  1  0.25090000  0.26454000  0.16302000  1.0
  H  H35  1  0.67863000  0.23551000  0.33698000  1.0
  H  H36  1  0.55017000  0.88279000  0.06068000  1.0
  H  H37  1  0.49335000  0.61729000  0.43936000  1.0
  H  H38  1  0.50666000  0.06065000  0.88270000  1.0
  H  H39  1  0.44983000  0.43932000  0.61722000  1.0
  H  H40  1  0.44983000  0.11722000  0.93932000  1.0
  H  H41  1  0.50667000  0.38270000  0.56065000  1.0
  H  H42  1  0.49335000  0.93936000  0.11729000  1.0
  H  H43  1  0.55017000  0.56068000  0.38279000  1.0
  H  H44  1  0.62140000  0.81168000  0.98878000  1.0
  H  H45  1  0.42142000  0.68835000  0.51130000  1.0
  H  H46  1  0.57858000  0.98870000  0.81165000  1.0
  H  H47  1  0.37861000  0.51122000  0.68832000  1.0
  H  H48  1  0.37860000  0.18832000  0.01122000  1.0
  H  H49  1  0.57859000  0.31165000  0.48870000  1.0
  H  H50  1  0.42142000  0.01130000  0.18835000  1.0
  H  H51  1  0.62139000  0.48878000  0.31169000  1.0
  H  H52  1  0.99628000  0.17809000  0.50511000  1.0
  H  H53  1  0.67959000  0.32189000  0.99487000  1.0
  H  H54  1  0.32041000  0.50513000  0.17811000  1.0
  H  H55  1  0.00371000  0.99490000  0.32191000  1.0
  H  H56  1  0.00373000  0.82191000  0.49489000  1.0
  H  H57  1  0.32042000  0.67811000  0.00512000  1.0
  H  H58  1  0.67959000  0.49487000  0.82189000  1.0
  H  H59  1  0.99628000  0.00511000  0.67809000  1.0
  H  H60  1  0.94912000  0.25450000  0.57360000  1.0
  H  H61  1  0.77726000  0.24550000  0.92639000  1.0
  H  H62  1  0.22274000  0.57361000  0.25449000  1.0
  H  H63  1  0.05088000  0.92640000  0.24550000  1.0
  H  H64  1  0.05088000  0.74550000  0.42640000  1.0
  H  H65  1  0.22274000  0.75450000  0.07360000  1.0
  H  H66  1  0.77725000  0.42639000  0.74550000  1.0
  H  H67  1  0.94912000  0.07360000  0.75450000  1.0
  C  C68  1  0.77636000  0.88686000  0.67409000  1.0
  C  C69  1  0.33708000  0.61319000  0.82597000  1.0
  C  C70  1  0.66292000  0.67403000  0.88681000  1.0
  C  C71  1  0.22364000  0.82591000  0.61314000  1.0
  C  C72  1  0.22364000  0.11314000  0.32591000  1.0
  C  C73  1  0.66292000  0.38681000  0.17403000  1.0
  C  C74  1  0.33707000  0.32597000  0.11319000  1.0
  C  C75  1  0.77636000  0.17409000  0.38686000  1.0
  C  C76  1  0.75687000  0.91008000  0.79044000  1.0
  C  C77  1  0.45702000  0.58977000  0.70968000  1.0
  C  C78  1  0.54299000  0.79031000  0.91023000  1.0
  C  C79  1  0.24313000  0.70956000  0.58992000  1.0
  C  C80  1  0.24312000  0.08993000  0.20956000  1.0
  C  C81  1  0.54298000  0.41023000  0.29032000  1.0
  C  C82  1  0.45702000  0.20968000  0.08977000  1.0
  C  C83  1  0.75687000  0.29044000  0.41008000  1.0
  C  C84  1  0.82533000  0.92256000  0.67118000  1.0
  C  C85  1  0.41880000  0.57743000  0.82890000  1.0
  C  C86  1  0.58121000  0.67110000  0.92256000  1.0
  C  C87  1  0.17468000  0.82881000  0.57744000  1.0
  C  C88  1  0.17467000  0.07744000  0.32882000  1.0
  C  C89  1  0.58120000  0.42257000  0.17110000  1.0
  C  C90  1  0.41880000  0.32890000  0.07743000  1.0
  C  C91  1  0.82533000  0.17118000  0.42255000  1.0
  C  C92  1  0.88748000  0.94890000  0.60668000  1.0
  C  C93  1  0.44280000  0.55116000  0.89341000  1.0
  C  C94  1  0.55720000  0.60659000  0.94884000  1.0
  C  C95  1  0.11253000  0.89332000  0.55111000  1.0
  C  C96  1  0.11253000  0.05111000  0.39332000  1.0
  C  C97  1  0.55720000  0.44884000  0.10659000  1.0
  C  C98  1  0.44280000  0.39341000  0.05116000  1.0
  C  C99  1  0.88748000  0.10668000  0.44890000  1.0
  C  C100  1  0.70703000  0.87507000  0.79297000  1.0
  C  C101  1  0.37475000  0.62483000  0.70713000  1.0
  C  C102  1  0.62526000  0.79287000  0.87517000  1.0
  C  C103  1  0.29297000  0.70703000  0.62493000  1.0
  C  C104  1  0.29297000  0.12493000  0.20703000  1.0
  C  C105  1  0.62526000  0.37517000  0.29287000  1.0
  C  C106  1  0.37474000  0.20713000  0.12483000  1.0
  C  C107  1  0.70703000  0.29297000  0.37507000  1.0
  C  C108  1  0.81467000  0.93379000  0.73016000  1.0
  C  C109  1  0.47827000  0.56611000  0.76995000  1.0
  C  C110  1  0.52174000  0.73005000  0.93388000  1.0
  C  C111  1  0.18533000  0.76984000  0.56621000  1.0
  C  C112  1  0.18533000  0.06621000  0.26984000  1.0
  C  C113  1  0.52174000  0.43388000  0.23005000  1.0
  C  C114  1  0.47826000  0.26995000  0.06612000  1.0
  C  C115  1  0.81467000  0.23016000  0.43379000  1.0
  C  C116  1  0.71754000  0.86354000  0.73401000  1.0
  C  C117  1  0.31484000  0.63645000  0.76606000  1.0
  C  C118  1  0.68516000  0.73394000  0.86355000  1.0
  C  C119  1  0.28245000  0.76599000  0.63647000  1.0
  C  C120  1  0.28245000  0.13647000  0.26599000  1.0
  C  C121  1  0.68516000  0.36355000  0.23394000  1.0
  C  C122  1  0.31484000  0.26606000  0.13645000  1.0
  C  C123  1  0.71754000  0.23401000  0.36354000  1.0
  C  C124  1  0.52166000  0.97841000  0.97839000  1.0
  C  C125  1  0.47834000  0.52161000  0.52160000  1.0
  C  C126  1  0.47834000  0.02160000  0.02161000  1.0
  C  C127  1  0.52167000  0.47839000  0.47841000  1.0
  C  C128  1  0.60486000  0.89526000  0.89530000  1.0
  C  C129  1  0.39514000  0.60469000  0.60475000  1.0
  C  C130  1  0.39514000  0.10475000  0.10469000  1.0
  C  C131  1  0.60486000  0.39530000  0.39526000  1.0
  C  C132  1  0.55506000  0.90732000  0.00621000  1.0
  C  C133  1  0.46837000  0.59272000  0.49381000  1.0
  C  C134  1  0.53164000  0.00619000  0.90728000  1.0
  C  C135  1  0.44495000  0.49378000  0.59269000  1.0
  C  C136  1  0.44495000  0.09269000  0.99378000  1.0
  C  C137  1  0.53165000  0.40728000  0.50619000  1.0
  C  C138  1  0.46837000  0.99381000  0.09272000  1.0
  C  C139  1  0.55506000  0.50621000  0.40732000  1.0
  C  C140  1  0.59590000  0.86647000  0.96586000  1.0
  C  C141  1  0.42791000  0.63354000  0.53420000  1.0
  C  C142  1  0.57211000  0.96580000  0.86645000  1.0
  C  C143  1  0.40410000  0.53414000  0.63354000  1.0
  C  C144  1  0.40411000  0.13353000  0.03414000  1.0
  C  C145  1  0.57211000  0.36645000  0.46580000  1.0
  C  C146  1  0.42791000  0.03420000  0.13354000  1.0
  C  C147  1  0.59590000  0.46586000  0.36647000  1.0
  C  C148  1  0.94497000  0.16965000  0.66965000  1.0
  C  C149  1  0.78432000  0.33032000  0.83032000  1.0
  C  C150  1  0.21568000  0.66968000  0.16968000  1.0
  C  C151  1  0.05505000  0.83034000  0.33034000  1.0
  C  C152  1  0.98566000  0.15755000  0.56040000  1.0
  C  C153  1  0.70367000  0.34245000  0.93958000  1.0
  C  C154  1  0.29632000  0.56043000  0.15755000  1.0
  C  C155  1  0.01435000  0.93959000  0.34245000  1.0
  C  C156  1  0.01434000  0.84246000  0.43959000  1.0
  C  C157  1  0.29632000  0.65755000  0.06043000  1.0
  C  C158  1  0.70369000  0.43957000  0.84244000  1.0
  C  C159  1  0.98566000  0.06040000  0.65755000  1.0
  C  C160  1  0.91408000  0.21230000  0.71230000  1.0
  C  C161  1  0.83871000  0.28767000  0.78768000  1.0
  C  C162  1  0.16127000  0.71233000  0.21232000  1.0
  C  C163  1  0.08592000  0.78769000  0.28769000  1.0
  C  C164  1  0.95919000  0.19946000  0.59846000  1.0
  C  C165  1  0.75717000  0.30053000  0.90151000  1.0
  C  C166  1  0.24283000  0.59849000  0.19947000  1.0
  C  C167  1  0.04082000  0.90154000  0.30053000  1.0
  C  C168  1  0.04083000  0.80053000  0.40154000  1.0
  C  C169  1  0.24284000  0.69947000  0.09848000  1.0
  C  C170  1  0.75717000  0.40151000  0.80053000  1.0
  C  C171  1  0.95919000  0.09846000  0.69946000  1.0
  N  N172  1  0.64634000  0.85379000  0.85389000  1.0
  N  N173  1  0.35367000  0.64611000  0.64621000  1.0
  N  N174  1  0.35366000  0.14621000  0.14611000  1.0
  N  N175  1  0.64634000  0.35389000  0.35379000  1.0
  N  N176  1  0.99831000  0.08940000  0.58940000  1.0
  N  N177  1  0.67713000  0.41059000  0.91059000  1.0
  N  N178  1  0.32288000  0.58941000  0.08941000  1.0
  N  N179  1  0.00170000  0.91060000  0.41060000  1.0
  N  N180  1  0.90349000  0.28049000  0.68093000  1.0
  N  N181  1  0.86493000  0.21949000  0.81905000  1.0
  N  N182  1  0.13504000  0.68095000  0.28049000  1.0
  N  N183  1  0.09646000  0.81907000  0.21952000  1.0
  N  N184  1  0.09646000  0.71952000  0.31907000  1.0
  N  N185  1  0.13504000  0.78050000  0.18094000  1.0
  N  N186  1  0.86493000  0.31905000  0.71950000  1.0
  N  N187  1  0.90349000  0.18093000  0.78049000  1.0
  O  O188  1  0.92448000  0.98527000  0.60751000  1.0
  O  O189  1  0.51701000  0.51480000  0.89257000  1.0
  O  O190  1  0.48301000  0.60742000  0.98519000  1.0
  O  O191  1  0.07552000  0.89248000  0.51473000  1.0
  O  O192  1  0.07552000  0.01473000  0.39248000  1.0
  O  O193  1  0.48301000  0.48519000  0.10742000  1.0
  O  O194  1  0.51700000  0.39257000  0.01481000  1.0
  O  O195  1  0.92448000  0.10751000  0.48527000  1.0
  O  O196  1  0.89896000  0.93343000  0.55569000  1.0
  O  O197  1  0.38788000  0.56666000  0.94438000  1.0
  O  O198  1  0.61212000  0.55562000  0.93333000  1.0
  O  O199  1  0.10104000  0.94430000  0.56657000  1.0
  O  O200  1  0.10104000  0.06657000  0.44430000  1.0
  O  O201  1  0.61212000  0.43333000  0.05562000  1.0
  O  O202  1  0.38788000  0.44438000  0.06666000  1.0
  O  O203  1  0.89896000  0.05569000  0.43343000  1.0
