# generated using pymatgen
data_Zr3H8C36(O4F3)4
_symmetry_space_group_name_H-M   'P 1'
_cell_length_a   17.03753688
_cell_length_b   17.08909613
_cell_length_c   17.03760000
_cell_angle_alpha   119.64066008
_cell_angle_beta   90.45227015
_cell_angle_gamma   119.64086586
_symmetry_Int_Tables_number   1
_chemical_formula_structural   Zr3H8C36(O4F3)4
_chemical_formula_sum   'Zr6 H16 C72 O32 F24'
_cell_volume   3531.78254734
_cell_formula_units_Z   2
loop_
 _symmetry_equiv_pos_site_id
 _symmetry_equiv_pos_as_xyz
  1  'x, y, z'
loop_
 _atom_site_type_symbol
 _atom_site_label
 _atom_site_symmetry_multiplicity
 _atom_site_fract_x
 _atom_site_fract_y
 _atom_site_fract_z
 _atom_site_occupancy
  Zr  Zr0  1  0.89569000  0.29138000  0.89569000  1.0
  Zr  Zr1  1  0.10430000  0.70860000  0.10430000  1.0
  Zr  Zr2  1  0.10248000  0.49999000  0.10248000  1.0
  Zr  Zr3  1  0.89751000  0.49999000  0.89750000  1.0
  Zr  Zr4  1  0.89647000  0.50000000  0.10353000  1.0
  Zr  Zr5  1  0.10353000  0.50000000  0.89648000  1.0
  H  H6  1  0.91930000  0.33771000  0.08210000  1.0
  H  H7  1  0.91789000  0.66228000  0.08069000  1.0
  H  H8  1  0.24439000  0.66228000  0.08159000  1.0
  H  H9  1  0.91841000  0.33771000  0.75561000  1.0
  H  H10  1  0.65615000  0.29547000  0.13569000  1.0
  H  H11  1  0.34022000  0.70452000  0.86067000  1.0
  H  H12  1  0.13932000  0.29547000  0.65977000  1.0
  H  H13  1  0.86429000  0.70451000  0.34383000  1.0
  H  H14  1  0.65726000  0.49701000  0.86030000  1.0
  H  H15  1  0.33975000  0.49701000  0.13672000  1.0
  H  H16  1  0.86330000  0.50300000  0.66026000  1.0
  H  H17  1  0.13970000  0.50300000  0.34275000  1.0
  H  H18  1  0.13881000  0.29515000  0.13559000  1.0
  H  H19  1  0.86441000  0.70485000  0.86120000  1.0
  H  H20  1  0.65634000  0.29514000  0.65956000  1.0
  H  H21  1  0.34044000  0.70485000  0.34365000  1.0
  C  C22  1  0.73407000  0.24044000  0.00062000  1.0
  C  C23  1  0.99936000  0.75954000  0.26591000  1.0
  C  C24  1  0.26018000  0.75954000  0.99362000  1.0
  C  C25  1  0.00638000  0.24045000  0.73981000  1.0
  C  C26  1  0.00531000  0.23995000  0.00028000  1.0
  C  C27  1  0.73464000  0.23994000  0.73966000  1.0
  C  C28  1  0.99971000  0.76004000  0.99469000  1.0
  C  C29  1  0.26033000  0.76005000  0.26536000  1.0
  C  C30  1  0.00563000  0.50442000  0.26505000  1.0
  C  C31  1  0.26062000  0.49557000  0.00121000  1.0
  C  C32  1  0.99879000  0.50442000  0.73937000  1.0
  C  C33  1  0.73495000  0.49557000  0.99436000  1.0
  C  C34  1  0.59629000  0.04753000  0.94797000  1.0
  C  C35  1  0.61660000  0.20655000  0.08658000  1.0
  C  C36  1  0.53848000  0.14049000  0.10002000  1.0
  C  C37  1  0.48329000  0.02366000  0.03806000  1.0
  C  C38  1  0.40044000  0.95248000  0.04877000  1.0
  C  C39  1  0.38003000  0.79345000  0.91005000  1.0
  C  C40  1  0.45952000  0.85950000  0.89798000  1.0
  C  C41  1  0.51439000  0.97633000  0.95963000  1.0
  C  C42  1  0.64750000  0.16133000  0.00936000  1.0
  C  C43  1  0.34803000  0.83867000  0.98618000  1.0
  C  C44  1  0.95123000  0.04752000  0.59955000  1.0
  C  C45  1  0.08995000  0.20655000  0.61997000  1.0
  C  C46  1  0.10201000  0.14050000  0.54047000  1.0
  C  C47  1  0.04036000  0.02366000  0.48560000  1.0
  C  C48  1  0.05202000  0.95246000  0.40370000  1.0
  C  C49  1  0.91341000  0.79344000  0.38339000  1.0
  C  C50  1  0.89997000  0.85950000  0.46151000  1.0
  C  C51  1  0.96193000  0.97633000  0.51670000  1.0
  C  C52  1  0.01382000  0.16132000  0.65196000  1.0
  C  C53  1  0.99063000  0.83866000  0.35248000  1.0
  C  C54  1  0.59686000  0.49724000  0.04943000  1.0
  C  C55  1  0.61714000  0.49720000  0.90966000  1.0
  C  C56  1  0.53846000  0.49823000  0.89718000  1.0
  C  C57  1  0.48342000  0.49800000  0.95947000  1.0
  C  C58  1  0.40038000  0.49724000  0.94781000  1.0
  C  C59  1  0.38005000  0.49718000  0.08753000  1.0
  C  C60  1  0.45977000  0.49822000  0.10104000  1.0
  C  C61  1  0.51458000  0.49800000  0.03854000  1.0
  C  C62  1  0.64804000  0.49632000  0.98649000  1.0
  C  C63  1  0.34827000  0.49631000  0.00983000  1.0
  C  C64  1  0.05219000  0.50276000  0.59962000  1.0
  C  C65  1  0.91246000  0.50281000  0.61995000  1.0
  C  C66  1  0.89895000  0.50177000  0.54023000  1.0
  C  C67  1  0.96147000  0.50200000  0.48542000  1.0
  C  C68  1  0.95056000  0.50274000  0.40313000  1.0
  C  C69  1  0.09034000  0.50280000  0.38285000  1.0
  C  C70  1  0.10282000  0.50177000  0.46154000  1.0
  C  C71  1  0.04053000  0.50200000  0.51658000  1.0
  C  C72  1  0.99017000  0.50368000  0.65173000  1.0
  C  C73  1  0.01351000  0.50367000  0.35195000  1.0
  C  C74  1  0.95039000  0.04724000  0.94745000  1.0
  C  C75  1  0.08961000  0.20623000  0.08659000  1.0
  C  C76  1  0.10228000  0.14044000  0.10044000  1.0
  C  C77  1  0.04051000  0.02373000  0.03839000  1.0
  C  C78  1  0.05255000  0.95275000  0.04960000  1.0
  C  C79  1  0.91340000  0.79376000  0.91039000  1.0
  C  C80  1  0.89956000  0.85956000  0.89772000  1.0
  C  C81  1  0.96162000  0.97627000  0.95949000  1.0
  C  C82  1  0.01300000  0.16085000  0.00901000  1.0
  C  C83  1  0.99098000  0.83914000  0.98700000  1.0
  C  C84  1  0.59685000  0.04724000  0.59979000  1.0
  C  C85  1  0.61663000  0.20624000  0.61964000  1.0
  C  C86  1  0.53817000  0.14044000  0.54000000  1.0
  C  C87  1  0.48322000  0.02372000  0.48534000  1.0
  C  C88  1  0.40020000  0.95275000  0.40314000  1.0
  C  C89  1  0.38036000  0.79376000  0.38337000  1.0
  C  C90  1  0.46000000  0.85957000  0.46184000  1.0
  C  C91  1  0.51465000  0.97627000  0.51677000  1.0
  C  C92  1  0.64785000  0.16085000  0.65184000  1.0
  C  C93  1  0.34816000  0.83915000  0.35215000  1.0
  O  O94  1  0.76630000  0.20536000  0.93370000  1.0
  O  O95  1  0.06629000  0.79463000  0.23369000  1.0
  O  O96  1  0.22833000  0.79462000  0.06092000  1.0
  O  O97  1  0.93906000  0.20536000  0.77166000  1.0
  O  O98  1  0.07034000  0.34105000  0.06546000  1.0
  O  O99  1  0.77070000  0.34104000  0.77559000  1.0
  O  O100  1  0.93454000  0.65895000  0.92966000  1.0
  O  O101  1  0.22440000  0.65895000  0.22929000  1.0
  O  O102  1  0.93766000  0.50373000  0.23273000  1.0
  O  O103  1  0.22899000  0.49625000  0.93392000  1.0
  O  O104  1  0.06608000  0.50374000  0.77101000  1.0
  O  O105  1  0.76727000  0.49625000  0.06233000  1.0
  O  O106  1  0.22440000  0.49593000  0.06678000  1.0
  O  O107  1  0.93321000  0.50405000  0.77559000  1.0
  O  O108  1  0.77153000  0.49593000  0.92915000  1.0
  O  O109  1  0.07084000  0.50406000  0.22847000  1.0
  O  O110  1  0.93746000  0.20487000  0.93302000  1.0
  O  O111  1  0.22815000  0.79512000  0.23257000  1.0
  O  O112  1  0.06697000  0.79512000  0.06255000  1.0
  O  O113  1  0.76742000  0.20487000  0.77185000  1.0
  O  O114  1  0.07139000  0.34195000  0.77619000  1.0
  O  O115  1  0.77056000  0.34195000  0.06575000  1.0
  O  O116  1  0.93424000  0.65804000  0.22943000  1.0
  O  O117  1  0.22380000  0.65804000  0.92860000  1.0
  O  O118  1  0.94171000  0.38297000  0.82506000  1.0
  O  O119  1  0.17493000  0.61702000  0.05829000  1.0
  O  O120  1  0.94208000  0.61701000  0.05872000  1.0
  O  O121  1  0.94126000  0.38297000  0.05791000  1.0
  O  O122  1  0.04286000  0.58661000  0.12862000  1.0
  O  O123  1  0.87138000  0.41338000  0.95713000  1.0
  O  O124  1  0.04375000  0.58661000  0.95800000  1.0
  O  O125  1  0.04201000  0.41339000  0.95625000  1.0
  F  F126  1  0.48584000  0.81024000  0.82383000  1.0
  F  F127  1  0.62356000  0.00106000  0.87429000  1.0
  F  F128  1  0.51360000  0.18976000  0.17561000  1.0
  F  F129  1  0.37322000  0.99894000  0.12250000  1.0
  F  F130  1  0.82439000  0.81023000  0.48640000  1.0
  F  F131  1  0.87750000  0.00106000  0.62677000  1.0
  F  F132  1  0.17616000  0.18975000  0.51414000  1.0
  F  F133  1  0.12570000  0.99893000  0.37643000  1.0
  F  F134  1  0.48629000  0.49932000  0.17696000  1.0
  F  F135  1  0.62456000  0.49725000  0.12367000  1.0
  F  F136  1  0.51305000  0.49935000  0.82238000  1.0
  F  F137  1  0.37269000  0.49725000  0.87358000  1.0
  F  F138  1  0.17764000  0.50068000  0.48697000  1.0
  F  F139  1  0.12642000  0.50274000  0.62730000  1.0
  F  F140  1  0.82303000  0.50066000  0.51370000  1.0
  F  F141  1  0.87631000  0.50272000  0.37542000  1.0
  F  F142  1  0.82363000  0.81023000  0.82308000  1.0
  F  F143  1  0.87636000  0.00090000  0.87344000  1.0
  F  F144  1  0.17692000  0.18976000  0.17637000  1.0
  F  F145  1  0.12657000  0.99910000  0.12364000  1.0
  F  F146  1  0.48660000  0.81023000  0.48715000  1.0
  F  F147  1  0.62453000  0.00089000  0.62746000  1.0
  F  F148  1  0.51286000  0.18977000  0.51339000  1.0
  F  F149  1  0.37253000  0.99910000  0.37546000  1.0
