# generated using pymatgen
data_AlH12C16N3O5
_symmetry_space_group_name_H-M   'P 1'
_cell_length_a   6.64825000
_cell_length_b   22.41750000
_cell_length_c   26.77030000
_cell_angle_alpha   100.62900000
_cell_angle_beta   89.99970000
_cell_angle_gamma   89.99810000
_symmetry_Int_Tables_number   1
_chemical_formula_structural   AlH12C16N3O5
_chemical_formula_sum   'Al4 H48 C64 N12 O20'
_cell_volume   3921.31307322
_cell_formula_units_Z   4
loop_
 _symmetry_equiv_pos_site_id
 _symmetry_equiv_pos_as_xyz
  1  'x, y, z'
loop_
 _atom_site_type_symbol
 _atom_site_label
 _atom_site_symmetry_multiplicity
 _atom_site_fract_x
 _atom_site_fract_y
 _atom_site_fract_z
 _atom_site_occupancy
  Al  Al0  1  0.77141000  0.75002000  0.24945000  1.0
  Al  Al1  1  0.22857000  0.24997000  0.75055000  1.0
  Al  Al2  1  0.27142000  0.74996000  0.25055000  1.0
  Al  Al3  1  0.72857000  0.25003000  0.74945000  1.0
  H  H4  1  0.72877000  0.00894000  0.56379000  1.0
  H  H5  1  0.27122000  0.99105000  0.43621000  1.0
  H  H6  1  0.22877000  0.49106000  0.93621000  1.0
  H  H7  1  0.77128000  0.50894000  0.06378000  1.0
  H  H8  1  0.26836000  0.11324000  0.83236000  1.0
  H  H9  1  0.73162000  0.88676000  0.16764000  1.0
  H  H10  1  0.76837000  0.38676000  0.66765000  1.0
  H  H11  1  0.23162000  0.61324000  0.33236000  1.0
  H  H12  1  0.28369000  0.04599000  0.89723000  1.0
  H  H13  1  0.71630000  0.95401000  0.10277000  1.0
  H  H14  1  0.78370000  0.45401000  0.60278000  1.0
  H  H15  1  0.21628000  0.54600000  0.39724000  1.0
  H  H16  1  0.70017000  0.11081000  0.95143000  1.0
  H  H17  1  0.29983000  0.88919000  0.04858000  1.0
  H  H18  1  0.20019000  0.38920000  0.54858000  1.0
  H  H19  1  0.79979000  0.61082000  0.45143000  1.0
  H  H20  1  0.56206000  0.93296000  0.51554000  1.0
  H  H21  1  0.55877000  0.92069000  0.41096000  1.0
  H  H22  1  0.42376000  0.87513000  0.44739000  1.0
  H  H23  1  0.66337000  0.85125000  0.42173000  1.0
  H  H24  1  0.43795000  0.06703000  0.48446000  1.0
  H  H25  1  0.44123000  0.07931000  0.58904000  1.0
  H  H26  1  0.33663000  0.14875000  0.57827000  1.0
  H  H27  1  0.57625000  0.12487000  0.55262000  1.0
  H  H28  1  0.06205000  0.56704000  0.98447000  1.0
  H  H29  1  0.05879000  0.57930000  0.08905000  1.0
  H  H30  1  0.92376000  0.62487000  0.05263000  1.0
  H  H31  1  0.16337000  0.64875000  0.07828000  1.0
  H  H32  1  0.93797000  0.43296000  0.01552000  1.0
  H  H33  1  0.94126000  0.42069000  0.91094000  1.0
  H  H34  1  0.83666000  0.35125000  0.92171000  1.0
  H  H35  1  0.07627000  0.37512000  0.94736000  1.0
  H  H36  1  0.67218000  0.23684000  0.89286000  1.0
  H  H37  1  0.54370000  0.17827000  0.85326000  1.0
  H  H38  1  0.52973000  0.18386000  0.92055000  1.0
  H  H39  1  0.32784000  0.76316000  0.10714000  1.0
  H  H40  1  0.47028000  0.81614000  0.07946000  1.0
  H  H41  1  0.45629000  0.82173000  0.14675000  1.0
  H  H42  1  0.17219000  0.26317000  0.60714000  1.0
  H  H43  1  0.04370000  0.32173000  0.64674000  1.0
  H  H44  1  0.02975000  0.31615000  0.57945000  1.0
  H  H45  1  0.82779000  0.73684000  0.39286000  1.0
  H  H46  1  0.97024000  0.68386000  0.42055000  1.0
  H  H47  1  0.95628000  0.67827000  0.35326000  1.0
  H  H48  1  0.52138000  0.82714000  0.27502000  1.0
  H  H49  1  0.47861000  0.17284000  0.72498000  1.0
  H  H50  1  0.02140000  0.67284000  0.22497000  1.0
  H  H51  1  0.97860000  0.32715000  0.77502000  1.0
  C  C52  1  0.52247000  0.68487000  0.31319000  1.0
  C  C53  1  0.47752000  0.31513000  0.68681000  1.0
  C  C54  1  0.02246000  0.81513000  0.18681000  1.0
  C  C55  1  0.97753000  0.18487000  0.81320000  1.0
  C  C56  1  0.52122000  0.67133000  0.17417000  1.0
  C  C57  1  0.47877000  0.32866000  0.82583000  1.0
  C  C58  1  0.02121000  0.82866000  0.32583000  1.0
  C  C59  1  0.97879000  0.17134000  0.67417000  1.0
  C  C60  1  0.84738000  0.00431000  0.53517000  1.0
  C  C61  1  0.15262000  0.99568000  0.46483000  1.0
  C  C62  1  0.34739000  0.49569000  0.96483000  1.0
  C  C63  1  0.65267000  0.50432000  0.03515000  1.0
  C  C64  1  0.01221000  0.04429000  0.54489000  1.0
  C  C65  1  0.98780000  0.95570000  0.45511000  1.0
  C  C66  1  0.51221000  0.45571000  0.95510000  1.0
  C  C67  1  0.48784000  0.54429000  0.04488000  1.0
  C  C68  1  0.17263000  0.04024000  0.50868000  1.0
  C  C69  1  0.82737000  0.95975000  0.49132000  1.0
  C  C70  1  0.67266000  0.45976000  0.99131000  1.0
  C  C71  1  0.32738000  0.54024000  0.00868000  1.0
  C  C72  1  0.00436000  0.08866000  0.58970000  1.0
  C  C73  1  0.99564000  0.91133000  0.41029000  1.0
  C  C74  1  0.50436000  0.41135000  0.91028000  1.0
  C  C75  1  0.49568000  0.58865000  0.08971000  1.0
  C  C76  1  0.01614000  0.87361000  0.37145000  1.0
  C  C77  1  0.98385000  0.12638000  0.62855000  1.0
  C  C78  1  0.51618000  0.62637000  0.12854000  1.0
  C  C79  1  0.48383000  0.37362000  0.87144000  1.0
  C  C80  1  0.14397000  0.11178000  0.85857000  1.0
  C  C81  1  0.85602000  0.88822000  0.14143000  1.0
  C  C82  1  0.64397000  0.38822000  0.64144000  1.0
  C  C83  1  0.35601000  0.61178000  0.35857000  1.0
  C  C84  1  0.15319000  0.07457000  0.89454000  1.0
  C  C85  1  0.84680000  0.92543000  0.10546000  1.0
  C  C86  1  0.65320000  0.42543000  0.60546000  1.0
  C  C87  1  0.34678000  0.57458000  0.39455000  1.0
  C  C88  1  0.99086000  0.07399000  0.92805000  1.0
  C  C89  1  0.00914000  0.92601000  0.07195000  1.0
  C  C90  1  0.49087000  0.42601000  0.57195000  1.0
  C  C91  1  0.50911000  0.57401000  0.42806000  1.0
  C  C92  1  0.82372000  0.11136000  0.92474000  1.0
  C  C93  1  0.17628000  0.88864000  0.07527000  1.0
  C  C94  1  0.32373000  0.38865000  0.57527000  1.0
  C  C95  1  0.67625000  0.61137000  0.42474000  1.0
  C  C96  1  0.81113000  0.14886000  0.88849000  1.0
  C  C97  1  0.18887000  0.85113000  0.11151000  1.0
  C  C98  1  0.31114000  0.35114000  0.61151000  1.0
  C  C99  1  0.68884000  0.64887000  0.38850000  1.0
  C  C100  1  0.97519000  0.14830000  0.85456000  1.0
  C  C101  1  0.02480000  0.85169000  0.14544000  1.0
  C  C102  1  0.47519000  0.35170000  0.64544000  1.0
  C  C103  1  0.52478000  0.64831000  0.35456000  1.0
  C  C104  1  0.00430000  0.96527000  0.03363000  1.0
  C  C105  1  0.99570000  0.03473000  0.96638000  1.0
  C  C106  1  0.50428000  0.53475000  0.46639000  1.0
  C  C107  1  0.49570000  0.46527000  0.53363000  1.0
  C  C108  1  0.57422000  0.89079000  0.43917000  1.0
  C  C109  1  0.42578000  0.10920000  0.56083000  1.0
  C  C110  1  0.07423000  0.60920000  0.06084000  1.0
  C  C111  1  0.92580000  0.39080000  0.93915000  1.0
  C  C112  1  0.62902000  0.18883000  0.88884000  1.0
  C  C113  1  0.37098000  0.81117000  0.11117000  1.0
  C  C114  1  0.12903000  0.31117000  0.61116000  1.0
  C  C115  1  0.87095000  0.68883000  0.38884000  1.0
  N  N116  1  0.84012000  0.03814000  0.99954000  1.0
  N  N117  1  0.15989000  0.96186000  0.00047000  1.0
  N  N118  1  0.34011000  0.46187000  0.50047000  1.0
  N  N119  1  0.65987000  0.53815000  0.49955000  1.0
  N  N120  1  0.84445000  0.00285000  0.03369000  1.0
  N  N121  1  0.15556000  0.99715000  0.96631000  1.0
  N  N122  1  0.34444000  0.49716000  0.46632000  1.0
  N  N123  1  0.65554000  0.50286000  0.53370000  1.0
  N  N124  1  0.66191000  0.92190000  0.48673000  1.0
  N  N125  1  0.33809000  0.07809000  0.51327000  1.0
  N  N126  1  0.16192000  0.57810000  0.01328000  1.0
  N  N127  1  0.83812000  0.42190000  0.98671000  1.0
  O  O128  1  0.35068000  0.68977000  0.19288000  1.0
  O  O129  1  0.64931000  0.31022000  0.80712000  1.0
  O  O130  1  0.85069000  0.81022000  0.30711000  1.0
  O  O131  1  0.14931000  0.18977000  0.69289000  1.0
  O  O132  1  0.69114000  0.69844000  0.29579000  1.0
  O  O133  1  0.30885000  0.30156000  0.70422000  1.0
  O  O134  1  0.19113000  0.80157000  0.20422000  1.0
  O  O135  1  0.80886000  0.19843000  0.79578000  1.0
  O  O136  1  0.69309000  0.68901000  0.19223000  1.0
  O  O137  1  0.30690000  0.31098000  0.80777000  1.0
  O  O138  1  0.19308000  0.81097000  0.30777000  1.0
  O  O139  1  0.80692000  0.18902000  0.69223000  1.0
  O  O140  1  0.85051000  0.80148000  0.20273000  1.0
  O  O141  1  0.14949000  0.19852000  0.79727000  1.0
  O  O142  1  0.35050000  0.69850000  0.29725000  1.0
  O  O143  1  0.64948000  0.30149000  0.70274000  1.0
  O  O144  1  0.52134000  0.78711000  0.25382000  1.0
  O  O145  1  0.47865000  0.21288000  0.74617000  1.0
  O  O146  1  0.02134000  0.71288000  0.24617000  1.0
  O  O147  1  0.97865000  0.28711000  0.75383000  1.0
