# generated using pymatgen
data_HgH6C8N5ClO
_symmetry_space_group_name_H-M   'P 1'
_cell_length_a   3.90364000
_cell_length_b   12.66860000
_cell_length_c   19.56500000
_cell_angle_alpha   89.99990000
_cell_angle_beta   85.45140000
_cell_angle_gamma   89.99990000
_symmetry_Int_Tables_number   1
_chemical_formula_structural   HgH6C8N5ClO
_chemical_formula_sum   'Hg4 H24 C32 N20 Cl4 O4'
_cell_volume   964.51332840
_cell_formula_units_Z   4
loop_
 _symmetry_equiv_pos_site_id
 _symmetry_equiv_pos_as_xyz
  1  'x, y, z'
loop_
 _atom_site_type_symbol
 _atom_site_label
 _atom_site_symmetry_multiplicity
 _atom_site_fract_x
 _atom_site_fract_y
 _atom_site_fract_z
 _atom_site_occupancy
  Hg  Hg0  1  0.75331000  0.00077000  0.11081000  1.0
  Hg  Hg1  1  0.74669000  0.50077000  0.38919000  1.0
  Hg  Hg2  1  0.24669000  0.99923000  0.88920000  1.0
  Hg  Hg3  1  0.25331000  0.49923000  0.61080000  1.0
  H  H4  1  0.01726000  0.74976000  0.33497000  1.0
  H  H5  1  0.48273000  0.24976000  0.16503000  1.0
  H  H6  1  0.98273000  0.25024000  0.66503000  1.0
  H  H7  1  0.51727000  0.75024000  0.83497000  1.0
  H  H8  1  0.57001000  0.86050000  0.24841000  1.0
  H  H9  1  0.93000000  0.36051000  0.25159000  1.0
  H  H10  1  0.43001000  0.13949000  0.75160000  1.0
  H  H11  1  0.07000000  0.63949000  0.74840000  1.0
  H  H12  1  0.18024000  0.91984000  0.23180000  1.0
  H  H13  1  0.31977000  0.41985000  0.26820000  1.0
  H  H14  1  0.81977000  0.08015000  0.76820000  1.0
  H  H15  1  0.68023000  0.58016000  0.73180000  1.0
  H  H16  1  0.52091000  0.80111000  0.03891000  1.0
  H  H17  1  0.97910000  0.30111000  0.46109000  1.0
  H  H18  1  0.47910000  0.19889000  0.96109000  1.0
  H  H19  1  0.02090000  0.69889000  0.53891000  1.0
  H  H20  1  0.17872000  0.56474000  0.96549000  1.0
  H  H21  1  0.32128000  0.06474000  0.53451000  1.0
  H  H22  1  0.82127000  0.43526000  0.03451000  1.0
  H  H23  1  0.67873000  0.93526000  0.46549000  1.0
  H  H24  1  0.36960000  0.68930000  0.97791000  1.0
  H  H25  1  0.13040000  0.18931000  0.52208000  1.0
  H  H26  1  0.63041000  0.31069000  0.02209000  1.0
  H  H27  1  0.86960000  0.81069000  0.47791000  1.0
  C  C28  1  0.15265000  0.61732000  0.06507000  1.0
  C  C29  1  0.34736000  0.11732000  0.43494000  1.0
  C  C30  1  0.84735000  0.38268000  0.93493000  1.0
  C  C31  1  0.65264000  0.88268000  0.56507000  1.0
  C  C32  1  0.12573000  0.68476000  0.17604000  1.0
  C  C33  1  0.37427000  0.18477000  0.32396000  1.0
  C  C34  1  0.87428000  0.31523000  0.82396000  1.0
  C  C35  1  0.62572000  0.81523000  0.67604000  1.0
  C  C36  1  0.94192000  0.59991000  0.20337000  1.0
  C  C37  1  0.55807000  0.09991000  0.29663000  1.0
  C  C38  1  0.05808000  0.40009000  0.79664000  1.0
  C  C39  1  0.44191000  0.90009000  0.70336000  1.0
  C  C40  1  0.85013000  0.51796000  0.15612000  1.0
  C  C41  1  0.64987000  0.01797000  0.34388000  1.0
  C  C42  1  0.14986000  0.48203000  0.84388000  1.0
  C  C43  1  0.35013000  0.98203000  0.65611000  1.0
  C  C44  1  0.02005000  0.71016000  0.28583000  1.0
  C  C45  1  0.47993000  0.21016000  0.21417000  1.0
  C  C46  1  0.97994000  0.28984000  0.71417000  1.0
  C  C47  1  0.52006000  0.78984000  0.78583000  1.0
  C  C48  1  0.35705000  0.85543000  0.21488000  1.0
  C  C49  1  0.14296000  0.35544000  0.28512000  1.0
  C  C50  1  0.64297000  0.14456000  0.78513000  1.0
  C  C51  1  0.85704000  0.64457000  0.71487000  1.0
  C  C52  1  0.48228000  0.86475000  0.14041000  1.0
  C  C53  1  0.01773000  0.36475000  0.35959000  1.0
  C  C54  1  0.51773000  0.13525000  0.85960000  1.0
  C  C55  1  0.98228000  0.63525000  0.64041000  1.0
  C  C56  1  0.42682000  0.79187000  0.09230000  1.0
  C  C57  1  0.07319000  0.29187000  0.40770000  1.0
  C  C58  1  0.57318000  0.20813000  0.90771000  1.0
  C  C59  1  0.92682000  0.70813000  0.59229000  1.0
  N  N60  1  0.96730000  0.53490000  0.08835000  1.0
  N  N61  1  0.53270000  0.03490000  0.41165000  1.0
  N  N62  1  0.03268000  0.46511000  0.91165000  1.0
  N  N63  1  0.46730000  0.96510000  0.58835000  1.0
  N  N64  1  0.25908000  0.62333000  0.99870000  1.0
  N  N65  1  0.24093000  0.12333000  0.50130000  1.0
  N  N66  1  0.74091000  0.37667000  0.00131000  1.0
  N  N67  1  0.75908000  0.87667000  0.49869000  1.0
  N  N68  1  0.24116000  0.69852000  0.10888000  1.0
  N  N69  1  0.25885000  0.19852000  0.39112000  1.0
  N  N70  1  0.75885000  0.30148000  0.89113000  1.0
  N  N71  1  0.74115000  0.80148000  0.60887000  1.0
  N  N72  1  0.87749000  0.61758000  0.27343000  1.0
  N  N73  1  0.62249000  0.11758000  0.22657000  1.0
  N  N74  1  0.12250000  0.38242000  0.72657000  1.0
  N  N75  1  0.37750000  0.88243000  0.77343000  1.0
  N  N76  1  0.17584000  0.75454000  0.22691000  1.0
  N  N77  1  0.32416000  0.25454000  0.27309000  1.0
  N  N78  1  0.82417000  0.24546000  0.77309000  1.0
  N  N79  1  0.67583000  0.74546000  0.72691000  1.0
  Cl  Cl80  1  0.07955000  0.14231000  0.06004000  1.0
  Cl  Cl81  1  0.42044000  0.64231000  0.43996000  1.0
  Cl  Cl82  1  0.92044000  0.85769000  0.93996000  1.0
  Cl  Cl83  1  0.57956000  0.35769000  0.56004000  1.0
  O  O84  1  0.67436000  0.43801000  0.17241000  1.0
  O  O85  1  0.82565000  0.93801000  0.32758000  1.0
  O  O86  1  0.32562000  0.56199000  0.82758000  1.0
  O  O87  1  0.17436000  0.06199000  0.67241000  1.0
