# generated using pymatgen
data_Cu4H18C16(IN)5
_symmetry_space_group_name_H-M   'P 1'
_cell_length_a   10.18000000
_cell_length_b   10.97280000
_cell_length_c   12.10320000
_cell_angle_alpha   97.90680000
_cell_angle_beta   104.62700000
_cell_angle_gamma   103.85600000
_symmetry_Int_Tables_number   1
_chemical_formula_structural   Cu4H18C16(IN)5
_chemical_formula_sum   'Cu8 H36 C32 I10 N10'
_cell_volume   1241.54082694
_cell_formula_units_Z   2
loop_
 _symmetry_equiv_pos_site_id
 _symmetry_equiv_pos_as_xyz
  1  'x, y, z'
loop_
 _atom_site_type_symbol
 _atom_site_label
 _atom_site_symmetry_multiplicity
 _atom_site_fract_x
 _atom_site_fract_y
 _atom_site_fract_z
 _atom_site_occupancy
  Cu  Cu0  1  0.92201000  0.71659000  0.84399000  1.0
  Cu  Cu1  1  0.07799000  0.28341000  0.15602000  1.0
  Cu  Cu2  1  0.06655000  0.49345000  0.10335000  1.0
  Cu  Cu3  1  0.93345000  0.50654000  0.89665000  1.0
  Cu  Cu4  1  0.10303000  0.80611000  0.74358000  1.0
  Cu  Cu5  1  0.89697000  0.19389000  0.25642000  1.0
  Cu  Cu6  1  0.10391000  0.00619000  0.58036000  1.0
  Cu  Cu7  1  0.89609000  0.99381000  0.41964000  1.0
  H  H8  1  0.72125000  0.57006000  0.39827000  1.0
  H  H9  1  0.27875000  0.42993000  0.60172000  1.0
  H  H10  1  0.56503000  0.52958000  0.44189000  1.0
  H  H11  1  0.43497000  0.47042000  0.55810000  1.0
  H  H12  1  0.73364000  0.53578000  0.53849000  1.0
  H  H13  1  0.26637000  0.46421000  0.46151000  1.0
  H  H14  1  0.56896000  0.34207000  0.30544000  1.0
  H  H15  1  0.43104000  0.65793000  0.69456000  1.0
  H  H16  1  0.74284000  0.35019000  0.39011000  1.0
  H  H17  1  0.25716000  0.64980000  0.60989000  1.0
  H  H18  1  0.78376000  0.31211000  0.57782000  1.0
  H  H19  1  0.21624000  0.68789000  0.42218000  1.0
  H  H20  1  0.69377000  0.16937000  0.70294000  1.0
  H  H21  1  0.30622000  0.83063000  0.29706000  1.0
  H  H22  1  0.26908000  0.10632000  0.47284000  1.0
  H  H23  1  0.73092000  0.89368000  0.52716000  1.0
  H  H24  1  0.37570000  0.24815000  0.35613000  1.0
  H  H25  1  0.62430000  0.75185000  0.64387000  1.0
  H  H26  1  0.69950000  0.94437000  0.89604000  1.0
  H  H27  1  0.30050000  0.05563000  0.10396000  1.0
  H  H28  1  0.79534000  0.84617000  0.06204000  1.0
  H  H29  1  0.20466000  0.15383000  0.93796000  1.0
  H  H30  1  0.38997000  0.68393000  0.08322000  1.0
  H  H31  1  0.61003000  0.31607000  0.91678000  1.0
  H  H32  1  0.27813000  0.77386000  0.91851000  1.0
  H  H33  1  0.72187000  0.22614000  0.08149000  1.0
  H  H34  1  0.58612000  0.69659000  0.22883000  1.0
  H  H35  1  0.41388000  0.30341000  0.77118000  1.0
  H  H36  1  0.75889000  0.77643000  0.22581000  1.0
  H  H37  1  0.24112000  0.22358000  0.77419000  1.0
  H  H38  1  0.73005000  0.54333000  0.20595000  1.0
  H  H39  1  0.26995000  0.45667000  0.79405000  1.0
  H  H40  1  0.57615000  0.50733000  0.08435000  1.0
  H  H41  1  0.42385000  0.49268000  0.91565000  1.0
  H  H42  1  0.74673000  0.58661000  0.07357000  1.0
  H  H43  1  0.25328000  0.41339000  0.92643000  1.0
  C  C44  1  0.66656000  0.50942000  0.44725000  1.0
  C  C45  1  0.33344000  0.49058000  0.55274000  1.0
  C  C46  1  0.64300000  0.36959000  0.39412000  1.0
  C  C47  1  0.35700000  0.63041000  0.60587000  1.0
  C  C48  1  0.67149000  0.26362000  0.55930000  1.0
  C  C49  1  0.32851000  0.73638000  0.44069000  1.0
  C  C50  1  0.62024000  0.18500000  0.62736000  1.0
  C  C51  1  0.37976000  0.81500000  0.37264000  1.0
  C  C52  1  0.47360000  0.12624000  0.59924000  1.0
  C  C53  1  0.52640000  0.87376000  0.40076000  1.0
  C  C54  1  0.38352000  0.14984000  0.50054000  1.0
  C  C55  1  0.61648000  0.85016000  0.49945000  1.0
  C  C56  1  0.44058000  0.22802000  0.43420000  1.0
  C  C57  1  0.55942000  0.77198000  0.56580000  1.0
  C  C58  1  0.42391000  0.04237000  0.67189000  1.0
  C  C59  1  0.57609000  0.95763000  0.32811000  1.0
  C  C60  1  0.42665000  0.92651000  0.79806000  1.0
  C  C61  1  0.57334000  0.07349000  0.20194000  1.0
  C  C62  1  0.48047000  0.86685000  0.89256000  1.0
  C  C63  1  0.51953000  0.13315000  0.10744000  1.0
  C  C64  1  0.62779000  0.88692000  0.93486000  1.0
  C  C65  1  0.37221000  0.11307000  0.06514000  1.0
  C  C66  1  0.68220000  0.83338000  0.02596000  1.0
  C  C67  1  0.31780000  0.16663000  0.97404000  1.0
  C  C68  1  0.45282000  0.74185000  0.03803000  1.0
  C  C69  1  0.54718000  0.25816000  0.96197000  1.0
  C  C70  1  0.39287000  0.79212000  0.94615000  1.0
  C  C71  1  0.60713000  0.20789000  0.05385000  1.0
  C  C72  1  0.65771000  0.70648000  0.17426000  1.0
  C  C73  1  0.34229000  0.29352000  0.82574000  1.0
  C  C74  1  0.67833000  0.57826000  0.13081000  1.0
  C  C75  1  0.32167000  0.42174000  0.86919000  1.0
  I  I76  1  0.06798000  0.71926000  0.06954000  1.0
  I  I77  1  0.93201000  0.28073000  0.93046000  1.0
  I  I78  1  0.67672000  0.54428000  0.80287000  1.0
  I  I79  1  0.32329000  0.45572000  0.19713000  1.0
  I  I80  1  0.03559000  0.56171000  0.71210000  1.0
  I  I81  1  0.96441000  0.43828000  0.28791000  1.0
  I  I82  1  0.93813000  0.93723000  0.79233000  1.0
  I  I83  1  0.06187000  0.06277000  0.20768000  1.0
  I  I84  1  0.97140000  0.78874000  0.43604000  1.0
  I  I85  1  0.02860000  0.21126000  0.56397000  1.0
  N  N86  1  0.51350000  0.00452000  0.75327000  1.0
  N  N87  1  0.48650000  0.99548000  0.24673000  1.0
  N  N88  1  0.28729000  0.91508000  0.74622000  1.0
  N  N89  1  0.71271000  0.08491000  0.25378000  1.0
  N  N90  1  0.28599000  0.99133000  0.66686000  1.0
  N  N91  1  0.71401000  0.00867000  0.33314000  1.0
  N  N92  1  0.58234000  0.28326000  0.46366000  1.0
  N  N93  1  0.41766000  0.71674000  0.53634000  1.0
  N  N94  1  0.59513000  0.76301000  0.07695000  1.0
  N  N95  1  0.40487000  0.23699000  0.92305000  1.0
