# generated using pymatgen
data_Cd2H20C29O10
_symmetry_space_group_name_H-M   'P 1'
_cell_length_a   12.64770000
_cell_length_b   14.07120000
_cell_length_c   14.30930000
_cell_angle_alpha   117.24200000
_cell_angle_beta   113.82500000
_cell_angle_gamma   94.40270000
_symmetry_Int_Tables_number   1
_chemical_formula_structural   Cd2H20C29O10
_chemical_formula_sum   'Cd4 H40 C58 O20'
_cell_volume   1961.06885146
_cell_formula_units_Z   2
loop_
 _symmetry_equiv_pos_site_id
 _symmetry_equiv_pos_as_xyz
  1  'x, y, z'
loop_
 _atom_site_type_symbol
 _atom_site_label
 _atom_site_symmetry_multiplicity
 _atom_site_fract_x
 _atom_site_fract_y
 _atom_site_fract_z
 _atom_site_occupancy
  Cd  Cd0  1  0.00000000  0.00000000  0.50000000  1.0
  Cd  Cd1  1  0.00000000  0.50000000  0.50001000  1.0
  Cd  Cd2  1  0.92307000  0.67320000  0.34632000  1.0
  Cd  Cd3  1  0.07693000  0.32680000  0.65367000  1.0
  H  H4  1  0.89297000  0.08103000  0.91513000  1.0
  H  H5  1  0.52164000  0.83400000  0.91493000  1.0
  H  H6  1  0.10703000  0.91897000  0.08487000  1.0
  H  H7  1  0.47836000  0.16599000  0.08507000  1.0
  H  H8  1  0.97389000  0.02433000  0.77381000  1.0
  H  H9  1  0.29957000  0.74915000  0.77346000  1.0
  H  H10  1  0.02611000  0.97566000  0.22618000  1.0
  H  H11  1  0.70043000  0.25085000  0.22655000  1.0
  H  H12  1  0.70895000  0.69350000  0.54951000  1.0
  H  H13  1  0.34038000  0.85538000  0.54896000  1.0
  H  H14  1  0.29104000  0.30650000  0.45049000  1.0
  H  H15  1  0.65961000  0.14462000  0.45105000  1.0
  H  H16  1  0.63086000  0.74733000  0.69252000  1.0
  H  H17  1  0.56132000  0.94502000  0.69225000  1.0
  H  H18  1  0.36914000  0.25267000  0.30748000  1.0
  H  H19  1  0.43867000  0.05498000  0.30775000  1.0
  H  H20  1  0.81722000  0.78590000  0.88253000  1.0
  H  H21  1  0.56477000  0.09677000  0.88251000  1.0
  H  H22  1  0.18277000  0.21410000  0.11746000  1.0
  H  H23  1  0.43524000  0.90323000  0.11750000  1.0
  H  H24  1  0.88604000  0.71511000  0.01988000  1.0
  H  H25  1  0.63333000  0.30493000  0.01991000  1.0
  H  H26  1  0.11395000  0.28488000  0.98011000  1.0
  H  H27  1  0.36668000  0.69508000  0.98010000  1.0
  H  H28  1  0.75835000  0.94175000  0.24023000  1.0
  H  H29  1  0.98128000  0.29855000  0.24008000  1.0
  H  H30  1  0.24165000  0.05825000  0.75976000  1.0
  H  H31  1  0.01872000  0.70145000  0.75993000  1.0
  H  H32  1  0.68587000  0.01062000  0.10256000  1.0
  H  H33  1  0.91599000  0.09199000  0.10250000  1.0
  H  H34  1  0.31413000  0.98938000  0.89744000  1.0
  H  H35  1  0.08401000  0.90801000  0.89750000  1.0
  H  H36  1  0.24041000  0.00384000  0.55880000  1.0
  H  H37  1  0.81843000  0.55501000  0.55897000  1.0
  H  H38  1  0.75958000  0.99616000  0.44119000  1.0
  H  H39  1  0.18157000  0.44500000  0.44103000  1.0
  H  H40  1  0.16182000  0.87441000  0.48832000  1.0
  H  H41  1  0.82663000  0.61396000  0.48851000  1.0
  H  H42  1  0.83818000  0.12559000  0.51168000  1.0
  H  H43  1  0.17337000  0.38604000  0.51149000  1.0
  C  C44  1  0.69890000  0.94921000  0.89832000  1.0
  C  C45  1  0.30109000  0.05079000  0.10167000  1.0
  C  C46  1  0.75632000  0.91820000  0.81558000  1.0
  C  C47  1  0.55879000  0.89733000  0.81541000  1.0
  C  C48  1  0.24367000  0.08180000  0.18442000  1.0
  C  C49  1  0.44120000  0.10267000  0.18459000  1.0
  C  C50  1  0.85339000  0.99491000  0.83684000  1.0
  C  C51  1  0.48303000  0.84178000  0.83660000  1.0
  C  C52  1  0.14661000  0.00509000  0.16315000  1.0
  C  C53  1  0.51697000  0.15821000  0.16340000  1.0
  C  C54  1  0.89931000  0.96370000  0.75715000  1.0
  C  C55  1  0.35749000  0.79311000  0.75677000  1.0
  C  C56  1  0.10069000  0.03630000  0.24284000  1.0
  C  C57  1  0.64250000  0.20689000  0.24323000  1.0
  C  C58  1  0.84905000  0.85503000  0.65362000  1.0
  C  C59  1  0.30432000  0.79805000  0.65312000  1.0
  C  C60  1  0.15094000  0.14497000  0.34638000  1.0
  C  C61  1  0.69568000  0.20195000  0.34689000  1.0
  C  C62  1  0.75223000  0.77730000  0.63198000  1.0
  C  C63  1  0.37952000  0.85417000  0.63149000  1.0
  C  C64  1  0.24777000  0.22269000  0.36802000  1.0
  C  C65  1  0.62048000  0.14584000  0.36852000  1.0
  C  C66  1  0.70763000  0.80831000  0.71226000  1.0
  C  C67  1  0.50427000  0.90373000  0.71196000  1.0
  C  C68  1  0.29237000  0.19169000  0.28774000  1.0
  C  C69  1  0.49573000  0.09628000  0.28805000  1.0
  C  C70  1  0.89579000  0.82473000  0.56634000  1.0
  C  C71  1  0.17033000  0.74125000  0.56596000  1.0
  C  C72  1  0.10420000  0.17527000  0.43365000  1.0
  C  C73  1  0.82966000  0.25875000  0.43405000  1.0
  C  C74  1  0.74447000  0.90227000  0.98086000  1.0
  C  C75  1  0.73579000  0.07869000  0.98084000  1.0
  C  C76  1  0.25553000  0.09773000  0.01913000  1.0
  C  C77  1  0.26421000  0.92131000  0.01916000  1.0
  C  C78  1  0.80171000  0.81933000  0.95941000  1.0
  C  C79  1  0.65712000  0.14021000  0.95944000  1.0
  C  C80  1  0.19828000  0.18066000  0.04057000  1.0
  C  C81  1  0.34288000  0.85979000  0.04057000  1.0
  C  C82  1  0.84138000  0.77956000  0.03660000  1.0
  C  C83  1  0.69467000  0.25718000  0.03662000  1.0
  C  C84  1  0.15861000  0.22043000  0.96339000  1.0
  C  C85  1  0.30534000  0.74282000  0.96339000  1.0
  C  C86  1  0.82648000  0.82351000  0.13851000  1.0
  C  C87  1  0.81149000  0.31512000  0.13841000  1.0
  C  C88  1  0.17351000  0.17649000  0.86148000  1.0
  C  C89  1  0.18852000  0.68488000  0.86160000  1.0
  C  C90  1  0.76929000  0.90656000  0.16058000  1.0
  C  C91  1  0.89070000  0.25411000  0.16045000  1.0
  C  C92  1  0.23071000  0.09345000  0.83942000  1.0
  C  C93  1  0.10931000  0.74589000  0.83955000  1.0
  C  C94  1  0.72859000  0.94488000  0.08271000  1.0
  C  C95  1  0.85350000  0.13791000  0.08265000  1.0
  C  C96  1  0.27141000  0.05512000  0.91728000  1.0
  C  C97  1  0.14651000  0.86210000  0.91735000  1.0
  C  C98  1  0.87122000  0.78266000  0.22212000  1.0
  C  C99  1  0.85045000  0.43960000  0.22202000  1.0
  C  C100  1  0.12878000  0.21734000  0.77787000  1.0
  C  C101  1  0.14956000  0.56040000  0.77799000  1.0
  O  O102  1  0.16500000  0.94615000  0.48768000  1.0
  O  O103  1  0.82281000  0.54158000  0.48787000  1.0
  O  O104  1  0.83500000  0.05385000  0.51231000  1.0
  O  O105  1  0.17719000  0.45842000  0.51213000  1.0
  O  O106  1  0.84867000  0.72122000  0.47544000  1.0
  O  O107  1  0.12658000  0.75394000  0.47511000  1.0
  O  O108  1  0.15133000  0.27877000  0.52456000  1.0
  O  O109  1  0.87341000  0.24606000  0.52489000  1.0
  O  O110  1  0.97710000  0.89950000  0.58502000  1.0
  O  O111  1  0.10763000  0.68534000  0.58474000  1.0
  O  O112  1  0.02289000  0.10050000  0.41498000  1.0
  O  O113  1  0.89236000  0.31466000  0.41527000  1.0
  O  O114  1  0.91000000  0.69907000  0.19354000  1.0
  O  O115  1  0.78319000  0.49469000  0.19350000  1.0
  O  O116  1  0.09000000  0.30093000  0.80645000  1.0
  O  O117  1  0.21681000  0.50531000  0.80651000  1.0
  O  O118  1  0.86607000  0.83169000  0.32146000  1.0
  O  O119  1  0.95492000  0.48981000  0.32131000  1.0
  O  O120  1  0.13393000  0.16831000  0.67853000  1.0
  O  O121  1  0.04509000  0.51020000  0.67870000  1.0
