# generated using pymatgen
data_ZnH34C28N11O4
_symmetry_space_group_name_H-M   'P 1'
_cell_length_a   10.94410000
_cell_length_b   16.35860000
_cell_length_c   17.48420000
_cell_angle_alpha   89.90810000
_cell_angle_beta   89.38520000
_cell_angle_gamma   88.78260000
_symmetry_Int_Tables_number   1
_chemical_formula_structural   ZnH34C28N11O4
_chemical_formula_sum   'Zn2 H68 C56 N22 O8'
_cell_volume   3129.30934084
_cell_formula_units_Z   2
loop_
 _symmetry_equiv_pos_site_id
 _symmetry_equiv_pos_as_xyz
  1  'x, y, z'
loop_
 _atom_site_type_symbol
 _atom_site_label
 _atom_site_symmetry_multiplicity
 _atom_site_fract_x
 _atom_site_fract_y
 _atom_site_fract_z
 _atom_site_occupancy
  Zn  Zn0  1  0.52025000  0.58503000  0.48847000  1.0
  Zn  Zn1  1  0.52618000  0.41520000  0.50009000  1.0
  H  H2  1  0.41590000  0.71296000  0.38869000  1.0
  H  H3  1  0.93941000  0.82949000  0.57309000  1.0
  H  H4  1  0.07239000  0.89170000  0.57692000  1.0
  H  H5  1  0.07845000  0.78887000  0.61050000  1.0
  H  H6  1  0.21963000  0.21424000  0.46510000  1.0
  H  H7  1  0.01756000  0.09876000  0.48828000  1.0
  H  H8  1  0.14898000  0.09202000  0.42841000  1.0
  H  H9  1  0.02355000  0.15783000  0.40273000  1.0
  H  H10  1  0.95836000  0.81025000  0.35365000  1.0
  H  H11  1  0.80629000  0.84373000  0.46156000  1.0
  H  H12  1  0.71957000  0.76479000  0.42037000  1.0
  H  H13  1  0.41288000  0.29762000  0.60591000  1.0
  H  H14  1  0.74978000  0.85410000  0.36606000  1.0
  H  H15  1  0.79125000  0.66584000  0.33311000  1.0
  H  H16  1  0.73547000  0.54718000  0.27410000  1.0
  H  H17  1  0.79955000  0.48509000  0.34628000  1.0
  H  H18  1  0.89835000  0.53514000  0.28024000  1.0
  H  H19  1  0.31615000  0.36418000  0.44334000  1.0
  H  H20  1  0.14702000  0.29608000  0.33103000  1.0
  H  H21  1  0.29570000  0.33601000  0.31400000  1.0
  H  H22  1  0.17043000  0.40338000  0.33751000  1.0
  H  H23  1  0.23596000  0.73188000  0.54969000  1.0
  H  H24  1  0.60693000  0.70803000  0.59172000  1.0
  H  H25  1  0.30346000  0.65306000  0.65556000  1.0
  H  H26  1  0.21917000  0.56905000  0.62463000  1.0
  H  H27  1  0.13950000  0.65437000  0.66553000  1.0
  H  H28  1  0.77180000  0.42771000  0.60284000  1.0
  H  H29  1  0.70040000  0.27992000  0.65634000  1.0
  H  H30  1  0.72568000  0.36737000  0.71251000  1.0
  H  H31  1  0.84539000  0.29203000  0.70004000  1.0
  H  H32  1  0.64790000  0.63331000  0.88619000  1.0
  H  H33  1  0.56459000  0.59229000  0.96103000  1.0
  H  H34  1  0.63776000  0.37659000  0.09852000  1.0
  H  H35  1  0.62254000  0.28202000  0.40784000  1.0
  H  H36  1  0.53113000  0.39572000  0.03213000  1.0
  H  H37  1  0.24678000  0.65943000  0.16042000  1.0
  H  H38  1  0.24297000  0.60751000  0.07736000  1.0
  H  H39  1  0.24295000  0.40824000  0.91117000  1.0
  H  H40  1  0.24024000  0.35951000  0.82593000  1.0
  H  H41  1  0.72463000  0.58304000  0.77097000  1.0
  H  H42  1  0.64803000  0.60641000  0.69279000  1.0
  H  H43  1  0.59530000  0.32356000  0.21221000  1.0
  H  H44  1  0.59238000  0.36752000  0.29880000  1.0
  H  H45  1  0.21198000  0.60709000  0.27699000  1.0
  H  H46  1  0.99799000  0.16753000  0.59229000  1.0
  H  H47  1  0.31458000  0.59208000  0.34549000  1.0
  H  H48  1  0.32292000  0.42248000  0.64294000  1.0
  H  H49  1  0.21705000  0.41655000  0.71158000  1.0
  H  H50  1  0.36146000  0.93725000  0.39263000  1.0
  H  H51  1  0.26401000  0.88479000  0.28750000  1.0
  H  H52  1  0.23133000  0.80244000  0.35205000  1.0
  H  H53  1  0.35921000  0.79534000  0.28873000  1.0
  H  H54  1  0.35284000  0.07618000  0.61358000  1.0
  H  H55  1  0.25231000  0.13902000  0.71535000  1.0
  H  H56  1  0.22116000  0.21508000  0.64388000  1.0
  H  H57  1  0.83129000  0.15211000  0.49619000  1.0
  H  H58  1  0.34573000  0.22640000  0.70760000  1.0
  H  H59  1  0.59995000  0.93299000  0.61697000  1.0
  H  H60  1  0.69973000  0.87457000  0.71961000  1.0
  H  H61  1  0.75712000  0.80001000  0.65338000  1.0
  H  H62  1  0.62006000  0.78211000  0.70618000  1.0
  H  H63  1  0.61172000  0.05599000  0.39555000  1.0
  H  H64  1  0.77110000  0.18427000  0.35637000  1.0
  H  H65  1  0.64185000  0.19638000  0.29572000  1.0
  H  H66  1  0.72819000  0.10307000  0.29479000  1.0
  H  H67  1  0.74292000  0.21655000  0.55748000  1.0
  H  H68  1  0.79304000  0.11924000  0.59119000  1.0
  H  H69  1  0.04785000  0.84178000  0.45052000  1.0
  C  C70  1  0.49269000  0.49304000  0.34723000  1.0
  C  C71  1  0.56077000  0.16267000  0.44701000  1.0
  C  C72  1  0.45296000  0.74936000  0.43467000  1.0
  C  C73  1  0.45319000  0.25697000  0.56292000  1.0
  C  C74  1  0.56132000  0.74666000  0.54974000  1.0
  C  C75  1  0.57033000  0.24805000  0.44999000  1.0
  C  C76  1  0.49162000  0.87728000  0.49931000  1.0
  C  C77  1  0.49306000  0.12371000  0.50627000  1.0
  C  C78  1  0.48528000  0.96310000  0.50269000  1.0
  C  C79  1  0.48468000  0.03810000  0.50622000  1.0
  C  C80  1  0.75652000  0.49549000  0.48758000  1.0
  C  C81  1  0.51155000  0.50693000  0.64267000  1.0
  C  C82  1  0.28449000  0.50136000  0.49629000  1.0
  C  C83  1  0.90473000  0.62738000  0.41319000  1.0
  C  C84  1  0.14186000  0.34419000  0.48072000  1.0
  C  C85  1  0.11569000  0.65540000  0.50421000  1.0
  C  C86  1  0.91052000  0.35683000  0.55926000  1.0
  C  C87  1  0.95275000  0.70605000  0.41911000  1.0
  C  C88  1  0.08067000  0.27485000  0.50638000  1.0
  C  C89  1  0.04853000  0.72070000  0.47141000  1.0
  C  C90  1  0.97078000  0.28065000  0.55141000  1.0
  C  C91  1  0.07895000  0.57359000  0.48763000  1.0
  C  C92  1  0.41381000  0.50698000  0.88017000  1.0
  C  C93  1  0.95978000  0.42553000  0.51554000  1.0
  C  C94  1  0.95597000  0.56409000  0.46071000  1.0
  C  C95  1  0.08901000  0.42292000  0.49713000  1.0
  C  C96  1  0.14940000  0.49925000  0.49455000  1.0
  C  C97  1  0.89384000  0.49371000  0.48727000  1.0
  C  C98  1  0.51085000  0.55676000  0.85404000  1.0
  C  C99  1  0.48634000  0.43781000  0.13748000  1.0
  C  C100  1  0.33661000  0.54948000  0.16135000  1.0
  C  C101  1  0.34685000  0.45967000  0.82819000  1.0
  C  C102  1  0.54346000  0.55536000  0.77615000  1.0
  C  C103  1  0.39956000  0.49609000  0.11009000  1.0
  C  C104  1  0.51195000  0.43466000  0.21578000  1.0
  C  C105  1  0.36544000  0.54818000  0.23958000  1.0
  C  C106  1  0.37706000  0.46035000  0.74979000  1.0
  C  C107  1  0.47687000  0.50704000  0.72560000  1.0
  C  C108  1  0.45561000  0.49213000  0.26537000  1.0
  C  C109  1  0.81924000  0.17222000  0.55637000  1.0
  C  C110  1  0.04010000  0.82955000  0.56652000  1.0
  C  C111  1  0.07830000  0.13436000  0.45121000  1.0
  C  C112  1  0.78873000  0.81066000  0.40772000  1.0
  C  C113  1  0.81225000  0.54144000  0.31361000  1.0
  C  C114  1  0.39049000  0.50267000  0.95970000  1.0
  C  C115  1  0.21218000  0.34247000  0.34901000  1.0
  C  C116  1  0.21805000  0.63602000  0.62825000  1.0
  C  C117  1  0.76984000  0.32462000  0.67205000  1.0
  C  C118  1  0.30467000  0.83779000  0.32467000  1.0
  C  C119  1  0.29396000  0.18171000  0.67487000  1.0
  C  C120  1  0.67321000  0.82951000  0.67690000  1.0
  C  C121  1  0.69285000  0.15236000  0.33171000  1.0
  C  C122  1  0.38520000  0.50317000  0.02998000  1.0
  C  C123  1  0.43958000  0.83502000  0.43686000  1.0
  C  C124  1  0.43783000  0.17176000  0.56550000  1.0
  C  C125  1  0.55329000  0.83211000  0.55756000  1.0
  N  N126  1  0.51244000  0.70868000  0.48996000  1.0
  N  N127  1  0.81317000  0.37212000  0.60737000  1.0
  N  N128  1  0.57080000  0.60635000  0.90469000  1.0
  N  N129  1  0.54640000  0.38202000  0.08817000  1.0
  N  N130  1  0.24440000  0.60322000  0.13550000  1.0
  N  N131  1  0.24751000  0.41410000  0.85323000  1.0
  N  N132  1  0.64252000  0.60451000  0.75101000  1.0
  N  N133  1  0.60052000  0.37729000  0.24136000  1.0
  N  N134  1  0.30322000  0.60400000  0.28849000  1.0
  N  N135  1  0.30851000  0.41164000  0.70006000  1.0
  N  N136  1  0.38041000  0.87761000  0.38053000  1.0
  N  N137  1  0.51763000  0.29173000  0.50657000  1.0
  N  N138  1  0.37394000  0.13539000  0.62321000  1.0
  N  N139  1  0.60265000  0.87102000  0.61827000  1.0
  N  N140  1  0.61481000  0.11761000  0.38999000  1.0
  N  N141  1  0.92768000  0.20912000  0.58869000  1.0
  N  N142  1  0.08212000  0.80212000  0.49024000  1.0
  N  N143  1  0.13964000  0.19893000  0.49286000  1.0
  N  N144  1  0.89715000  0.76957000  0.37435000  1.0
  N  N145  1  0.81048000  0.61369000  0.36294000  1.0
  N  N146  1  0.24334000  0.32971000  0.42981000  1.0
  N  N147  1  0.21216000  0.67229000  0.55238000  1.0
  O  O148  1  0.53197000  0.55983000  0.37331000  1.0
  O  O149  1  0.55312000  0.43995000  0.61445000  1.0
  O  O150  1  0.49584000  0.57377000  0.60645000  1.0
  O  O151  1  0.48280000  0.42619000  0.38489000  1.0
  O  O152  1  0.70239000  0.56054000  0.51090000  1.0
  O  O153  1  0.34400000  0.44233000  0.52953000  1.0
  O  O154  1  0.33818000  0.56143000  0.46524000  1.0
  O  O155  1  0.70323000  0.43066000  0.46681000  1.0
