# generated using pymatgen
data_Zn3H12C36(SO15)2
_symmetry_space_group_name_H-M   'P 1'
_cell_length_a   19.10690000
_cell_length_b   19.10690000
_cell_length_c   19.16150000
_cell_angle_alpha   111.29100000
_cell_angle_beta   111.29100000
_cell_angle_gamma   104.81800000
_symmetry_Int_Tables_number   1
_chemical_formula_structural   Zn3H12C36(SO15)2
_chemical_formula_sum   'Zn6 H24 C72 S4 O60'
_cell_volume   5434.19696505
_cell_formula_units_Z   2
loop_
 _symmetry_equiv_pos_site_id
 _symmetry_equiv_pos_as_xyz
  1  'x, y, z'
loop_
 _atom_site_type_symbol
 _atom_site_label
 _atom_site_symmetry_multiplicity
 _atom_site_fract_x
 _atom_site_fract_y
 _atom_site_fract_z
 _atom_site_occupancy
  Zn  Zn0  1  0.56581000  0.99148000  0.05879000  1.0
  Zn  Zn1  1  0.45341000  0.43038000  0.49632000  1.0
  Zn  Zn2  1  0.56962000  0.54659000  0.50368000  1.0
  Zn  Zn3  1  0.44009000  0.99139000  0.92821000  1.0
  Zn  Zn4  1  0.00852000  0.43419000  0.94121000  1.0
  Zn  Zn5  1  0.00861000  0.55991000  0.07179000  1.0
  H  H6  1  0.36374000  0.02809000  0.09028000  1.0
  H  H7  1  0.68722000  0.00021000  0.79970000  1.0
  H  H8  1  0.01475000  0.69505000  0.82744000  1.0
  H  H9  1  0.99979000  0.31278000  0.20031000  1.0
  H  H10  1  0.30495000  0.98525000  0.17256000  1.0
  H  H11  1  0.57320000  0.26691000  0.03514000  1.0
  H  H12  1  0.30684000  0.71737000  0.83293000  1.0
  H  H13  1  0.73309000  0.42679000  0.96485000  1.0
  H  H14  1  0.56898000  0.95694000  0.82403000  1.0
  H  H15  1  0.28263000  0.69316000  0.16708000  1.0
  H  H16  1  0.40375000  0.06263000  0.43935000  1.0
  H  H17  1  0.82200000  0.95572000  0.70910000  1.0
  H  H18  1  0.93737000  0.59624000  0.56065000  1.0
  H  H19  1  0.04428000  0.17800000  0.29090000  1.0
  H  H20  1  0.97191000  0.63626000  0.90972000  1.0
  H  H21  1  0.36993000  0.22230000  0.41281000  1.0
  H  H22  1  0.77684000  0.72216000  0.71033000  1.0
  H  H23  1  0.77770000  0.63007000  0.58719000  1.0
  H  H24  1  0.27784000  0.22317000  0.28967000  1.0
  H  H25  1  0.04306000  0.43102000  0.17598000  1.0
  H  H26  1  0.54981000  0.49920000  0.29579000  1.0
  H  H27  1  0.31498000  0.52686000  0.66501000  1.0
  H  H28  1  0.50080000  0.45019000  0.70420000  1.0
  H  H29  1  0.47314000  0.68502000  0.33499000  1.0
  C  C30  1  0.47827000  0.11007000  0.07913000  1.0
  C  C31  1  0.54718000  0.82653000  0.77355000  1.0
  C  C32  1  0.12127000  0.31149000  0.24322000  1.0
  C  C33  1  0.38261000  0.10791000  0.28954000  1.0
  C  C34  1  0.68851000  0.87873000  0.75678000  1.0
  C  C35  1  0.89209000  0.61739000  0.71046000  1.0
  C  C36  1  0.43764000  0.19180000  0.32767000  1.0
  C  C37  1  0.64880000  0.79563000  0.73427000  1.0
  C  C38  1  0.80819000  0.56236000  0.67233000  1.0
  C  C39  1  0.20437000  0.35120000  0.26573000  1.0
  C  C40  1  0.84179000  0.55796000  0.80560000  1.0
  C  C41  1  0.46404000  0.22091000  0.27777000  1.0
  C  C42  1  0.57152000  0.76581000  0.73351000  1.0
  C  C43  1  0.77909000  0.53596000  0.72223000  1.0
  C  C44  1  0.23419000  0.42848000  0.26649000  1.0
  C  C45  1  0.17347000  0.45282000  0.22645000  1.0
  C  C46  1  0.58788000  0.27538000  0.14123000  1.0
  C  C47  1  0.36266000  0.68716000  0.77186000  1.0
  C  C48  1  0.72462000  0.41212000  0.85877000  1.0
  C  C49  1  0.31284000  0.63734000  0.22814000  1.0
  C  C50  1  0.35687000  0.07496000  0.34096000  1.0
  C  C51  1  0.44205000  0.15821000  0.19441000  1.0
  C  C52  1  0.77252000  0.91526000  0.76463000  1.0
  C  C53  1  0.92504000  0.64312000  0.65904000  1.0
  C  C54  1  0.08473000  0.22748000  0.23536000  1.0
  C  C55  1  0.47990000  0.24533000  0.42468000  1.0
  C  C56  1  0.69614000  0.74417000  0.73458000  1.0
  C  C57  1  0.75467000  0.52010000  0.57532000  1.0
  C  C58  1  0.25583000  0.30387000  0.26542000  1.0
  C  C59  1  0.48290000  0.18102000  0.15168000  1.0
  C  C60  1  0.48138000  0.80161000  0.79111000  1.0
  C  C61  1  0.81897000  0.51711000  0.84832000  1.0
  C  C62  1  0.47261000  0.87097000  0.85175000  1.0
  C  C63  1  0.19839000  0.51862000  0.20889000  1.0
  C  C64  1  0.53864000  0.26297000  0.18588000  1.0
  C  C65  1  0.44111000  0.71900000  0.76907000  1.0
  C  C66  1  0.73703000  0.46137000  0.81412000  1.0
  C  C67  1  0.28100000  0.55889000  0.23093000  1.0
  C  C68  1  0.88993000  0.52174000  0.92088000  1.0
  C  C69  1  0.55159000  0.32820000  0.26317000  1.0
  C  C70  1  0.46687000  0.65944000  0.73009000  1.0
  C  C71  1  0.67180000  0.44841000  0.73683000  1.0
  C  C72  1  0.34056000  0.53313000  0.26991000  1.0
  C  C73  1  0.12903000  0.52740000  0.14825000  1.0
  C  C74  1  0.51370000  0.30779000  0.30792000  1.0
  C  C75  1  0.52266000  0.67857000  0.70152000  1.0
  C  C76  1  0.69221000  0.48630000  0.69208000  1.0
  C  C77  1  0.32143000  0.47734000  0.29847000  1.0
  C  C78  1  0.38931000  0.48073000  0.37371000  1.0
  C  C79  1  0.62664000  0.48640000  0.61933000  1.0
  C  C80  1  0.51927000  0.61069000  0.62629000  1.0
  C  C81  1  0.51359000  0.37336000  0.38067000  1.0
  C  C82  1  0.63737000  0.09027000  0.01247000  1.0
  C  C83  1  0.42047000  0.88459000  0.02133000  1.0
  C  C84  1  0.90974000  0.36264000  0.98753000  1.0
  C  C85  1  0.11541000  0.57953000  0.97867000  1.0
  C  C86  1  0.70118000  0.14610000  0.00963000  1.0
  C  C87  1  0.36000000  0.81840000  0.01763000  1.0
  C  C88  1  0.85391000  0.29883000  0.99038000  1.0
  C  C89  1  0.18160000  0.64000000  0.98237000  1.0
  C  C90  1  0.75157000  0.19424000  0.00339000  1.0
  C  C91  1  0.30312000  0.76007000  0.00614000  1.0
  C  C92  1  0.80576000  0.24844000  0.99662000  1.0
  C  C93  1  0.23994000  0.69689000  0.99387000  1.0
  C  C94  1  0.38325000  0.07373000  0.15627000  1.0
  C  C95  1  0.58959000  0.91118000  0.79649000  1.0
  C  C96  1  0.92627000  0.61675000  0.84373000  1.0
  C  C97  1  0.08882000  0.41041000  0.20351000  1.0
  C  C98  1  0.35100000  0.04953000  0.20156000  1.0
  C  C99  1  0.65582000  0.93561000  0.78364000  1.0
  C  C100  1  0.95046000  0.64900000  0.79844000  1.0
  C  C101  1  0.06439000  0.34418000  0.21636000  1.0
  S  S102  1  0.62548000  0.43177000  0.29250000  1.0
  S  S103  1  0.44198000  0.57111000  0.74722000  1.0
  S  S104  1  0.56822000  0.37452000  0.70749000  1.0
  S  S105  1  0.42889000  0.55802000  0.25278000  1.0
  O  O106  1  0.53072000  0.08316000  0.10528000  1.0
  O  O107  1  0.52432000  0.89963000  0.93053000  1.0
  O  O108  1  0.50310000  0.53952000  0.75080000  1.0
  O  O109  1  0.43461000  0.60249000  0.82348000  1.0
  O  O110  1  0.35397000  0.50029000  0.66469000  1.0
  O  O111  1  0.55035000  0.29357000  0.64438000  1.0
  O  O112  1  0.57640000  0.39069000  0.79052000  1.0
  O  O113  1  0.49712000  0.39667000  0.66284000  1.0
  O  O114  1  0.46048000  0.49690000  0.24920000  1.0
  O  O115  1  0.39751000  0.56540000  0.17652000  1.0
  O  O116  1  0.49971000  0.64604000  0.33531000  1.0
  O  O117  1  0.70643000  0.44964000  0.35562000  1.0
  O  O118  1  0.91932000  0.57600000  0.00033000  1.0
  O  O119  1  0.60931000  0.42360000  0.20948000  1.0
  O  O120  1  0.60333000  0.50287000  0.33716000  1.0
  O  O121  1  0.10037000  0.47568000  0.06947000  1.0
  O  O122  1  0.42401000  0.08068000  0.99968000  1.0
  O  O123  1  0.66234000  0.06479000  0.06641000  1.0
  O  O124  1  0.39068000  0.91140000  0.97146000  1.0
  O  O125  1  0.93521000  0.33766000  0.93359000  1.0
  O  O126  1  0.42052000  0.89863000  0.82378000  1.0
  O  O127  1  0.08860000  0.60933000  0.02854000  1.0
  O  O128  1  0.56178000  0.07031000  0.96063000  1.0
  O  O129  1  0.49844000  0.90985000  0.07389000  1.0
  O  O130  1  0.92969000  0.43823000  0.03938000  1.0
  O  O131  1  0.09014000  0.50156000  0.92610000  1.0
  O  O132  1  0.91683000  0.46929000  0.89473000  1.0
  O  O133  1  0.46536000  0.52555000  0.40022000  1.0
  O  O134  1  0.55447000  0.42491000  0.57097000  1.0
  O  O135  1  0.47444000  0.53464000  0.59977000  1.0
  O  O136  1  0.57509000  0.44553000  0.42903000  1.0
  O  O137  1  0.10137000  0.57948000  0.17622000  1.0
  O  O138  1  0.36444000  0.44550000  0.41127000  1.0
  O  O139  1  0.64842000  0.55225000  0.61324000  1.0
  O  O140  1  0.55450000  0.63556000  0.58873000  1.0
  O  O141  1  0.44775000  0.35158000  0.38675000  1.0
  O  O142  1  0.66012000  0.28531000  0.16911000  1.0
  O  O143  1  0.53817000  0.26175000  0.06152000  1.0
  O  O144  1  0.30080000  0.61987000  0.71346000  1.0
  O  O145  1  0.36247000  0.74141000  0.83982000  1.0
  O  O146  1  0.71469000  0.33988000  0.83089000  1.0
  O  O147  1  0.73825000  0.46183000  0.93848000  1.0
  O  O148  1  0.38013000  0.69921000  0.28654000  1.0
  O  O149  1  0.25859000  0.63753000  0.16018000  1.0
  O  O150  1  0.28494000  0.04736000  0.32672000  1.0
  O  O151  1  0.42268000  0.07880000  0.40386000  1.0
  O  O152  1  0.83882000  0.93281000  0.82441000  1.0
  O  O153  1  0.76508000  0.93021000  0.69888000  1.0
  O  O154  1  0.95264000  0.71505000  0.67328000  1.0
  O  O155  1  0.92120000  0.57731000  0.59614000  1.0
  O  O156  1  0.06719000  0.16118000  0.17559000  1.0
  O  O157  1  0.06979000  0.23492000  0.30112000  1.0
  O  O158  1  0.55526000  0.27781000  0.47063000  1.0
  O  O159  1  0.42848000  0.25122000  0.45944000  1.0
  O  O160  1  0.69997000  0.70747000  0.77528000  1.0
  O  O161  1  0.74052000  0.74817000  0.69328000  1.0
  O  O162  1  0.72219000  0.44474000  0.52937000  1.0
  O  O163  1  0.74878000  0.57151000  0.54056000  1.0
  O  O164  1  0.29253000  0.30004000  0.22472000  1.0
  O  O165  1  0.25183000  0.25948000  0.30672000  1.0
