# generated using pymatgen
data_PrH17(CO)10
_symmetry_space_group_name_H-M   'P 1'
_cell_length_a   8.79290000
_cell_length_b   9.43889000
_cell_length_c   11.56560000
_cell_angle_alpha   103.27300000
_cell_angle_beta   97.19120000
_cell_angle_gamma   111.27400000
_symmetry_Int_Tables_number   1
_chemical_formula_structural   PrH17(CO)10
_chemical_formula_sum   'Pr2 H34 C20 O20'
_cell_volume   847.27173783
_cell_formula_units_Z   2
loop_
 _symmetry_equiv_pos_site_id
 _symmetry_equiv_pos_as_xyz
  1  'x, y, z'
loop_
 _atom_site_type_symbol
 _atom_site_label
 _atom_site_symmetry_multiplicity
 _atom_site_fract_x
 _atom_site_fract_y
 _atom_site_fract_z
 _atom_site_occupancy
  Pr  Pr0  1  0.25532000  0.51196000  0.01637000  1.0
  Pr  Pr1  1  0.74468000  0.48803000  0.98362000  1.0
  H  H2  1  0.20704000  0.52785000  0.45206000  1.0
  H  H3  1  0.79299000  0.47217000  0.54796000  1.0
  H  H4  1  0.42829000  0.58243000  0.46695000  1.0
  H  H5  1  0.57174000  0.41761000  0.53304000  1.0
  H  H6  1  0.28519000  0.37987000  0.41084000  1.0
  H  H7  1  0.71485000  0.62016000  0.58918000  1.0
  H  H8  1  0.41520000  0.37596000  0.68398000  1.0
  H  H9  1  0.58479000  0.62403000  0.31600000  1.0
  H  H10  1  0.01161000  0.88960000  0.20507000  1.0
  H  H11  1  0.98840000  0.11040000  0.79496000  1.0
  H  H12  1  0.23207000  0.01856000  0.25054000  1.0
  H  H13  1  0.76794000  0.98143000  0.74949000  1.0
  H  H14  1  0.11020000  0.97860000  0.10179000  1.0
  H  H15  1  0.88981000  0.02143000  0.89825000  1.0
  H  H16  1  0.44259000  0.07608000  0.90749000  1.0
  H  H17  1  0.55742000  0.92391000  0.09252000  1.0
  H  H18  1  0.34865000  0.01563000  0.02568000  1.0
  H  H19  1  0.65134000  0.98437000  0.97433000  1.0
  H  H20  1  0.21736000  0.97965000  0.88457000  1.0
  H  H21  1  0.78263000  0.02035000  0.11544000  1.0
  H  H22  1  0.37093000  0.75751000  0.62468000  1.0
  H  H23  1  0.62905000  0.24247000  0.37533000  1.0
  H  H24  1  0.49828000  0.72792000  0.74393000  1.0
  H  H25  1  0.50173000  0.27207000  0.25609000  1.0
  H  H26  1  0.46541000  0.90588000  0.76859000  1.0
  H  H27  1  0.53458000  0.09411000  0.23142000  1.0
  H  H28  1  0.01136000  0.60443000  0.73781000  1.0
  H  H29  1  0.98864000  0.39560000  0.26220000  1.0
  H  H30  1  0.00590000  0.28552000  0.51407000  1.0
  H  H31  1  0.99412000  0.71448000  0.48589000  1.0
  H  H32  1  0.91872000  0.28203000  0.64685000  1.0
  H  H33  1  0.08127000  0.71798000  0.35310000  1.0
  H  H34  1  0.95692000  0.11691000  0.56839000  1.0
  H  H35  1  0.04305000  0.88309000  0.43156000  1.0
  C  C36  1  0.17621000  0.31683000  0.67885000  1.0
  C  C37  1  0.82379000  0.68316000  0.32112000  1.0
  C  C38  1  0.30321000  0.50148000  0.41103000  1.0
  C  C39  1  0.69681000  0.49854000  0.58898000  1.0
  C  C40  1  0.28573000  0.50943000  0.28211000  1.0
  C  C41  1  0.71427000  0.49058000  0.71790000  1.0
  C  C42  1  0.25672000  0.70227000  0.77250000  1.0
  C  C43  1  0.74328000  0.29773000  0.22753000  1.0
  C  C44  1  0.12977000  0.92747000  0.17577000  1.0
  C  C45  1  0.87023000  0.07254000  0.82424000  1.0
  C  C46  1  0.33560000  0.06398000  0.94923000  1.0
  C  C47  1  0.66439000  0.93603000  0.05078000  1.0
  C  C48  1  0.40604000  0.77685000  0.72289000  1.0
  C  C49  1  0.59396000  0.22315000  0.27712000  1.0
  C  C50  1  0.00372000  0.24760000  0.59683000  1.0
  C  C51  1  0.99628000  0.75238000  0.40312000  1.0
  C  C52  1  0.32695000  0.22266000  0.99285000  1.0
  C  C53  1  0.67304000  0.77733000  0.00715000  1.0
  C  C54  1  0.16976000  0.78589000  0.12804000  1.0
  C  C55  1  0.83023000  0.21410000  0.87197000  1.0
  O  O56  1  0.27074000  0.68648000  0.87616000  1.0
  O  O57  1  0.72926000  0.31352000  0.12385000  1.0
  O  O58  1  0.20184000  0.36183000  0.79167000  1.0
  O  O59  1  0.79813000  0.63816000  0.20831000  1.0
  O  O60  1  0.29806000  0.32408000  0.62119000  1.0
  O  O61  1  0.70194000  0.67591000  0.37879000  1.0
  O  O62  1  0.14172000  0.47292000  0.21606000  1.0
  O  O63  1  0.85828000  0.52709000  0.78395000  1.0
  O  O64  1  0.41470000  0.54981000  0.23638000  1.0
  O  O65  1  0.58530000  0.45018000  0.76361000  1.0
  O  O66  1  0.20145000  0.23290000  0.03177000  1.0
  O  O67  1  0.79854000  0.76710000  0.96824000  1.0
  O  O68  1  0.31912000  0.79609000  0.15313000  1.0
  O  O69  1  0.68088000  0.20389000  0.84689000  1.0
  O  O70  1  0.10937000  0.65509000  0.69710000  1.0
  O  O71  1  0.89065000  0.34493000  0.30292000  1.0
  O  O72  1  0.44493000  0.34873000  0.98705000  1.0
  O  O73  1  0.55505000  0.65124000  0.01293000  1.0
  O  O74  1  0.05265000  0.65373000  0.05946000  1.0
  O  O75  1  0.94734000  0.34627000  0.94055000  1.0
