# generated using pymatgen
data_Zn2H8C29I4(ClO2)4
_symmetry_space_group_name_H-M   'P 1'
_cell_length_a   12.30030000
_cell_length_b   12.39580000
_cell_length_c   23.20420000
_cell_angle_alpha   89.26960000
_cell_angle_beta   89.64130000
_cell_angle_gamma   88.96400000
_symmetry_Int_Tables_number   1
_chemical_formula_structural   Zn2H8C29I4(ClO2)4
_chemical_formula_sum   'Zn4 H16 C58 I8 Cl8 O16'
_cell_volume   3537.06203321
_cell_formula_units_Z   2
loop_
 _symmetry_equiv_pos_site_id
 _symmetry_equiv_pos_as_xyz
  1  'x, y, z'
loop_
 _atom_site_type_symbol
 _atom_site_label
 _atom_site_symmetry_multiplicity
 _atom_site_fract_x
 _atom_site_fract_y
 _atom_site_fract_z
 _atom_site_occupancy
  Zn  Zn0  1  0.49947000  0.10433000  0.49894000  1.0
  Zn  Zn1  1  0.50055000  0.89565000  0.50105000  1.0
  Zn  Zn2  1  0.89452000  0.50072000  0.99930000  1.0
  Zn  Zn3  1  0.10547000  0.49929000  0.00071000  1.0
  H  H4  1  0.80458000  0.14612000  0.58841000  1.0
  H  H5  1  0.17701000  0.12248000  0.25381000  1.0
  H  H6  1  0.18118000  0.13239000  0.74722000  1.0
  H  H7  1  0.81874000  0.86772000  0.25274000  1.0
  H  H8  1  0.19945000  0.85839000  0.59525000  1.0
  H  H9  1  0.80063000  0.14163000  0.40477000  1.0
  H  H10  1  0.85508000  0.80574000  0.91086000  1.0
  H  H11  1  0.14501000  0.19422000  0.08914000  1.0
  H  H12  1  0.19537000  0.85382000  0.41159000  1.0
  H  H13  1  0.88056000  0.20574000  0.74953000  1.0
  H  H14  1  0.11934000  0.79422000  0.25048000  1.0
  H  H15  1  0.14174000  0.84300000  0.76361000  1.0
  H  H16  1  0.85838000  0.15712000  0.23642000  1.0
  H  H17  1  0.12891000  0.03087000  0.84430000  1.0
  H  H18  1  0.87114000  0.96922000  0.15568000  1.0
  H  H19  1  0.82306000  0.87744000  0.74619000  1.0
  C  C20  1  0.35372000  0.99114000  0.42028000  1.0
  C  C21  1  0.92302000  0.89826000  0.16266000  1.0
  C  C22  1  0.07922000  0.18401000  0.87757000  1.0
  C  C23  1  0.92073000  0.81603000  0.12243000  1.0
  C  C24  1  0.81846000  0.93888000  0.71245000  1.0
  C  C25  1  0.18157000  0.06105000  0.28755000  1.0
  C  C26  1  0.73377000  0.93400000  0.67300000  1.0
  C  C27  1  0.26626000  0.06589000  0.32699000  1.0
  C  C28  1  0.18386000  0.07080000  0.71428000  1.0
  C  C29  1  0.81609000  0.92931000  0.28570000  1.0
  C  C30  1  0.26964000  0.07291000  0.67467000  1.0
  C  C31  1  0.64630000  0.00868000  0.57971000  1.0
  C  C32  1  0.73031000  0.92722000  0.32530000  1.0
  C  C33  1  0.99792000  0.00811000  0.75119000  1.0
  C  C34  1  0.00208000  0.99191000  0.24881000  1.0
  C  C35  1  0.35643000  0.99766000  0.58198000  1.0
  C  C36  1  0.64356000  0.00246000  0.41800000  1.0
  C  C37  1  0.90056000  0.01576000  0.70917000  1.0
  C  C38  1  0.09943000  0.98422000  0.29083000  1.0
  C  C39  1  0.72851000  0.00844000  0.62696000  1.0
  C  C40  1  0.27151000  0.99145000  0.37303000  1.0
  C  C41  1  0.09965000  0.99667000  0.71145000  1.0
  C  C42  1  0.08504000  0.75103000  0.83549000  1.0
  C  C43  1  0.90035000  0.00337000  0.28854000  1.0
  C  C44  1  0.27421000  0.99823000  0.62972000  1.0
  C  C45  1  0.72578000  0.00187000  0.37026000  1.0
  C  C46  1  0.00554000  0.10775000  0.79058000  1.0
  C  C47  1  0.99443000  0.89227000  0.20942000  1.0
  C  C48  1  0.01228000  0.27707000  0.87204000  1.0
  C  C49  1  0.98759000  0.72293000  0.12797000  1.0
  C  C50  1  0.99128000  0.91157000  0.79457000  1.0
  C  C51  1  0.00877000  0.08844000  0.20544000  1.0
  C  C52  1  0.00395000  0.73944000  0.87777000  1.0
  C  C53  1  0.91507000  0.24904000  0.16452000  1.0
  C  C54  1  0.99619000  0.26059000  0.12224000  1.0
  C  C55  1  0.00408000  0.65422000  0.92394000  1.0
  C  C56  1  0.99609000  0.34580000  0.07608000  1.0
  C  C57  1  0.01095000  0.36155000  0.91771000  1.0
  C  C58  1  0.98888000  0.63844000  0.08231000  1.0
  C  C59  1  0.89335000  0.09075000  0.66287000  1.0
  C  C60  1  0.10660000  0.90923000  0.33714000  1.0
  C  C61  1  0.80842000  0.08704000  0.62350000  1.0
  C  C62  1  0.19155000  0.91289000  0.37651000  1.0
  C  C63  1  0.10887000  0.91795000  0.66796000  1.0
  C  C64  1  0.91112000  0.90026000  0.83826000  1.0
  C  C65  1  0.89118000  0.08206000  0.33205000  1.0
  C  C66  1  0.19439000  0.91953000  0.62845000  1.0
  C  C67  1  0.80566000  0.08052000  0.37155000  1.0
  C  C68  1  0.93924000  0.19960000  0.78421000  1.0
  C  C69  1  0.06067000  0.80037000  0.21580000  1.0
  C  C70  1  0.94411000  0.28340000  0.82366000  1.0
  C  C71  1  0.05577000  0.71657000  0.17636000  1.0
  C  C72  1  0.07693000  0.83545000  0.79535000  1.0
  C  C73  1  0.92317000  0.16462000  0.20467000  1.0
  C  C74  1  0.08894000  0.09972000  0.16174000  1.0
  C  C75  1  0.91760000  0.81477000  0.87781000  1.0
  C  C76  1  0.08250000  0.18522000  0.12220000  1.0
  C  C77  1  0.07697000  0.10179000  0.83733000  1.0
  I  I78  1  0.77721000  0.00630000  0.85274000  1.0
  I  I79  1  0.22275000  0.99356000  0.14724000  1.0
  I  I80  1  0.84666000  0.42109000  0.80480000  1.0
  I  I81  1  0.15318000  0.57885000  0.19521000  1.0
  I  I82  1  0.21829000  0.64416000  0.82423000  1.0
  I  I83  1  0.78179000  0.35589000  0.17575000  1.0
  I  I84  1  0.61593000  0.81627000  0.68948000  1.0
  I  I85  1  0.38414000  0.18360000  0.31053000  1.0
  Cl  Cl86  1  0.01902000  0.81292000  0.66077000  1.0
  Cl  Cl87  1  0.98109000  0.18704000  0.33926000  1.0
  Cl  Cl88  1  0.16273000  0.16334000  0.93667000  1.0
  Cl  Cl89  1  0.83726000  0.83673000  0.06331000  1.0
  Cl  Cl90  1  0.36832000  0.16826000  0.68398000  1.0
  Cl  Cl91  1  0.63157000  0.83194000  0.31598000  1.0
  Cl  Cl92  1  0.98746000  0.19083000  0.64942000  1.0
  Cl  Cl93  1  0.01243000  0.80921000  0.35060000  1.0
  O  O94  1  0.38423000  0.08242000  0.43833000  1.0
  O  O95  1  0.08914000  0.37842000  0.05885000  1.0
  O  O96  1  0.10217000  0.39744000  0.93358000  1.0
  O  O97  1  0.89764000  0.60258000  0.06645000  1.0
  O  O98  1  0.91763000  0.38917000  0.93727000  1.0
  O  O99  1  0.08218000  0.61080000  0.06274000  1.0
  O  O100  1  0.09610000  0.62243000  0.94297000  1.0
  O  O101  1  0.90409000  0.37760000  0.05704000  1.0
  O  O102  1  0.61585000  0.91742000  0.56166000  1.0
  O  O103  1  0.38670000  0.90491000  0.56379000  1.0
  O  O104  1  0.61333000  0.09524000  0.43620000  1.0
  O  O105  1  0.38667000  0.08867000  0.56207000  1.0
  O  O106  1  0.61327000  0.91148000  0.43790000  1.0
  O  O107  1  0.38442000  0.89876000  0.43982000  1.0
  O  O108  1  0.61556000  0.10108000  0.56018000  1.0
  O  O109  1  0.91105000  0.62157000  0.94117000  1.0
