# generated using pymatgen
data_CdH34C38(SN4)2
_symmetry_space_group_name_H-M   'P 1'
_cell_length_a   5.67746000
_cell_length_b   8.16624000
_cell_length_c   20.23010000
_cell_angle_alpha   94.54880000
_cell_angle_beta   97.41640000
_cell_angle_gamma   102.44100000
_symmetry_Int_Tables_number   1
_chemical_formula_structural   CdH34C38(SN4)2
_chemical_formula_sum   'Cd1 H34 C38 S2 N8'
_cell_volume   902.67775231
_cell_formula_units_Z   1
loop_
 _symmetry_equiv_pos_site_id
 _symmetry_equiv_pos_as_xyz
  1  'x, y, z'
loop_
 _atom_site_type_symbol
 _atom_site_label
 _atom_site_symmetry_multiplicity
 _atom_site_fract_x
 _atom_site_fract_y
 _atom_site_fract_z
 _atom_site_occupancy
  Cd  Cd0  1  0.50001000  0.50000000  0.50000000  1.0
  H  H1  1  0.99711000  0.78903000  0.48046000  1.0
  H  H2  1  0.00289000  0.21097000  0.51954000  1.0
  H  H3  1  0.30273000  0.63808000  0.37022000  1.0
  H  H4  1  0.69727000  0.36192000  0.62978000  1.0
  H  H5  1  0.41643000  0.82585000  0.28356000  1.0
  H  H6  1  0.58356000  0.17416000  0.71644000  1.0
  H  H7  1  0.14343000  0.97961000  0.39810000  1.0
  H  H8  1  0.85657000  0.02039000  0.60190000  1.0
  H  H9  1  0.70702000  0.01371000  0.23821000  1.0
  H  H10  1  0.29296000  0.98629000  0.76179000  1.0
  H  H11  1  0.22813000  0.13928000  0.31670000  1.0
  H  H12  1  0.77186000  0.86072000  0.68330000  1.0
  H  H13  1  0.79765000  0.27540000  0.17329000  1.0
  H  H14  1  0.20235000  0.72459000  0.82671000  1.0
  H  H15  1  0.83194000  0.07116000  0.14858000  1.0
  H  H16  1  0.16806000  0.92884000  0.85142000  1.0
  H  H17  1  0.48081000  0.34825000  0.26982000  1.0
  H  H18  1  0.51919000  0.65173000  0.73018000  1.0
  H  H19  1  0.28231000  0.48724000  0.07364000  1.0
  H  H20  1  0.71769000  0.51276000  0.92636000  1.0
  H  H21  1  0.08542000  0.53021000  0.13002000  1.0
  H  H22  1  0.91460000  0.46979000  0.86998000  1.0
  H  H23  1  0.34004000  0.13687000  0.10800000  1.0
  H  H24  1  0.65996000  0.86312000  0.89200000  1.0
  H  H25  1  0.24825000  0.17888000  0.02488000  1.0
  H  H26  1  0.75174000  0.82112000  0.97511000  1.0
  H  H27  1  0.06589000  0.01371000  0.06059000  1.0
  H  H28  1  0.93410000  0.98629000  0.93941000  1.0
  H  H29  1  0.70100000  0.14605000  0.02903000  1.0
  H  H30  1  0.29899000  0.85396000  0.97098000  1.0
  H  H31  1  0.89572000  0.31175000  0.99720000  1.0
  H  H32  1  0.10428000  0.68825000  0.00280000  1.0
  H  H33  1  0.71727000  0.35907000  0.05928000  1.0
  H  H34  1  0.28273000  0.64093000  0.94072000  1.0
  C  C35  1  0.87366000  0.80156000  0.43621000  1.0
  C  C36  1  0.12634000  0.19844000  0.56379000  1.0
  C  C37  1  0.48602000  0.71785000  0.37506000  1.0
  C  C38  1  0.51398000  0.28215000  0.62494000  1.0
  C  C39  1  0.55198000  0.82265000  0.32658000  1.0
  C  C40  1  0.44802000  0.17735000  0.67342000  1.0
  C  C41  1  0.79162000  0.92072000  0.33261000  1.0
  C  C42  1  0.20837000  0.07928000  0.66739000  1.0
  C  C43  1  0.95437000  0.90854000  0.38974000  1.0
  C  C44  1  0.04562000  0.09147000  0.61027000  1.0
  C  C45  1  0.85619000  0.02248000  0.27926000  1.0
  C  C46  1  0.14381000  0.97752000  0.72074000  1.0
  C  C47  1  0.07699000  0.12417000  0.27570000  1.0
  C  C48  1  0.92300000  0.87583000  0.72430000  1.0
  C  C49  1  0.12398000  0.22219000  0.22084000  1.0
  C  C50  1  0.87601000  0.77780000  0.77916000  1.0
  C  C51  1  0.93241000  0.20344000  0.16039000  1.0
  C  C52  1  0.06759000  0.79656000  0.83961000  1.0
  C  C53  1  0.34406000  0.33730000  0.22536000  1.0
  C  C54  1  0.65594000  0.66269000  0.77464000  1.0
  C  C55  1  0.39126000  0.44939000  0.17591000  1.0
  C  C56  1  0.60875000  0.55060000  0.82409000  1.0
  C  C57  1  0.19857000  0.44160000  0.11682000  1.0
  C  C58  1  0.80143000  0.55839000  0.88318000  1.0
  C  C59  1  0.03466000  0.26374000  0.09750000  1.0
  C  C60  1  0.96533000  0.73626000  0.90250000  1.0
  C  C61  1  0.18177000  0.14167000  0.07136000  1.0
  C  C62  1  0.81822000  0.85833000  0.92864000  1.0
  C  C63  1  0.82500000  0.27076000  0.04276000  1.0
  C  C64  1  0.17500000  0.72924000  0.95724000  1.0
  C  C65  1  0.61098000  0.56905000  0.18172000  1.0
  C  C66  1  0.38903000  0.43095000  0.81828000  1.0
  C  C67  1  0.80923000  0.57894000  0.23340000  1.0
  C  C68  1  0.19077000  0.42105000  0.76660000  1.0
  C  C69  1  0.65013000  0.68743000  0.13440000  1.0
  C  C70  1  0.34988000  0.31258000  0.86559000  1.0
  C  C71  1  0.08258000  0.63981000  0.57672000  1.0
  C  C72  1  0.91744000  0.36021000  0.42328000  1.0
  S  S73  1  0.37131000  0.73184000  0.58662000  1.0
  S  S74  1  0.62871000  0.26818000  0.41338000  1.0
  N  N75  1  0.64392000  0.70703000  0.42929000  1.0
  N  N76  1  0.35608000  0.29298000  0.57072000  1.0
  N  N77  1  0.87266000  0.57269000  0.56881000  1.0
  N  N78  1  0.12736000  0.42732000  0.43119000  1.0
  N  N79  1  0.97884000  0.58632000  0.27400000  1.0
  N  N80  1  0.02116000  0.41367000  0.72600000  1.0
  N  N81  1  0.68128000  0.78633000  0.09566000  1.0
  N  N82  1  0.31874000  0.21364000  0.90434000  1.0
