# generated using pymatgen
data_CuH8C12SN3O
_symmetry_space_group_name_H-M   'P 1'
_cell_length_a   8.07058000
_cell_length_b   10.93980000
_cell_length_c   13.35080000
_cell_angle_alpha   90.00000000
_cell_angle_beta   90.00010000
_cell_angle_gamma   90.00000000
_symmetry_Int_Tables_number   1
_chemical_formula_structural   CuH8C12SN3O
_chemical_formula_sum   'Cu4 H32 C48 S4 N12 O4'
_cell_volume   1178.74922239
_cell_formula_units_Z   4
loop_
 _symmetry_equiv_pos_site_id
 _symmetry_equiv_pos_as_xyz
  1  'x, y, z'
loop_
 _atom_site_type_symbol
 _atom_site_label
 _atom_site_symmetry_multiplicity
 _atom_site_fract_x
 _atom_site_fract_y
 _atom_site_fract_z
 _atom_site_occupancy
  Cu  Cu0  1  0.73230000  0.06579000  0.75000000  1.0
  Cu  Cu1  1  0.76770000  0.56578000  0.25000000  1.0
  Cu  Cu2  1  0.23230000  0.43422000  0.75000000  1.0
  Cu  Cu3  1  0.26771000  0.93421000  0.25000000  1.0
  H  H4  1  0.79028000  0.06086000  0.96256000  1.0
  H  H5  1  0.70973000  0.56086000  0.03744000  1.0
  H  H6  1  0.29027000  0.43915000  0.53744000  1.0
  H  H7  1  0.20973000  0.93914000  0.46256000  1.0
  H  H8  1  0.20973000  0.93914000  0.03744000  1.0
  H  H9  1  0.29027000  0.43915000  0.96257000  1.0
  H  H10  1  0.70973000  0.56086000  0.46256000  1.0
  H  H11  1  0.79027000  0.06086000  0.53744000  1.0
  H  H12  1  0.55629000  0.74166000  0.08810000  1.0
  H  H13  1  0.94371000  0.24166000  0.91190000  1.0
  H  H14  1  0.05628000  0.75835000  0.41190000  1.0
  H  H15  1  0.44371000  0.25834000  0.58810000  1.0
  H  H16  1  0.44370000  0.25834000  0.91190000  1.0
  H  H17  1  0.05628000  0.75835000  0.08810000  1.0
  H  H18  1  0.94371000  0.24165000  0.58810000  1.0
  H  H19  1  0.55629000  0.74166000  0.41190000  1.0
  H  H20  1  0.44728000  0.69609000  0.91459000  1.0
  H  H21  1  0.05272000  0.19609000  0.08541000  1.0
  H  H22  1  0.94727000  0.80391000  0.58542000  1.0
  H  H23  1  0.55272000  0.30391000  0.41458000  1.0
  H  H24  1  0.55272000  0.30391000  0.08541000  1.0
  H  H25  1  0.94728000  0.80391000  0.91458000  1.0
  H  H26  1  0.05272000  0.19609000  0.41458000  1.0
  H  H27  1  0.44728000  0.69609000  0.58541000  1.0
  H  H28  1  0.73208000  0.93044000  0.11073000  1.0
  H  H29  1  0.76792000  0.43044000  0.88927000  1.0
  H  H30  1  0.23208000  0.56957000  0.38927000  1.0
  H  H31  1  0.26792000  0.06956000  0.61073000  1.0
  H  H32  1  0.26792000  0.06956000  0.88927000  1.0
  H  H33  1  0.23208000  0.56957000  0.11073000  1.0
  H  H34  1  0.76792000  0.43043000  0.61073000  1.0
  H  H35  1  0.73208000  0.93044000  0.38927000  1.0
  C  C36  1  0.48941000  0.82097000  0.75000000  1.0
  C  C37  1  0.01059000  0.32097000  0.25000000  1.0
  C  C38  1  0.98941000  0.67903000  0.75000000  1.0
  C  C39  1  0.51059000  0.17903000  0.25000000  1.0
  C  C40  1  0.56242000  0.85414000  0.84975000  1.0
  C  C41  1  0.93758000  0.35413000  0.15025000  1.0
  C  C42  1  0.06242000  0.64587000  0.65026000  1.0
  C  C43  1  0.43758000  0.14586000  0.34974000  1.0
  C  C44  1  0.43758000  0.14586000  0.15025000  1.0
  C  C45  1  0.06242000  0.64587000  0.84975000  1.0
  C  C46  1  0.93758000  0.35413000  0.34974000  1.0
  C  C47  1  0.56242000  0.85413000  0.65026000  1.0
  C  C48  1  0.71501000  0.97864000  0.95532000  1.0
  C  C49  1  0.78499000  0.47863000  0.04469000  1.0
  C  C50  1  0.21501000  0.52137000  0.54469000  1.0
  C  C51  1  0.28499000  0.02136000  0.45531000  1.0
  C  C52  1  0.28499000  0.02136000  0.04468000  1.0
  C  C53  1  0.21501000  0.52137000  0.95532000  1.0
  C  C54  1  0.78499000  0.47863000  0.45531000  1.0
  C  C55  1  0.71501000  0.97864000  0.54469000  1.0
  C  C56  1  0.58470000  0.80092000  0.02479000  1.0
  C  C57  1  0.91530000  0.30092000  0.97521000  1.0
  C  C58  1  0.08470000  0.69908000  0.47521000  1.0
  C  C59  1  0.41530000  0.19907000  0.52479000  1.0
  C  C60  1  0.41530000  0.19907000  0.97521000  1.0
  C  C61  1  0.08470000  0.69908000  0.02479000  1.0
  C  C62  1  0.91530000  0.30092000  0.52479000  1.0
  C  C63  1  0.58470000  0.80092000  0.47521000  1.0
  C  C64  1  0.52408000  0.77572000  0.92964000  1.0
  C  C65  1  0.97592000  0.27571000  0.07036000  1.0
  C  C66  1  0.02408000  0.72429000  0.57036000  1.0
  C  C67  1  0.47592000  0.22429000  0.42964000  1.0
  C  C68  1  0.47592000  0.22429000  0.07036000  1.0
  C  C69  1  0.02408000  0.72429000  0.92964000  1.0
  C  C70  1  0.97592000  0.27571000  0.42964000  1.0
  C  C71  1  0.52408000  0.77572000  0.57036000  1.0
  C  C72  1  0.68162000  0.90549000  0.03793000  1.0
  C  C73  1  0.81838000  0.40548000  0.96208000  1.0
  C  C74  1  0.18162000  0.59452000  0.46208000  1.0
  C  C75  1  0.31838000  0.09452000  0.53792000  1.0
  C  C76  1  0.31838000  0.09451000  0.96208000  1.0
  C  C77  1  0.18162000  0.59452000  0.03793000  1.0
  C  C78  1  0.81838000  0.40548000  0.53793000  1.0
  C  C79  1  0.68162000  0.90548000  0.46207000  1.0
  C  C80  1  0.09791000  0.17312000  0.75000000  1.0
  C  C81  1  0.40210000  0.67310000  0.25000000  1.0
  C  C82  1  0.59791000  0.32689000  0.75000000  1.0
  C  C83  1  0.90208000  0.82688000  0.25000000  1.0
  S  S84  1  0.01781000  0.03554000  0.75000000  1.0
  S  S85  1  0.48220000  0.53552000  0.25000000  1.0
  S  S86  1  0.51781000  0.46447000  0.75000000  1.0
  S  S87  1  0.98220000  0.96446000  0.25000000  1.0
  N  N88  1  0.65854000  0.95424000  0.86227000  1.0
  N  N89  1  0.84147000  0.45424000  0.13773000  1.0
  N  N90  1  0.15853000  0.54576000  0.63773000  1.0
  N  N91  1  0.34147000  0.04576000  0.36227000  1.0
  N  N92  1  0.34147000  0.04576000  0.13773000  1.0
  N  N93  1  0.15853000  0.54576000  0.86227000  1.0
  N  N94  1  0.84147000  0.45424000  0.36227000  1.0
  N  N95  1  0.65853000  0.95424000  0.63773000  1.0
  N  N96  1  0.15835000  0.27180000  0.75000000  1.0
  N  N97  1  0.34166000  0.77178000  0.25000000  1.0
  N  N98  1  0.65835000  0.22821000  0.75000000  1.0
  N  N99  1  0.84165000  0.72821000  0.25000000  1.0
  O  O100  1  0.36454000  0.75550000  0.75000000  1.0
  O  O101  1  0.13546000  0.25549000  0.25000000  1.0
  O  O102  1  0.86454000  0.74451000  0.75000000  1.0
  O  O103  1  0.63546000  0.24451000  0.25000000  1.0
