# generated using pymatgen
data_ZnH8C9O8
_symmetry_space_group_name_H-M   'P 1'
_cell_length_a   6.95561000
_cell_length_b   6.99659000
_cell_length_c   12.54380000
_cell_angle_alpha   74.43370000
_cell_angle_beta   87.65920000
_cell_angle_gamma   65.23460000
_symmetry_Int_Tables_number   1
_chemical_formula_structural   ZnH8C9O8
_chemical_formula_sum   'Zn2 H16 C18 O16'
_cell_volume   532.18603455
_cell_formula_units_Z   2
loop_
 _symmetry_equiv_pos_site_id
 _symmetry_equiv_pos_as_xyz
  1  'x, y, z'
loop_
 _atom_site_type_symbol
 _atom_site_label
 _atom_site_symmetry_multiplicity
 _atom_site_fract_x
 _atom_site_fract_y
 _atom_site_fract_z
 _atom_site_occupancy
  Zn  Zn0  1  0.50000000  0.50000000  0.00000000  1.0
  Zn  Zn1  1  0.00000000  0.00000000  0.00000000  1.0
  H  H2  1  0.15686000  0.76672000  0.64356000  1.0
  H  H3  1  0.84314000  0.23327000  0.35644000  1.0
  H  H4  1  0.58788000  0.11792000  0.12174000  1.0
  H  H5  1  0.41212000  0.88208000  0.87825000  1.0
  H  H6  1  0.48969000  0.26872000  0.20438000  1.0
  H  H7  1  0.51032000  0.73127000  0.79563000  1.0
  H  H8  1  0.09265000  0.59157000  0.05004000  1.0
  H  H9  1  0.90735000  0.40843000  0.94996000  1.0
  H  H10  1  0.09485000  0.62933000  0.91831000  1.0
  H  H11  1  0.90515000  0.37068000  0.08169000  1.0
  H  H12  1  0.22195000  0.82339000  0.36544000  1.0
  H  H13  1  0.77805000  0.17661000  0.63457000  1.0
  H  H14  1  0.80034000  0.70185000  0.54020000  1.0
  H  H15  1  0.19967000  0.29815000  0.45980000  1.0
  H  H16  1  0.98610000  0.67738000  0.36596000  1.0
  H  H17  1  0.01390000  0.32262000  0.63404000  1.0
  C  C18  1  0.82760000  0.71836000  0.16697000  1.0
  C  C19  1  0.17240000  0.28165000  0.83303000  1.0
  C  C20  1  0.37943000  0.78819000  0.16604000  1.0
  C  C21  1  0.62058000  0.21181000  0.83396000  1.0
  C  C22  1  0.38938000  0.79065000  0.36671000  1.0
  C  C23  1  0.61061000  0.20936000  0.63329000  1.0
  C  C24  1  0.49254000  0.77351000  0.26970000  1.0
  C  C25  1  0.50746000  0.22649000  0.73030000  1.0
  C  C26  1  0.50162000  0.75941000  0.46474000  1.0
  C  C27  1  0.49838000  0.24058000  0.53527000  1.0
  C  C28  1  0.70979000  0.72806000  0.27034000  1.0
  C  C29  1  0.29021000  0.27195000  0.72966000  1.0
  C  C30  1  0.71646000  0.72129000  0.46388000  1.0
  C  C31  1  0.28354000  0.27871000  0.53612000  1.0
  C  C32  1  0.81923000  0.70710000  0.36714000  1.0
  C  C33  1  0.18078000  0.29289000  0.63286000  1.0
  C  C34  1  0.40607000  0.75504000  0.57232000  1.0
  C  C35  1  0.59391000  0.24496000  0.42766000  1.0
  O  O36  1  0.96850000  0.53677000  0.15900000  1.0
  O  O37  1  0.03150000  0.46323000  0.84101000  1.0
  O  O38  1  0.50527000  0.72232000  0.65925000  1.0
  O  O39  1  0.49473000  0.27766000  0.34075000  1.0
  O  O40  1  0.78527000  0.90580000  0.09807000  1.0
  O  O41  1  0.21473000  0.09420000  0.90194000  1.0
  O  O42  1  0.47400000  0.26058000  0.12817000  1.0
  O  O43  1  0.52600000  0.73942000  0.87183000  1.0
  O  O44  1  0.49982000  0.68273000  0.10323000  1.0
  O  O45  1  0.50019000  0.31727000  0.89677000  1.0
  O  O46  1  0.14693000  0.66175000  0.98057000  1.0
  O  O47  1  0.85308000  0.33825000  0.01943000  1.0
  O  O48  1  0.20117000  0.78459000  0.56757000  1.0
  O  O49  1  0.79882000  0.21541000  0.43243000  1.0
  O  O50  1  0.17932000  0.89977000  0.15054000  1.0
  O  O51  1  0.82068000  0.10023000  0.84946000  1.0
