# generated using pymatgen
data_AgH4(C2N3)2
_symmetry_space_group_name_H-M   'P 1'
_cell_length_a   10.11463260
_cell_length_b   10.11740000
_cell_length_c   17.64583524
_cell_angle_alpha   99.85195825
_cell_angle_beta   99.18459364
_cell_angle_gamma   114.96818844
_symmetry_Int_Tables_number   1
_chemical_formula_structural   AgH4(C2N3)2
_chemical_formula_sum   'Ag8 H32 C32 N48'
_cell_volume   1557.57988874
_cell_formula_units_Z   8
loop_
 _symmetry_equiv_pos_site_id
 _symmetry_equiv_pos_as_xyz
  1  'x, y, z'
loop_
 _atom_site_type_symbol
 _atom_site_label
 _atom_site_symmetry_multiplicity
 _atom_site_fract_x
 _atom_site_fract_y
 _atom_site_fract_z
 _atom_site_occupancy
  Ag  Ag0  1  0.38798000  0.06696000  0.28494000  1.0
  Ag  Ag1  1  0.81559000  0.58971000  0.40919000  1.0
  Ag  Ag2  1  0.78182000  0.10284000  0.71511000  1.0
  Ag  Ag3  1  0.17968000  0.40547000  0.59049000  1.0
  Ag  Ag4  1  0.35462000  0.53247000  0.21471000  1.0
  Ag  Ag5  1  0.65426000  0.92902000  0.09058000  1.0
  Ag  Ag6  1  0.31758000  0.14003000  0.78512000  1.0
  Ag  Ag7  1  0.83891000  0.56350000  0.90908000  1.0
  H  H8  1  0.15636000  0.21782000  0.26892000  1.0
  H  H9  1  0.11255000  0.99170000  0.03740000  1.0
  H  H10  1  0.07865000  0.95208000  0.46698000  1.0
  H  H11  1  0.93933000  0.94850000  0.22975000  1.0
  H  H12  1  0.82159000  0.53862000  0.09358000  1.0
  H  H13  1  0.35710000  0.22113000  0.98490000  1.0
  H  H14  1  0.70229000  0.57783000  0.22053000  1.0
  H  H15  1  0.43928000  0.10359000  0.10714000  1.0
  H  H16  1  0.94933000  0.88630000  0.73156000  1.0
  H  H17  1  0.95461000  0.07334000  0.96322000  1.0
  H  H18  1  0.48444000  0.61023000  0.53238000  1.0
  H  H19  1  0.71734000  0.71101000  0.77007000  1.0
  H  H20  1  0.44485000  0.72705000  0.90624000  1.0
  H  H21  1  0.23578000  0.37182000  0.01528000  1.0
  H  H22  1  0.35671000  0.48157000  0.77934000  1.0
  H  H23  1  0.99617000  0.33093000  0.89314000  1.0
  H  H24  1  0.13768000  0.69857000  0.23161000  1.0
  H  H25  1  0.32380000  0.70538000  0.46250000  1.0
  H  H26  1  0.85868000  0.23258000  0.03194000  1.0
  H  H27  1  0.95908000  0.46948000  0.26980000  1.0
  H  H28  1  0.97883000  0.19563000  0.40630000  1.0
  H  H29  1  0.62292000  0.98752000  0.51576000  1.0
  H  H30  1  0.73316000  0.10817000  0.28010000  1.0
  H  H31  1  0.58239000  0.74679000  0.39243000  1.0
  H  H32  1  0.46633000  0.90782000  0.76907000  1.0
  H  H33  1  0.24296000  0.86386000  0.53820000  1.0
  H  H34  1  0.20120000  0.82678000  0.96737000  1.0
  H  H35  1  0.20050000  0.68759000  0.72974000  1.0
  H  H36  1  0.79004000  0.57315000  0.59364000  1.0
  H  H37  1  0.47254000  0.10812000  0.48422000  1.0
  H  H38  1  0.82844000  0.45316000  0.71982000  1.0
  H  H39  1  0.35474000  0.19138000  0.60743000  1.0
  C  C40  1  0.16187000  0.19278000  0.20742000  1.0
  C  C41  1  0.14037000  0.07977000  0.09090000  1.0
  C  C42  1  0.02113000  0.91825000  0.40412000  1.0
  C  C43  1  0.94787000  0.91510000  0.28490000  1.0
  C  C44  1  0.71326000  0.47334000  0.04964000  1.0
  C  C45  1  0.47547000  0.30314000  0.99349000  1.0
  C  C46  1  0.62718000  0.45582000  0.20953000  1.0
  C  C47  1  0.49455000  0.21085000  0.15207000  1.0
  C  C48  1  0.98563000  0.95334000  0.79303000  1.0
  C  C49  1  0.98912000  0.04797000  0.90962000  1.0
  C  C50  1  0.51328000  0.61631000  0.59535000  1.0
  C  C51  1  0.62896000  0.66360000  0.71482000  1.0
  C  C52  1  0.42345000  0.66286000  0.95029000  1.0
  C  C53  1  0.30925000  0.48153000  0.00661000  1.0
  C  C54  1  0.24588000  0.41719000  0.79052000  1.0
  C  C55  1  0.05846000  0.34161000  0.84815000  1.0
  C  C56  1  0.20435000  0.73513000  0.29294000  1.0
  C  C57  1  0.29855000  0.73947000  0.40912000  1.0
  C  C58  1  0.86491000  0.26246000  0.09506000  1.0
  C  C59  1  0.91204000  0.38018000  0.21460000  1.0
  C  C60  1  0.91442000  0.17455000  0.45052000  1.0
  C  C61  1  0.73270000  0.06100000  0.50705000  1.0
  C  C62  1  0.66919000  0.99715000  0.29105000  1.0
  C  C63  1  0.59337000  0.80939000  0.34788000  1.0
  C  C64  1  0.44185000  0.91319000  0.70772000  1.0
  C  C65  1  0.33032000  0.89162000  0.59154000  1.0
  C  C66  1  0.16794000  0.76945000  0.90434000  1.0
  C  C67  1  0.16622000  0.69626000  0.78489000  1.0
  C  C68  1  0.72481000  0.46464000  0.54941000  1.0
  C  C69  1  0.55482000  0.22652000  0.49290000  1.0
  C  C70  1  0.70634000  0.37868000  0.70888000  1.0
  C  C71  1  0.46176000  0.24656000  0.65203000  1.0
  N  N72  1  0.20676000  0.22715000  0.09309000  1.0
  N  N73  1  0.22021000  0.29988000  0.16937000  1.0
  N  N74  1  0.11022000  0.05196000  0.16019000  1.0
  N  N75  1  0.04496000  0.01082000  0.35580000  1.0
  N  N76  1  0.91629000  0.77525000  0.36598000  1.0
  N  N77  1  0.86829000  0.77308000  0.28800000  1.0
  N  N78  1  0.68170000  0.46550000  0.97298000  1.0
  N  N79  1  0.53294000  0.35838000  0.93734000  1.0
  N  N80  1  0.58570000  0.37219000  0.06449000  1.0
  N  N81  1  0.57184000  0.34791000  0.13774000  1.0
  N  N82  1  0.58765000  0.38764000  0.26538000  1.0
  N  N83  1  0.50238000  0.23420000  0.22872000  1.0
  N  N84  1  0.13415000  0.11323000  0.90712000  1.0
  N  N85  1  0.13062000  0.05062000  0.83081000  1.0
  N  N86  1  0.89214000  0.94805000  0.84048000  1.0
  N  N87  1  0.65403000  0.68899000  0.64377000  1.0
  N  N88  1  0.40826000  0.54999000  0.63357000  1.0
  N  N89  1  0.48380000  0.58083000  0.71168000  1.0
  N  N90  1  0.49226000  0.70806000  0.02695000  1.0
  N  N91  1  0.42066000  0.59511000  0.06269000  1.0
  N  N92  1  0.30736000  0.52061000  0.93555000  1.0
  N  N93  1  0.20979000  0.43346000  0.86236000  1.0
  N  N94  1  0.12188000  0.32169000  0.73475000  1.0
  N  N95  1  0.00520000  0.27285000  0.77151000  1.0
  N  N96  1  0.36378000  0.88458000  0.40688000  1.0
  N  N97  1  0.30142000  0.88048000  0.33081000  1.0
  N  N98  1  0.19891000  0.64189000  0.34005000  1.0
  N  N99  1  0.93724000  0.40398000  0.14335000  1.0
  N  N100  1  0.79898000  0.15817000  0.13355000  1.0
  N  N101  1  0.82972000  0.23506000  0.21173000  1.0
  N  N102  1  0.95914000  0.24378000  0.52728000  1.0
  N  N103  1  0.84594000  0.17261000  0.56318000  1.0
  N  N104  1  0.77222000  0.05854000  0.43583000  1.0
  N  N105  1  0.68523000  0.96094000  0.36254000  1.0
  N  N106  1  0.57382000  0.87304000  0.23507000  1.0
  N  N107  1  0.52490000  0.75613000  0.27132000  1.0
  N  N108  1  0.47763000  0.95759000  0.59355000  1.0
  N  N109  1  0.54939000  0.97106000  0.66962000  1.0
  N  N110  1  0.30161000  0.86177000  0.66074000  1.0
  N  N111  1  0.26119000  0.79313000  0.85600000  1.0
  N  N112  1  0.02522000  0.66485000  0.86601000  1.0
  N  N113  1  0.02398000  0.61689000  0.78787000  1.0
  N  N114  1  0.71760000  0.43265000  0.47267000  1.0
  N  N115  1  0.61056000  0.28363000  0.43679000  1.0
  N  N116  1  0.62338000  0.33718000  0.56410000  1.0
  N  N117  1  0.59880000  0.32352000  0.63739000  1.0
  N  N118  1  0.63797000  0.33933000  0.76484000  1.0
  N  N119  1  0.48479000  0.25452000  0.72858000  1.0
