# generated using pymatgen
data_HgH24C30Br2(N3O2)2
_symmetry_space_group_name_H-M   'P 1'
_cell_length_a   9.01394000
_cell_length_b   9.01400000
_cell_length_c   11.95900000
_cell_angle_alpha   79.20630000
_cell_angle_beta   79.20640000
_cell_angle_gamma   88.37520000
_symmetry_Int_Tables_number   1
_chemical_formula_structural   HgH24C30Br2(N3O2)2
_chemical_formula_sum   'Hg1 H24 C30 Br2 N6 O4'
_cell_volume   937.58776940
_cell_formula_units_Z   1
loop_
 _symmetry_equiv_pos_site_id
 _symmetry_equiv_pos_as_xyz
  1  'x, y, z'
loop_
 _atom_site_type_symbol
 _atom_site_label
 _atom_site_symmetry_multiplicity
 _atom_site_fract_x
 _atom_site_fract_y
 _atom_site_fract_z
 _atom_site_occupancy
  Hg  Hg0  1  0.53300000  0.46701000  0.00000000  1.0
  H  H1  1  0.60727000  0.41467000  0.73529000  1.0
  H  H2  1  0.58534000  0.39274000  0.26471000  1.0
  H  H3  1  0.78925000  0.28846000  0.59863000  1.0
  H  H4  1  0.71154000  0.21075000  0.40137000  1.0
  H  H5  1  0.08649000  0.23400000  0.84821000  1.0
  H  H6  1  0.76600000  0.91352000  0.15178000  1.0
  H  H7  1  0.89518000  0.36541000  0.97230000  1.0
  H  H8  1  0.63459000  0.10483000  0.02770000  1.0
  H  H9  1  0.08842000  0.21495000  0.28483000  1.0
  H  H10  1  0.78504000  0.91157000  0.71517000  1.0
  H  H11  1  0.15165000  0.12053000  0.09918000  1.0
  H  H12  1  0.87946000  0.84834000  0.90082000  1.0
  H  H13  1  0.31092000  0.88947000  0.08694000  1.0
  H  H14  1  0.11053000  0.68908000  0.91307000  1.0
  H  H15  1  0.41325000  0.76151000  0.25798000  1.0
  H  H16  1  0.23849000  0.58674000  0.74202000  1.0
  H  H17  1  0.64308000  0.75279000  0.42606000  1.0
  H  H18  1  0.24721000  0.35693000  0.57394000  1.0
  H  H19  1  0.71879000  0.48131000  0.46250000  1.0
  H  H20  1  0.51869000  0.28121000  0.53750000  1.0
  H  H21  1  0.13281000  0.11018000  0.68667000  1.0
  H  H22  1  0.88982000  0.86719000  0.31333000  1.0
  H  H23  1  0.23090000  0.00964000  0.54524000  1.0
  H  H24  1  0.99035000  0.76910000  0.45476000  1.0
  C  C25  1  0.71615000  0.37507000  0.75612000  1.0
  C  C26  1  0.62494000  0.28386000  0.24388000  1.0
  C  C27  1  0.81628000  0.30463000  0.68006000  1.0
  C  C28  1  0.69537000  0.18373000  0.31994000  1.0
  C  C29  1  0.95250000  0.25003000  0.71234000  1.0
  C  C30  1  0.74997000  0.04750000  0.28766000  1.0
  C  C31  1  0.98105000  0.27139000  0.81988000  1.0
  C  C32  1  0.72861000  0.01896000  0.18012000  1.0
  C  C33  1  0.87474000  0.34517000  0.88929000  1.0
  C  C34  1  0.65483000  0.12527000  0.11071000  1.0
  C  C35  1  0.07193000  0.17750000  0.52521000  1.0
  C  C36  1  0.82250000  0.92808000  0.47479000  1.0
  C  C37  1  0.21477000  0.04271000  0.37587000  1.0
  C  C38  1  0.95729000  0.78523000  0.62413000  1.0
  C  C39  1  0.15911000  0.11617000  0.27830000  1.0
  C  C40  1  0.88382000  0.84089000  0.72170000  1.0
  C  C41  1  0.19321000  0.06040000  0.17498000  1.0
  C  C42  1  0.93959000  0.80679000  0.82502000  1.0
  C  C43  1  0.28221000  0.93222000  0.16770000  1.0
  C  C44  1  0.06777000  0.71779000  0.83230000  1.0
  C  C45  1  0.34053000  0.85941000  0.26395000  1.0
  C  C46  1  0.14058000  0.65947000  0.73605000  1.0
  C  C47  1  0.30825000  0.91571000  0.36608000  1.0
  C  C48  1  0.08429000  0.69175000  0.63392000  1.0
  C  C49  1  0.40772000  0.70417000  0.47962000  1.0
  C  C50  1  0.29583000  0.59228000  0.52039000  1.0
  C  C51  1  0.55899000  0.66368000  0.45907000  1.0
  C  C52  1  0.33632000  0.44101000  0.54093000  1.0
  C  C53  1  0.59976000  0.51176000  0.47937000  1.0
  C  C54  1  0.48824000  0.40024000  0.52064000  1.0
  Br  Br55  1  0.32132000  0.37266000  0.91753000  1.0
  Br  Br56  1  0.62735000  0.67869000  0.08247000  1.0
  N  N57  1  0.74332000  0.39549000  0.85902000  1.0
  N  N58  1  0.60451000  0.25669000  0.14098000  1.0
  N  N59  1  0.05829000  0.17371000  0.64436000  1.0
  N  N60  1  0.82629000  0.94171000  0.35564000  1.0
  N  N61  1  0.18329000  0.08197000  0.48593000  1.0
  N  N62  1  0.91802000  0.81671000  0.51407000  1.0
  O  O63  1  0.99592000  0.26014000  0.46398000  1.0
  O  O64  1  0.73986000  0.00408000  0.53601000  1.0
  O  O65  1  0.36720000  0.85539000  0.46459000  1.0
  O  O66  1  0.14461000  0.63281000  0.53541000  1.0
