# generated using pymatgen
data_CuH8(C4O3)2
_symmetry_space_group_name_H-M   'P 1'
_cell_length_a   6.44629000
_cell_length_b   6.83091000
_cell_length_c   10.20540000
_cell_angle_alpha   85.54210000
_cell_angle_beta   89.99990000
_cell_angle_gamma   89.99900000
_symmetry_Int_Tables_number   1
_chemical_formula_structural   CuH8(C4O3)2
_chemical_formula_sum   'Cu2 H16 C16 O12'
_cell_volume   448.02534004
_cell_formula_units_Z   2
loop_
 _symmetry_equiv_pos_site_id
 _symmetry_equiv_pos_as_xyz
  1  'x, y, z'
loop_
 _atom_site_type_symbol
 _atom_site_label
 _atom_site_symmetry_multiplicity
 _atom_site_fract_x
 _atom_site_fract_y
 _atom_site_fract_z
 _atom_site_occupancy
  Cu  Cu0  1  0.75647000  0.80499000  0.48023000  1.0
  Cu  Cu1  1  0.25648000  0.19502000  0.51978000  1.0
  H  H2  1  0.21630000  0.08234000  0.13025000  1.0
  H  H3  1  0.71630000  0.91768000  0.86976000  1.0
  H  H4  1  0.25038000  0.97886000  0.90151000  1.0
  H  H5  1  0.75036000  0.02116000  0.09850000  1.0
  H  H6  1  0.36138000  0.63772000  0.86723000  1.0
  H  H7  1  0.86138000  0.36226000  0.13275000  1.0
  H  H8  1  0.43037000  0.40000000  0.05854000  1.0
  H  H9  1  0.93036000  0.59996000  0.94145000  1.0
  H  H10  1  0.71167000  0.13923000  0.35447000  1.0
  H  H11  1  0.21169000  0.86081000  0.64552000  1.0
  H  H12  1  0.93635000  0.04446000  0.33807000  1.0
  H  H13  1  0.43633000  0.95553000  0.66193000  1.0
  H  H14  1  0.99472000  0.54684000  0.37482000  1.0
  H  H15  1  0.49471000  0.45317000  0.62517000  1.0
  H  H16  1  0.75526000  0.52078000  0.34041000  1.0
  H  H17  1  0.25530000  0.47921000  0.65958000  1.0
  C  C18  1  0.36181000  0.60658000  0.20179000  1.0
  C  C19  1  0.86182000  0.39341000  0.79822000  1.0
  C  C20  1  0.30238000  0.80048000  0.22181000  1.0
  C  C21  1  0.80237000  0.19955000  0.77822000  1.0
  C  C22  1  0.26155000  0.93280000  0.11337000  1.0
  C  C23  1  0.76157000  0.06721000  0.88663000  1.0
  C  C24  1  0.28183000  0.87533000  0.98585000  1.0
  C  C25  1  0.78186000  0.12465000  0.01414000  1.0
  C  C26  1  0.34504000  0.68420000  0.96647000  1.0
  C  C27  1  0.84506000  0.31578000  0.03354000  1.0
  C  C28  1  0.38387000  0.54983000  0.07394000  1.0
  C  C29  1  0.88385000  0.45012000  0.92607000  1.0
  C  C30  1  0.38930000  0.45325000  0.31391000  1.0
  C  C31  1  0.88930000  0.54674000  0.68610000  1.0
  C  C32  1  0.30493000  0.86767000  0.35747000  1.0
  C  C33  1  0.80494000  0.13237000  0.64253000  1.0
  O  O34  1  0.22498000  0.41044000  0.38208000  1.0
  O  O35  1  0.72493000  0.58950000  0.61793000  1.0
  O  O36  1  0.56034000  0.36519000  0.33215000  1.0
  O  O37  1  0.06036000  0.63480000  0.66784000  1.0
  O  O38  1  0.41395000  0.77723000  0.44392000  1.0
  O  O39  1  0.91397000  0.22279000  0.55608000  1.0
  O  O40  1  0.19528000  0.02301000  0.37655000  1.0
  O  O41  1  0.69524000  0.97700000  0.62348000  1.0
  O  O42  1  0.78410000  0.01707000  0.33494000  1.0
  O  O43  1  0.28410000  0.98298000  0.66504000  1.0
  O  O44  1  0.86572000  0.62196000  0.35130000  1.0
  O  O45  1  0.36574000  0.37803000  0.64866000  1.0
