# generated using pymatgen
data_CdH4C3SN3Cl
_symmetry_space_group_name_H-M   'P 1'
_cell_length_a   7.56555000
_cell_length_b   10.70390000
_cell_length_c   17.77000000
_cell_angle_alpha   90.00000000
_cell_angle_beta   90.00000000
_cell_angle_gamma   90.00000000
_symmetry_Int_Tables_number   1
_chemical_formula_structural   CdH4C3SN3Cl
_chemical_formula_sum   'Cd8 H32 C24 S8 N24 Cl8'
_cell_volume   1439.03042676
_cell_formula_units_Z   8
loop_
 _symmetry_equiv_pos_site_id
 _symmetry_equiv_pos_as_xyz
  1  'x, y, z'
loop_
 _atom_site_type_symbol
 _atom_site_label
 _atom_site_symmetry_multiplicity
 _atom_site_fract_x
 _atom_site_fract_y
 _atom_site_fract_z
 _atom_site_occupancy
  Cd  Cd0  1  0.82268000  0.82017000  0.33151000  1.0
  Cd  Cd1  1  0.67732000  0.67983000  0.83151000  1.0
  Cd  Cd2  1  0.82268000  0.17982000  0.16849000  1.0
  Cd  Cd3  1  0.67732000  0.32018000  0.66849000  1.0
  Cd  Cd4  1  0.17732000  0.17983000  0.66849000  1.0
  Cd  Cd5  1  0.32268000  0.32017000  0.16849000  1.0
  Cd  Cd6  1  0.17732000  0.82018000  0.83151000  1.0
  Cd  Cd7  1  0.32268000  0.67983000  0.33151000  1.0
  H  H8  1  0.43738000  0.13031000  0.32700000  1.0
  H  H9  1  0.06263000  0.36969000  0.82700000  1.0
  H  H10  1  0.43738000  0.86969000  0.17300000  1.0
  H  H11  1  0.06262000  0.63031000  0.67300000  1.0
  H  H12  1  0.56262000  0.86969000  0.67300000  1.0
  H  H13  1  0.93738000  0.63031000  0.17300000  1.0
  H  H14  1  0.56262000  0.13031000  0.82700000  1.0
  H  H15  1  0.93738000  0.36969000  0.32700000  1.0
  H  H16  1  0.34181000  0.04336000  0.45308000  1.0
  H  H17  1  0.15819000  0.45664000  0.95308000  1.0
  H  H18  1  0.34180000  0.95664000  0.04692000  1.0
  H  H19  1  0.15819000  0.54336000  0.54692000  1.0
  H  H20  1  0.65819000  0.95664000  0.54692000  1.0
  H  H21  1  0.84180000  0.54336000  0.04692000  1.0
  H  H22  1  0.65819000  0.04336000  0.95308000  1.0
  H  H23  1  0.84180000  0.45664000  0.45308000  1.0
  H  H24  1  0.15834000  0.93935000  0.44356000  1.0
  H  H25  1  0.34166000  0.56065000  0.94356000  1.0
  H  H26  1  0.15834000  0.06065000  0.05644000  1.0
  H  H27  1  0.34166000  0.43935000  0.55644000  1.0
  H  H28  1  0.84166000  0.06065000  0.55644000  1.0
  H  H29  1  0.65834000  0.43935000  0.05644000  1.0
  H  H30  1  0.84166000  0.93935000  0.94356000  1.0
  H  H31  1  0.65834000  0.56065000  0.44356000  1.0
  H  H32  1  0.12511000  0.09410000  0.47940000  1.0
  H  H33  1  0.37489000  0.40591000  0.97940000  1.0
  H  H34  1  0.12511000  0.90591000  0.02060000  1.0
  H  H35  1  0.37489000  0.59410000  0.52060000  1.0
  H  H36  1  0.87489000  0.90591000  0.52060000  1.0
  H  H37  1  0.62511000  0.59410000  0.02060000  1.0
  H  H38  1  0.87489000  0.09409000  0.97940000  1.0
  H  H39  1  0.62511000  0.40591000  0.47940000  1.0
  C  C40  1  0.01068000  0.09791000  0.32843000  1.0
  C  C41  1  0.48933000  0.40209000  0.82843000  1.0
  C  C42  1  0.01068000  0.90209000  0.17157000  1.0
  C  C43  1  0.48932000  0.59791000  0.67157000  1.0
  C  C44  1  0.98932000  0.90209000  0.67157000  1.0
  C  C45  1  0.51068000  0.59791000  0.17157000  1.0
  C  C46  1  0.98933000  0.09791000  0.82843000  1.0
  C  C47  1  0.51068000  0.40209000  0.32843000  1.0
  C  C48  1  0.29625000  0.12929000  0.31568000  1.0
  C  C49  1  0.20375000  0.37071000  0.81568000  1.0
  C  C50  1  0.29625000  0.87071000  0.18431000  1.0
  C  C51  1  0.20375000  0.62929000  0.68432000  1.0
  C  C52  1  0.70375000  0.87071000  0.68432000  1.0
  C  C53  1  0.79625000  0.62929000  0.18432000  1.0
  C  C54  1  0.70375000  0.12929000  0.81568000  1.0
  C  C55  1  0.79625000  0.37071000  0.31568000  1.0
  C  C56  1  0.20107000  0.03697000  0.43971000  1.0
  C  C57  1  0.29893000  0.46304000  0.93971000  1.0
  C  C58  1  0.20107000  0.96304000  0.06029000  1.0
  C  C59  1  0.29893000  0.53697000  0.56029000  1.0
  C  C60  1  0.79893000  0.96303000  0.56029000  1.0
  C  C61  1  0.70107000  0.53697000  0.06029000  1.0
  C  C62  1  0.79893000  0.03697000  0.93971000  1.0
  C  C63  1  0.70107000  0.46303000  0.43971000  1.0
  S  S64  1  0.80924000  0.05473000  0.36417000  1.0
  S  S65  1  0.69077000  0.44527000  0.86418000  1.0
  S  S66  1  0.80924000  0.94527000  0.13583000  1.0
  S  S67  1  0.69076000  0.55473000  0.63583000  1.0
  S  S68  1  0.19076000  0.94527000  0.63583000  1.0
  S  S69  1  0.30923000  0.55473000  0.13583000  1.0
  S  S70  1  0.19077000  0.05473000  0.86417000  1.0
  S  S71  1  0.30923000  0.44527000  0.36417000  1.0
  N  N72  1  0.04074000  0.15134000  0.26153000  1.0
  N  N73  1  0.45926000  0.34866000  0.76153000  1.0
  N  N74  1  0.04075000  0.84866000  0.23847000  1.0
  N  N75  1  0.45926000  0.65134000  0.73847000  1.0
  N  N76  1  0.95926000  0.84866000  0.73847000  1.0
  N  N77  1  0.54074000  0.65134000  0.23847000  1.0
  N  N78  1  0.95926000  0.15134000  0.76153000  1.0
  N  N79  1  0.54074000  0.34866000  0.26153000  1.0
  N  N80  1  0.17260000  0.08411000  0.36373000  1.0
  N  N81  1  0.32740000  0.41589000  0.86373000  1.0
  N  N82  1  0.17260000  0.91589000  0.13627000  1.0
  N  N83  1  0.32740000  0.58411000  0.63627000  1.0
  N  N84  1  0.82740000  0.91589000  0.63627000  1.0
  N  N85  1  0.67260000  0.58411000  0.13627000  1.0
  N  N86  1  0.82740000  0.08411000  0.86373000  1.0
  N  N87  1  0.67260000  0.41589000  0.36374000  1.0
  N  N88  1  0.21903000  0.17051000  0.25363000  1.0
  N  N89  1  0.28098000  0.32949000  0.75363000  1.0
  N  N90  1  0.21903000  0.82948000  0.24637000  1.0
  N  N91  1  0.28097000  0.67052000  0.74637000  1.0
  N  N92  1  0.78097000  0.82949000  0.74637000  1.0
  N  N93  1  0.71903000  0.67051000  0.24637000  1.0
  N  N94  1  0.78098000  0.17052000  0.75363000  1.0
  N  N95  1  0.71902000  0.32948000  0.25363000  1.0
  Cl  Cl96  1  0.03791000  0.70396000  0.41683000  1.0
  Cl  Cl97  1  0.46209000  0.79604000  0.91683000  1.0
  Cl  Cl98  1  0.03791000  0.29604000  0.08317000  1.0
  Cl  Cl99  1  0.46209000  0.20396000  0.58317000  1.0
  Cl  Cl100  1  0.96209000  0.29604000  0.58317000  1.0
  Cl  Cl101  1  0.53791000  0.20396000  0.08317000  1.0
  Cl  Cl102  1  0.96209000  0.70396000  0.91683000  1.0
  Cl  Cl103  1  0.53791000  0.79604000  0.41683000  1.0
