# generated using pymatgen
data_ZnH26C37(NO10)2
_symmetry_space_group_name_H-M   'P 1'
_cell_length_a   14.89740000
_cell_length_b   15.01460000
_cell_length_c   22.42910000
_cell_angle_alpha   90.89220000
_cell_angle_beta   106.53840000
_cell_angle_gamma   97.29440000
_symmetry_Int_Tables_number   1
_chemical_formula_structural   ZnH26C37(NO10)2
_chemical_formula_sum   'Zn2 H52 C74 N4 O40'
_cell_volume   4763.37091544
_cell_formula_units_Z   2
loop_
 _symmetry_equiv_pos_site_id
 _symmetry_equiv_pos_as_xyz
  1  'x, y, z'
loop_
 _atom_site_type_symbol
 _atom_site_label
 _atom_site_symmetry_multiplicity
 _atom_site_fract_x
 _atom_site_fract_y
 _atom_site_fract_z
 _atom_site_occupancy
  Zn  Zn0  1  0.60861000  0.49777000  0.53409000  1.0
  Zn  Zn1  1  0.37297000  0.55476000  0.46116000  1.0
  H  H2  1  0.67501000  0.32961000  0.54722000  1.0
  H  H3  1  0.18600000  0.12371000  0.26478000  1.0
  H  H4  1  0.16247000  0.23043000  0.29108000  1.0
  H  H5  1  0.07287000  0.13417000  0.27564000  1.0
  H  H6  1  0.52896000  0.19334000  0.36659000  1.0
  H  H7  1  0.64520000  0.19570000  0.35764000  1.0
  H  H8  1  0.61630000  0.28890000  0.39603000  1.0
  H  H9  1  0.44978000  0.76732000  0.37073000  1.0
  H  H10  1  0.48657000  0.86639000  0.33505000  1.0
  H  H11  1  0.39084000  0.78468000  0.29124000  1.0
  H  H12  1  0.84784000  0.60511000  0.28253000  1.0
  H  H13  1  0.26443000  0.67139000  0.36873000  1.0
  H  H14  1  0.04121000  0.24528000  0.51887000  1.0
  H  H15  1  0.82068000  0.60942000  0.46034000  1.0
  H  H16  1  0.16788000  0.47091000  0.52966000  1.0
  H  H17  1  0.14725000  0.74037000  0.31142000  1.0
  H  H18  1  0.75876000  0.21020000  0.55061000  1.0
  H  H19  1  0.98924000  0.60879000  0.14105000  1.0
  H  H20  1  0.99494000  0.51742000  0.19256000  1.0
  H  H21  1  0.00894000  0.63098000  0.22342000  1.0
  H  H22  1  0.47866000  0.20942000  0.87107000  1.0
  H  H23  1  0.44546000  0.29663000  0.91213000  1.0
  H  H24  1  0.81123000  0.56145000  0.37551000  1.0
  H  H25  1  0.38271000  0.18435000  0.90540000  1.0
  H  H26  1  0.40264000  0.47124000  0.12755000  1.0
  H  H27  1  0.86478000  0.46051000  0.81831000  1.0
  H  H28  1  0.31380000  0.54280000  0.22883000  1.0
  H  H29  1  0.74950000  0.48736000  0.68137000  1.0
  H  H30  1  0.53077000  0.54283000  0.40960000  1.0
  H  H31  1  0.44846000  0.46533000  0.67839000  1.0
  H  H32  1  0.68861000  0.44213000  0.38636000  1.0
  H  H33  1  0.44448000  0.43840000  0.81646000  1.0
  H  H34  1  0.79454000  0.17476000  0.43924000  1.0
  H  H35  1  0.09517000  0.36812000  0.48192000  1.0
  H  H36  1  0.74404000  0.07774000  0.38670000  1.0
  H  H37  1  0.86317000  0.08614000  0.43671000  1.0
  H  H38  1  0.12928000  0.96569000  0.35895000  1.0
  H  H39  1  0.19203000  0.87053000  0.36102000  1.0
  H  H40  1  0.11469000  0.89970000  0.28854000  1.0
  H  H41  1  0.58438000  0.24021000  0.61333000  1.0
  H  H42  1  0.46696000  0.18066000  0.58556000  1.0
  H  H43  1  0.48772000  0.30094000  0.58055000  1.0
  H  H44  1  0.37250000  0.88690000  0.52323000  1.0
  H  H45  1  0.38937000  0.77704000  0.55317000  1.0
  H  H46  1  0.84627000  0.60027000  0.00740000  1.0
  H  H47  1  0.28720000  0.79046000  0.49008000  1.0
  H  H48  1  0.26620000  0.35981000  0.42392000  1.0
  H  H49  1  0.78350000  0.79555000  0.59290000  1.0
  H  H50  1  0.48364000  0.15804000  0.04047000  1.0
  H  H51  1  0.83857000  0.92800000  0.47199000  1.0
  H  H52  1  0.84141000  0.81783000  0.50235000  1.0
  H  H53  1  0.92645000  0.91100000  0.54300000  1.0
  C  C54  1  0.53477000  0.67086000  0.51975000  1.0
  C  C55  1  0.54534000  0.45691000  0.75274000  1.0
  C  C56  1  0.60462000  0.45518000  0.30741000  1.0
  C  C57  1  0.57199000  0.44439000  0.81655000  1.0
  C  C58  1  0.57830000  0.44412000  0.24272000  1.0
  C  C59  1  0.66732000  0.44174000  0.84862000  1.0
  C  C60  1  0.56639000  0.76782000  0.51657000  1.0
  C  C61  1  0.39225000  0.27321000  0.45359000  1.0
  C  C62  1  0.69822000  0.88627000  0.52411000  1.0
  C  C63  1  0.27247000  0.15720000  0.38695000  1.0
  C  C64  1  0.66377000  0.80130000  0.53873000  1.0
  C  C65  1  0.42430000  0.36903000  0.47351000  1.0
  C  C66  1  0.29894000  0.24516000  0.41316000  1.0
  C  C67  1  0.50423000  0.82442000  0.48275000  1.0
  C  C68  1  0.45505000  0.20854000  0.46848000  1.0
  C  C69  1  0.39521000  0.55653000  0.33080000  1.0
  C  C70  1  0.58414000  0.47881000  0.65313000  1.0
  C  C71  1  0.53729000  0.91022000  0.46546000  1.0
  C  C72  1  0.43489000  0.12433000  0.43478000  1.0
  C  C73  1  0.63699000  0.94274000  0.48823000  1.0
  C  C74  1  0.33988000  0.09610000  0.39590000  1.0
  C  C75  1  0.47286000  0.96940000  0.43211000  1.0
  C  C76  1  0.49064000  0.46566000  0.20677000  1.0
  C  C77  1  0.50388000  0.06312000  0.44301000  1.0
  C  C78  1  0.60339000  0.09214000  0.45573000  1.0
  C  C79  1  0.38259000  0.94413000  0.38641000  1.0
  C  C80  1  0.66852000  0.03204000  0.47370000  1.0
  C  C81  1  0.31933000  0.00661000  0.36808000  1.0
  C  C82  1  0.11590000  0.64801000  0.36274000  1.0
  C  C83  1  0.80945000  0.32508000  0.53011000  1.0
  C  C84  1  0.20988000  0.63701000  0.38708000  1.0
  C  C85  1  0.73172000  0.36555000  0.53157000  1.0
  C  C86  1  0.17670000  0.53716000  0.45855000  1.0
  C  C87  1  0.73702000  0.45362000  0.81767000  1.0
  C  C88  1  0.78313000  0.49543000  0.48895000  1.0
  C  C89  1  0.07787000  0.53557000  0.43266000  1.0
  C  C90  1  0.85936000  0.45579000  0.47781000  1.0
  C  C91  1  0.04616000  0.59586000  0.38471000  1.0
  C  C92  1  0.87854000  0.37204000  0.50491000  1.0
  C  C93  1  0.64848000  0.33877000  0.92778000  1.0
  C  C94  1  0.71480000  0.47535000  0.20384000  1.0
  C  C95  1  0.01136000  0.47779000  0.45530000  1.0
  C  C96  1  0.91901000  0.50075000  0.44360000  1.0
  C  C97  1  0.88684000  0.55872000  0.39467000  1.0
  C  C98  1  0.42981000  0.50026000  0.23565000  1.0
  C  C99  1  0.03131000  0.39559000  0.48362000  1.0
  C  C100  1  0.94546000  0.59725000  0.36094000  1.0
  C  C101  1  0.96525000  0.34075000  0.50375000  1.0
  C  C102  1  0.74512000  0.48818000  0.95792000  1.0
  C  C103  1  0.60546000  0.32959000  0.17549000  1.0
  C  C104  1  0.75309000  0.47026000  0.02277000  1.0
  C  C105  1  0.62494000  0.32506000  0.11511000  1.0
  C  C106  1  0.69364000  0.39849000  0.03822000  1.0
  C  C107  1  0.68693000  0.39526000  0.09999000  1.0
  C  C108  1  0.63772000  0.33333333  0.99096000  1.0
  C  C109  1  0.71063000  0.46865000  0.75387000  1.0
  C  C110  1  0.74288000  0.46233000  0.14645000  1.0
  C  C111  1  0.81338000  0.53168000  0.06923000  1.0
  C  C112  1  0.57356000  0.25868000  0.06944000  1.0
  C  C113  1  0.81330000  0.52322000  0.13289000  1.0
  C  C114  1  0.57685000  0.26519000  0.00655000  1.0
  C  C115  1  0.85325000  0.89067000  0.51461000  1.0
  C  C116  1  0.14904000  0.15695000  0.29300000  1.0
  C  C117  1  0.60444000  0.21568000  0.38835000  1.0
  C  C118  1  0.42584000  0.81814000  0.33733000  1.0
  C  C119  1  0.97345000  0.58453000  0.18325000  1.0
  C  C120  1  0.45789000  0.51668000  0.30100000  1.0
  C  C121  1  0.45130000  0.22460000  0.90990000  1.0
  C  C122  1  0.79187000  0.10194000  0.43277000  1.0
  C  C123  1  0.16487000  0.92618000  0.33311000  1.0
  C  C124  1  0.51601000  0.23744000  0.57769000  1.0
  C  C125  1  0.36255000  0.81412000  0.51136000  1.0
  C  C126  1  0.61466000  0.46910000  0.72061000  1.0
  C  C127  1  0.54601000  0.49399000  0.33609000  1.0
  N  N128  1  0.68884000  0.42406000  0.91326000  1.0
  N  N129  1  0.63860000  0.41460000  0.20920000  1.0
  N  N130  1  0.23922000  0.58304000  0.43463000  1.0
  N  N131  1  0.72125000  0.45073000  0.51417000  1.0
  O  O132  1  0.59301000  0.61938000  0.51210000  1.0
  O  O133  1  0.74649000  0.53958000  0.24295000  1.0
  O  O134  1  0.78519000  0.55895000  0.94255000  1.0
  O  O135  1  0.55948000  0.27118000  0.19633000  1.0
  O  O136  1  0.86684000  0.60218000  0.05532000  1.0
  O  O137  1  0.51464000  0.19020000  0.08127000  1.0
  O  O138  1  0.79424000  0.91254000  0.55236000  1.0
  O  O139  1  0.17831000  0.13051000  0.35639000  1.0
  O  O140  1  0.63790000  0.17937000  0.44884000  1.0
  O  O141  1  0.35557000  0.86333000  0.35331000  1.0
  O  O142  1  0.91264000  0.63485000  0.30663000  1.0
  O  O143  1  0.35957000  0.42225000  0.46396000  1.0
  O  O144  1  0.98058000  0.25719000  0.52345000  1.0
  O  O145  1  0.77154000  0.58204000  0.47816000  1.0
  O  O146  1  0.21678000  0.49559000  0.51083000  1.0
  O  O147  1  0.09008000  0.70844000  0.31842000  1.0
  O  O148  1  0.82072000  0.24217000  0.55197000  1.0
  O  O149  1  0.87361000  0.57994000  0.17809000  1.0
  O  O150  1  0.51435000  0.20022000  0.96767000  1.0
  O  O151  1  0.46575000  0.45345000  0.14316000  1.0
  O  O152  1  0.82935000  0.44841000  0.84862000  1.0
  O  O153  1  0.34555000  0.51892000  0.19853000  1.0
  O  O154  1  0.45250000  0.64361000  0.52472000  1.0
  O  O155  1  0.78197000  0.48016000  0.72658000  1.0
  O  O156  1  0.57934000  0.50919000  0.39886000  1.0
  O  O157  1  0.45153000  0.45646000  0.72388000  1.0
  O  O158  1  0.68777000  0.43000000  0.34316000  1.0
  O  O159  1  0.50449000  0.43335000  0.84772000  1.0
  O  O160  1  0.76314000  0.05493000  0.48124000  1.0
  O  O161  1  0.23995000  0.98274000  0.31858000  1.0
  O  O162  1  0.53454000  0.22240000  0.51883000  1.0
  O  O163  1  0.40854000  0.79602000  0.46498000  1.0
  O  O164  1  0.23246000  0.30136000  0.40115000  1.0
  O  O165  1  0.51167000  0.39594000  0.49507000  1.0
  O  O166  1  0.72469000  0.75327000  0.57775000  1.0
  O  O167  1  0.42917000  0.57577000  0.39126000  1.0
  O  O168  1  0.49792000  0.47696000  0.62369000  1.0
  O  O169  1  0.31478000  0.57233000  0.29920000  1.0
  O  O170  1  0.65090000  0.48780000  0.62506000  1.0
  O  O171  1  0.62462000  0.27644000  0.88806000  1.0
