# generated using pymatgen
data_GdH8(C3O2)4
_symmetry_space_group_name_H-M   'P 1'
_cell_length_a   8.30370000
_cell_length_b   9.20927000
_cell_length_c   18.98750000
_cell_angle_alpha   89.99960000
_cell_angle_beta   89.99970000
_cell_angle_gamma   75.00200000
_symmetry_Int_Tables_number   1
_chemical_formula_structural   GdH8(C3O2)4
_chemical_formula_sum   'Gd4 H32 C48 O32'
_cell_volume   1402.53104467
_cell_formula_units_Z   4
loop_
 _symmetry_equiv_pos_site_id
 _symmetry_equiv_pos_as_xyz
  1  'x, y, z'
loop_
 _atom_site_type_symbol
 _atom_site_label
 _atom_site_symmetry_multiplicity
 _atom_site_fract_x
 _atom_site_fract_y
 _atom_site_fract_z
 _atom_site_occupancy
  Gd  Gd0  1  0.79245000  0.47519000  0.44337000  1.0
  Gd  Gd1  1  0.20755000  0.02481000  0.94337000  1.0
  Gd  Gd2  1  0.20754000  0.52481000  0.55663000  1.0
  Gd  Gd3  1  0.79245000  0.97519000  0.05663000  1.0
  H  H4  1  0.74302000  0.23063000  0.33093000  1.0
  H  H5  1  0.25699000  0.26938000  0.83093000  1.0
  H  H6  1  0.25699000  0.76938000  0.66906000  1.0
  H  H7  1  0.74304000  0.73060000  0.16907000  1.0
  H  H8  1  0.73364000  0.16398000  0.40688000  1.0
  H  H9  1  0.26637000  0.33602000  0.90688000  1.0
  H  H10  1  0.26637000  0.83601000  0.59312000  1.0
  H  H11  1  0.73365000  0.66397000  0.09312000  1.0
  H  H12  1  0.58487000  0.62699000  0.56835000  1.0
  H  H13  1  0.41513000  0.87300000  0.06835000  1.0
  H  H14  1  0.41514000  0.37300000  0.43165000  1.0
  H  H15  1  0.58487000  0.12700000  0.93165000  1.0
  H  H16  1  0.77310000  0.64131000  0.58232000  1.0
  H  H17  1  0.22690000  0.85868000  0.08232000  1.0
  H  H18  1  0.22691000  0.35867000  0.41768000  1.0
  H  H19  1  0.77311000  0.14133000  0.91768000  1.0
  H  H20  1  0.76460000  0.92451000  0.55700000  1.0
  H  H21  1  0.23540000  0.57547000  0.05699000  1.0
  H  H22  1  0.23539000  0.07548000  0.44301000  1.0
  H  H23  1  0.76458000  0.42454000  0.94300000  1.0
  H  H24  1  0.92953000  0.99324000  0.31216000  1.0
  H  H25  1  0.07048000  0.50677000  0.81216000  1.0
  H  H26  1  0.07045000  0.00678000  0.68784000  1.0
  H  H27  1  0.92953000  0.49322000  0.18783000  1.0
  H  H28  1  0.28294000  0.68037000  0.18468000  1.0
  H  H29  1  0.71706000  0.81964000  0.68468000  1.0
  H  H30  1  0.71704000  0.31964000  0.81532000  1.0
  H  H31  1  0.28296000  0.18037000  0.31532000  1.0
  H  H32  1  0.45252000  0.58786000  0.29258000  1.0
  H  H33  1  0.54748000  0.91214000  0.79258000  1.0
  H  H34  1  0.54746000  0.41214000  0.70742000  1.0
  H  H35  1  0.45253000  0.08787000  0.20742000  1.0
  C  C36  1  0.89071000  0.74964000  0.44653000  1.0
  C  C37  1  0.10928000  0.75036000  0.94653000  1.0
  C  C38  1  0.10928000  0.25036000  0.55347000  1.0
  C  C39  1  0.89072000  0.24963000  0.05346000  1.0
  C  C40  1  0.93885000  0.88711000  0.47067000  1.0
  C  C41  1  0.06114000  0.61289000  0.97068000  1.0
  C  C42  1  0.06115000  0.11288000  0.52933000  1.0
  C  C43  1  0.93885000  0.38711000  0.02932000  1.0
  C  C44  1  0.86651000  0.95965000  0.53205000  1.0
  C  C45  1  0.13348000  0.54034000  0.03205000  1.0
  C  C46  1  0.13349000  0.04034000  0.46795000  1.0
  C  C47  1  0.86651000  0.45966000  0.96795000  1.0
  C  C48  1  0.07311000  0.92655000  0.43775000  1.0
  C  C49  1  0.92688000  0.57346000  0.93775000  1.0
  C  C50  1  0.92687000  0.07345000  0.56225000  1.0
  C  C51  1  0.07312000  0.42654000  0.06225000  1.0
  C  C52  1  0.13883000  0.85516000  0.36938000  1.0
  C  C53  1  0.86117000  0.64484000  0.86937000  1.0
  C  C54  1  0.86116000  0.14484000  0.63062000  1.0
  C  C55  1  0.13884000  0.35515000  0.13062000  1.0
  C  C56  1  0.04596000  0.90564000  0.30860000  1.0
  C  C57  1  0.95405000  0.59436000  0.80860000  1.0
  C  C58  1  0.95403000  0.09437000  0.69140000  1.0
  C  C59  1  0.04596000  0.40564000  0.19140000  1.0
  C  C60  1  0.09670000  0.84389000  0.24246000  1.0
  C  C61  1  0.90329000  0.65611000  0.74246000  1.0
  C  C62  1  0.90329000  0.15613000  0.75754000  1.0
  C  C63  1  0.09671000  0.34389000  0.25754000  1.0
  C  C64  1  0.24494000  0.73011000  0.23606000  1.0
  C  C65  1  0.75506000  0.76989000  0.73606000  1.0
  C  C66  1  0.75504000  0.26990000  0.76394000  1.0
  C  C67  1  0.24496000  0.23011000  0.26394000  1.0
  C  C68  1  0.33856000  0.67852000  0.29576000  1.0
  C  C69  1  0.66144000  0.82148000  0.79575000  1.0
  C  C70  1  0.66142000  0.32148000  0.70425000  1.0
  C  C71  1  0.33857000  0.17852000  0.20425000  1.0
  C  C72  1  0.28610000  0.73815000  0.36245000  1.0
  C  C73  1  0.71390000  0.76185000  0.86245000  1.0
  C  C74  1  0.71387000  0.26185000  0.63755000  1.0
  C  C75  1  0.28610000  0.23816000  0.13755000  1.0
  C  C76  1  0.38247000  0.66179000  0.42467000  1.0
  C  C77  1  0.61753000  0.83821000  0.92467000  1.0
  C  C78  1  0.61752000  0.33821000  0.57533000  1.0
  C  C79  1  0.38248000  0.16179000  0.07533000  1.0
  C  C80  1  0.99046000  0.89464000  0.17942000  1.0
  C  C81  1  0.00955000  0.60536000  0.67942000  1.0
  C  C82  1  0.00954000  0.10538000  0.82058000  1.0
  C  C83  1  0.99046000  0.39464000  0.32058000  1.0
  O  O84  1  0.71380000  0.25699000  0.37977000  1.0
  O  O85  1  0.28622000  0.24302000  0.87977000  1.0
  O  O86  1  0.28621000  0.74301000  0.62023000  1.0
  O  O87  1  0.71384000  0.75697000  0.12023000  1.0
  O  O88  1  0.68978000  0.63053000  0.54609000  1.0
  O  O89  1  0.31021000  0.86947000  0.04609000  1.0
  O  O90  1  0.31022000  0.36948000  0.45391000  1.0
  O  O91  1  0.68979000  0.13052000  0.95391000  1.0
  O  O92  1  0.99215000  0.62284000  0.46523000  1.0
  O  O93  1  0.00784000  0.87716000  0.96523000  1.0
  O  O94  1  0.00785000  0.37715000  0.53477000  1.0
  O  O95  1  0.99215000  0.12284000  0.03477000  1.0
  O  O96  1  0.75975000  0.75242000  0.41323000  1.0
  O  O97  1  0.24025000  0.74757000  0.91323000  1.0
  O  O98  1  0.24025000  0.24758000  0.58678000  1.0
  O  O99  1  0.75974000  0.25243000  0.08677000  1.0
  O  O100  1  0.84461000  0.98106000  0.18533000  1.0
  O  O101  1  0.15540000  0.51894000  0.68533000  1.0
  O  O102  1  0.15539000  0.01895000  0.81467000  1.0
  O  O103  1  0.84461000  0.48105000  0.31467000  1.0
  O  O104  1  0.04763000  0.84451000  0.11838000  1.0
  O  O105  1  0.95239000  0.65549000  0.61838000  1.0
  O  O106  1  0.95239000  0.15551000  0.88161000  1.0
  O  O107  1  0.04762000  0.34450000  0.38162000  1.0
  O  O108  1  0.31860000  0.68570000  0.48578000  1.0
  O  O109  1  0.68139000  0.81430000  0.98578000  1.0
  O  O110  1  0.68140000  0.31429000  0.51422000  1.0
  O  O111  1  0.31861000  0.18572000  0.01422000  1.0
  O  O112  1  0.52102000  0.56780000  0.41187000  1.0
  O  O113  1  0.47897000  0.93219000  0.91186000  1.0
  O  O114  1  0.47897000  0.43219000  0.58813000  1.0
  O  O115  1  0.52102000  0.06779000  0.08814000  1.0
