# generated using pymatgen
data_ZnH30C28N4O5
_symmetry_space_group_name_H-M   'P 1'
_cell_length_a   10.64990000
_cell_length_b   10.64990000
_cell_length_c   13.69070000
_cell_angle_alpha   104.81400000
_cell_angle_beta   104.81300000
_cell_angle_gamma   108.00600000
_symmetry_Int_Tables_number   1
_chemical_formula_structural   ZnH30C28N4O5
_chemical_formula_sum   'Zn2 H60 C56 N8 O10'
_cell_volume   1329.70804075
_cell_formula_units_Z   2
loop_
 _symmetry_equiv_pos_site_id
 _symmetry_equiv_pos_as_xyz
  1  'x, y, z'
loop_
 _atom_site_type_symbol
 _atom_site_label
 _atom_site_symmetry_multiplicity
 _atom_site_fract_x
 _atom_site_fract_y
 _atom_site_fract_z
 _atom_site_occupancy
  Zn  Zn0  1  0.64506000  0.35494000  0.25000000  1.0
  Zn  Zn1  1  0.35494000  0.64506000  0.75000000  1.0
  H  H2  1  0.93833000  0.30455000  0.99330000  1.0
  H  H3  1  0.69545000  0.06167000  0.50670000  1.0
  H  H4  1  0.06167000  0.69545000  0.00670000  1.0
  H  H5  1  0.30455000  0.93833000  0.49330000  1.0
  H  H6  1  0.68577000  0.31275000  0.01335000  1.0
  H  H7  1  0.68725000  0.31423000  0.48666000  1.0
  H  H8  1  0.31423000  0.68725000  0.98665000  1.0
  H  H9  1  0.31275000  0.68577000  0.51335000  1.0
  H  H10  1  0.94052000  0.79380000  0.48084000  1.0
  H  H11  1  0.20621000  0.05948000  0.01916000  1.0
  H  H12  1  0.05948000  0.20620000  0.51916000  1.0
  H  H13  1  0.79380000  0.94052000  0.98084000  1.0
  H  H14  1  0.03177000  0.03075000  0.62973000  1.0
  H  H15  1  0.96926000  0.96822000  0.87027000  1.0
  H  H16  1  0.96822000  0.96926000  0.37027000  1.0
  H  H17  1  0.03074000  0.03178000  0.12973000  1.0
  H  H18  1  0.64886000  0.89607000  0.69811000  1.0
  H  H19  1  0.10393000  0.35113000  0.80189000  1.0
  H  H20  1  0.35114000  0.10393000  0.30189000  1.0
  H  H21  1  0.89607000  0.64886000  0.19811000  1.0
  H  H22  1  0.14644000  0.27659000  0.23321000  1.0
  H  H23  1  0.72341000  0.85356000  0.26679000  1.0
  H  H24  1  0.85356000  0.72341000  0.76679000  1.0
  H  H25  1  0.27659000  0.14644000  0.73321000  1.0
  H  H26  1  0.15202000  0.31254000  0.11477000  1.0
  H  H27  1  0.68746000  0.84799000  0.38522000  1.0
  H  H28  1  0.84799000  0.68746000  0.88523000  1.0
  H  H29  1  0.31254000  0.15201000  0.61477000  1.0
  H  H30  1  0.55970000  0.65953000  0.54994000  1.0
  H  H31  1  0.34047000  0.44030000  0.95006000  1.0
  H  H32  1  0.44030000  0.34047000  0.45006000  1.0
  H  H33  1  0.65953000  0.55970000  0.04994000  1.0
  H  H34  1  0.03528000  0.32718000  0.37118000  1.0
  H  H35  1  0.67282000  0.96472000  0.12883000  1.0
  H  H36  1  0.96472000  0.67282000  0.62882000  1.0
  H  H37  1  0.32718000  0.03527000  0.87117000  1.0
  H  H38  1  0.91055000  0.40153000  0.39029000  1.0
  H  H39  1  0.59847000  0.08945000  0.10971000  1.0
  H  H40  1  0.08945000  0.59847000  0.60971000  1.0
  H  H41  1  0.40153000  0.91055000  0.89029000  1.0
  H  H42  1  0.07639000  0.50921000  0.39366000  1.0
  H  H43  1  0.49079000  0.92361000  0.10634000  1.0
  H  H44  1  0.92361000  0.49079000  0.60634000  1.0
  H  H45  1  0.50921000  0.07639000  0.89366000  1.0
  H  H46  1  0.26088000  0.52711000  0.34619000  1.0
  H  H47  1  0.47289000  0.73912000  0.15381000  1.0
  H  H48  1  0.73912000  0.47289000  0.65381000  1.0
  H  H49  1  0.52711000  0.26088000  0.84619000  1.0
  H  H50  1  0.35818000  0.48646000  0.26754000  1.0
  H  H51  1  0.51354000  0.64182000  0.23246000  1.0
  H  H52  1  0.64182000  0.51354000  0.73246000  1.0
  H  H53  1  0.48646000  0.35818000  0.76754000  1.0
  H  H54  1  0.15682000  0.63880000  0.22941000  1.0
  H  H55  1  0.36120000  0.84317000  0.27059000  1.0
  H  H56  1  0.84318000  0.36121000  0.77059000  1.0
  H  H57  1  0.63880000  0.15683000  0.72941000  1.0
  H  H58  1  0.22796000  0.57986000  0.13259000  1.0
  H  H59  1  0.42014000  0.77204000  0.36741000  1.0
  H  H60  1  0.77204000  0.42014000  0.86741000  1.0
  H  H61  1  0.57986000  0.22797000  0.63259000  1.0
  C  C62  1  0.84405000  0.97623000  0.67054000  1.0
  C  C63  1  0.02377000  0.15594000  0.82946000  1.0
  C  C64  1  0.15595000  0.02377000  0.32946000  1.0
  C  C65  1  0.97623000  0.84405000  0.17054000  1.0
  C  C66  1  0.92696000  0.36814000  0.23543000  1.0
  C  C67  1  0.63185000  0.07304000  0.26457000  1.0
  C  C68  1  0.07304000  0.63185000  0.76457000  1.0
  C  C69  1  0.36814000  0.92696000  0.73543000  1.0
  C  C70  1  0.68672000  0.57407000  0.41452000  1.0
  C  C71  1  0.42593000  0.31328000  0.08548000  1.0
  C  C72  1  0.31328000  0.42593000  0.58548000  1.0
  C  C73  1  0.57407000  0.68672000  0.91452000  1.0
  C  C74  1  0.90570000  0.32204000  0.06260000  1.0
  C  C75  1  0.67796000  0.09431000  0.43740000  1.0
  C  C76  1  0.09430000  0.67796000  0.93740000  1.0
  C  C77  1  0.32204000  0.90569000  0.56260000  1.0
  C  C78  1  0.78203000  0.32530000  0.07348000  1.0
  C  C79  1  0.67470000  0.21797000  0.42652000  1.0
  C  C80  1  0.21797000  0.67470000  0.92652000  1.0
  C  C81  1  0.32530000  0.78203000  0.57348000  1.0
  C  C82  1  0.87766000  0.81767000  0.52880000  1.0
  C  C83  1  0.18233000  0.12234000  0.97120000  1.0
  C  C84  1  0.12234000  0.18233000  0.47120000  1.0
  C  C85  1  0.81768000  0.87766000  0.02880000  1.0
  C  C86  1  0.92841000  0.94884000  0.61127000  1.0
  C  C87  1  0.05116000  0.07159000  0.88873000  1.0
  C  C88  1  0.07159000  0.05116000  0.38873000  1.0
  C  C89  1  0.94884000  0.92841000  0.11127000  1.0
  C  C90  1  0.74331000  0.71388000  0.50511000  1.0
  C  C91  1  0.28612000  0.25669000  0.99489000  1.0
  C  C92  1  0.25669000  0.28612000  0.49489000  1.0
  C  C93  1  0.71388000  0.74331000  0.00511000  1.0
  C  C94  1  0.71093000  0.87408000  0.64888000  1.0
  C  C95  1  0.12592000  0.28906000  0.85112000  1.0
  C  C96  1  0.28907000  0.12592000  0.35112000  1.0
  C  C97  1  0.87408000  0.71093000  0.14888000  1.0
  C  C98  1  0.13970000  0.35213000  0.19237000  1.0
  C  C99  1  0.64787000  0.86030000  0.30763000  1.0
  C  C100  1  0.86030000  0.64787000  0.80764000  1.0
  C  C101  1  0.35213000  0.13970000  0.69237000  1.0
  C  C102  1  0.66106000  0.74281000  0.56592000  1.0
  C  C103  1  0.25719000  0.33893000  0.93408000  1.0
  C  C104  1  0.33894000  0.25719000  0.43408000  1.0
  C  C105  1  0.74281000  0.66106000  0.06592000  1.0
  C  C106  1  0.99060000  0.40263000  0.35372000  1.0
  C  C107  1  0.59737000  0.00940000  0.14628000  1.0
  C  C108  1  0.00940000  0.59737000  0.64628000  1.0
  C  C109  1  0.40263000  0.99060000  0.85372000  1.0
  C  C110  1  0.25777000  0.49799000  0.26224000  1.0
  C  C111  1  0.50201000  0.74223000  0.23776000  1.0
  C  C112  1  0.74223000  0.50201000  0.73776000  1.0
  C  C113  1  0.49799000  0.25777000  0.76224000  1.0
  C  C114  1  0.24815000  0.61597000  0.22039000  1.0
  C  C115  1  0.38403000  0.75184000  0.27961000  1.0
  C  C116  1  0.75184000  0.38403000  0.77961000  1.0
  C  C117  1  0.61597000  0.24816000  0.72039000  1.0
  N  N118  1  0.79614000  0.35328000  0.18075000  1.0
  N  N119  1  0.64672000  0.20386000  0.31926000  1.0
  N  N120  1  0.20386000  0.64671000  0.81925000  1.0
  N  N121  1  0.35328000  0.79614000  0.68074000  1.0
  N  N122  1  0.99592000  0.34857000  0.16525000  1.0
  N  N123  1  0.65143000  0.00408000  0.33475000  1.0
  N  N124  1  0.00408000  0.65143000  0.83475000  1.0
  N  N125  1  0.34857000  0.99592000  0.66525000  1.0
  O  O126  1  0.56354000  0.48377000  0.38953000  1.0
  O  O127  1  0.51623000  0.43647000  0.11048000  1.0
  O  O128  1  0.43646000  0.51623000  0.61047000  1.0
  O  O129  1  0.48377000  0.56353000  0.88953000  1.0
  O  O130  1  0.76921000  0.55180000  0.36347000  1.0
  O  O131  1  0.44820000  0.23079000  0.13653000  1.0
  O  O132  1  0.23079000  0.44819000  0.63653000  1.0
  O  O133  1  0.55180000  0.76921000  0.86347000  1.0
  O  O134  1  0.89077000  0.10923000  0.75000000  1.0
  O  O135  1  0.10923000  0.89077000  0.25000000  1.0
