# generated using pymatgen
data_Zn4H8C40Cl12O13
_symmetry_space_group_name_H-M   'P 1'
_cell_length_a   23.87784975
_cell_length_b   23.87810000
_cell_length_c   23.87640000
_cell_angle_alpha   66.89120000
_cell_angle_beta   72.31378950
_cell_angle_gamma   107.68327283
_symmetry_Int_Tables_number   1
_chemical_formula_structural   Zn4H8C40Cl12O13
_chemical_formula_sum   'Zn8 H16 C80 Cl24 O26'
_cell_volume   10447.36078709
_cell_formula_units_Z   2
loop_
 _symmetry_equiv_pos_site_id
 _symmetry_equiv_pos_as_xyz
  1  'x, y, z'
loop_
 _atom_site_type_symbol
 _atom_site_label
 _atom_site_symmetry_multiplicity
 _atom_site_fract_x
 _atom_site_fract_y
 _atom_site_fract_z
 _atom_site_occupancy
  Zn  Zn0  1  0.05741000  0.09972000  0.45768000  1.0
  Zn  Zn1  1  0.05741000  0.95769000  0.48490000  1.0
  Zn  Zn2  1  0.94258000  0.95767000  0.59973000  1.0
  Zn  Zn3  1  0.94260000  0.98491000  0.45768000  1.0
  Zn  Zn4  1  0.94259000  0.40028000  0.04232000  1.0
  Zn  Zn5  1  0.05742000  0.54232000  0.90027000  1.0
  Zn  Zn6  1  0.94259000  0.54231000  0.01510000  1.0
  Zn  Zn7  1  0.05740000  0.51509000  0.04232000  1.0
  H  H8  1  0.92367000  0.27164000  0.96395000  1.0
  H  H9  1  0.07633000  0.46396000  0.77160000  1.0
  H  H10  1  0.92367000  0.03605000  0.72839000  1.0
  H  H11  1  0.07627000  0.22837000  0.53604000  1.0
  H  H12  1  0.07634000  0.61242000  0.15201000  1.0
  H  H13  1  0.92368000  0.65207000  0.11236000  1.0
  H  H14  1  0.07627000  0.84789000  0.38768000  1.0
  H  H15  1  0.92367000  0.88762000  0.34795000  1.0
  H  H16  1  0.73557000  0.27163000  0.15208000  1.0
  H  H17  1  0.73557000  0.46395000  0.11236000  1.0
  H  H18  1  0.26443000  0.03604000  0.38765000  1.0
  H  H19  1  0.26443000  0.22835000  0.34800000  1.0
  H  H20  1  0.26444000  0.65211000  0.77162000  1.0
  H  H21  1  0.26442000  0.61236000  0.96397000  1.0
  H  H22  1  0.73558000  0.88765000  0.53603000  1.0
  H  H23  1  0.73556000  0.84797000  0.72836000  1.0
  C  C24  1  0.18215000  0.09107000  0.40894000  1.0
  C  C25  1  0.00000000  0.86311000  0.63689000  1.0
  C  C26  1  0.99999000  0.09107000  0.59107000  1.0
  C  C27  1  0.81786000  0.90895000  0.59105000  1.0
  C  C28  1  0.00001000  0.13690000  0.36310000  1.0
  C  C29  1  0.99999000  0.90891000  0.40894000  1.0
  C  C30  1  1.00000000  0.40894000  0.90892000  1.0
  C  C31  1  0.00000000  0.63689000  0.86311000  1.0
  C  C32  1  0.81785000  0.40893000  0.09108000  1.0
  C  C33  1  1.00000000  0.59108000  0.09106000  1.0
  C  C34  1  0.99999000  0.36310000  0.13690000  1.0
  C  C35  1  0.18215000  0.59108000  0.90894000  1.0
  C  C36  1  1.00000000  0.19483000  0.30517000  1.0
  C  C37  1  0.00000000  0.30517000  0.19483000  1.0
  C  C38  1  0.95703000  0.18008000  0.27695000  1.0
  C  C39  1  0.04297000  0.31992000  0.22305000  1.0
  C  C40  1  0.95703000  0.23398000  0.22305000  1.0
  C  C41  1  0.04297000  0.26602000  0.27695000  1.0
  C  C42  1  1.00000000  0.80517000  0.69483000  1.0
  C  C43  1  0.00001000  0.69483000  0.80516000  1.0
  C  C44  1  0.95703000  0.77694000  0.76603000  1.0
  C  C45  1  0.04297000  0.72305000  0.73397000  1.0
  C  C46  1  0.95703000  0.72304000  0.81993000  1.0
  C  C47  1  0.04297000  0.77696000  0.68007000  1.0
  C  C48  1  1.00000000  0.37144000  0.87142000  1.0
  C  C49  1  0.95691000  0.29974000  0.90826000  1.0
  C  C50  1  0.95703000  0.26504000  0.87326000  1.0
  C  C51  1  0.99999000  0.30057000  0.80056000  1.0
  C  C52  1  0.04296000  0.37327000  0.76502000  1.0
  C  C53  1  0.04308000  0.40826000  0.79972000  1.0
  C  C54  1  0.99999000  0.26533000  0.76530000  1.0
  C  C55  1  0.99998000  0.23469000  0.73468000  1.0
  C  C56  1  0.99998000  0.19944000  0.69943000  1.0
  C  C57  1  0.95702000  0.12673000  0.73498000  1.0
  C  C58  1  0.95690000  0.09174000  0.70028000  1.0
  C  C59  1  0.99997000  0.12856000  0.62857000  1.0
  C  C60  1  0.04304000  0.20027000  0.59174000  1.0
  C  C61  1  0.04293000  0.23498000  0.62672000  1.0
  C  C62  1  0.00001000  0.62860000  0.12854000  1.0
  C  C63  1  0.04310000  0.63487000  0.15715000  1.0
  C  C64  1  0.04298000  0.66974000  0.19197000  1.0
  C  C65  1  0.00001000  0.69946000  0.19941000  1.0
  C  C66  1  0.95704000  0.69203000  0.16967000  1.0
  C  C67  1  0.95692000  0.65721000  0.13481000  1.0
  C  C68  1  0.00000000  0.73470000  0.23467000  1.0
  C  C69  1  0.99999000  0.76531000  0.26531000  1.0
  C  C70  1  0.99998000  0.80055000  0.30058000  1.0
  C  C71  1  0.04293000  0.80795000  0.33033000  1.0
  C  C72  1  0.04305000  0.84277000  0.36521000  1.0
  C  C73  1  0.99997000  0.87140000  0.37146000  1.0
  C  C74  1  0.95690000  0.86516000  0.34283000  1.0
  C  C75  1  0.95702000  0.83029000  0.30800000  1.0
  C  C76  1  0.74286000  0.37143000  0.12858000  1.0
  C  C77  1  0.70799000  0.29974000  0.15720000  1.0
  C  C78  1  0.63829000  0.26503000  0.19203000  1.0
  C  C79  1  0.60113000  0.30057000  0.19944000  1.0
  C  C80  1  0.63829000  0.37327000  0.16969000  1.0
  C  C81  1  0.70799000  0.40827000  0.13482000  1.0
  C  C82  1  0.53063000  0.26531000  0.23470000  1.0
  C  C83  1  0.46937000  0.23467000  0.26535000  1.0
  C  C84  1  0.39887000  0.19942000  0.30061000  1.0
  C  C85  1  0.36171000  0.12672000  0.33033000  1.0
  C  C86  1  0.29202000  0.09173000  0.36520000  1.0
  C  C87  1  0.25714000  0.12855000  0.37147000  1.0
  C  C88  1  0.29202000  0.20026000  0.34286000  1.0
  C  C89  1  0.36171000  0.23496000  0.30804000  1.0
  C  C90  1  0.25714000  0.62859000  0.87144000  1.0
  C  C91  1  0.29202000  0.65723000  0.79973000  1.0
  C  C92  1  0.36171000  0.69204000  0.76503000  1.0
  C  C93  1  0.39887000  0.69946000  0.80057000  1.0
  C  C94  1  0.36171000  0.66970000  0.87328000  1.0
  C  C95  1  0.29201000  0.63483000  0.90828000  1.0
  C  C96  1  0.46937000  0.73471000  0.76531000  1.0
  C  C97  1  0.53063000  0.76534000  0.73467000  1.0
  C  C98  1  0.60113000  0.80059000  0.69941000  1.0
  C  C99  1  0.63830000  0.83033000  0.62670000  1.0
  C  C100  1  0.70799000  0.86520000  0.59172000  1.0
  C  C101  1  0.74286000  0.87145000  0.62855000  1.0
  C  C102  1  0.70798000  0.84283000  0.70026000  1.0
  C  C103  1  0.63829000  0.80801000  0.73496000  1.0
  Cl  Cl104  1  0.90216000  0.09673000  0.30544000  1.0
  Cl  Cl105  1  0.09784000  0.40326000  0.19457000  1.0
  Cl  Cl106  1  0.90216000  0.20759000  0.19458000  1.0
  Cl  Cl107  1  0.09784000  0.29241000  0.30543000  1.0
  Cl  Cl108  1  0.90216000  0.80542000  0.79244000  1.0
  Cl  Cl109  1  0.09784000  0.69458000  0.70756000  1.0
  Cl  Cl110  1  0.90217000  0.69456000  0.90328000  1.0
  Cl  Cl111  1  0.09783000  0.80544000  0.59672000  1.0
  Cl  Cl112  1  0.09610000  0.41899000  0.67684000  1.0
  Cl  Cl113  1  0.90389000  0.17687000  0.91900000  1.0
  Cl  Cl114  1  0.09604000  0.32315000  0.58098000  1.0
  Cl  Cl115  1  0.90390000  0.08100000  0.82317000  1.0
  Cl  Cl116  1  0.90390000  0.72706000  0.17710000  1.0
  Cl  Cl117  1  0.09612000  0.67715000  0.22700000  1.0
  Cl  Cl118  1  0.90390000  0.82290000  0.27295000  1.0
  Cl  Cl119  1  0.09605000  0.77290000  0.32294000  1.0
  Cl  Cl120  1  0.59584000  0.41899000  0.17709000  1.0
  Cl  Cl121  1  0.59585000  0.17686000  0.22708000  1.0
  Cl  Cl122  1  0.40415000  0.32312000  0.27301000  1.0
  Cl  Cl123  1  0.40416000  0.08100000  0.32291000  1.0
  Cl  Cl124  1  0.40414000  0.67708000  0.91902000  1.0
  Cl  Cl125  1  0.40416000  0.72711000  0.67684000  1.0
  Cl  Cl126  1  0.59584000  0.77298000  0.82313000  1.0
  Cl  Cl127  1  0.59586000  0.82292000  0.58098000  1.0
  O  O128  1  0.00000000  0.00000000  0.50000000  1.0
  O  O129  1  0.15325000  0.12727000  0.41385000  1.0
  O  O130  1  0.03990000  0.88553000  0.57459000  1.0
  O  O131  1  0.95887000  0.02596000  0.62728000  1.0
  O  O132  1  0.15325000  0.02597000  0.43291000  1.0
  O  O133  1  0.04112000  0.12727000  0.52597000  1.0
  O  O134  1  0.96008000  0.88549000  0.65440000  1.0
  O  O135  1  0.84675000  0.91386000  0.62727000  1.0
  O  O136  1  0.96012000  0.07459000  0.38550000  1.0
  O  O137  1  0.84676000  0.93292000  0.52595000  1.0
  O  O138  1  0.03990000  0.15438000  0.38551000  1.0
  O  O139  1  0.04112000  0.91384000  0.43291000  1.0
  O  O140  1  0.95888000  0.93291000  0.41384000  1.0
  O  O141  1  1.00000000  0.50000000  0.00000000  1.0
  O  O142  1  0.95887000  0.37273000  0.97403000  1.0
  O  O143  1  0.03992000  0.61451000  0.84560000  1.0
  O  O144  1  0.84675000  0.47403000  0.06710000  1.0
  O  O145  1  0.04113000  0.47404000  0.87271000  1.0
  O  O146  1  0.84675000  0.37273000  0.08617000  1.0
  O  O147  1  0.96010000  0.61447000  0.92540000  1.0
  O  O148  1  0.95887000  0.58616000  0.06709000  1.0
  O  O149  1  0.03987000  0.42540000  0.11451000  1.0
  O  O150  1  0.04111000  0.56709000  0.08616000  1.0
  O  O151  1  0.96010000  0.34561000  0.11449000  1.0
  O  O152  1  0.15326000  0.58617000  0.87272000  1.0
  O  O153  1  0.15324000  0.56709000  0.97405000  1.0
