# generated using pymatgen
data_CoH13C17S3(NO)5
_symmetry_space_group_name_H-M   'P 1'
_cell_length_a   9.49887000
_cell_length_b   10.24080000
_cell_length_c   11.01420000
_cell_angle_alpha   101.27700000
_cell_angle_beta   96.87790000
_cell_angle_gamma   105.29600000
_symmetry_Int_Tables_number   1
_chemical_formula_structural   CoH13C17S3(NO)5
_chemical_formula_sum   'Co2 H26 C34 S6 N10 O10'
_cell_volume   996.74614583
_cell_formula_units_Z   2
loop_
 _symmetry_equiv_pos_site_id
 _symmetry_equiv_pos_as_xyz
  1  'x, y, z'
loop_
 _atom_site_type_symbol
 _atom_site_label
 _atom_site_symmetry_multiplicity
 _atom_site_fract_x
 _atom_site_fract_y
 _atom_site_fract_z
 _atom_site_occupancy
  Co  Co0  1  0.92184000  0.10136000  0.14994000  1.0
  Co  Co1  1  0.07816000  0.89865000  0.85006000  1.0
  H  H2  1  0.54322000  0.92825000  0.82929000  1.0
  H  H3  1  0.45677000  0.07175000  0.17071000  1.0
  H  H4  1  0.58429000  0.76597000  0.80485000  1.0
  H  H5  1  0.41572000  0.23403000  0.19516000  1.0
  H  H6  1  0.42246000  0.69919000  0.13149000  1.0
  H  H7  1  0.57754000  0.30079000  0.86851000  1.0
  H  H8  1  0.81311000  0.47429000  0.36093000  1.0
  H  H9  1  0.18689000  0.52571000  0.63906000  1.0
  H  H10  1  0.65631000  0.33927000  0.36810000  1.0
  H  H11  1  0.34369000  0.66073000  0.63189000  1.0
  H  H12  1  0.88756000  0.22571000  0.91655000  1.0
  H  H13  1  0.11243000  0.77429000  0.08344000  1.0
  H  H14  1  0.04294000  0.40698000  0.82814000  1.0
  H  H15  1  0.95707000  0.59303000  0.17185000  1.0
  H  H16  1  0.29492000  0.55021000  0.94875000  1.0
  H  H17  1  0.70509000  0.44978000  0.05125000  1.0
  H  H18  1  0.20408000  0.32851000  0.24083000  1.0
  H  H19  1  0.79591000  0.67147000  0.75915000  1.0
  H  H20  1  0.66684000  0.62819000  0.38152000  1.0
  H  H21  1  0.33317000  0.37181000  0.61849000  1.0
  H  H22  1  0.92496000  0.78807000  0.46601000  1.0
  H  H23  1  0.07505000  0.21193000  0.53399000  1.0
  H  H24  1  0.02304000  0.98390000  0.36203000  1.0
  H  H25  1  0.97696000  0.01611000  0.63798000  1.0
  H  H26  1  0.62985000  0.87428000  0.10865000  1.0
  H  H27  1  0.37015000  0.12570000  0.89134000  1.0
  C  C28  1  0.77701000  0.94585000  0.87602000  1.0
  C  C29  1  0.22299000  0.05415000  0.12398000  1.0
  C  C30  1  0.62250000  0.87485000  0.79654000  1.0
  C  C31  1  0.37750000  0.12515000  0.20346000  1.0
  C  C32  1  0.67701000  0.03343000  0.63243000  1.0
  C  C33  1  0.32299000  0.96658000  0.36757000  1.0
  C  C34  1  0.76971000  0.26053000  0.59445000  1.0
  C  C35  1  0.23029000  0.73946000  0.40555000  1.0
  C  C36  1  0.77788000  0.37351000  0.38643000  1.0
  C  C37  1  0.22212000  0.62649000  0.61357000  1.0
  C  C38  1  0.83614000  0.27102000  0.30227000  1.0
  C  C39  1  0.16385000  0.72898000  0.69771000  1.0
  C  C40  1  0.99618000  0.29127000  0.96857000  1.0
  C  C41  1  0.00382000  0.70874000  0.03142000  1.0
  C  C42  1  0.08449000  0.39252000  0.91952000  1.0
  C  C43  1  0.91552000  0.60749000  0.08047000  1.0
  C  C44  1  0.22390000  0.47266000  0.98792000  1.0
  C  C45  1  0.77611000  0.52733000  0.01207000  1.0
  C  C46  1  0.26999000  0.44917000  0.10537000  1.0
  C  C47  1  0.73002000  0.55082000  0.89463000  1.0
  C  C48  1  0.17315000  0.34717000  0.14863000  1.0
  C  C49  1  0.82684000  0.65283000  0.85137000  1.0
  C  C50  1  0.42005000  0.51904000  0.18513000  1.0
  C  C51  1  0.57995000  0.48096000  0.81488000  1.0
  C  C52  1  0.62966000  0.73641000  0.23622000  1.0
  C  C53  1  0.37034000  0.26360000  0.76380000  1.0
  C  C54  1  0.71354000  0.71344000  0.33940000  1.0
  C  C55  1  0.28647000  0.28657000  0.66061000  1.0
  C  C56  1  0.85679000  0.80308000  0.38579000  1.0
  C  C57  1  0.14321000  0.19692000  0.61423000  1.0
  C  C58  1  0.91148000  0.91229000  0.32997000  1.0
  C  C59  1  0.08852000  0.08772000  0.67003000  1.0
  C  C60  1  0.69158000  0.85128000  0.18792000  1.0
  C  C61  1  0.30841000  0.14872000  0.81208000  1.0
  S  S62  1  0.84776000  0.41557000  0.55330000  1.0
  S  S63  1  0.15225000  0.58443000  0.44670000  1.0
  S  S64  1  0.72399000  0.09124000  0.50047000  1.0
  S  S65  1  0.27602000  0.90876000  0.49953000  1.0
  S  S66  1  0.61747000  0.85755000  0.63000000  1.0
  S  S67  1  0.38252000  0.14245000  0.37000000  1.0
  N  N68  1  0.03978000  0.26828000  0.08158000  1.0
  N  N69  1  0.96021000  0.73172000  0.91841000  1.0
  N  N70  1  0.82913000  0.93664000  0.23296000  1.0
  N  N71  1  0.17086000  0.06336000  0.76704000  1.0
  N  N72  1  0.48697000  0.65183000  0.17663000  1.0
  N  N73  1  0.51303000  0.34816000  0.82338000  1.0
  N  N74  1  0.75088000  0.26379000  0.71122000  1.0
  N  N75  1  0.24913000  0.73621000  0.28878000  1.0
  N  N76  1  0.69817000  0.13500000  0.73357000  1.0
  N  N77  1  0.30183000  0.86501000  0.26643000  1.0
  O  O78  1  0.76422000  0.21983000  0.19036000  1.0
  O  O79  1  0.23577000  0.78018000  0.80963000  1.0
  O  O80  1  0.95178000  0.23966000  0.34133000  1.0
  O  O81  1  0.04821000  0.76034000  0.65865000  1.0
  O  O82  1  0.77855000  0.99408000  0.99124000  1.0
  O  O83  1  0.22143000  0.00591000  0.00876000  1.0
  O  O84  1  0.88994000  0.94985000  0.82418000  1.0
  O  O85  1  0.11006000  0.05015000  0.17583000  1.0
  O  O86  1  0.47984000  0.45650000  0.25157000  1.0
  O  O87  1  0.52016000  0.54350000  0.74846000  1.0
