# generated using pymatgen
data_MnH20C22(NO)4
_symmetry_space_group_name_H-M   'P 1'
_cell_length_a   11.99340000
_cell_length_b   11.99340000
_cell_length_c   16.40840000
_cell_angle_alpha   71.04030000
_cell_angle_beta   71.04000000
_cell_angle_gamma   75.72520000
_symmetry_Int_Tables_number   1
_chemical_formula_structural   MnH20C22(NO)4
_chemical_formula_sum   'Mn4 H80 C88 N16 O16'
_cell_volume   2084.65969027
_cell_formula_units_Z   4
loop_
 _symmetry_equiv_pos_site_id
 _symmetry_equiv_pos_as_xyz
  1  'x, y, z'
loop_
 _atom_site_type_symbol
 _atom_site_label
 _atom_site_symmetry_multiplicity
 _atom_site_fract_x
 _atom_site_fract_y
 _atom_site_fract_z
 _atom_site_occupancy
  Mn  Mn0  1  0.39280000  0.17337000  0.45029000  1.0
  Mn  Mn1  1  0.82663000  0.60720000  0.04971000  1.0
  Mn  Mn2  1  0.60720000  0.82663000  0.54971000  1.0
  Mn  Mn3  1  0.17337000  0.39280000  0.95029000  1.0
  H  H4  1  0.83658000  0.51162000  0.25421000  1.0
  H  H5  1  0.48838000  0.16342000  0.24579000  1.0
  H  H6  1  0.16342000  0.48838000  0.74579000  1.0
  H  H7  1  0.51162000  0.83657000  0.75421000  1.0
  H  H8  1  0.81991000  0.56899000  0.46647000  1.0
  H  H9  1  0.43101000  0.18009000  0.03353000  1.0
  H  H10  1  0.18009000  0.43102000  0.53352000  1.0
  H  H11  1  0.56899000  0.81991000  0.96648000  1.0
  H  H12  1  0.20021000  0.33766000  0.21807000  1.0
  H  H13  1  0.66234000  0.79979000  0.28193000  1.0
  H  H14  1  0.79979000  0.66234000  0.78193000  1.0
  H  H15  1  0.33766000  0.20020000  0.71807000  1.0
  H  H16  1  0.01529000  0.44189000  0.46076000  1.0
  H  H17  1  0.55810000  0.98471000  0.03923000  1.0
  H  H18  1  0.98471000  0.55811000  0.53923000  1.0
  H  H19  1  0.44190000  0.01529000  0.96077000  1.0
  H  H20  1  0.72183000  0.63451000  0.31763000  1.0
  H  H21  1  0.36549000  0.27817000  0.18237000  1.0
  H  H22  1  0.27817000  0.36549000  0.68238000  1.0
  H  H23  1  0.63451000  0.72183000  0.81762000  1.0
  H  H24  1  0.64972000  0.65134000  0.42603000  1.0
  H  H25  1  0.34866000  0.35028000  0.07397000  1.0
  H  H26  1  0.35028000  0.34866000  0.57397000  1.0
  H  H27  1  0.65134000  0.64971000  0.92603000  1.0
  H  H28  1  0.71564000  0.35382000  0.49866000  1.0
  H  H29  1  0.64618000  0.28435000  0.00134000  1.0
  H  H30  1  0.28436000  0.64618000  0.50134000  1.0
  H  H31  1  0.35382000  0.71564000  0.99866000  1.0
  H  H32  1  0.52168000  0.60421000  0.31621000  1.0
  H  H33  1  0.39578000  0.47831000  0.18379000  1.0
  H  H34  1  0.47832000  0.39578000  0.68378000  1.0
  H  H35  1  0.60421000  0.52168000  0.81621000  1.0
  H  H36  1  0.59091000  0.20455000  0.51749000  1.0
  H  H37  1  0.79545000  0.40909000  0.98251000  1.0
  H  H38  1  0.40910000  0.79545000  0.48251000  1.0
  H  H39  1  0.20455000  0.59091000  0.01749000  1.0
  H  H40  1  0.40656000  0.44339000  0.34080000  1.0
  H  H41  1  0.55661000  0.59343000  0.15920000  1.0
  H  H42  1  0.59344000  0.55661000  0.65920000  1.0
  H  H43  1  0.44339000  0.40657000  0.84079000  1.0
  H  H44  1  0.10719000  0.89040000  0.44788000  1.0
  H  H45  1  0.10960000  0.89281000  0.05212000  1.0
  H  H46  1  0.89281000  0.10960000  0.55212000  1.0
  H  H47  1  0.89039000  0.10720000  0.94788000  1.0
  H  H48  1  0.02894000  0.76629000  0.59681000  1.0
  H  H49  1  0.23371000  0.97106000  0.90319000  1.0
  H  H50  1  0.97106000  0.23371000  0.40319000  1.0
  H  H51  1  0.76629000  0.02894000  0.09681000  1.0
  H  H52  1  0.03167000  0.85539000  0.71806000  1.0
  H  H53  1  0.14462000  0.96833000  0.78194000  1.0
  H  H54  1  0.96833000  0.14462000  0.28193000  1.0
  H  H55  1  0.85538000  0.03167000  0.21806000  1.0
  H  H56  1  0.17729000  0.89200000  0.65475000  1.0
  H  H57  1  0.10801000  0.82271000  0.84525000  1.0
  H  H58  1  0.82271000  0.10801000  0.34525000  1.0
  H  H59  1  0.89199000  0.17729000  0.15475000  1.0
  H  H60  1  0.15321000  0.74021000  0.70297000  1.0
  H  H61  1  0.25980000  0.84679000  0.79703000  1.0
  H  H62  1  0.84679000  0.25980000  0.29703000  1.0
  H  H63  1  0.74020000  0.15321000  0.20297000  1.0
  H  H64  1  0.17173000  0.17651000  0.16496000  1.0
  H  H65  1  0.82348000  0.82827000  0.33505000  1.0
  H  H66  1  0.82827000  0.82349000  0.83505000  1.0
  H  H67  1  0.17652000  0.17173000  0.66495000  1.0
  H  H68  1  0.25402000  0.10332000  0.29271000  1.0
  H  H69  1  0.89668000  0.74598000  0.20729000  1.0
  H  H70  1  0.74599000  0.89669000  0.70729000  1.0
  H  H71  1  0.10332000  0.25401000  0.79271000  1.0
  H  H72  1  0.24072000  0.04151000  0.06303000  1.0
  H  H73  1  0.95849000  0.75929000  0.43697000  1.0
  H  H74  1  0.75928000  0.95850000  0.93697000  1.0
  H  H75  1  0.04150000  0.24072000  0.56303000  1.0
  H  H76  1  0.09999000  0.01207000  0.13553000  1.0
  H  H77  1  0.98793000  0.90002000  0.36447000  1.0
  H  H78  1  0.90001000  0.98793000  0.86447000  1.0
  H  H79  1  0.01207000  0.09999000  0.63553000  1.0
  H  H80  1  0.23091000  0.91119000  0.15711000  1.0
  H  H81  1  0.08881000  0.76910000  0.34289000  1.0
  H  H82  1  0.76909000  0.08882000  0.84289000  1.0
  H  H83  1  0.91119000  0.23091000  0.65711000  1.0
  C  C84  1  0.91455000  0.47732000  0.28031000  1.0
  C  C85  1  0.52268000  0.08545000  0.21969000  1.0
  C  C86  1  0.08545000  0.52268000  0.71969000  1.0
  C  C87  1  0.47732000  0.91455000  0.78031000  1.0
  C  C88  1  0.11814000  0.38465000  0.34323000  1.0
  C  C89  1  0.61534000  0.88186000  0.15678000  1.0
  C  C90  1  0.88186000  0.61535000  0.65677000  1.0
  C  C91  1  0.38466000  0.11814000  0.84323000  1.0
  C  C92  1  0.22250000  0.32447000  0.38077000  1.0
  C  C93  1  0.67552000  0.77750000  0.11923000  1.0
  C  C94  1  0.77750000  0.67553000  0.61923000  1.0
  C  C95  1  0.32448000  0.22250000  0.88078000  1.0
  C  C96  1  0.12039000  0.37880000  0.25881000  1.0
  C  C97  1  0.62120000  0.87961000  0.24119000  1.0
  C  C98  1  0.87961000  0.62120000  0.74119000  1.0
  C  C99  1  0.37880000  0.12039000  0.75881000  1.0
  C  C100  1  0.91202000  0.48744000  0.36445000  1.0
  C  C101  1  0.51256000  0.08798000  0.13555000  1.0
  C  C102  1  0.08798000  0.51256000  0.63555000  1.0
  C  C103  1  0.48745000  0.91202000  0.86445000  1.0
  C  C104  1  0.01583000  0.43956000  0.39482000  1.0
  C  C105  1  0.56043000  0.98417000  0.10518000  1.0
  C  C106  1  0.98417000  0.56044000  0.60518000  1.0
  C  C107  1  0.43957000  0.01583000  0.89482000  1.0
  C  C108  1  0.01864000  0.42558000  0.22753000  1.0
  C  C109  1  0.57442000  0.98136000  0.27246000  1.0
  C  C110  1  0.98136000  0.57442000  0.77247000  1.0
  C  C111  1  0.42558000  0.01864000  0.72754000  1.0
  C  C112  1  0.02137000  0.42095000  0.13645000  1.0
  C  C113  1  0.57905000  0.97863000  0.36355000  1.0
  C  C114  1  0.97863000  0.57905000  0.86355000  1.0
  C  C115  1  0.42095000  0.02137000  0.63645000  1.0
  C  C116  1  0.70361000  0.58593000  0.38911000  1.0
  C  C117  1  0.41407000  0.29639000  0.11089000  1.0
  C  C118  1  0.29639000  0.41407000  0.61089000  1.0
  C  C119  1  0.58593000  0.70361000  0.88911000  1.0
  C  C120  1  0.63095000  0.49099000  0.40393000  1.0
  C  C121  1  0.50902000  0.36905000  0.09607000  1.0
  C  C122  1  0.36905000  0.50902000  0.59606000  1.0
  C  C123  1  0.49098000  0.63095000  0.90393000  1.0
  C  C124  1  0.64915000  0.37707000  0.46135000  1.0
  C  C125  1  0.62293000  0.35085000  0.03865000  1.0
  C  C126  1  0.35086000  0.62293000  0.53864000  1.0
  C  C127  1  0.37707000  0.64915000  0.96135000  1.0
  C  C128  1  0.54137000  0.51591000  0.36022000  1.0
  C  C129  1  0.48409000  0.45863000  0.13978000  1.0
  C  C130  1  0.45863000  0.48409000  0.63977000  1.0
  C  C131  1  0.51591000  0.54137000  0.86022000  1.0
  C  C132  1  0.58005000  0.29333000  0.47184000  1.0
  C  C133  1  0.70667000  0.41995000  0.02816000  1.0
  C  C134  1  0.41996000  0.70666000  0.52816000  1.0
  C  C135  1  0.29333000  0.58005000  0.97184000  1.0
  C  C136  1  0.47645000  0.42708000  0.37409000  1.0
  C  C137  1  0.57291000  0.52355000  0.12591000  1.0
  C  C138  1  0.52355000  0.57291000  0.62591000  1.0
  C  C139  1  0.42709000  0.47645000  0.87409000  1.0
  C  C140  1  0.12912000  0.89688000  0.50539000  1.0
  C  C141  1  0.10312000  0.87088000  0.99461000  1.0
  C  C142  1  0.87088000  0.10312000  0.49461000  1.0
  C  C143  1  0.89687000  0.12912000  0.00538000  1.0
  C  C144  1  0.20642000  0.97880000  0.48768000  1.0
  C  C145  1  0.02120000  0.79358000  0.01232000  1.0
  C  C146  1  0.79358000  0.02120000  0.51232000  1.0
  C  C147  1  0.97879000  0.20642000  0.98768000  1.0
  C  C148  1  0.08742000  0.82826000  0.58858000  1.0
  C  C149  1  0.17174000  0.91258000  0.91142000  1.0
  C  C150  1  0.91258000  0.17174000  0.41142000  1.0
  C  C151  1  0.82826000  0.08742000  0.08858000  1.0
  C  C152  1  0.11505000  0.83024000  0.66963000  1.0
  C  C153  1  0.16977000  0.88494000  0.83037000  1.0
  C  C154  1  0.88494000  0.16977000  0.33037000  1.0
  C  C155  1  0.83023000  0.11505000  0.16962000  1.0
  C  C156  1  0.20265000  0.08065000  0.18710000  1.0
  C  C157  1  0.91935000  0.79735000  0.31291000  1.0
  C  C158  1  0.79735000  0.91935000  0.81291000  1.0
  C  C159  1  0.08065000  0.20264000  0.68709000  1.0
  C  C160  1  0.24789000  0.04133000  0.25865000  1.0
  C  C161  1  0.95867000  0.75211000  0.24136000  1.0
  C  C162  1  0.75211000  0.95867000  0.74136000  1.0
  C  C163  1  0.04134000  0.24789000  0.75864000  1.0
  C  C164  1  0.19410000  0.00555000  0.13363000  1.0
  C  C165  1  0.99445000  0.80591000  0.36637000  1.0
  C  C166  1  0.80590000  0.99445000  0.86638000  1.0
  C  C167  1  0.00555000  0.19410000  0.63363000  1.0
  C  C168  1  0.29378000  0.91956000  0.29221000  1.0
  C  C169  1  0.08044000  0.70622000  0.20779000  1.0
  C  C170  1  0.70622000  0.08045000  0.70779000  1.0
  C  C171  1  0.91956000  0.29377000  0.79221000  1.0
  N  N172  1  0.81247000  0.54060000  0.41634000  1.0
  N  N173  1  0.45939000  0.18753000  0.08366000  1.0
  N  N174  1  0.18753000  0.45940000  0.58366000  1.0
  N  N175  1  0.54060000  0.81247000  0.91634000  1.0
  N  N176  1  0.49532000  0.31667000  0.42855000  1.0
  N  N177  1  0.68333000  0.50468000  0.07145000  1.0
  N  N178  1  0.50468000  0.68333000  0.57145000  1.0
  N  N179  1  0.31667000  0.49532000  0.92855000  1.0
  N  N180  1  0.27037000  0.04649000  0.47275000  1.0
  N  N181  1  0.95351000  0.72963000  0.02725000  1.0
  N  N182  1  0.72963000  0.95352000  0.52725000  1.0
  N  N183  1  0.04649000  0.27037000  0.97274000  1.0
  N  N184  1  0.32951000  0.81937000  0.32267000  1.0
  N  N185  1  0.18063000  0.67050000  0.17734000  1.0
  N  N186  1  0.67051000  0.18063000  0.67733000  1.0
  N  N187  1  0.81937000  0.32950000  0.82267000  1.0
  O  O188  1  0.31422000  0.27092000  0.33369000  1.0
  O  O189  1  0.72906000  0.68577000  0.16631000  1.0
  O  O190  1  0.68577000  0.72907000  0.66631000  1.0
  O  O191  1  0.27094000  0.31422000  0.83369000  1.0
  O  O192  1  0.21713000  0.32200000  0.46046000  1.0
  O  O193  1  0.67800000  0.78287000  0.03953000  1.0
  O  O194  1  0.78287000  0.67801000  0.53953000  1.0
  O  O195  1  0.32200000  0.21712000  0.96047000  1.0
  O  O196  1  0.12126000  0.38084000  0.08843000  1.0
  O  O197  1  0.61916000  0.87874000  0.41157000  1.0
  O  O198  1  0.87874000  0.61916000  0.91157000  1.0
  O  O199  1  0.38084000  0.12126000  0.58843000  1.0
  O  O200  1  0.92526000  0.45563000  0.11169000  1.0
  O  O201  1  0.54437000  0.07474000  0.38831000  1.0
  O  O202  1  0.07474000  0.54437000  0.88831000  1.0
  O  O203  1  0.45563000  0.92526000  0.61169000  1.0
