# generated using pymatgen
data_CdH42C42(N2O3)2
_symmetry_space_group_name_H-M   'P 1'
_cell_length_a   6.75900000
_cell_length_b   7.74274000
_cell_length_c   16.86290000
_cell_angle_alpha   78.97380000
_cell_angle_beta   85.62320000
_cell_angle_gamma   87.49250000
_symmetry_Int_Tables_number   1
_chemical_formula_structural   CdH42C42(N2O3)2
_chemical_formula_sum   'Cd1 H42 C42 N4 O6'
_cell_volume   863.28890888
_cell_formula_units_Z   1
loop_
 _symmetry_equiv_pos_site_id
 _symmetry_equiv_pos_as_xyz
  1  'x, y, z'
loop_
 _atom_site_type_symbol
 _atom_site_label
 _atom_site_symmetry_multiplicity
 _atom_site_fract_x
 _atom_site_fract_y
 _atom_site_fract_z
 _atom_site_occupancy
  Cd  Cd0  1  0.50000000  0.50001000  0.50000000  1.0
  H  H1  1  0.01378000  0.57847000  0.33159000  1.0
  H  H2  1  0.98622000  0.42152000  0.66842000  1.0
  H  H3  1  0.32313000  0.58957000  0.23974000  1.0
  H  H4  1  0.67686000  0.41042000  0.76026000  1.0
  H  H5  1  0.34693000  0.40965000  0.13071000  1.0
  H  H6  1  0.65306000  0.59035000  0.86929000  1.0
  H  H7  1  0.06798000  0.22781000  0.11388000  1.0
  H  H8  1  0.93201000  0.77219000  0.88612000  1.0
  H  H9  1  0.74352000  0.73421000  0.00700000  1.0
  H  H10  1  0.25648000  0.26579000  0.99300000  1.0
  H  H11  1  0.73563000  0.62992000  0.15618000  1.0
  H  H12  1  0.26438000  0.37007000  0.84382000  1.0
  H  H13  1  0.73513000  0.84597000  0.24735000  1.0
  H  H14  1  0.26487000  0.15402000  0.75265000  1.0
  H  H15  1  0.70458000  0.40570000  0.07767000  1.0
  H  H16  1  0.29543000  0.59430000  0.92233000  1.0
  H  H17  1  0.60928000  0.35811000  0.98895000  1.0
  H  H18  1  0.39072000  0.64188000  0.01106000  1.0
  H  H19  1  0.86746000  0.36960000  0.99413000  1.0
  H  H20  1  0.13254000  0.63040000  0.00588000  1.0
  H  H21  1  0.90109000  0.09974000  0.89808000  1.0
  H  H22  1  0.09891000  0.90025000  0.10192000  1.0
  H  H23  1  0.65796000  0.18931000  0.90603000  1.0
  H  H24  1  0.34204000  0.81069000  0.09397000  1.0
  H  H25  1  0.69336000  0.96837000  0.89407000  1.0
  H  H26  1  0.30664000  0.03163000  0.10593000  1.0
  H  H27  1  0.74826000  0.97440000  0.52195000  1.0
  H  H28  1  0.25174000  0.02561000  0.47805000  1.0
  H  H29  1  0.62789000  0.90868000  0.44355000  1.0
  H  H30  1  0.37211000  0.09134000  0.55645000  1.0
  H  H31  1  0.87747000  0.04861000  0.33931000  1.0
  H  H32  1  0.12253000  0.95140000  0.66069000  1.0
  H  H33  1  0.21248000  0.01415000  0.26843000  1.0
  H  H34  1  0.78751000  0.98587000  0.73156000  1.0
  H  H35  1  0.45615000  0.78841000  0.33714000  1.0
  H  H36  1  0.54385000  0.21160000  0.66286000  1.0
  H  H37  1  0.05539000  0.64274000  0.53491000  1.0
  H  H38  1  0.94461000  0.35728000  0.46509000  1.0
  H  H39  1  0.62762000  0.17343000  0.25378000  1.0
  H  H40  1  0.37238000  0.82656000  0.74622000  1.0
  H  H41  1  0.59375000  0.73053000  0.58842000  1.0
  H  H42  1  0.40624000  0.26949000  0.41158000  1.0
  C  C43  1  0.69536000  0.39331000  0.33638000  1.0
  C  C44  1  0.30464000  0.60669000  0.66362000  1.0
  C  C45  1  0.86885000  0.39792000  0.27597000  1.0
  C  C46  1  0.13115000  0.60207000  0.72404000  1.0
  C  C47  1  0.02865000  0.50281000  0.28316000  1.0
  C  C48  1  0.97134000  0.49718000  0.71684000  1.0
  C  C49  1  0.20022000  0.50929000  0.23201000  1.0
  C  C50  1  0.79978000  0.49070000  0.76799000  1.0
  C  C51  1  0.21258000  0.40905000  0.17090000  1.0
  C  C52  1  0.78742000  0.59094000  0.82910000  1.0
  C  C53  1  0.05631000  0.30617000  0.16113000  1.0
  C  C54  1  0.94369000  0.69382000  0.83887000  1.0
  C  C55  1  0.88166000  0.29662000  0.21318000  1.0
  C  C56  1  0.11834000  0.70337000  0.78682000  1.0
  C  C57  1  0.73403000  0.07257000  0.14991000  1.0
  C  C58  1  0.26597000  0.92742000  0.85009000  1.0
  C  C59  1  0.73721000  0.13351000  0.06532000  1.0
  C  C60  1  0.26279000  0.86648000  0.93468000  1.0
  C  C61  1  0.74241000  0.00951000  0.01355000  1.0
  C  C62  1  0.25759000  0.99048000  0.98645000  1.0
  C  C63  1  0.74082000  0.82949000  0.04716000  1.0
  C  C64  1  0.25918000  0.17050000  0.95284000  1.0
  C  C65  1  0.73429000  0.77032000  0.13069000  1.0
  C  C66  1  0.26572000  0.22967000  0.86931000  1.0
  C  C67  1  0.73201000  0.89147000  0.18210000  1.0
  C  C68  1  0.26799000  0.10852000  0.81790000  1.0
  C  C69  1  0.72956000  0.32697000  0.03020000  1.0
  C  C70  1  0.27044000  0.67302000  0.96980000  1.0
  C  C71  1  0.74905000  0.06953000  0.92335000  1.0
  C  C72  1  0.25096000  0.93046000  0.07665000  1.0
  C  C73  1  0.74172000  0.86771000  0.48750000  1.0
  C  C74  1  0.25828000  0.13231000  0.51250000  1.0
  C  C75  1  0.93986000  0.84784000  0.44259000  1.0
  C  C76  1  0.06014000  0.15218000  0.55740000  1.0
  C  C77  1  0.98695000  0.95293000  0.36697000  1.0
  C  C78  1  0.01305000  0.04708000  0.63303000  1.0
  C  C79  1  0.17351000  0.93437000  0.32769000  1.0
  C  C80  1  0.82649000  0.06565000  0.67231000  1.0
  C  C81  1  0.30930000  0.81105000  0.36549000  1.0
  C  C82  1  0.69070000  0.18897000  0.63451000  1.0
  C  C83  1  0.08515000  0.72777000  0.47616000  1.0
  C  C84  1  0.91486000  0.27225000  0.52384000  1.0
  N  N85  1  0.72797000  0.19194000  0.20431000  1.0
  N  N86  1  0.27203000  0.80805000  0.79569000  1.0
  N  N87  1  0.26607000  0.71053000  0.43871000  1.0
  N  N88  1  0.73393000  0.28949000  0.56128000  1.0
  O  O89  1  0.57744000  0.26382000  0.34608000  1.0
  O  O90  1  0.42256000  0.73618000  0.65392000  1.0
  O  O91  1  0.67604000  0.51795000  0.37673000  1.0
  O  O92  1  0.32395000  0.48205000  0.62327000  1.0
  O  O93  1  0.69359000  0.70833000  0.54192000  1.0
  O  O94  1  0.30640000  0.29169000  0.45808000  1.0
