# generated using pymatgen
data_Zn4H3C24S4Br4O13F
_symmetry_space_group_name_H-M   'P 1'
_cell_length_a   19.67850000
_cell_length_b   19.73090000
_cell_length_c   33.38960000
_cell_angle_alpha   78.99870000
_cell_angle_beta   79.15340000
_cell_angle_gamma   63.93140000
_symmetry_Int_Tables_number   1
_chemical_formula_structural   Zn4H3C24S4Br4O13F
_chemical_formula_sum   'Zn16 H12 C96 S16 Br16 O52 F4'
_cell_volume   11351.15584906
_cell_formula_units_Z   4
loop_
 _symmetry_equiv_pos_site_id
 _symmetry_equiv_pos_as_xyz
  1  'x, y, z'
loop_
 _atom_site_type_symbol
 _atom_site_label
 _atom_site_symmetry_multiplicity
 _atom_site_fract_x
 _atom_site_fract_y
 _atom_site_fract_z
 _atom_site_occupancy
  Zn  Zn0  1  0.05573000  0.40015000  0.47785000  1.0
  Zn  Zn1  1  0.98519000  0.48411000  0.56004000  1.0
  Zn  Zn2  1  0.05853000  0.56137000  0.48262000  1.0
  Zn  Zn3  1  0.90058000  0.55440000  0.47931000  1.0
  Zn  Zn4  1  0.69320000  0.34996000  0.27178000  1.0
  Zn  Zn5  1  0.69080000  0.18838000  0.26617000  1.0
  Zn  Zn6  1  0.76859000  0.26592000  0.19003000  1.0
  Zn  Zn7  1  0.84729000  0.19700000  0.27236000  1.0
  Zn  Zn8  1  0.26555000  0.76605000  0.69024000  1.0
  Zn  Zn9  1  0.34941000  0.69685000  0.77154000  1.0
  Zn  Zn10  1  0.19282000  0.84936000  0.77144000  1.0
  Zn  Zn11  1  0.19110000  0.68805000  0.76670000  1.0
  Zn  Zn12  1  0.55893000  0.06162000  0.98340000  1.0
  Zn  Zn13  1  0.40275000  0.05304000  0.97784000  1.0
  Zn  Zn14  1  0.55637000  0.90020000  0.97830000  1.0
  Zn  Zn15  1  0.48236000  0.98483000  0.06039000  1.0
  H  H16  1  0.95376000  0.24914000  0.35144000  1.0
  H  H17  1  0.74661000  0.45521000  0.35066000  1.0
  H  H18  1  0.00004000  0.29872000  0.39946000  1.0
  H  H19  1  0.09702000  0.59688000  0.70006000  1.0
  H  H20  1  0.20134000  0.70119000  0.59736000  1.0
  H  H21  1  0.05014000  0.55031000  0.65081000  1.0
  H  H22  1  0.54997000  0.05024000  0.15302000  1.0
  H  H23  1  0.65269000  0.15292000  0.04868000  1.0
  H  H24  1  0.59933000  0.09899000  0.19987000  1.0
  H  H25  1  0.50168000  0.79521000  0.89854000  1.0
  H  H26  1  0.29589000  0.00264000  0.89917000  1.0
  H  H27  1  0.45106000  0.75003000  0.85053000  1.0
  C  C28  1  0.06151000  0.31649000  0.56147000  1.0
  C  C29  1  0.06932000  0.56998000  0.56900000  1.0
  C  C30  1  0.18346000  0.43920000  0.43853000  1.0
  C  C31  1  0.93739000  0.68401000  0.43878000  1.0
  C  C32  1  0.93060000  0.43059000  0.43086000  1.0
  C  C33  1  0.81683000  0.56120000  0.56202000  1.0
  C  C34  1  0.56622000  0.31054000  0.31120000  1.0
  C  C35  1  0.68172000  0.18020000  0.18057000  1.0
  C  C36  1  0.68938000  0.43369000  0.18857000  1.0
  C  C37  1  0.93461000  0.18863000  0.18939000  1.0
  C  C38  1  0.81878000  0.32027000  0.31944000  1.0
  C  C39  1  0.81200000  0.06638000  0.31128000  1.0
  C  C40  1  0.43329000  0.68922000  0.68836000  1.0
  C  C41  1  0.31876000  0.82002000  0.81909000  1.0
  C  C42  1  0.18841000  0.93333000  0.68828000  1.0
  C  C43  1  0.06584000  0.81015000  0.81105000  1.0
  C  C44  1  0.18068000  0.68007000  0.68065000  1.0
  C  C45  1  0.31239000  0.56618000  0.81107000  1.0
  C  C46  1  0.43788000  0.18378000  0.93867000  1.0
  C  C47  1  0.43123000  0.92990000  0.93049000  1.0
  C  C48  1  0.68350000  0.93961000  0.93872000  1.0
  C  C49  1  0.56096000  0.81674000  0.06159000  1.0
  C  C50  1  0.56880000  0.07018000  0.06946000  1.0
  C  C51  1  0.31601000  0.06163000  0.06092000  1.0
  C  C52  1  0.90044000  0.40387000  0.40208000  1.0
  C  C53  1  0.84748000  0.34891000  0.34805000  1.0
  C  C54  1  0.82894000  0.44682000  0.38762000  1.0
  C  C55  1  0.91911000  0.30467000  0.36182000  1.0
  C  C56  1  0.80231000  0.42032000  0.36107000  1.0
  C  C57  1  0.94466000  0.33220000  0.38839000  1.0
  C  C58  1  0.09885000  0.59905000  0.59690000  1.0
  C  C59  1  0.15202000  0.65179000  0.65187000  1.0
  C  C60  1  0.14186000  0.64190000  0.58274000  1.0
  C  C61  1  0.10930000  0.60919000  0.66700000  1.0
  C  C62  1  0.16828000  0.66817000  0.60951000  1.0
  C  C63  1  0.08339000  0.58348000  0.63972000  1.0
  C  C64  1  0.30481000  0.45405000  0.40073000  1.0
  C  C65  1  0.44506000  0.29556000  0.34926000  1.0
  C  C66  1  0.25848000  0.41543000  0.41381000  1.0
  C  C67  1  0.49141000  0.33413000  0.33611000  1.0
  C  C68  1  0.37704000  0.33919000  0.37279000  1.0
  C  C69  1  0.37281000  0.41038000  0.37718000  1.0
  C  C70  1  0.72559000  0.57601000  0.63001000  1.0
  C  C71  1  0.52443000  0.67377000  0.62035000  1.0
  C  C72  1  0.74262000  0.58534000  0.58752000  1.0
  C  C73  1  0.50743000  0.66464000  0.66287000  1.0
  C  C74  1  0.60393000  0.64149000  0.60834000  1.0
  C  C75  1  0.64609000  0.60820000  0.64201000  1.0
  C  C76  1  0.07636000  0.22525000  0.62957000  1.0
  C  C77  1  0.17386000  0.02455000  0.62025000  1.0
  C  C78  1  0.08562000  0.24233000  0.58705000  1.0
  C  C79  1  0.16455000  0.00746000  0.66276000  1.0
  C  C80  1  0.14175000  0.10390000  0.60813000  1.0
  C  C81  1  0.10852000  0.14589000  0.64171000  1.0
  C  C82  1  0.84313000  0.80144000  0.39701000  1.0
  C  C83  1  0.90645000  0.94873000  0.35282000  1.0
  C  C84  1  0.91147000  0.75857000  0.41366000  1.0
  C  C85  1  0.83805000  0.99167000  0.33621000  1.0
  C  C86  1  0.90843000  0.87936000  0.37496000  1.0
  C  C87  1  0.84130000  0.87074000  0.37482000  1.0
  C  C88  1  0.65335000  0.15285000  0.15120000  1.0
  C  C89  1  0.59805000  0.09847000  0.09800000  1.0
  C  C90  1  0.66734000  0.16719000  0.10819000  1.0
  C  C91  1  0.58303000  0.08322000  0.14073000  1.0
  C  C92  1  0.64051000  0.14068000  0.08176000  1.0
  C  C93  1  0.61044000  0.11021000  0.16663000  1.0
  C  C94  1  0.67371000  0.52475000  0.12039000  1.0
  C  C95  1  0.57612000  0.72551000  0.12968000  1.0
  C  C96  1  0.66468000  0.50776000  0.16293000  1.0
  C  C97  1  0.58526000  0.74262000  0.08716000  1.0
  C  C98  1  0.60831000  0.64616000  0.14181000  1.0
  C  C99  1  0.64145000  0.60412000  0.10824000  1.0
  C  C100  1  0.08214000  0.12363000  0.17780000  1.0
  C  C101  1  0.16846000  0.12600000  0.07242000  1.0
  C  C102  1  0.00994000  0.16282000  0.16503000  1.0
  C  C103  1  0.24068000  0.08701000  0.08522000  1.0
  C  C104  1  0.11062000  0.13931000  0.10613000  1.0
  C  C105  1  0.13994000  0.11012000  0.14407000  1.0
  C  C106  1  0.34600000  0.84982000  0.84781000  1.0
  C  C107  1  0.40219000  0.90160000  0.90185000  1.0
  C  C108  1  0.30348000  0.92108000  0.86222000  1.0
  C  C109  1  0.44601000  0.83019000  0.88812000  1.0
  C  C110  1  0.33056000  0.94713000  0.88877000  1.0
  C  C111  1  0.41789000  0.80525000  0.86154000  1.0
  C  C112  1  0.40667000  0.44868000  0.85286000  1.0
  C  C113  1  0.34338000  0.30137000  0.89710000  1.0
  C  C114  1  0.33839000  0.49156000  0.83618000  1.0
  C  C115  1  0.41177000  0.25850000  0.91373000  1.0
  C  C116  1  0.34144000  0.37072000  0.87491000  1.0
  C  C117  1  0.40855000  0.37937000  0.87506000  1.0
  C  C118  1  0.94473000  0.79540000  0.84936000  1.0
  C  C119  1  0.80487000  0.95420000  0.90071000  1.0
  C  C120  1  0.99115000  0.83385000  0.83608000  1.0
  C  C121  1  0.75836000  0.91580000  0.91389000  1.0
  C  C122  1  0.87279000  0.91039000  0.87717000  1.0
  C  C123  1  0.87680000  0.83922000  0.87289000  1.0
  S  S124  1  0.29820000  0.32559000  0.39738000  1.0
  S  S125  1  0.45168000  0.42395000  0.35259000  1.0
  S  S126  1  0.66128000  0.63350000  0.56219000  1.0
  S  S127  1  0.58879000  0.61639000  0.68817000  1.0
  S  S128  1  0.13371000  0.16122000  0.56190000  1.0
  S  S129  1  0.11648000  0.08856000  0.68795000  1.0
  S  S130  1  0.97363000  0.80294000  0.40208000  1.0
  S  S131  1  0.77608000  0.94709000  0.34770000  1.0
  S  S132  1  0.61648000  0.58891000  0.18807000  1.0
  S  S133  1  0.63333000  0.66144000  0.06201000  1.0
  S  S134  1  0.01274000  0.18309000  0.11169000  1.0
  S  S135  1  0.23781000  0.06657000  0.13857000  1.0
  S  S136  1  0.27631000  0.44707000  0.84773000  1.0
  S  S137  1  0.47376000  0.30304000  0.90221000  1.0
  S  S138  1  0.95172000  0.92373000  0.85246000  1.0
  S  S139  1  0.79783000  0.82592000  0.89752000  1.0
  Br  Br140  1  0.28541000  0.55137000  0.41132000  1.0
  Br  Br141  1  0.46470000  0.19796000  0.33892000  1.0
  Br  Br142  1  0.79471000  0.52788000  0.66920000  1.0
  Br  Br143  1  0.45539000  0.72178000  0.58112000  1.0
  Br  Br144  1  0.02826000  0.29406000  0.66867000  1.0
  Br  Br145  1  0.22170000  0.95576000  0.58114000  1.0
  Br  Br146  1  0.76067000  0.77569000  0.40133000  1.0
  Br  Br147  1  0.98929000  0.97409000  0.34827000  1.0
  Br  Br148  1  0.72115000  0.45572000  0.08142000  1.0
  Br  Br149  1  0.52828000  0.79431000  0.16876000  1.0
  Br  Br150  1  0.10632000  0.09033000  0.23197000  1.0
  Br  Br151  1  0.14438000  0.15954000  0.01825000  1.0
  Br  Br152  1  0.48940000  0.47414000  0.84838000  1.0
  Br  Br153  1  0.26067000  0.27587000  0.90160000  1.0
  Br  Br154  1  0.96415000  0.69782000  0.83913000  1.0
  Br  Br155  1  0.78561000  0.05166000  0.91105000  1.0
  O  O156  1  0.00070000  0.49873000  0.49973000  1.0
  O  O157  1  0.07834000  0.31464000  0.52257000  1.0
  O  O158  1  0.03169000  0.53124000  0.58644000  1.0
  O  O159  1  0.15428000  0.50534000  0.44974000  1.0
  O  O160  1  0.02646000  0.37535000  0.58008000  1.0
  O  O161  1  0.15441000  0.39061000  0.44638000  1.0
  O  O162  1  0.08359000  0.58584000  0.53050000  1.0
  O  O163  1  0.00467000  0.65785000  0.44919000  1.0
  O  O164  1  0.88812000  0.49523000  0.44288000  1.0
  O  O165  1  0.89152000  0.65230000  0.44799000  1.0
  O  O166  1  0.99684000  0.38588000  0.44108000  1.0
  O  O167  1  0.87616000  0.52594000  0.58047000  1.0
  O  O168  1  0.81450000  0.57830000  0.52314000  1.0
  O  O169  1  0.74884000  0.25106000  0.25035000  1.0
  O  O170  1  0.59525000  0.35915000  0.30364000  1.0
  O  O171  1  0.66462000  0.16263000  0.21881000  1.0
  O  O172  1  0.72598000  0.37476000  0.17015000  1.0
  O  O173  1  0.59524000  0.24480000  0.29947000  1.0
  O  O174  1  0.67160000  0.43572000  0.22744000  1.0
  O  O175  1  0.72044000  0.21838000  0.16539000  1.0
  O  O176  1  0.87739000  0.22412000  0.16884000  1.0
  O  O177  1  0.86273000  0.25467000  0.30868000  1.0
  O  O178  1  0.93265000  0.17378000  0.22829000  1.0
  O  O179  1  0.75315000  0.36354000  0.30827000  1.0
  O  O180  1  0.74561000  0.09192000  0.29980000  1.0
  O  O181  1  0.85718000  0.09894000  0.30330000  1.0
  O  O182  1  0.24966000  0.74997000  0.75049000  1.0
  O  O183  1  0.37412000  0.72409000  0.66974000  1.0
  O  O184  1  0.36432000  0.75462000  0.80829000  1.0
  O  O185  1  0.17094000  0.93507000  0.72715000  1.0
  O  O186  1  0.43525000  0.67308000  0.72731000  1.0
  O  O187  1  0.22393000  0.87443000  0.66972000  1.0
  O  O188  1  0.25319000  0.86150000  0.80772000  1.0
  O  O189  1  0.09468000  0.85888000  0.80312000  1.0
  O  O190  1  0.16501000  0.66303000  0.71902000  1.0
  O  O191  1  0.09494000  0.74420000  0.79956000  1.0
  O  O192  1  0.21854000  0.71890000  0.66431000  1.0
  O  O193  1  0.35756000  0.59871000  0.80262000  1.0
  O  O194  1  0.24572000  0.59148000  0.79996000  1.0
  O  O195  1  0.50109000  0.99893000  0.00002000  1.0
  O  O196  1  0.50442000  0.15825000  0.94998000  1.0
  O  O197  1  0.38753000  0.99550000  0.94136000  1.0
  O  O198  1  0.65420000  0.89123000  0.94629000  1.0
  O  O199  1  0.39277000  0.15118000  0.94682000  1.0
  O  O200  1  0.65462000  0.00542000  0.95036000  1.0
  O  O201  1  0.49686000  0.88642000  0.94161000  1.0
  O  O202  1  0.57809000  0.81473000  0.02269000  1.0
  O  O203  1  0.53019000  0.03218000  0.08593000  1.0
  O  O204  1  0.52542000  0.87577000  0.08005000  1.0
  O  O205  1  0.58486000  0.08659000  0.03104000  1.0
  O  O206  1  0.31784000  0.07607000  0.02200000  1.0
  O  O207  1  0.37336000  0.02695000  0.08144000  1.0
  F  F208  1  0.78245000  0.51648000  0.39902000  1.0
  F  F209  1  0.15964000  0.65952000  0.54209000  1.0
  F  F210  1  0.70789000  0.20787000  0.09051000  1.0
  F  F211  1  0.23370000  0.96790000  0.85073000  1.0
