# generated using pymatgen
data_SmH13C13O9
_symmetry_space_group_name_H-M   'P 1'
_cell_length_a   11.96770000
_cell_length_b   12.44530000
_cell_length_c   12.55200000
_cell_angle_alpha   90.00000000
_cell_angle_beta   98.83510000
_cell_angle_gamma   90.00000000
_symmetry_Int_Tables_number   1
_chemical_formula_structural   SmH13C13O9
_chemical_formula_sum   'Sm4 H52 C52 O36'
_cell_volume   1847.33239568
_cell_formula_units_Z   4
loop_
 _symmetry_equiv_pos_site_id
 _symmetry_equiv_pos_as_xyz
  1  'x, y, z'
loop_
 _atom_site_type_symbol
 _atom_site_label
 _atom_site_symmetry_multiplicity
 _atom_site_fract_x
 _atom_site_fract_y
 _atom_site_fract_z
 _atom_site_occupancy
  Sm  Sm0  1  0.37408000  0.44575000  0.13229000  1.0
  Sm  Sm1  1  0.62592000  0.94575000  0.86771000  1.0
  Sm  Sm2  1  0.63962000  0.22850000  0.18431000  1.0
  Sm  Sm3  1  0.36038000  0.72850000  0.81569000  1.0
  H  H4  1  0.31846000  0.40529000  0.47269000  1.0
  H  H5  1  0.68154000  0.90529000  0.52731000  1.0
  H  H6  1  0.48130000  0.33592000  0.79745000  1.0
  H  H7  1  0.51870000  0.83592000  0.20255000  1.0
  H  H8  1  0.65988000  0.28186000  0.53078000  1.0
  H  H9  1  0.34012000  0.78186000  0.46922000  1.0
  H  H10  1  0.30213000  0.29755000  0.79754000  1.0
  H  H11  1  0.69787000  0.79755000  0.20246000  1.0
  H  H12  1  0.10246000  0.33999000  0.73815000  1.0
  H  H13  1  0.89754000  0.83999000  0.26185000  1.0
  H  H14  1  0.12596000  0.47883000  0.77271000  1.0
  H  H15  1  0.87404000  0.97883000  0.22730000  1.0
  H  H16  1  0.14165000  0.37897000  0.87579000  1.0
  H  H17  1  0.85836000  0.87897000  0.12421000  1.0
  H  H18  1  0.65257000  0.37774000  0.86124000  1.0
  H  H19  1  0.34744000  0.87774000  0.13876000  1.0
  H  H20  1  0.85518000  0.37031000  0.85099000  1.0
  H  H21  1  0.14481000  0.87032000  0.14901000  1.0
  H  H22  1  0.85888000  0.22898000  0.87227000  1.0
  H  H23  1  0.14112000  0.72898000  0.12773000  1.0
  H  H24  1  0.83053000  0.31752000  0.97705000  1.0
  H  H25  1  0.16947000  0.81752000  0.02295000  1.0
  H  H26  1  0.00656000  0.53381000  0.91663000  1.0
  H  H27  1  0.99344000  0.03381000  0.08337000  1.0
  H  H28  1  0.70274000  0.60654000  0.04732000  1.0
  H  H29  1  0.29726000  0.10654000  0.95267000  1.0
  H  H30  1  0.01863000  0.56471000  0.26125000  1.0
  H  H31  1  0.98137000  0.06471000  0.73875000  1.0
  H  H32  1  0.63417000  0.62390000  0.19542000  1.0
  H  H33  1  0.36583000  0.12390000  0.80458000  1.0
  H  H34  1  0.67963000  0.66309000  0.39435000  1.0
  H  H35  1  0.32037000  0.16309000  0.60565000  1.0
  H  H36  1  0.71545000  0.52482000  0.41819000  1.0
  H  H37  1  0.28455000  0.02482000  0.58181000  1.0
  H  H38  1  0.57368000  0.56300000  0.36412000  1.0
  H  H39  1  0.42632000  0.06301000  0.63588000  1.0
  H  H40  1  0.62836000  0.54877000  0.88060000  1.0
  H  H41  1  0.37164000  0.04877000  0.11940000  1.0
  H  H42  1  0.67227000  0.50366000  0.69358000  1.0
  H  H43  1  0.32772000  0.00366000  0.30641000  1.0
  H  H44  1  0.70095000  0.64242000  0.67441000  1.0
  H  H45  1  0.29905000  0.14242000  0.32559000  1.0
  H  H46  1  0.56197000  0.59983000  0.69052000  1.0
  H  H47  1  0.43803000  0.09983000  0.30948000  1.0
  H  H48  1  0.82406000  0.11673000  0.07639000  1.0
  H  H49  1  0.17594000  0.61673000  0.92361000  1.0
  H  H50  1  0.89604000  0.20204000  0.15542000  1.0
  H  H51  1  0.10396000  0.70204000  0.84458000  1.0
  H  H52  1  0.73733000  0.06228000  0.35216000  1.0
  H  H53  1  0.26267000  0.56228000  0.64784000  1.0
  H  H54  1  0.69683000  0.16523000  0.40837000  1.0
  H  H55  1  0.30317000  0.66523000  0.59163000  1.0
  C  C56  1  0.48829000  0.34087000  0.49061000  1.0
  C  C57  1  0.51171000  0.84087000  0.50939000  1.0
  C  C58  1  0.39138000  0.37770000  0.52867000  1.0
  C  C59  1  0.60862000  0.87770000  0.47133000  1.0
  C  C60  1  0.38930000  0.37463000  0.63930000  1.0
  C  C61  1  0.61070000  0.87463000  0.36070000  1.0
  C  C62  1  0.48332000  0.33903000  0.71142000  1.0
  C  C63  1  0.51668000  0.83903000  0.28859000  1.0
  C  C64  1  0.58129000  0.30764000  0.67113000  1.0
  C  C65  1  0.41871000  0.80764000  0.32887000  1.0
  C  C66  1  0.58293000  0.30585000  0.56053000  1.0
  C  C67  1  0.41707000  0.80585000  0.43947000  1.0
  C  C68  1  0.49203000  0.33914000  0.37293000  1.0
  C  C69  1  0.50797000  0.83914000  0.62707000  1.0
  C  C70  1  0.27758000  0.38194000  0.78189000  1.0
  C  C71  1  0.72242000  0.88194000  0.21811000  1.0
  C  C72  1  0.35646000  0.45140000  0.86241000  1.0
  C  C73  1  0.64354000  0.95140000  0.13758000  1.0
  C  C74  1  0.15366000  0.39620000  0.79262000  1.0
  C  C75  1  0.84634000  0.89620000  0.20738000  1.0
  C  C76  1  0.69121000  0.29970000  0.84663000  1.0
  C  C77  1  0.30879000  0.79970000  0.15337000  1.0
  C  C78  1  0.62906000  0.21517000  0.90445000  1.0
  C  C79  1  0.37094000  0.71517000  0.09555000  1.0
  C  C80  1  0.81712000  0.30375000  0.88981000  1.0
  C  C81  1  0.18288000  0.80376000  0.11019000  1.0
  C  C82  1  0.02587000  0.54988000  0.09060000  1.0
  C  C83  1  0.97413000  0.04988000  0.90940000  1.0
  C  C84  1  0.96559000  0.55163000  0.98617000  1.0
  C  C85  1  0.03441000  0.05163000  0.01383000  1.0
  C  C86  1  0.84957000  0.57220000  0.97064000  1.0
  C  C87  1  0.15043000  0.07220000  0.02936000  1.0
  C  C88  1  0.79323000  0.59073000  0.05893000  1.0
  C  C89  1  0.20677000  0.09073000  0.94107000  1.0
  C  C90  1  0.85575000  0.58859000  0.16329000  1.0
  C  C91  1  0.14425000  0.08859000  0.83671000  1.0
  C  C92  1  0.97174000  0.56862000  0.17992000  1.0
  C  C93  1  0.02825000  0.06862000  0.82007000  1.0
  C  C94  1  0.14894000  0.52515000  0.10658000  1.0
  C  C95  1  0.85106000  0.02515000  0.89342000  1.0
  C  C96  1  0.69194000  0.57235000  0.25027000  1.0
  C  C97  1  0.30806000  0.07235000  0.74973000  1.0
  C  C98  1  0.67575000  0.45650000  0.20998000  1.0
  C  C99  1  0.32425000  0.95650000  0.79002000  1.0
  C  C100  1  0.66345000  0.58093000  0.36420000  1.0
  C  C101  1  0.33655000  0.08093000  0.63580000  1.0
  C  C102  1  0.68292000  0.59982000  0.83814000  1.0
  C  C103  1  0.31708000  0.09982000  0.16187000  1.0
  C  C104  1  0.66325000  0.71667000  0.86689000  1.0
  C  C105  1  0.33675000  0.21667000  0.13311000  1.0
  C  C106  1  0.65245000  0.58568000  0.71631000  1.0
  C  C107  1  0.34755000  0.08568000  0.28369000  1.0
  O  O108  1  0.56835000  0.28084000  0.34111000  1.0
  O  O109  1  0.43165000  0.78084000  0.65889000  1.0
  O  O110  1  0.42000000  0.39537000  0.31229000  1.0
  O  O111  1  0.58000000  0.89537000  0.68771000  1.0
  O  O112  1  0.28988000  0.40780000  0.67227000  1.0
  O  O113  1  0.71012000  0.90780000  0.32773000  1.0
  O  O114  1  0.38618000  0.54328000  0.83382000  1.0
  O  O115  1  0.61382000  0.04328000  0.16618000  1.0
  O  O116  1  0.38863000  0.40954000  0.95378000  1.0
  O  O117  1  0.61137000  0.90954000  0.04622000  1.0
  O  O118  1  0.68074000  0.28077000  0.73346000  1.0
  O  O119  1  0.31926000  0.78078000  0.26654000  1.0
  O  O120  1  0.62170000  0.23788000  0.00122000  1.0
  O  O121  1  0.37830000  0.73788000  0.99878000  1.0
  O  O122  1  0.58905000  0.13135000  0.85544000  1.0
  O  O123  1  0.41095000  0.63135000  0.14456000  1.0
  O  O124  1  0.20095000  0.49936000  0.19872000  1.0
  O  O125  1  0.79905000  0.99936000  0.80128000  1.0
  O  O126  1  0.20248000  0.52944000  0.02420000  1.0
  O  O127  1  0.79752000  0.02944000  0.97580000  1.0
  O  O128  1  0.79875000  0.56944000  0.86519000  1.0
  O  O129  1  0.20125000  0.06944000  0.13481000  1.0
  O  O130  1  0.74380000  0.78268000  0.88283000  1.0
  O  O131  1  0.25621000  0.28268000  0.11716000  1.0
  O  O132  1  0.56020000  0.74531000  0.86835000  1.0
  O  O133  1  0.43981000  0.24531000  0.13166000  1.0
  O  O134  1  0.80732000  0.60559000  0.25457000  1.0
  O  O135  1  0.19268000  0.10559000  0.74543000  1.0
  O  O136  1  0.75415000  0.38812000  0.23172000  1.0
  O  O137  1  0.24585000  0.88812000  0.76828000  1.0
  O  O138  1  0.57875000  0.43019000  0.15751000  1.0
  O  O139  1  0.42125000  0.93019000  0.84249000  1.0
  O  O140  1  0.82351000  0.16576000  0.14035000  1.0
  O  O141  1  0.17649000  0.66576000  0.85965000  1.0
  O  O142  1  0.74217000  0.14133000  0.35447000  1.0
  O  O143  1  0.25783000  0.64133000  0.64553000  1.0
