# generated using pymatgen
data_TbH4C12(O4F3)2
_symmetry_space_group_name_H-M   'P 1'
_cell_length_a   8.84176000
_cell_length_b   8.84924000
_cell_length_c   11.16900000
_cell_angle_alpha   107.47500000
_cell_angle_beta   110.31500000
_cell_angle_gamma   100.50000000
_symmetry_Int_Tables_number   1
_chemical_formula_structural   TbH4C12(O4F3)2
_chemical_formula_sum   'Tb2 H8 C24 O16 F12'
_cell_volume   740.53657990
_cell_formula_units_Z   2
loop_
 _symmetry_equiv_pos_site_id
 _symmetry_equiv_pos_as_xyz
  1  'x, y, z'
loop_
 _atom_site_type_symbol
 _atom_site_label
 _atom_site_symmetry_multiplicity
 _atom_site_fract_x
 _atom_site_fract_y
 _atom_site_fract_z
 _atom_site_occupancy
  Tb  Tb0  1  0.18608000  0.39490000  0.47053000  1.0
  Tb  Tb1  1  0.92411000  0.71551000  0.52951000  1.0
  H  H2  1  0.32180000  0.35672000  0.26096000  1.0
  H  H3  1  0.09562000  0.06042000  0.73899000  1.0
  H  H4  1  0.48464000  0.40948000  0.39585000  1.0
  H  H5  1  0.01329000  0.08834000  0.60415000  1.0
  H  H6  1  0.00312000  0.01409000  0.35064000  1.0
  H  H7  1  0.66306000  0.65224000  0.64942000  1.0
  H  H8  1  0.11891000  0.03588000  0.27421000  1.0
  H  H9  1  0.76105000  0.84442000  0.72573000  1.0
  C  C10  1  0.18902000  0.70075000  0.76790000  1.0
  C  C11  1  0.93283000  0.42125000  0.23213000  1.0
  C  C12  1  0.31925000  0.69883000  0.89754000  1.0
  C  C13  1  0.80116000  0.42158000  0.10239000  1.0
  C  C14  1  0.27600000  0.59610000  0.96146000  1.0
  C  C15  1  0.63454000  0.31419000  0.03824000  1.0
  C  C16  1  0.39306000  0.60168000  0.08569000  1.0
  C  C17  1  0.51598000  0.30694000  0.91390000  1.0
  C  C18  1  0.56195000  0.71057000  0.15324000  1.0
  C  C19  1  0.55739000  0.40837000  0.84649000  1.0
  C  C20  1  0.60518000  0.80943000  0.08486000  1.0
  C  C21  1  0.72468000  0.52008000  0.91508000  1.0
  C  C22  1  0.48695000  0.80307000  0.96094000  1.0
  C  C23  1  0.84210000  0.52589000  0.03907000  1.0
  C  C24  1  0.29509000  0.79524000  0.50007000  1.0
  C  C25  1  0.42903000  0.92910000  0.50001000  1.0
  C  C26  1  0.41558000  0.95015000  0.37885000  1.0
  C  C27  1  0.57120000  0.03671000  0.62127000  1.0
  C  C28  1  0.53906000  0.07150000  0.37827000  1.0
  C  C29  1  0.69317000  0.16102000  0.62216000  1.0
  C  C30  1  0.67968000  0.17996000  0.50029000  1.0
  C  C31  1  0.68664000  0.72090000  0.28951000  1.0
  C  C32  1  0.43141000  0.39701000  0.71029000  1.0
  C  C33  1  0.81281000  0.31304000  0.50024000  1.0
  O  O34  1  0.36458000  0.34045000  0.34772000  1.0
  O  O35  1  0.99239000  0.01657000  0.65236000  1.0
  O  O36  1  0.10178000  0.09256000  0.35528000  1.0
  O  O37  1  0.73689000  0.74624000  0.64476000  1.0
  O  O38  1  0.16217000  0.59675000  0.64939000  1.0
  O  O39  1  0.94732000  0.51294000  0.35064000  1.0
  O  O40  1  0.10999000  0.80472000  0.78112000  1.0
  O  O41  1  0.02369000  0.32910000  0.21893000  1.0
  O  O42  1  0.31085000  0.65132000  0.46941000  1.0
  O  O43  1  0.18181000  0.84175000  0.53081000  1.0
  O  O44  1  0.93379000  0.27005000  0.48054000  1.0
  O  O45  1  0.78935000  0.45356000  0.51984000  1.0
  O  O46  1  0.64394000  0.61840000  0.34009000  1.0
  O  O47  1  0.27825000  0.30373000  0.65961000  1.0
  O  O48  1  0.83503000  0.83141000  0.35363000  1.0
  O  O49  1  0.47788000  0.48149000  0.64634000  1.0
  F  F50  1  0.11692000  0.48770000  0.90195000  1.0
  F  F51  1  0.58548000  0.21461000  0.09765000  1.0
  F  F52  1  0.33442000  0.49704000  0.13787000  1.0
  F  F53  1  0.35910000  0.19598000  0.86151000  1.0
  F  F54  1  0.76417000  0.91465000  0.13513000  1.0
  F  F55  1  0.77974000  0.62871000  0.86483000  1.0
  F  F56  1  0.53815000  0.90000000  0.90045000  1.0
  F  F57  1  0.99948000  0.63774000  0.09977000  1.0
  F  F58  1  0.27771000  0.85286000  0.25700000  1.0
  F  F59  1  0.59565000  0.02023000  0.74294000  1.0
  F  F60  1  0.51991000  0.08418000  0.25658000  1.0
  F  F61  1  0.82748000  0.26328000  0.74396000  1.0
