# generated using pymatgen
data_Al2H15C28(SO8)2
_symmetry_space_group_name_H-M   'P 1'
_cell_length_a   6.62245000
_cell_length_b   11.03670000
_cell_length_c   17.48830000
_cell_angle_alpha   87.32600000
_cell_angle_beta   80.30150000
_cell_angle_gamma   74.13490000
_symmetry_Int_Tables_number   1
_chemical_formula_structural   Al2H15C28(SO8)2
_chemical_formula_sum   'Al2 H15 C28 S2 O16'
_cell_volume   1211.95697065
_cell_formula_units_Z   1
loop_
 _symmetry_equiv_pos_site_id
 _symmetry_equiv_pos_as_xyz
  1  'x, y, z'
loop_
 _atom_site_type_symbol
 _atom_site_label
 _atom_site_symmetry_multiplicity
 _atom_site_fract_x
 _atom_site_fract_y
 _atom_site_fract_z
 _atom_site_occupancy
  Al  Al0  1  0.52528000  0.48853000  0.49350000  1.0
  Al  Al1  1  0.02288000  0.48414000  0.50021000  1.0
  H  H2  1  0.28991000  0.39857000  0.58245000  1.0
  H  H3  1  0.77274000  0.60134000  0.42328000  1.0
  H  H4  1  0.61632000  0.64892000  0.12564000  1.0
  H  H5  1  0.06966000  0.50488000  0.12435000  1.0
  H  H6  1  0.04233000  0.47160000  0.26763000  1.0
  H  H7  1  0.83524000  0.48187000  0.89317000  1.0
  H  H8  1  0.95868000  0.44993000  0.75052000  1.0
  H  H9  1  0.30872000  0.55484000  0.71195000  1.0
  H  H10  1  0.18277000  0.59089000  0.85416000  1.0
  H  H11  1  0.23061000  0.21751000  0.37782000  1.0
  H  H12  1  0.49372000  0.75630000  0.40916000  1.0
  H  H13  1  0.78948000  0.86427000  0.55502000  1.0
  H  H14  1  0.66006000  0.09867000  0.54284000  1.0
  H  H15  1  0.70014000  0.23765000  0.37405000  1.0
  H  H16  1  0.58694000  0.61403000  0.26804000  1.0
  C  C17  1  0.88024000  0.25753000  0.48073000  1.0
  C  C18  1  0.71084000  0.48486000  0.63764000  1.0
  C  C19  1  0.16976000  0.71413000  0.50515000  1.0
  C  C20  1  0.31026000  0.50422000  0.35874000  1.0
  C  C21  1  0.31743000  0.53611000  0.27509000  1.0
  C  C22  1  0.47626000  0.58941000  0.23601000  1.0
  C  C23  1  0.49326000  0.60834000  0.15670000  1.0
  C  C24  1  0.35074000  0.57330000  0.11535000  1.0
  C  C25  1  0.18109000  0.52887000  0.15630000  1.0
  C  C26  1  0.16620000  0.50999000  0.23539000  1.0
  C  C27  1  0.38890000  0.57216000  0.03392000  1.0
  C  C28  1  0.43500000  0.55949000  0.96325000  1.0
  C  C29  1  0.50113000  0.53981000  0.88294000  1.0
  C  C30  1  0.72137000  0.49949000  0.85291000  1.0
  C  C31  1  0.78954000  0.48106000  0.77384000  1.0
  C  C32  1  0.64072000  0.50106000  0.72295000  1.0
  C  C33  1  0.42195000  0.53893000  0.75239000  1.0
  C  C34  1  0.35210000  0.55874000  0.83127000  1.0
  C  C35  1  0.95444000  0.11697000  0.47726000  1.0
  C  C36  1  0.16097000  0.05342000  0.43848000  1.0
  C  C37  1  0.82107000  0.04876000  0.51657000  1.0
  C  C38  1  0.28833000  0.11659000  0.38714000  1.0
  C  C39  1  0.48260000  0.05259000  0.34552000  1.0
  C  C40  1  0.10094000  0.85358000  0.49273000  1.0
  C  C41  1  0.89393000  0.91770000  0.52396000  1.0
  C  C42  1  0.23604000  0.91987000  0.44664000  1.0
  C  C43  1  0.43572000  0.85753000  0.40394000  1.0
  C  C44  1  0.55976000  0.92001000  0.35419000  1.0
  S  S45  1  0.61319000  0.14966000  0.28059000  1.0
  S  S46  1  0.81050000  0.82133000  0.30616000  1.0
  O  O47  1  0.69234000  0.31138000  0.46662000  1.0
  O  O48  1  0.89706000  0.49290000  0.60932000  1.0
  O  O49  1  0.02730000  0.65731000  0.50369000  1.0
  O  O50  1  0.46538000  0.51387000  0.39078000  1.0
  O  O51  1  0.36037000  0.66300000  0.51553000  1.0
  O  O52  1  0.15086000  0.46958000  0.39376000  1.0
  O  O53  1  0.00864000  0.31202000  0.50045000  1.0
  O  O54  1  0.57633000  0.46412000  0.59911000  1.0
  O  O55  1  0.29076000  0.42656000  0.52903000  1.0
  O  O56  1  0.76401000  0.54268000  0.46725000  1.0
  O  O57  1  0.77554000  0.17983000  0.32982000  1.0
  O  O58  1  0.74000000  0.07964000  0.21459000  1.0
  O  O59  1  0.45196000  0.26494000  0.27123000  1.0
  O  O60  1  0.79359000  0.81178000  0.22465000  1.0
  O  O61  1  0.97368000  0.87842000  0.32183000  1.0
  O  O62  1  0.82621000  0.69793000  0.34489000  1.0
