# generated using pymatgen
data_PrH8C6SNO9
_symmetry_space_group_name_H-M   'P 1'
_cell_length_a   7.33434000
_cell_length_b   10.41780000
_cell_length_c   15.95540000
_cell_angle_alpha   78.45790000
_cell_angle_beta   77.26810000
_cell_angle_gamma   69.46440000
_symmetry_Int_Tables_number   1
_chemical_formula_structural   PrH8C6SNO9
_chemical_formula_sum   'Pr4 H32 C24 S4 N4 O36'
_cell_volume   1103.46960928
_cell_formula_units_Z   4
loop_
 _symmetry_equiv_pos_site_id
 _symmetry_equiv_pos_as_xyz
  1  'x, y, z'
loop_
 _atom_site_type_symbol
 _atom_site_label
 _atom_site_symmetry_multiplicity
 _atom_site_fract_x
 _atom_site_fract_y
 _atom_site_fract_z
 _atom_site_occupancy
  Pr  Pr0  1  0.29428000  0.50864000  0.92799000  1.0
  Pr  Pr1  1  0.73310000  0.99130000  0.57183000  1.0
  Pr  Pr2  1  0.70572000  0.49136000  0.07200000  1.0
  Pr  Pr3  1  0.26690000  0.00870000  0.42817000  1.0
  H  H4  1  0.16277000  0.39256000  0.79549000  1.0
  H  H5  1  0.35565000  0.10751000  0.70348000  1.0
  H  H6  1  0.83723000  0.60744000  0.20451000  1.0
  H  H7  1  0.64435000  0.89249000  0.29652000  1.0
  H  H8  1  0.38332000  0.38912000  0.76346000  1.0
  H  H9  1  0.54055000  0.11140000  0.73646000  1.0
  H  H10  1  0.61668000  0.61088000  0.23654000  1.0
  H  H11  1  0.45945000  0.88860000  0.26354000  1.0
  H  H12  1  0.15039000  0.72436000  0.76998000  1.0
  H  H13  1  0.64749000  0.77537000  0.72940000  1.0
  H  H14  1  0.84961000  0.27564000  0.23002000  1.0
  H  H15  1  0.35251000  0.22463000  0.27060000  1.0
  H  H16  1  0.97430000  0.65964000  0.80706000  1.0
  H  H17  1  0.44447000  0.84135000  0.69163000  1.0
  H  H18  1  0.02570000  0.34036000  0.19294000  1.0
  H  H19  1  0.55553000  0.15865000  0.30837000  1.0
  H  H20  1  0.77168000  0.80368000  0.89146000  1.0
  H  H21  1  0.47018000  0.69597000  0.60796000  1.0
  H  H22  1  0.22832000  0.19632000  0.10854000  1.0
  H  H23  1  0.52982000  0.30403000  0.39204000  1.0
  H  H24  1  0.98339000  0.74803000  0.12098000  1.0
  H  H25  1  0.84966000  0.75195000  0.37953000  1.0
  H  H26  1  0.01660000  0.25197000  0.87902000  1.0
  H  H27  1  0.15034000  0.24805000  0.62047000  1.0
  H  H28  1  0.63371000  0.06365000  0.89121000  1.0
  H  H29  1  0.59200000  0.43613000  0.60825000  1.0
  H  H30  1  0.36628000  0.93635000  0.10879000  1.0
  H  H31  1  0.40800000  0.56387000  0.39175000  1.0
  H  H32  1  0.84562000  0.00339000  0.13233000  1.0
  H  H33  1  0.97853000  0.49650000  0.36822000  1.0
  H  H34  1  0.15437000  0.99661000  0.86768000  1.0
  H  H35  1  0.02148000  0.50350000  0.63178000  1.0
  C  C36  1  0.63837000  0.20714000  0.01513000  1.0
  C  C37  1  0.86057000  0.29276000  0.48471000  1.0
  C  C38  1  0.36163000  0.79287000  0.98487000  1.0
  C  C39  1  0.13943000  0.70724000  0.51529000  1.0
  C  C40  1  0.78443000  0.85560000  0.94141000  1.0
  C  C41  1  0.58320000  0.64423000  0.55814000  1.0
  C  C42  1  0.21557000  0.14440000  0.05859000  1.0
  C  C43  1  0.41680000  0.35577000  0.44185000  1.0
  C  C44  1  0.90136000  0.82356000  0.07351000  1.0
  C  C45  1  0.79672000  0.67637000  0.42666000  1.0
  C  C46  1  0.09864000  0.17644000  0.92649000  1.0
  C  C47  1  0.20328000  0.32362000  0.57334000  1.0
  C  C48  1  0.70927000  0.99677000  0.94327000  1.0
  C  C49  1  0.65110000  0.50305000  0.55631000  1.0
  C  C50  1  0.29072000  0.00323000  0.05673000  1.0
  C  C51  1  0.34890000  0.49695000  0.44369000  1.0
  C  C52  1  0.72585000  0.05356000  0.01248000  1.0
  C  C53  1  0.79178000  0.44638000  0.48737000  1.0
  C  C54  1  0.27414000  0.94645000  0.98752000  1.0
  C  C55  1  0.20822000  0.55362000  0.51263000  1.0
  C  C56  1  0.82534000  0.96438000  0.07775000  1.0
  C  C57  1  0.86565000  0.53559000  0.42239000  1.0
  C  C58  1  0.17465000  0.03562000  0.92225000  1.0
  C  C59  1  0.13435000  0.46441000  0.57761000  1.0
  S  S60  1  0.71965000  0.52507000  0.82528000  1.0
  S  S61  1  0.07414000  0.97507000  0.67504000  1.0
  S  S62  1  0.28035000  0.47493000  0.17471000  1.0
  S  S63  1  0.92586000  0.02493000  0.32496000  1.0
  N  N64  1  0.87618000  0.77176000  0.00688000  1.0
  N  N65  1  0.65483000  0.72812000  0.49294000  1.0
  N  N66  1  0.12382000  0.22824000  0.99312000  1.0
  N  N67  1  0.34517000  0.27188000  0.50706000  1.0
  O  O68  1  0.29412000  0.36251000  0.81343000  1.0
  O  O69  1  0.47471000  0.13715000  0.68593000  1.0
  O  O70  1  0.70588000  0.63749000  0.18657000  1.0
  O  O71  1  0.52529000  0.86285000  0.31407000  1.0
  O  O72  1  0.10633000  0.65602000  0.81572000  1.0
  O  O73  1  0.58191000  0.84372000  0.68290000  1.0
  O  O74  1  0.89367000  0.34398000  0.18428000  1.0
  O  O75  1  0.41809000  0.15628000  0.31710000  1.0
  O  O76  1  0.90202000  0.42047000  0.79157000  1.0
  O  O77  1  0.11955000  0.07986000  0.70873000  1.0
  O  O78  1  0.09798000  0.57953000  0.20843000  1.0
  O  O79  1  0.88045000  0.92014000  0.29127000  1.0
  O  O80  1  0.50504000  0.27152000  0.96881000  1.0
  O  O81  1  0.74693000  0.22824000  0.53080000  1.0
  O  O82  1  0.49495000  0.72848000  0.03119000  1.0
  O  O83  1  0.25308000  0.77176000  0.46920000  1.0
  O  O84  1  0.70486000  0.25839000  0.06282000  1.0
  O  O85  1  0.02435000  0.24163000  0.43731000  1.0
  O  O86  1  0.29514000  0.74161000  0.93718000  1.0
  O  O87  1  0.97565000  0.75837000  0.56269000  1.0
  O  O88  1  0.94016000  0.63425000  0.00637000  1.0
  O  O89  1  0.58108000  0.86562000  0.49335000  1.0
  O  O90  1  0.05984000  0.36576000  0.99363000  1.0
  O  O91  1  0.41892000  0.13438000  0.50665000  1.0
  O  O92  1  0.66420000  0.49195000  0.92259000  1.0
  O  O93  1  0.08088000  0.00759000  0.57764000  1.0
  O  O94  1  0.33580000  0.50805000  0.07741000  1.0
  O  O95  1  0.91913000  0.99241000  0.42236000  1.0
  O  O96  1  0.74619000  0.66424000  0.80688000  1.0
  O  O97  1  0.22046000  0.83573000  0.69432000  1.0
  O  O98  1  0.25381000  0.33575000  0.19312000  1.0
  O  O99  1  0.77954000  0.16427000  0.30568000  1.0
  O  O100  1  0.54579000  0.52864000  0.78960000  1.0
  O  O101  1  0.86901000  0.97217000  0.71014000  1.0
  O  O102  1  0.45421000  0.47136000  0.21040000  1.0
  O  O103  1  0.13099000  0.02783000  0.28986000  1.0
