# generated using pymatgen
data_MgH2(C2O)3
_symmetry_space_group_name_H-M   'P 1'
_cell_length_a   6.86901000
_cell_length_b   19.42790000
_cell_length_c   19.43240000
_cell_angle_alpha   118.63300000
_cell_angle_beta   96.77160000
_cell_angle_gamma   96.75990000
_symmetry_Int_Tables_number   1
_chemical_formula_structural   MgH2(C2O)3
_chemical_formula_sum   'Mg6 H12 C36 O18'
_cell_volume   2214.63596497
_cell_formula_units_Z   6
loop_
 _symmetry_equiv_pos_site_id
 _symmetry_equiv_pos_as_xyz
  1  'x, y, z'
loop_
 _atom_site_type_symbol
 _atom_site_label
 _atom_site_symmetry_multiplicity
 _atom_site_fract_x
 _atom_site_fract_y
 _atom_site_fract_z
 _atom_site_occupancy
  Mg  Mg0  1  0.90696000  0.39621000  0.68678000  1.0
  Mg  Mg1  1  0.51084000  0.29067000  0.60386000  1.0
  Mg  Mg2  1  0.22015000  0.31322000  0.70938000  1.0
  Mg  Mg3  1  0.20061000  0.71174000  0.31680000  1.0
  Mg  Mg4  1  0.48887000  0.60503000  0.28821000  1.0
  Mg  Mg5  1  0.88377000  0.68310000  0.39489000  1.0
  H  H6  1  0.30121000  0.47721000  0.92473000  1.0
  H  H7  1  0.82411000  0.44756000  0.52281000  1.0
  H  H8  1  0.37668000  0.07516000  0.55249000  1.0
  H  H9  1  0.64716000  0.47843000  0.06973000  1.0
  H  H10  1  0.16869000  0.59129000  0.52148000  1.0
  H  H11  1  0.57744000  0.93026000  0.40884000  1.0
  H  H12  1  0.37066000  0.55700000  0.07920000  1.0
  H  H13  1  0.81377000  0.52229000  0.44301000  1.0
  H  H14  1  0.29148000  0.92070000  0.47784000  1.0
  H  H15  1  0.58229000  0.40246000  0.92464000  1.0
  H  H16  1  0.17978000  0.52218000  0.59741000  1.0
  H  H17  1  0.65786000  0.07538000  0.47789000  1.0
  C  C18  1  0.00997000  0.41597000  0.85248000  1.0
  C  C19  1  0.59412000  0.43660000  0.58406000  1.0
  C  C20  1  0.15779000  0.14751000  0.56349000  1.0
  C  C21  1  0.14449000  0.46098000  0.92583000  1.0
  C  C22  1  0.68367000  0.46497000  0.53908000  1.0
  C  C23  1  0.21886000  0.07411000  0.53516000  1.0
  C  C24  1  0.08284000  0.48855000  0.00031000  1.0
  C  C25  1  0.59448000  0.51188000  0.51151000  1.0
  C  C26  1  0.08263000  0.99963000  0.48830000  1.0
  C  C27  1  0.87437000  0.46633000  0.99905000  1.0
  C  C28  1  0.40818000  0.53281000  0.53369000  1.0
  C  C29  1  0.87538000  0.00091000  0.46739000  1.0
  C  C30  1  0.80549000  0.49509000  0.07110000  1.0
  C  C31  1  0.31046000  0.57607000  0.50490000  1.0
  C  C32  1  0.73440000  0.92888000  0.42411000  1.0
  C  C33  1  0.93103000  0.54585000  0.14456000  1.0
  C  C34  1  0.38527000  0.59880000  0.45416000  1.0
  C  C35  1  0.78647000  0.85537000  0.40126000  1.0
  C  C36  1  0.14299000  0.56878000  0.14781000  1.0
  C  C37  1  0.57424000  0.57906000  0.43121000  1.0
  C  C38  1  0.99520000  0.85210000  0.42094000  1.0
  C  C39  1  0.21189000  0.53871000  0.07593000  1.0
  C  C40  1  0.67322000  0.53727000  0.46129000  1.0
  C  C41  1  0.13596000  0.92398000  0.46283000  1.0
  C  C42  1  0.83563000  0.57461000  0.21472000  1.0
  C  C43  1  0.26101000  0.64014000  0.42534000  1.0
  C  C44  1  0.62089000  0.78521000  0.35986000  1.0
  C  C45  1  0.74034000  0.41901000  0.92558000  1.0
  C  C46  1  0.32130000  0.50657000  0.58091000  1.0
  C  C47  1  0.81493000  0.07441000  0.49353000  1.0
  C  C48  1  0.80029000  0.39440000  0.85322000  1.0
  C  C49  1  0.40587000  0.45884000  0.60556000  1.0
  C  C50  1  0.94728000  0.14677000  0.54122000  1.0
  C  C51  1  0.63973000  0.35147000  0.78143000  1.0
  C  C52  1  0.28820000  0.43001000  0.64852000  1.0
  C  C53  1  0.85832000  0.21856000  0.57002000  1.0
  O  O54  1  0.46327000  0.32846000  0.78636000  1.0
  O  O55  1  0.13471000  0.45797000  0.67148000  1.0
  O  O56  1  0.67690000  0.21359000  0.54211000  1.0
  O  O57  1  0.68104000  0.34072000  0.71417000  1.0
  O  O58  1  0.34037000  0.37356000  0.65938000  1.0
  O  O59  1  0.96692000  0.28587000  0.62649000  1.0
  O  O60  1  0.07229000  0.39460000  0.78324000  1.0
  O  O61  1  0.67774000  0.38869000  0.60541000  1.0
  O  O62  1  0.28929000  0.21678000  0.61133000  1.0
  O  O63  1  0.65237000  0.54702000  0.20762000  1.0
  O  O64  1  0.10527000  0.66058000  0.45292000  1.0
  O  O65  1  0.44472000  0.79235000  0.33941000  1.0
  O  O66  1  0.94111000  0.63001000  0.28327000  1.0
  O  O67  1  0.31093000  0.65319000  0.36987000  1.0
  O  O68  1  0.65780000  0.71665000  0.34672000  1.0
  O  O69  1  0.27016000  0.61838000  0.21784000  1.0
  O  O70  1  0.65173000  0.59946000  0.38158000  1.0
  O  O71  1  0.05226000  0.78204000  0.40048000  1.0
