# generated using pymatgen
data_CdH12(C4N3)4
_symmetry_space_group_name_H-M   'P 1'
_cell_length_a   7.13275000
_cell_length_b   8.78619000
_cell_length_c   15.08550000
_cell_angle_alpha   101.35000000
_cell_angle_beta   99.84650000
_cell_angle_gamma   98.86620000
_symmetry_Int_Tables_number   1
_chemical_formula_structural   CdH12(C4N3)4
_chemical_formula_sum   'Cd2 H24 C32 N24'
_cell_volume   895.83938739
_cell_formula_units_Z   2
loop_
 _symmetry_equiv_pos_site_id
 _symmetry_equiv_pos_as_xyz
  1  'x, y, z'
loop_
 _atom_site_type_symbol
 _atom_site_label
 _atom_site_symmetry_multiplicity
 _atom_site_fract_x
 _atom_site_fract_y
 _atom_site_fract_z
 _atom_site_occupancy
  Cd  Cd0  1  0.95272000  0.78642000  0.19161000  1.0
  Cd  Cd1  1  0.04727000  0.21359000  0.80838000  1.0
  H  H2  1  0.49480000  0.70014000  0.09332000  1.0
  H  H3  1  0.50519000  0.29986000  0.90668000  1.0
  H  H4  1  0.20597000  0.47891000  0.06174000  1.0
  H  H5  1  0.79403000  0.52108000  0.93825000  1.0
  H  H6  1  0.25626000  0.22722000  0.11121000  1.0
  H  H7  1  0.74374000  0.77279000  0.88879000  1.0
  H  H8  1  0.58520000  0.20983000  0.18983000  1.0
  H  H9  1  0.41480000  0.79017000  0.81017000  1.0
  H  H10  1  0.86166000  0.88062000  0.58764000  1.0
  H  H11  1  0.13835000  0.11937000  0.41235000  1.0
  H  H12  1  0.00232000  0.64009000  0.53450000  1.0
  H  H13  1  0.99768000  0.35990000  0.46549000  1.0
  H  H14  1  0.48931000  0.43851000  0.34299000  1.0
  H  H15  1  0.51068000  0.56148000  0.65701000  1.0
  H  H16  1  0.10402000  0.30374000  0.28387000  1.0
  H  H17  1  0.89598000  0.69626000  0.71613000  1.0
  H  H18  1  0.89293000  0.19232000  0.20126000  1.0
  H  H19  1  0.10706000  0.80768000  0.79874000  1.0
  H  H20  1  0.87430000  0.27108000  0.31549000  1.0
  H  H21  1  0.12570000  0.72892000  0.68451000  1.0
  H  H22  1  0.09340000  0.82494000  0.39479000  1.0
  H  H23  1  0.90661000  0.17506000  0.60521000  1.0
  H  H24  1  0.31864000  0.88935000  0.47353000  1.0
  H  H25  1  0.68137000  0.11064000  0.52647000  1.0
  C  C26  1  0.71596000  0.95870000  0.32521000  1.0
  C  C27  1  0.28404000  0.04129000  0.67479000  1.0
  C  C28  1  0.40064000  0.99466000  0.28059000  1.0
  C  C29  1  0.59936000  0.00533000  0.71941000  1.0
  C  C30  1  0.16926000  0.81662000  0.03004000  1.0
  C  C31  1  0.83076000  0.18340000  0.96996000  1.0
  C  C32  1  0.25444000  0.99893000  0.94526000  1.0
  C  C33  1  0.74555000  0.00108000  0.05473000  1.0
  C  C34  1  0.50710000  0.58918000  0.11385000  1.0
  C  C35  1  0.49290000  0.41083000  0.88615000  1.0
  C  C36  1  0.34760000  0.46557000  0.09617000  1.0
  C  C37  1  0.65240000  0.53443000  0.90384000  1.0
  C  C38  1  0.37626000  0.32707000  0.12347000  1.0
  C  C39  1  0.62374000  0.67293000  0.87653000  1.0
  C  C40  1  0.56066000  0.31680000  0.16753000  1.0
  C  C41  1  0.43934000  0.68320000  0.83248000  1.0
  C  C42  1  0.71381000  0.44684000  0.18414000  1.0
  C  C43  1  0.28620000  0.55316000  0.81586000  1.0
  C  C44  1  0.90811000  0.44435000  0.23606000  1.0
  C  C45  1  0.09188000  0.55564000  0.76393000  1.0
  C  C46  1  0.29972000  0.68413000  0.38092000  1.0
  C  C47  1  0.70029000  0.31587000  0.61908000  1.0
  C  C48  1  0.49877000  0.67310000  0.42451000  1.0
  C  C49  1  0.50123000  0.32690000  0.57549000  1.0
  C  C50  1  0.77827000  0.78231000  0.53178000  1.0
  C  C51  1  0.22174000  0.21767000  0.46821000  1.0
  C  C52  1  0.85595000  0.64896000  0.50296000  1.0
  C  C53  1  0.14405000  0.35103000  0.49704000  1.0
  C  C54  1  0.57583000  0.53788000  0.39695000  1.0
  C  C55  1  0.42418000  0.46211000  0.60305000  1.0
  C  C56  1  0.94824000  0.29408000  0.25985000  1.0
  C  C57  1  0.05176000  0.70592000  0.74015000  1.0
  N  N58  1  0.85343000  0.89819000  0.33408000  1.0
  N  N59  1  0.14659000  0.10182000  0.66592000  1.0
  N  N60  1  0.58039000  0.03947000  0.32153000  1.0
  N  N61  1  0.41961000  0.96053000  0.67847000  1.0
  N  N62  1  0.23454000  0.97202000  0.24546000  1.0
  N  N63  1  0.76547000  0.02799000  0.75454000  1.0
  N  N64  1  0.07434000  0.71838000  0.05614000  1.0
  N  N65  1  0.92568000  0.28164000  0.94386000  1.0
  N  N66  1  0.28902000  0.92193000  0.00861000  1.0
  N  N67  1  0.71099000  0.07808000  0.99139000  1.0
  N  N68  1  0.24102000  0.07376000  0.88829000  1.0
  N  N69  1  0.75897000  0.92625000  0.11171000  1.0
  N  N70  1  0.68418000  0.57999000  0.15640000  1.0
  N  N71  1  0.31581000  0.42002000  0.84361000  1.0
  N  N72  1  0.03529000  0.57698000  0.26360000  1.0
  N  N73  1  0.96471000  0.42302000  0.73640000  1.0
  N  N74  1  0.21409000  0.56867000  0.30923000  1.0
  N  N75  1  0.78591000  0.43134000  0.69077000  1.0
  N  N76  1  0.60002000  0.79539000  0.49262000  1.0
  N  N77  1  0.39998000  0.20460000  0.50738000  1.0
  N  N78  1  0.75444000  0.52574000  0.43552000  1.0
  N  N79  1  0.24555000  0.47425000  0.56447000  1.0
  N  N80  1  0.22625000  0.80482000  0.42195000  1.0
  N  N81  1  0.77375000  0.19518000  0.57805000  1.0
