# generated using pymatgen
data_ZnH20C18(N3O2)2
_symmetry_space_group_name_H-M   'P 1'
_cell_length_a   9.67512000
_cell_length_b   9.95908000
_cell_length_c   13.16870000
_cell_angle_alpha   103.90300000
_cell_angle_beta   101.14400000
_cell_angle_gamma   104.08900000
_symmetry_Int_Tables_number   1
_chemical_formula_structural   ZnH20C18(N3O2)2
_chemical_formula_sum   'Zn2 H40 C36 N12 O8'
_cell_volume   1151.14452327
_cell_formula_units_Z   2
loop_
 _symmetry_equiv_pos_site_id
 _symmetry_equiv_pos_as_xyz
  1  'x, y, z'
loop_
 _atom_site_type_symbol
 _atom_site_label
 _atom_site_symmetry_multiplicity
 _atom_site_fract_x
 _atom_site_fract_y
 _atom_site_fract_z
 _atom_site_occupancy
  Zn  Zn0  1  0.54540000  0.41929000  0.19730000  1.0
  Zn  Zn1  1  0.45460000  0.58072000  0.80270000  1.0
  H  H2  1  0.10165000  0.62549000  0.19822000  1.0
  H  H3  1  0.89835000  0.37449000  0.80178000  1.0
  H  H4  1  0.26446000  0.64696000  0.07226000  1.0
  H  H5  1  0.73553000  0.35301000  0.92774000  1.0
  H  H6  1  0.16879000  0.91682000  0.12112000  1.0
  H  H7  1  0.83120000  0.08320000  0.87889000  1.0
  H  H8  1  0.91809000  0.74773000  0.01081000  1.0
  H  H9  1  0.08190000  0.25229000  0.98921000  1.0
  H  H10  1  0.45621000  0.24118000  0.37257000  1.0
  H  H11  1  0.54380000  0.75881000  0.62743000  1.0
  H  H12  1  0.79995000  0.61473000  0.41076000  1.0
  H  H13  1  0.20005000  0.38527000  0.58925000  1.0
  H  H14  1  0.53621000  0.30973000  0.64633000  1.0
  H  H15  1  0.46378000  0.69029000  0.35367000  1.0
  H  H16  1  0.39670000  0.33666000  0.93349000  1.0
  H  H17  1  0.60331000  0.66334000  0.06651000  1.0
  H  H18  1  0.83885000  0.52113000  0.68035000  1.0
  H  H19  1  0.16115000  0.47887000  0.31965000  1.0
  H  H20  1  0.77128000  0.66960000  0.67131000  1.0
  H  H21  1  0.22872000  0.33040000  0.32869000  1.0
  H  H22  1  0.96797000  0.74717000  0.57243000  1.0
  H  H23  1  0.03203000  0.25282000  0.42757000  1.0
  H  H24  1  0.03894000  0.60691000  0.59923000  1.0
  H  H25  1  0.96106000  0.39309000  0.40078000  1.0
  H  H26  1  0.07021000  0.71953000  0.79961000  1.0
  H  H27  1  0.92980000  0.28047000  0.20040000  1.0
  H  H28  1  0.00441000  0.85899000  0.76966000  1.0
  H  H29  1  0.99559000  0.14101000  0.23033000  1.0
  H  H30  1  0.28706000  0.79761000  0.72561000  1.0
  H  H31  1  0.71295000  0.20239000  0.27438000  1.0
  H  H32  1  0.22058000  0.93671000  0.69365000  1.0
  H  H33  1  0.77942000  0.06328000  0.30635000  1.0
  H  H34  1  0.23032000  0.03771000  0.89191000  1.0
  H  H35  1  0.76968000  0.96229000  0.10809000  1.0
  H  H36  1  0.30044000  0.90012000  0.92067000  1.0
  H  H37  1  0.69957000  0.09988000  0.07933000  1.0
  H  H38  1  0.50384000  0.12283000  0.97376000  1.0
  H  H39  1  0.49616000  0.87717000  0.02624000  1.0
  H  H40  1  0.52674000  0.00132000  0.85821000  1.0
  H  H41  1  0.47326000  0.99868000  0.14178000  1.0
  C  C42  1  0.81230000  0.47698000  0.14678000  1.0
  C  C43  1  0.18769000  0.52301000  0.85321000  1.0
  C  C44  1  0.90912000  0.48681000  0.07058000  1.0
  C  C45  1  0.09087000  0.51317000  0.92941000  1.0
  C  C46  1  0.05850000  0.57007000  0.11130000  1.0
  C  C47  1  0.94149000  0.42991000  0.88870000  1.0
  C  C48  1  0.14847000  0.58302000  0.04133000  1.0
  C  C49  1  0.85153000  0.41696000  0.95866000  1.0
  C  C50  1  0.29184000  0.19022000  0.12576000  1.0
  C  C51  1  0.70815000  0.80978000  0.87425000  1.0
  C  C52  1  0.13979000  0.09389000  0.06147000  1.0
  C  C53  1  0.86020000  0.90612000  0.93854000  1.0
  C  C54  1  0.09355000  0.95194000  0.06791000  1.0
  C  C55  1  0.90646000  0.04807000  0.93211000  1.0
  C  C56  1  0.95469000  0.85828000  0.00664000  1.0
  C  C57  1  0.04529000  0.14172000  0.99338000  1.0
  C  C58  1  0.54892000  0.33937000  0.41128000  1.0
  C  C59  1  0.45109000  0.66063000  0.58871000  1.0
  C  C60  1  0.72338000  0.53006000  0.42863000  1.0
  C  C61  1  0.27663000  0.46994000  0.57137000  1.0
  C  C62  1  0.50429000  0.28323000  0.71569000  1.0
  C  C63  1  0.49570000  0.71678000  0.28431000  1.0
  C  C64  1  0.43384000  0.30152000  0.86158000  1.0
  C  C65  1  0.56616000  0.69849000  0.13842000  1.0
  C  C66  1  0.82775000  0.59631000  0.63273000  1.0
  C  C67  1  0.17225000  0.40368000  0.36726000  1.0
  C  C68  1  0.97906000  0.68241000  0.62891000  1.0
  C  C69  1  0.02094000  0.31759000  0.37109000  1.0
  C  C70  1  0.06573000  0.78366000  0.74227000  1.0
  C  C71  1  0.93427000  0.21633000  0.25773000  1.0
  C  C72  1  0.22287000  0.87109000  0.75019000  1.0
  C  C73  1  0.77714000  0.12891000  0.24981000  1.0
  C  C74  1  0.29789000  0.96855000  0.86641000  1.0
  C  C75  1  0.70212000  0.03145000  0.13359000  1.0
  C  C76  1  0.45564000  0.06428000  0.88694000  1.0
  C  C77  1  0.54437000  0.93573000  0.11305000  1.0
  N  N78  1  0.60948000  0.42492000  0.35428000  1.0
  N  N79  1  0.39053000  0.57508000  0.64571000  1.0
  N  N80  1  0.61887000  0.38680000  0.51611000  1.0
  N  N81  1  0.38113000  0.61320000  0.48389000  1.0
  N  N82  1  0.72954000  0.50777000  0.52563000  1.0
  N  N83  1  0.27046000  0.49222000  0.47436000  1.0
  N  N84  1  0.45893000  0.37301000  0.78955000  1.0
  N  N85  1  0.54107000  0.62700000  0.21045000  1.0
  N  N86  1  0.50833000  0.16132000  0.73847000  1.0
  N  N87  1  0.49167000  0.83869000  0.26152000  1.0
  N  N88  1  0.46367000  0.17539000  0.83146000  1.0
  N  N89  1  0.53633000  0.82462000  0.16854000  1.0
  O  O90  1  0.67685000  0.39088000  0.10249000  1.0
  O  O91  1  0.32314000  0.60913000  0.89751000  1.0
  O  O92  1  0.86213000  0.54975000  0.24483000  1.0
  O  O93  1  0.13786000  0.45023000  0.75517000  1.0
  O  O94  1  0.34225000  0.30880000  0.10174000  1.0
  O  O95  1  0.65774000  0.69121000  0.89827000  1.0
  O  O96  1  0.36484000  0.15361000  0.19827000  1.0
  O  O97  1  0.63517000  0.84639000  0.80172000  1.0
