# generated using pymatgen
data_CuH9C9N5Cl
_symmetry_space_group_name_H-M   'P 1'
_cell_length_a   7.22933000
_cell_length_b   7.53636000
_cell_length_c   9.93528000
_cell_angle_alpha   81.19430000
_cell_angle_beta   76.93490000
_cell_angle_gamma   84.62910000
_symmetry_Int_Tables_number   1
_chemical_formula_structural   CuH9C9N5Cl
_chemical_formula_sum   'Cu2 H18 C18 N10 Cl2'
_cell_volume   520.09536594
_cell_formula_units_Z   2
loop_
 _symmetry_equiv_pos_site_id
 _symmetry_equiv_pos_as_xyz
  1  'x, y, z'
loop_
 _atom_site_type_symbol
 _atom_site_label
 _atom_site_symmetry_multiplicity
 _atom_site_fract_x
 _atom_site_fract_y
 _atom_site_fract_z
 _atom_site_occupancy
  Cu  Cu0  1  0.16312000  0.83198000  0.38558000  1.0
  Cu  Cu1  1  0.83688000  0.16802000  0.61442000  1.0
  H  H2  1  0.54169000  0.98025000  0.30705000  1.0
  H  H3  1  0.45831000  0.01975000  0.69295000  1.0
  H  H4  1  0.71222000  0.19947000  0.11475000  1.0
  H  H5  1  0.28778000  0.80053000  0.88525000  1.0
  H  H6  1  0.54310000  0.35506000  0.93323000  1.0
  H  H7  1  0.45690000  0.64494000  0.06677000  1.0
  H  H8  1  0.05728000  0.04846000  0.14143000  1.0
  H  H9  1  0.94272000  0.95154000  0.85857000  1.0
  H  H10  1  0.11988000  0.76506000  0.69481000  1.0
  H  H11  1  0.88012000  0.23494000  0.30519000  1.0
  H  H12  1  0.92400000  0.66843000  0.65918000  1.0
  H  H13  1  0.07600000  0.33157000  0.34082000  1.0
  H  H14  1  0.16027000  0.49361000  0.48346000  1.0
  H  H15  1  0.83973000  0.50639000  0.51654000  1.0
  H  H16  1  0.42835000  0.77326000  0.51999000  1.0
  H  H17  1  0.57165000  0.22675000  0.48001000  1.0
  H  H18  1  0.46909000  0.62701000  0.38083000  1.0
  H  H19  1  0.53091000  0.37299000  0.61917000  1.0
  C  C20  1  0.47130000  0.04951000  0.22596000  1.0
  C  C21  1  0.52870000  0.95049000  0.77404000  1.0
  C  C22  1  0.56558000  0.17244000  0.11966000  1.0
  C  C23  1  0.43442000  0.82756000  0.88034000  1.0
  C  C24  1  0.47192000  0.25829000  0.01762000  1.0
  C  C25  1  0.52808000  0.74171000  0.98239000  1.0
  C  C26  1  0.20092000  0.08845000  0.13302000  1.0
  C  C27  1  0.79908000  0.91155000  0.86698000  1.0
  C  C28  1  0.28429000  0.21753000  0.02491000  1.0
  C  C29  1  0.71571000  0.78247000  0.97509000  1.0
  C  C30  1  0.07516000  0.64591000  0.66234000  1.0
  C  C31  1  0.92484000  0.35409000  0.33767000  1.0
  C  C32  1  0.17333000  0.31087000  0.92680000  1.0
  C  C33  1  0.82667000  0.68913000  0.07321000  1.0
  C  C34  1  0.19501000  0.61079000  0.52320000  1.0
  C  C35  1  0.80499000  0.38921000  0.47680000  1.0
  C  C36  1  0.36937000  0.68455000  0.46523000  1.0
  C  C37  1  0.63063000  0.31545000  0.53477000  1.0
  N  N38  1  0.29165000  0.00733000  0.23219000  1.0
  N  N39  1  0.70835000  0.99267000  0.76781000  1.0
  N  N40  1  0.08375000  0.49444000  0.77281000  1.0
  N  N41  1  0.91625000  0.50556000  0.22719000  1.0
  N  N42  1  0.23732000  0.44302000  0.82423000  1.0
  N  N43  1  0.76268000  0.55698000  0.17577000  1.0
  N  N44  1  0.98685000  0.28496000  0.93489000  1.0
  N  N45  1  0.01315000  0.71504000  0.06511000  1.0
  N  N46  1  0.93173000  0.40207000  0.83659000  1.0
  N  N47  1  0.06827000  0.59794000  0.16341000  1.0
  Cl  Cl48  1  0.84947000  0.88593000  0.40300000  1.0
  Cl  Cl49  1  0.15053000  0.11407000  0.59700000  1.0
