# generated using pymatgen
data_ErH8C6O7
_symmetry_space_group_name_H-M   'P 1'
_cell_length_a   7.60028000
_cell_length_b   10.64181767
_cell_length_c   12.63730000
_cell_angle_alpha   72.05084221
_cell_angle_beta   72.51100000
_cell_angle_gamma   69.08360950
_symmetry_Int_Tables_number   1
_chemical_formula_structural   ErH8C6O7
_chemical_formula_sum   'Er4 H32 C24 O28'
_cell_volume   887.17534739
_cell_formula_units_Z   4
loop_
 _symmetry_equiv_pos_site_id
 _symmetry_equiv_pos_as_xyz
  1  'x, y, z'
loop_
 _atom_site_type_symbol
 _atom_site_label
 _atom_site_symmetry_multiplicity
 _atom_site_fract_x
 _atom_site_fract_y
 _atom_site_fract_z
 _atom_site_occupancy
  Er  Er0  1  0.55372000  0.68947000  0.77039000  1.0
  Er  Er1  1  0.01352000  0.81058000  0.72966000  1.0
  Er  Er2  1  0.44628000  0.31053000  0.22961000  1.0
  Er  Er3  1  0.98648000  0.18942000  0.27034000  1.0
  H  H4  1  0.98672000  0.86444000  0.04043000  1.0
  H  H5  1  0.89149000  0.63555000  0.45963000  1.0
  H  H6  1  0.01327000  0.13556000  0.95957000  1.0
  H  H7  1  0.10851000  0.36445000  0.54037000  1.0
  H  H8  1  0.13185000  0.74266000  0.13696000  1.0
  H  H9  1  0.01140000  0.75728000  0.36309000  1.0
  H  H10  1  0.86815000  0.25734000  0.86304000  1.0
  H  H11  1  0.98860000  0.24272000  0.63691000  1.0
  H  H12  1  0.80834000  0.70178000  0.15045000  1.0
  H  H13  1  0.66062000  0.79816000  0.34958000  1.0
  H  H14  1  0.19166000  0.29822000  0.84955000  1.0
  H  H15  1  0.33939000  0.20184000  0.65041000  1.0
  H  H16  1  0.90288000  0.66399000  0.01519000  1.0
  H  H17  1  0.58209000  0.83600000  0.48483000  1.0
  H  H18  1  0.09713000  0.33600000  0.98481000  1.0
  H  H19  1  0.41791000  0.16400000  0.51517000  1.0
  H  H20  1  0.34336000  0.63733000  0.46861000  1.0
  H  H21  1  0.44931000  0.86268000  0.03127000  1.0
  H  H22  1  0.65664000  0.36267000  0.53139000  1.0
  H  H23  1  0.55069000  0.13732000  0.96873000  1.0
  H  H24  1  0.30209000  0.50092000  0.58199000  1.0
  H  H25  1  0.38500000  0.99918000  0.91793000  1.0
  H  H26  1  0.69791000  0.49908000  0.41801000  1.0
  H  H27  1  0.61500000  0.00082000  0.08207000  1.0
  H  H28  1  0.30626000  0.50485000  0.85274000  1.0
  H  H29  1  0.66385000  0.99519000  0.64717000  1.0
  H  H30  1  0.69375000  0.49515000  0.14726000  1.0
  H  H31  1  0.33615000  0.00481000  0.35283000  1.0
  H  H32  1  0.49285000  0.42279000  0.91216000  1.0
  H  H33  1  0.82781000  0.07722000  0.58780000  1.0
  H  H34  1  0.50715000  0.57720000  0.08784000  1.0
  H  H35  1  0.17219000  0.92278000  0.41220000  1.0
  C  C36  1  0.24018000  0.73188000  0.96271000  1.0
  C  C37  1  0.93491000  0.76803000  0.53736000  1.0
  C  C38  1  0.75982000  0.26812000  0.03729000  1.0
  C  C39  1  0.06509000  0.23197000  0.46264000  1.0
  C  C40  1  0.07374000  0.75657000  0.06320000  1.0
  C  C41  1  0.89348000  0.74340000  0.43686000  1.0
  C  C42  1  0.92626000  0.24343000  0.93680000  1.0
  C  C43  1  0.10653000  0.25660000  0.56314000  1.0
  C  C44  1  0.94442000  0.66292000  0.09170000  1.0
  C  C45  1  0.69907000  0.83705000  0.40833000  1.0
  C  C46  1  0.05559000  0.33707000  0.90830000  1.0
  C  C47  1  0.30094000  0.16294000  0.59167000  1.0
  C  C48  1  0.03548000  0.51309000  0.14624000  1.0
  C  C49  1  0.69485000  0.98690000  0.35373000  1.0
  C  C50  1  0.96452000  0.48691000  0.85376000  1.0
  C  C51  1  0.30515000  0.01310000  0.64627000  1.0
  C  C52  1  0.46998000  0.60661000  0.60636000  1.0
  C  C53  1  0.68293000  0.89352000  0.89360000  1.0
  C  C54  1  0.53002000  0.39339000  0.39364000  1.0
  C  C55  1  0.31707000  0.10648000  0.10640000  1.0
  C  C56  1  0.41502000  0.55016000  0.52978000  1.0
  C  C57  1  0.49492000  0.94991000  0.97017000  1.0
  C  C58  1  0.58497000  0.44985000  0.47022000  1.0
  C  C59  1  0.50507000  0.05010000  0.02983000  1.0
  O  O60  1  0.21024000  0.76578000  0.86135000  1.0
  O  O61  1  0.83763000  0.73404000  0.63872000  1.0
  O  O62  1  0.78976000  0.23422000  0.13865000  1.0
  O  O63  1  0.16237000  0.26596000  0.36128000  1.0
  O  O64  1  0.41399000  0.68074000  0.97429000  1.0
  O  O65  1  0.06907000  0.81927000  0.52577000  1.0
  O  O66  1  0.58601000  0.31926000  0.02571000  1.0
  O  O67  1  0.93093000  0.18073000  0.47423000  1.0
  O  O68  1  0.20409000  0.48138000  0.16128000  1.0
  O  O69  1  0.84693000  0.01852000  0.33843000  1.0
  O  O70  1  0.79591000  0.51862000  0.83872000  1.0
  O  O71  1  0.15307000  0.98148000  0.66157000  1.0
  O  O72  1  0.93529000  0.42883000  0.17308000  1.0
  O  O73  1  0.53713000  0.07119000  0.32703000  1.0
  O  O74  1  0.06471000  0.57117000  0.82692000  1.0
  O  O75  1  0.46287000  0.92881000  0.67298000  1.0
  O  O76  1  0.33924000  0.69599000  0.66048000  1.0
  O  O77  1  0.69576000  0.80412000  0.83945000  1.0
  O  O78  1  0.66076000  0.30401000  0.33952000  1.0
  O  O79  1  0.30424000  0.19588000  0.16055000  1.0
  O  O80  1  0.64092000  0.56923000  0.61928000  1.0
  O  O81  1  0.82931000  0.93096000  0.88072000  1.0
  O  O82  1  0.35908000  0.43077000  0.38072000  1.0
  O  O83  1  0.17069000  0.06904000  0.11928000  1.0
  O  O84  1  0.44574000  0.48917000  0.84446000  1.0
  O  O85  1  0.77932000  0.01087000  0.65550000  1.0
  O  O86  1  0.55427000  0.51082000  0.15554000  1.0
  O  O87  1  0.22068000  0.98913000  0.34450000  1.0
