# generated using pymatgen
data_H16RuC22N(ClO3)2
_symmetry_space_group_name_H-M   'P 1'
_cell_length_a   9.79574000
_cell_length_b   10.78710000
_cell_length_c   10.99490000
_cell_angle_alpha   100.78200000
_cell_angle_beta   93.32260000
_cell_angle_gamma   106.20100000
_symmetry_Int_Tables_number   1
_chemical_formula_structural   H16RuC22N(ClO3)2
_chemical_formula_sum   'H32 Ru2 C44 N2 Cl4 O12'
_cell_volume   1088.47494893
_cell_formula_units_Z   2
loop_
 _symmetry_equiv_pos_site_id
 _symmetry_equiv_pos_as_xyz
  1  'x, y, z'
loop_
 _atom_site_type_symbol
 _atom_site_label
 _atom_site_symmetry_multiplicity
 _atom_site_fract_x
 _atom_site_fract_y
 _atom_site_fract_z
 _atom_site_occupancy
  H  H0  1  0.68583000  0.77464000  0.34386000  1.0
  H  H1  1  0.31453000  0.22557000  0.65628000  1.0
  H  H2  1  0.76252000  0.65850000  0.15636000  1.0
  H  H3  1  0.23761000  0.34163000  0.84363000  1.0
  H  H4  1  0.01958000  0.72795000  0.11612000  1.0
  H  H5  1  0.98053000  0.27210000  0.88378000  1.0
  H  H6  1  0.19786000  0.90265000  0.26969000  1.0
  H  H7  1  0.80236000  0.09730000  0.73011000  1.0
  H  H8  1  0.55589000  0.36270000  0.37311000  1.0
  H  H9  1  0.44409000  0.63747000  0.62689000  1.0
  H  H10  1  0.69434000  0.49509000  0.33733000  1.0
  H  H11  1  0.30566000  0.50501000  0.66266000  1.0
  H  H12  1  0.54683000  0.40095000  0.22117000  1.0
  H  H13  1  0.45322000  0.59907000  0.77878000  1.0
  H  H14  1  0.33466000  0.29006000  0.29443000  1.0
  H  H15  1  0.66535000  0.70996000  0.70552000  1.0
  H  H16  1  0.94827000  0.40065000  0.34065000  1.0
  H  H17  1  0.05166000  0.59922000  0.65934000  1.0
  H  H18  1  0.09366000  0.63699000  0.40744000  1.0
  H  H19  1  0.90624000  0.36293000  0.59233000  1.0
  H  H20  1  0.23372000  0.03045000  0.89497000  1.0
  H  H21  1  0.76636000  0.96956000  0.10506000  1.0
  H  H22  1  0.11192000  0.98021000  0.00454000  1.0
  H  H23  1  0.88813000  0.01982000  0.99547000  1.0
  H  H24  1  0.19204000  0.15281000  0.00969000  1.0
  H  H25  1  0.80791000  0.84721000  0.99022000  1.0
  H  H26  1  0.41236000  0.21118000  0.92188000  1.0
  H  H27  1  0.58768000  0.78883000  0.07810000  1.0
  H  H28  1  0.84960000  0.34277000  0.09328000  1.0
  H  H29  1  0.15045000  0.65715000  0.90670000  1.0
  H  H30  1  0.77948000  0.19701000  0.24535000  1.0
  H  H31  1  0.22056000  0.80313000  0.75476000  1.0
  Ru  Ru32  1  0.61146000  0.97984000  0.50069000  1.0
  Ru  Ru33  1  0.38781000  0.02040000  0.49903000  1.0
  C  C34  1  0.89752000  0.90577000  0.41582000  1.0
  C  C35  1  0.10301000  0.09400000  0.58444000  1.0
  C  C36  1  0.79746000  0.80289000  0.32694000  1.0
  C  C37  1  0.20288000  0.19713000  0.67316000  1.0
  C  C38  1  0.84090000  0.73817000  0.22270000  1.0
  C  C39  1  0.15934000  0.26185000  0.77735000  1.0
  C  C40  1  0.98609000  0.77575000  0.20083000  1.0
  C  C41  1  0.01413000  0.22420000  0.79917000  1.0
  C  C42  1  0.08664000  0.87222000  0.28696000  1.0
  C  C43  1  0.91365000  0.12772000  0.71302000  1.0
  C  C44  1  0.04754000  0.93611000  0.39899000  1.0
  C  C45  1  0.95293000  0.06357000  0.60118000  1.0
  C  C46  1  0.37189000  0.74215000  0.42758000  1.0
  C  C47  1  0.62786000  0.25784000  0.57215000  1.0
  C  C48  1  0.29591000  0.59958000  0.39028000  1.0
  C  C49  1  0.70393000  0.40038000  0.60924000  1.0
  C  C50  1  0.36600000  0.50091000  0.35795000  1.0
  C  C51  1  0.63392000  0.49911000  0.64177000  1.0
  C  C52  1  0.57978000  0.44238000  0.32122000  1.0
  C  C53  1  0.42021000  0.55774000  0.67872000  1.0
  C  C54  1  0.28442000  0.36805000  0.31827000  1.0
  C  C55  1  0.71554000  0.63194000  0.68163000  1.0
  C  C56  1  0.13585000  0.33464000  0.31164000  1.0
  C  C57  1  0.86410000  0.66529000  0.68829000  1.0
  C  C58  1  0.06438000  0.42914000  0.34499000  1.0
  C  C59  1  0.93552000  0.57075000  0.65492000  1.0
  C  C60  1  0.14587000  0.56037000  0.38330000  1.0
  C  C61  1  0.85400000  0.43957000  0.61639000  1.0
  C  C62  1  0.52556000  0.05669000  0.27740000  1.0
  C  C63  1  0.47420000  0.94365000  0.72274000  1.0
  C  C64  1  0.55826000  0.12473000  0.17300000  1.0
  C  C65  1  0.44168000  0.87564000  0.82727000  1.0
  C  C66  1  0.45252000  0.12743000  0.08072000  1.0
  C  C67  1  0.54747000  0.87278000  0.91943000  1.0
  C  C68  1  0.20834000  0.05448000  0.99101000  1.0
  C  C69  1  0.79167000  0.94558000  0.00899000  1.0
  C  C70  1  0.49106000  0.20813000  0.99433000  1.0
  C  C71  1  0.50895000  0.79192000  0.00569000  1.0
  C  C72  1  0.63317000  0.28471000  0.00102000  1.0
  C  C73  1  0.36687000  0.71530000  0.99900000  1.0
  C  C74  1  0.73962000  0.28158000  0.08934000  1.0
  C  C75  1  0.26041000  0.71842000  0.91066000  1.0
  C  C76  1  0.69992000  0.20069000  0.17391000  1.0
  C  C77  1  0.30010000  0.79945000  0.82622000  1.0
  N  N78  1  0.85027000  0.97269000  0.51464000  1.0
  N  N79  1  0.15037000  0.02682000  0.48573000  1.0
  Cl  Cl80  1  0.03896000  0.17040000  0.26010000  1.0
  Cl  Cl81  1  0.96107000  0.82945000  0.74010000  1.0
  Cl  Cl82  1  0.67782000  0.38746000  0.89691000  1.0
  Cl  Cl83  1  0.32227000  0.61250000  0.10309000  1.0
  O  O84  1  0.50946000  0.78296000  0.44409000  1.0
  O  O85  1  0.49026000  0.21703000  0.55640000  1.0
  O  O86  1  0.29457000  0.82113000  0.44362000  1.0
  O  O87  1  0.70503000  0.17864000  0.55678000  1.0
  O  O88  1  0.51033000  0.53989000  0.36544000  1.0
  O  O89  1  0.48959000  0.46020000  0.63435000  1.0
  O  O90  1  0.62173000  0.01234000  0.32293000  1.0
  O  O91  1  0.37754000  0.98724000  0.67704000  1.0
  O  O92  1  0.40786000  0.05463000  0.32384000  1.0
  O  O93  1  0.59161000  0.94521000  0.67603000  1.0
  O  O94  1  0.31828000  0.04853000  0.07970000  1.0
  O  O95  1  0.68173000  0.95167000  0.92041000  1.0
