# generated using pymatgen
data_CuP2H10(C4O3)2
_symmetry_space_group_name_H-M   'P 1'
_cell_length_a   6.62591000
_cell_length_b   9.77807000
_cell_length_c   10.04995125
_cell_angle_alpha   91.73764589
_cell_angle_beta   109.23144653
_cell_angle_gamma   90.01070000
_symmetry_Int_Tables_number   1
_chemical_formula_structural   CuP2H10(C4O3)2
_chemical_formula_sum   'Cu2 P4 H20 C16 O12'
_cell_volume   614.46855988
_cell_formula_units_Z   2
loop_
 _symmetry_equiv_pos_site_id
 _symmetry_equiv_pos_as_xyz
  1  'x, y, z'
loop_
 _atom_site_type_symbol
 _atom_site_label
 _atom_site_symmetry_multiplicity
 _atom_site_fract_x
 _atom_site_fract_y
 _atom_site_fract_z
 _atom_site_occupancy
  Cu  Cu0  1  0.06850000  0.75003000  0.99995000  1.0
  Cu  Cu1  1  0.93149000  0.24997000  0.00005000  1.0
  P  P2  1  0.12183000  0.00727000  0.20273000  1.0
  P  P3  1  0.91897000  0.49271000  0.79730000  1.0
  P  P4  1  0.87817000  0.99274000  0.79727000  1.0
  P  P5  1  0.08106000  0.50728000  0.20270000  1.0
  H  H6  1  0.37642000  0.22443000  0.39311000  1.0
  H  H7  1  0.33166000  0.78431000  0.37429000  1.0
  H  H8  1  0.80755000  0.03253000  0.36697000  1.0
  H  H9  1  0.61609000  0.93340000  0.22961000  1.0
  H  H10  1  0.70589000  0.09494000  0.19086000  1.0
  H  H11  1  0.98390000  0.27555000  0.60714000  1.0
  H  H12  1  0.95602000  0.71560000  0.62534000  1.0
  H  H13  1  0.44055000  0.46773000  0.63327000  1.0
  H  H14  1  0.38651000  0.56684000  0.77067000  1.0
  H  H15  1  0.51461000  0.40521000  0.80936000  1.0
  H  H16  1  0.62357000  0.77559000  0.60688000  1.0
  H  H17  1  0.66831000  0.21570000  0.62572000  1.0
  H  H18  1  0.19242000  0.96749000  0.63302000  1.0
  H  H19  1  0.38391000  0.06661000  0.77037000  1.0
  H  H20  1  0.29412000  0.90506000  0.80911000  1.0
  H  H21  1  0.01611000  0.72445000  0.39287000  1.0
  H  H22  1  0.04395000  0.28441000  0.37467000  1.0
  H  H23  1  0.55945000  0.53225000  0.36673000  1.0
  H  H24  1  0.61350000  0.43316000  0.22933000  1.0
  H  H25  1  0.48542000  0.59479000  0.19064000  1.0
  C  C26  1  0.33152000  0.00509000  0.37172000  1.0
  C  C27  1  0.42939000  0.12659000  0.44120000  1.0
  C  C28  1  0.40429000  0.87853000  0.43069000  1.0
  C  C29  1  0.75292000  0.00349000  0.25406000  1.0
  C  C30  1  0.95965000  0.49488000  0.62826000  1.0
  C  C31  1  0.98862000  0.37336000  0.55897000  1.0
  C  C32  1  0.97291000  0.62140000  0.56906000  1.0
  C  C33  1  0.49877000  0.49668000  0.74620000  1.0
  C  C34  1  0.66847000  0.99493000  0.62828000  1.0
  C  C35  1  0.57061000  0.87340000  0.55881000  1.0
  C  C36  1  0.59570000  0.12148000  0.56930000  1.0
  C  C37  1  0.24709000  0.99651000  0.74593000  1.0
  C  C38  1  0.04038000  0.50512000  0.37175000  1.0
  C  C39  1  0.01137000  0.62664000  0.44103000  1.0
  C  C40  1  0.02712000  0.37859000  0.43095000  1.0
  C  C41  1  0.50122000  0.50331000  0.25379000  1.0
  O  O42  1  0.19559000  0.91907000  0.10035000  1.0
  O  O43  1  0.91741000  0.93004000  0.21760000  1.0
  O  O44  1  0.07526000  0.15776000  0.17241000  1.0
  O  O45  1  0.09519000  0.58091000  0.89962000  1.0
  O  O46  1  0.69985000  0.56998000  0.78271000  1.0
  O  O47  1  0.90264000  0.34221000  0.82760000  1.0
  O  O48  1  0.80442000  0.08093000  0.89966000  1.0
  O  O49  1  0.08261000  0.06994000  0.78242000  1.0
  O  O50  1  0.92471000  0.84223000  0.82758000  1.0
  O  O51  1  0.90481000  0.41909000  0.10040000  1.0
  O  O52  1  0.30012000  0.43005000  0.21726000  1.0
  O  O53  1  0.09734000  0.65778000  0.17240000  1.0
