# generated using pymatgen
data_CoH8(C4O3)2
_symmetry_space_group_name_H-M   'P 1'
_cell_length_a   6.46600000
_cell_length_b   7.47362000
_cell_length_c   9.44076219
_cell_angle_alpha   80.34388020
_cell_angle_beta   70.42747057
_cell_angle_gamma   88.41550000
_symmetry_Int_Tables_number   1
_chemical_formula_structural   CoH8(C4O3)2
_chemical_formula_sum   'Co2 H16 C16 O12'
_cell_volume   423.56801971
_cell_formula_units_Z   2
loop_
 _symmetry_equiv_pos_site_id
 _symmetry_equiv_pos_as_xyz
  1  'x, y, z'
loop_
 _atom_site_type_symbol
 _atom_site_label
 _atom_site_symmetry_multiplicity
 _atom_site_fract_x
 _atom_site_fract_y
 _atom_site_fract_z
 _atom_site_occupancy
  Co  Co0  1  0.00000000  0.00001000  0.50000000  1.0
  Co  Co1  1  0.50000000  0.49999000  0.50000000  1.0
  H  H2  1  0.73939000  0.08359000  0.85766000  1.0
  H  H3  1  0.39936000  0.55839000  0.85776000  1.0
  H  H4  1  0.26059000  0.91643000  0.14236000  1.0
  H  H5  1  0.60065000  0.44159000  0.14222000  1.0
  H  H6  1  0.39001000  0.10631000  0.88031000  1.0
  H  H7  1  0.72722000  0.63248000  0.88260000  1.0
  H  H8  1  0.60998000  0.89370000  0.11970000  1.0
  H  H9  1  0.27278000  0.36751000  0.11739000  1.0
  H  H10  1  0.63569000  0.10468000  0.53131000  1.0
  H  H11  1  0.83458000  0.60220000  0.53974000  1.0
  H  H12  1  0.36432000  0.89532000  0.46868000  1.0
  H  H13  1  0.16543000  0.39780000  0.46025000  1.0
  H  H14  1  0.59506000  0.89464000  0.61413000  1.0
  H  H15  1  0.81743000  0.39446000  0.62273000  1.0
  H  H16  1  0.40496000  0.10537000  0.38586000  1.0
  H  H17  1  0.18259000  0.60554000  0.37727000  1.0
  C  C18  1  0.07166000  0.10657000  0.85550000  1.0
  C  C19  1  0.07056000  0.60857000  0.85515000  1.0
  C  C20  1  0.92833000  0.89344000  0.14451000  1.0
  C  C21  1  0.92944000  0.39143000  0.14485000  1.0
  C  C22  1  0.85113000  0.04779000  0.92164000  1.0
  C  C23  1  0.22498000  0.53380000  0.92133000  1.0
  C  C24  1  0.14887000  0.95222000  0.07837000  1.0
  C  C25  1  0.77503000  0.46619000  0.07866000  1.0
  C  C26  1  0.21984000  0.05816000  0.93439000  1.0
  C  C27  1  0.84524000  0.57347000  0.93506000  1.0
  C  C28  1  0.78013000  0.94184000  0.06563000  1.0
  C  C29  1  0.15477000  0.42653000  0.06493000  1.0
  C  C30  1  0.15056000  0.22413000  0.70358000  1.0
  C  C31  1  0.14313000  0.72820000  0.70371000  1.0
  C  C32  1  0.84942000  0.77588000  0.29643000  1.0
  C  C33  1  0.85687000  0.27179000  0.29629000  1.0
  O  O34  1  0.03164000  0.24128000  0.61626000  1.0
  O  O35  1  0.34696000  0.73714000  0.61695000  1.0
  O  O36  1  0.96835000  0.75873000  0.38375000  1.0
  O  O37  1  0.65303000  0.26285000  0.38303000  1.0
  O  O38  1  0.33726000  0.30312000  0.66617000  1.0
  O  O39  1  0.99319000  0.82038000  0.66799000  1.0
  O  O40  1  0.66274000  0.69688000  0.33383000  1.0
  O  O41  1  0.00682000  0.17964000  0.33201000  1.0
  O  O42  1  0.68220000  0.00607000  0.60077000  1.0
  O  O43  1  0.72963000  0.50235000  0.60773000  1.0
  O  O44  1  0.31781000  0.99394000  0.39923000  1.0
  O  O45  1  0.27038000  0.49764000  0.39226000  1.0
