# generated using pymatgen
data_Cu3H16C22(N3O7)2
_symmetry_space_group_name_H-M   'P 1'
_cell_length_a   7.56989000
_cell_length_b   9.70543000
_cell_length_c   10.22200000
_cell_angle_alpha   114.28500000
_cell_angle_beta   111.67600000
_cell_angle_gamma   90.90980000
_symmetry_Int_Tables_number   1
_chemical_formula_structural   Cu3H16C22(N3O7)2
_chemical_formula_sum   'Cu3 H16 C22 N6 O14'
_cell_volume   623.53445229
_cell_formula_units_Z   1
loop_
 _symmetry_equiv_pos_site_id
 _symmetry_equiv_pos_as_xyz
  1  'x, y, z'
loop_
 _atom_site_type_symbol
 _atom_site_label
 _atom_site_symmetry_multiplicity
 _atom_site_fract_x
 _atom_site_fract_y
 _atom_site_fract_z
 _atom_site_occupancy
  Cu  Cu0  1  0.00140000  0.50199000  0.99950000  1.0
  Cu  Cu1  1  0.75721000  0.18634000  0.93989000  1.0
  Cu  Cu2  1  0.24037000  0.81249000  0.05904000  1.0
  H  H3  1  0.42924000  0.39109000  0.16995000  1.0
  H  H4  1  0.57345000  0.60825000  0.83081000  1.0
  H  H5  1  0.44119000  0.77980000  0.58119000  1.0
  H  H6  1  0.56018000  0.21891000  0.41917000  1.0
  H  H7  1  0.86337000  0.80392000  0.39717000  1.0
  H  H8  1  0.13618000  0.19707000  0.60198000  1.0
  H  H9  1  0.76220000  0.25395000  0.27403000  1.0
  H  H10  1  0.23553000  0.74624000  0.72543000  1.0
  H  H11  1  0.78264000  0.01990000  0.36504000  1.0
  H  H12  1  0.21635000  0.98069000  0.63514000  1.0
  H  H13  1  0.76298000  0.84422000  0.90309000  1.0
  H  H14  1  0.23424000  0.15556000  0.09659000  1.0
  H  H15  1  0.78857000  0.78209000  0.13000000  1.0
  H  H16  1  0.20969000  0.21807000  0.87018000  1.0
  H  H17  1  0.85061000  0.24366000  0.76881000  1.0
  H  H18  1  0.15497000  0.75724000  0.23382000  1.0
  C  C19  1  0.73169000  0.50556000  0.14986000  1.0
  C  C20  1  0.26663000  0.49538000  0.84761000  1.0
  C  C21  1  0.65428000  0.58892000  0.27082000  1.0
  C  C22  1  0.34682000  0.41131000  0.72908000  1.0
  C  C23  1  0.49377000  0.50768000  0.26265000  1.0
  C  C24  1  0.50863000  0.49171000  0.73816000  1.0
  C  C25  1  0.41812000  0.57862000  0.37305000  1.0
  C  C26  1  0.58454000  0.42010000  0.62808000  1.0
  C  C27  1  0.50175000  0.72648000  0.49524000  1.0
  C  C28  1  0.50003000  0.27247000  0.50537000  1.0
  C  C29  1  0.66152000  0.80815000  0.50238000  1.0
  C  C30  1  0.33910000  0.19161000  0.49767000  1.0
  C  C31  1  0.73673000  0.74036000  0.38929000  1.0
  C  C32  1  0.26374000  0.26004000  0.61045000  1.0
  C  C33  1  0.74441000  0.97104000  0.63076000  1.0
  C  C34  1  0.25359000  0.02934000  0.36844000  1.0
  C  C35  1  0.76228000  0.13341000  0.20973000  1.0
  C  C36  1  0.23559000  0.86677000  0.78994000  1.0
  C  C37  1  0.77165000  0.01808000  0.25534000  1.0
  C  C38  1  0.22671000  0.98226000  0.74461000  1.0
  C  C39  1  0.76301000  0.92375000  0.01464000  1.0
  C  C40  1  0.23446000  0.07619000  0.98510000  1.0
  N  N41  1  0.23774000  0.49888000  0.35353000  1.0
  N  N42  1  0.76504000  0.49988000  0.64809000  1.0
  N  N43  1  0.75622000  0.07290000  0.05931000  1.0
  N  N44  1  0.24106000  0.92696000  0.94018000  1.0
  N  N45  1  0.77163000  0.88724000  0.13064000  1.0
  N  N46  1  0.22644000  0.11293000  0.86937000  1.0
  O  O47  1  0.82211000  0.31308000  0.85923000  1.0
  O  O48  1  0.18845000  0.68678000  0.14677000  1.0
  O  O49  1  0.68231000  0.36002000  0.08402000  1.0
  O  O50  1  0.31463000  0.64079000  0.91241000  1.0
  O  O51  1  0.83723000  0.58607000  0.12273000  1.0
  O  O52  1  0.15866000  0.41480000  0.87274000  1.0
  O  O53  1  0.72179000  0.99334000  0.75673000  1.0
  O  O54  1  0.27264000  0.00729000  0.24136000  1.0
  O  O55  1  0.82168000  0.06900000  0.60735000  1.0
  O  O56  1  0.17715000  0.93136000  0.39243000  1.0
  O  O57  1  0.17854000  0.55566000  0.45854000  1.0
  O  O58  1  0.82495000  0.44349000  0.54353000  1.0
  O  O59  1  0.14906000  0.37878000  0.22846000  1.0
  O  O60  1  0.85325000  0.62004000  0.77348000  1.0
