# generated using pymatgen
data_ZnH8C12(IN2)2
_symmetry_space_group_name_H-M   'P 1'
_cell_length_a   8.09767000
_cell_length_b   17.87101023
_cell_length_c   20.10164622
_cell_angle_alpha   87.39058432
_cell_angle_beta   78.38554831
_cell_angle_gamma   76.92788712
_symmetry_Int_Tables_number   1
_chemical_formula_structural   ZnH8C12(IN2)2
_chemical_formula_sum   'Zn6 H48 C72 I12 N24'
_cell_volume   2775.57829593
_cell_formula_units_Z   6
loop_
 _symmetry_equiv_pos_site_id
 _symmetry_equiv_pos_as_xyz
  1  'x, y, z'
loop_
 _atom_site_type_symbol
 _atom_site_label
 _atom_site_symmetry_multiplicity
 _atom_site_fract_x
 _atom_site_fract_y
 _atom_site_fract_z
 _atom_site_occupancy
  Zn  Zn0  1  0.68535000  0.00754000  0.36161000  1.0
  Zn  Zn1  1  0.05411000  0.99257000  0.63841000  1.0
  Zn  Zn2  1  0.79675000  0.50736000  0.13829000  1.0
  Zn  Zn3  1  0.44261000  0.49248000  0.86165000  1.0
  Zn  Zn4  1  0.97835000  0.49994000  0.50014000  1.0
  Zn  Zn5  1  0.22871000  0.00009000  0.00009000  1.0
  H  H6  1  0.76098000  0.65666000  0.48314000  1.0
  H  H7  1  0.44172000  0.71882000  0.50738000  1.0
  H  H8  1  0.36183000  0.52964000  0.64152000  1.0
  H  H9  1  0.68343000  0.47531000  0.61241000  1.0
  H  H10  1  0.02175000  0.94884000  0.40758000  1.0
  H  H11  1  0.14581000  0.84259000  0.48084000  1.0
  H  H12  1  0.62800000  0.80984000  0.55442000  1.0
  H  H13  1  0.52497000  0.91402000  0.47495000  1.0
  H  H14  1  0.38427000  0.64074000  0.77796000  1.0
  H  H15  1  0.56922000  0.71431000  0.69687000  1.0
  H  H16  1  0.00144000  0.52315000  0.70246000  1.0
  H  H17  1  0.79974000  0.45715000  0.78242000  1.0
  H  H18  1  0.90025000  0.34328000  0.51700000  1.0
  H  H19  1  0.66749000  0.28113000  0.49251000  1.0
  H  H20  1  0.53327000  0.47044000  0.35845000  1.0
  H  H21  1  0.77131000  0.52472000  0.38779000  1.0
  H  H22  1  0.37747000  0.05111000  0.59231000  1.0
  H  H23  1  0.46905000  0.15723000  0.51898000  1.0
  H  H24  1  0.99200000  0.19020000  0.44542000  1.0
  H  H25  1  0.91311000  0.08622000  0.52506000  1.0
  H  H26  1  0.80263000  0.35917000  0.22204000  1.0
  H  H27  1  0.97997000  0.28564000  0.30319000  1.0
  H  H28  1  0.22669000  0.47687000  0.29762000  1.0
  H  H29  1  0.03903000  0.54285000  0.21766000  1.0
  H  H30  1  0.99409000  0.15677000  0.01707000  1.0
  H  H31  1  0.69916000  0.21883000  0.99269000  1.0
  H  H32  1  0.75394000  0.02958000  0.85855000  1.0
  H  H33  1  0.04628000  0.97537000  0.88782000  1.0
  H  H34  1  0.17906000  0.44876000  0.09237000  1.0
  H  H35  1  0.37648000  0.34246000  0.01923000  1.0
  H  H36  1  0.93264000  0.30979000  0.94531000  1.0
  H  H37  1  0.74998000  0.41399000  0.02473000  1.0
  H  H38  1  0.91218000  0.14079000  0.72214000  1.0
  H  H39  1  0.01652000  0.21439000  0.80309000  1.0
  H  H40  1  0.45407000  0.02314000  0.79752000  1.0
  H  H41  1  0.33198000  0.95713000  0.71767000  1.0
  H  H42  1  0.16745000  0.84350000  0.98301000  1.0
  H  H43  1  0.91028000  0.78132000  0.00739000  1.0
  H  H44  1  0.64177000  0.97053000  0.14156000  1.0
  H  H45  1  0.90923000  0.02474000  0.11242000  1.0
  H  H46  1  0.72022000  0.55109000  0.90773000  1.0
  H  H47  1  0.73817000  0.65745000  0.98086000  1.0
  H  H48  1  0.18769000  0.69008000  0.05458000  1.0
  H  H49  1  0.18873000  0.58586000  0.97515000  1.0
  H  H50  1  0.77483000  0.85927000  0.27781000  1.0
  H  H51  1  0.03351000  0.78563000  0.19689000  1.0
  H  H52  1  0.27463000  0.97686000  0.20249000  1.0
  H  H53  1  0.00677000  0.04294000  0.28224000  1.0
  C  C54  1  0.19069000  0.66167000  0.58835000  1.0
  C  C55  1  0.96392000  0.75063000  0.56333000  1.0
  C  C56  1  0.91867000  0.66140000  0.64462000  1.0
  C  C57  1  0.66728000  0.63127000  0.51837000  1.0
  C  C58  1  0.49202000  0.66501000  0.53144000  1.0
  C  C59  1  0.37871000  0.62816000  0.57568000  1.0
  C  C60  1  0.44687000  0.55934000  0.60661000  1.0
  C  C61  1  0.62387000  0.52927000  0.59056000  1.0
  C  C62  1  0.93906000  0.91571000  0.43999000  1.0
  C  C63  1  0.00789000  0.85691000  0.48072000  1.0
  C  C64  1  0.89632000  0.81628000  0.52169000  1.0
  C  C65  1  0.71940000  0.83822000  0.52156000  1.0
  C  C66  1  0.66121000  0.89671000  0.47840000  1.0
  C  C67  1  0.52200000  0.61728000  0.75991000  1.0
  C  C68  1  0.62470000  0.65772000  0.71520000  1.0
  C  C69  1  0.80078000  0.62401000  0.69390000  1.0
  C  C70  1  0.86594000  0.55103000  0.71829000  1.0
  C  C71  1  0.75450000  0.51423000  0.76224000  1.0
  C  C72  1  0.44060000  0.33834000  0.41154000  1.0
  C  C73  1  0.27801000  0.24923000  0.43646000  1.0
  C  C74  1  0.22469000  0.33853000  0.35526000  1.0
  C  C75  1  0.81659000  0.36869000  0.48170000  1.0
  C  C76  1  0.68821000  0.33495000  0.46850000  1.0
  C  C77  1  0.58246000  0.37186000  0.42423000  1.0
  C  C78  1  0.61296000  0.44070000  0.39336000  1.0
  C  C79  1  0.74377000  0.47074000  0.40955000  1.0
  C  C80  1  0.29416000  0.08427000  0.55991000  1.0
  C  C81  1  0.34521000  0.14299000  0.51914000  1.0
  C  C82  1  0.23413000  0.18364000  0.47814000  1.0
  C  C83  1  0.07880000  0.16184000  0.47832000  1.0
  C  C84  1  0.03561000  0.10345000  0.52157000  1.0
  C  C85  1  0.89881000  0.38266000  0.24013000  1.0
  C  C86  1  0.99719000  0.34223000  0.28486000  1.0
  C  C87  1  0.11837000  0.37596000  0.30611000  1.0
  C  C88  1  0.13487000  0.44898000  0.28178000  1.0
  C  C89  1  0.03061000  0.48577000  0.23784000  1.0
  C  C90  1  0.52931000  0.16159000  0.91169000  1.0
  C  C91  1  0.27754000  0.25055000  0.93663000  1.0
  C  C92  1  0.31378000  0.16141000  0.85526000  1.0
  C  C93  1  0.93578000  0.13133000  0.98180000  1.0
  C  C94  1  0.77361000  0.16502000  0.96867000  1.0
  C  C95  1  0.70468000  0.12813000  0.92440000  1.0
  C  C96  1  0.80390000  0.05932000  0.89349000  1.0
  C  C97  1  0.96480000  0.02933000  0.90962000  1.0
  C  C98  1  0.12886000  0.41562000  0.05994000  1.0
  C  C99  1  0.23848000  0.35678000  0.01929000  1.0
  C  C100  1  0.16804000  0.31616000  0.97825000  1.0
  C  C101  1  0.99107000  0.33814000  0.97823000  1.0
  C  C102  1  0.88961000  0.39665000  0.02136000  1.0
  C  C103  1  0.03193000  0.11733000  0.74016000  1.0
  C  C104  1  0.09019000  0.15778000  0.78478000  1.0
  C  C105  1  0.24503000  0.12405000  0.80602000  1.0
  C  C106  1  0.33438000  0.05104000  0.78169000  1.0
  C  C107  1  0.26668000  0.01423000  0.73782000  1.0
  C  C108  1  0.60227000  0.83848000  0.08837000  1.0
  C  C109  1  0.46453000  0.74939000  0.06340000  1.0
  C  C110  1  0.33019000  0.83858000  0.14475000  1.0
  C  C111  1  0.04847000  0.86888000  0.01831000  1.0
  C  C112  1  0.90688000  0.83515000  0.03142000  1.0
  C  C113  1  0.75684000  0.87200000  0.07570000  1.0
  C  C114  1  0.75636000  0.94081000  0.10664000  1.0
  C  C115  1  0.90346000  0.97080000  0.09057000  1.0
  C  C116  1  0.60447000  0.58421000  0.94015000  1.0
  C  C117  1  0.61456000  0.64307000  0.98080000  1.0
  C  C118  1  0.46240000  0.68372000  0.02178000  1.0
  C  C119  1  0.30743000  0.66173000  0.02171000  1.0
  C  C120  1  0.30768000  0.60319000  0.97857000  1.0
  C  C121  1  0.88912000  0.88273000  0.25980000  1.0
  C  C122  1  0.03237000  0.84225000  0.21518000  1.0
  C  C123  1  0.17486000  0.87594000  0.19397000  1.0
  C  C124  1  0.16697000  0.94897000  0.21828000  1.0
  C  C125  1  0.01862000  0.98583000  0.26211000  1.0
  I  I126  1  0.38875000  0.98803000  0.35215000  1.0
  I  I127  1  0.74831000  0.14059000  0.37193000  1.0
  I  I128  1  0.12920000  0.41042000  0.58253000  1.0
  I  I129  1  0.72859000  0.01211000  0.64804000  1.0
  I  I130  1  0.26081000  0.85968000  0.62781000  1.0
  I  I131  1  0.12251000  0.58931000  0.41768000  1.0
  I  I132  1  0.49076000  0.48778000  0.14766000  1.0
  I  I133  1  0.86973000  0.64047000  0.12801000  1.0
  I  I134  1  0.46146000  0.91067000  0.91743000  1.0
  I  I135  1  0.12662000  0.51230000  0.85205000  1.0
  I  I136  1  0.63820000  0.35939000  0.87184000  1.0
  I  I137  1  0.29084000  0.08930000  0.08255000  1.0
  N  N138  1  0.13506000  0.72194000  0.55015000  1.0
  N  N139  1  0.84971000  0.72259000  0.61011000  1.0
  N  N140  1  0.08851000  0.62921000  0.63622000  1.0
  N  N141  1  0.73213000  0.56409000  0.54669000  1.0
  N  N142  1  0.76931000  0.93410000  0.43752000  1.0
  N  N143  1  0.58578000  0.54666000  0.78312000  1.0
  N  N144  1  0.40711000  0.27801000  0.44972000  1.0
  N  N145  1  0.18268000  0.27721000  0.38964000  1.0
  N  N146  1  0.35379000  0.37082000  0.36370000  1.0
  N  N147  1  0.84275000  0.43589000  0.45347000  1.0
  N  N148  1  0.14016000  0.06603000  0.56244000  1.0
  N  N149  1  0.91526000  0.45329000  0.21692000  1.0
  N  N150  1  0.43533000  0.22180000  0.94995000  1.0
  N  N151  1  0.21029000  0.22259000  0.88976000  1.0
  N  N152  1  0.47520000  0.12920000  0.86371000  1.0
  N  N153  1  0.02908000  0.06417000  0.95351000  1.0
  N  N154  1  0.95669000  0.43401000  0.06232000  1.0
  N  N155  1  0.11880000  0.04667000  0.71697000  1.0
  N  N156  1  0.60681000  0.77824000  0.05010000  1.0
  N  N157  1  0.32245000  0.77734000  0.11028000  1.0
  N  N158  1  0.46778000  0.87086000  0.13631000  1.0
  N  N159  1  0.04640000  0.93601000  0.04666000  1.0
  N  N160  1  0.45310000  0.56580000  0.93769000  1.0
  N  N161  1  0.88227000  0.95339000  0.28297000  1.0
