# generated using pymatgen
data_Al6H52C80N4O35
_symmetry_space_group_name_H-M   'P 1'
_cell_length_a   12.84050000
_cell_length_b   13.11860000
_cell_length_c   26.72730000
_cell_angle_alpha   83.69590000
_cell_angle_beta   83.69700000
_cell_angle_gamma   63.08030000
_symmetry_Int_Tables_number   1
_chemical_formula_structural   Al6H52C80N4O35
_chemical_formula_sum   'Al6 H52 C80 N4 O35'
_cell_volume   3980.89650454
_cell_formula_units_Z   1
loop_
 _symmetry_equiv_pos_site_id
 _symmetry_equiv_pos_as_xyz
  1  'x, y, z'
loop_
 _atom_site_type_symbol
 _atom_site_label
 _atom_site_symmetry_multiplicity
 _atom_site_fract_x
 _atom_site_fract_y
 _atom_site_fract_z
 _atom_site_occupancy
  Al  Al0  1  0.40730000  0.40690000  0.51093000  1.0
  Al  Al1  1  0.64989000  0.42524000  0.49598000  1.0
  Al  Al2  1  0.42723000  0.64479000  0.49812000  1.0
  Al  Al3  1  0.93019000  0.92928000  0.98010000  1.0
  Al  Al4  1  0.91256000  0.69108000  0.99616000  1.0
  Al  Al5  1  0.68845000  0.90907000  0.99276000  1.0
  H  H6  1  0.85941000  0.09670000  0.27593000  1.0
  H  H7  1  0.99723000  0.11611000  0.19577000  1.0
  H  H8  1  0.07317000  0.15095000  0.23793000  1.0
  H  H9  1  0.14680000  0.08413000  0.18126000  1.0
  H  H10  1  0.84458000  0.29813000  0.25045000  1.0
  H  H11  1  0.71441000  0.42023000  0.23233000  1.0
  H  H12  1  0.82122000  0.44641000  0.15042000  1.0
  H  H13  1  0.89218000  0.45019000  0.20333000  1.0
  H  H14  1  0.95058000  0.32463000  0.16894000  1.0
  H  H15  1  0.34046000  0.73237000  0.77047000  1.0
  H  H16  1  0.37908000  0.82477000  0.72688000  1.0
  H  H17  1  0.78143000  0.95835000  0.23286000  1.0
  H  H18  1  0.27274000  0.98570000  0.78362000  1.0
  H  H19  1  0.17734000  0.92902000  0.76952000  1.0
  H  H20  1  0.23906000  0.89313000  0.82920000  1.0
  H  H21  1  0.57085000  0.93137000  0.71816000  1.0
  H  H22  1  0.51662000  0.88777000  0.67601000  1.0
  H  H23  1  0.52949000  0.49294000  0.76883000  1.0
  H  H24  1  0.47856000  0.57291000  0.71591000  1.0
  H  H25  1  0.96833000  0.39489000  0.75792000  1.0
  H  H26  1  0.98268000  0.52315000  0.76116000  1.0
  H  H27  1  0.11370000  0.48172000  0.68138000  1.0
  H  H28  1  0.75827000  0.46018000  0.79256000  1.0
  H  H29  1  0.17061000  0.36449000  0.72734000  1.0
  H  H30  1  0.09648000  0.35624000  0.67638000  1.0
  H  H31  1  0.81507000  0.79773000  0.68068000  1.0
  H  H32  1  0.95118000  0.70094000  0.70617000  1.0
  H  H33  1  0.94041000  0.86521000  0.75313000  1.0
  H  H34  1  0.94776000  0.89182000  0.68627000  1.0
  H  H35  1  0.81158000  0.95901000  0.72209000  1.0
  H  H36  1  0.39929000  0.74370000  0.23667000  1.0
  H  H37  1  0.35272000  0.74582000  0.29750000  1.0
  H  H38  1  0.49711000  0.57510000  0.18514000  1.0
  H  H39  1  0.99707000  0.80855000  0.29167000  1.0
  H  H40  1  0.37692000  0.64401000  0.14547000  1.0
  H  H41  1  0.44557000  0.46566000  0.10045000  1.0
  H  H42  1  0.55968000  0.50829000  0.09835000  1.0
  H  H43  1  0.56356000  0.39245000  0.14049000  1.0
  H  H44  1  0.37642000  0.30538000  0.23030000  1.0
  H  H45  1  0.42159000  0.19078000  0.19595000  1.0
  H  H46  1  0.62011000  0.88742000  0.27353000  1.0
  H  H47  1  0.51674000  0.00468000  0.23747000  1.0
  H  H48  1  0.35787000  0.02739000  0.30465000  1.0
  H  H49  1  0.42596000  0.88504000  0.28435000  1.0
  H  H50  1  0.21698000  0.47840000  0.27860000  1.0
  H  H51  1  0.45968000  0.91301000  0.34274000  1.0
  H  H52  1  0.01078000  0.63699000  0.23165000  1.0
  H  H53  1  0.54365000  0.36734000  0.25886000  1.0
  H  H54  1  0.20330000  0.94167000  0.25666000  1.0
  H  H55  1  0.05355000  0.97394000  0.27175000  1.0
  H  H56  1  0.32404000  0.29215000  0.55273000  1.0
  H  H57  1  0.00870000  0.04811000  0.93824000  1.0
  C  C58  1  0.61141000  0.28866000  0.43643000  1.0
  C  C59  1  0.15675000  0.68860000  0.19465000  1.0
  C  C60  1  0.19819000  0.56520000  0.26320000  1.0
  C  C61  1  0.60453000  0.60549000  0.41716000  1.0
  C  C62  1  0.19128000  0.66184000  0.29570000  1.0
  C  C63  1  0.27437000  0.59723000  0.22120000  1.0
  C  C64  1  0.26829000  0.69517000  0.25294000  1.0
  C  C65  1  0.13420000  0.69919000  0.14364000  1.0
  C  C66  1  0.21177000  0.65029000  0.34716000  1.0
  C  C67  1  0.61082000  0.10247000  0.27362000  1.0
  C  C68  1  0.55267000  0.20072000  0.22972000  1.0
  C  C69  1  0.65488000  0.66167000  0.26820000  1.0
  C  C70  1  0.69332000  0.09581000  0.10126000  1.0
  C  C71  1  0.63899000  0.23500000  0.38976000  1.0
  C  C72  1  0.72890000  0.04889000  0.23969000  1.0
  C  C73  1  0.28592000  0.60885000  0.43874000  1.0
  C  C74  1  0.67223000  0.14402000  0.19576000  1.0
  C  C75  1  0.77267000  0.12586000  0.26227000  1.0
  C  C76  1  0.65511000  0.18089000  0.29646000  1.0
  C  C77  1  0.71567000  0.22211000  0.21920000  1.0
  C  C78  1  0.59734000  0.27659000  0.25272000  1.0
  C  C79  1  0.68311000  0.12048000  0.14481000  1.0
  C  C80  1  0.64138000  0.64567000  0.31855000  1.0
  C  C81  1  0.64598000  0.20681000  0.34707000  1.0
  C  C82  1  0.62641000  0.75940000  0.72321000  1.0
  C  C83  1  0.56455000  0.71521000  0.76965000  1.0
  C  C84  1  0.70482000  0.68977000  0.89132000  1.0
  C  C85  1  0.61127000  0.29379000  0.57805000  1.0
  C  C86  1  0.64196000  0.62694000  0.60286000  1.0
  C  C87  1  0.74279000  0.70495000  0.75159000  1.0
  C  C88  1  0.68144000  0.66061000  0.79811000  1.0
  C  C89  1  0.78402000  0.58663000  0.72643000  1.0
  C  C90  1  0.66793000  0.64303000  0.69739000  1.0
  C  C91  1  0.62838000  0.63166000  0.36458000  1.0
  C  C92  1  0.72187000  0.54461000  0.77229000  1.0
  C  C93  1  0.60731000  0.59593000  0.74418000  1.0
  C  C94  1  0.69286000  0.67387000  0.84857000  1.0
  C  C95  1  0.65629000  0.63415000  0.64658000  1.0
  C  C96  1  0.10274000  0.69316000  0.86460000  1.0
  C  C97  1  0.61539000  0.60531000  0.55597000  1.0
  C  C98  1  0.13437000  0.67608000  0.82005000  1.0
  C  C99  1  0.16550000  0.66094000  0.77098000  1.0
  C  C100  1  0.19002000  0.65175000  0.72524000  1.0
  C  C101  1  0.21768000  0.64210000  0.67567000  1.0
  C  C102  1  0.07550000  0.75027000  0.27039000  1.0
  C  C103  1  0.24435000  0.63257000  0.63034000  1.0
  C  C104  1  0.69609000  0.09992000  0.86273000  1.0
  C  C105  1  0.68260000  0.13391000  0.81819000  1.0
  C  C106  1  0.66947000  0.16746000  0.76917000  1.0
  C  C107  1  0.66039000  0.19357000  0.72352000  1.0
  C  C108  1  0.64995000  0.22077000  0.67394000  1.0
  C  C109  1  0.29410000  0.60594000  0.57979000  1.0
  C  C110  1  0.63942000  0.24587000  0.62858000  1.0
  C  C111  1  0.05383000  0.73059000  0.05393000  1.0
  C  C112  1  0.72622000  0.73512000  0.07380000  1.0
  C  C113  1  0.15089000  0.78418000  0.22728000  1.0
  C  C114  1  0.72423000  0.04601000  0.05354000  1.0
  C  C115  1  0.04747000  0.72685000  0.91384000  1.0
  C  C116  1  0.72986000  0.72045000  0.93648000  1.0
  C  C117  1  0.72572000  0.04402000  0.91211000  1.0
  C  C118  1  0.69654000  0.71056000  0.12588000  1.0
  C  C119  1  0.68098000  0.69483000  0.17168000  1.0
  C  C120  1  0.66643000  0.67721000  0.22187000  1.0
  C  C121  1  0.11817000  0.97153000  0.24037000  1.0
  C  C122  1  0.08161000  0.08752000  0.21211000  1.0
  C  C123  1  0.79650000  0.35025000  0.21767000  1.0
  C  C124  1  0.10909000  0.70552000  0.10032000  1.0
  C  C125  1  0.86948000  0.39549000  0.18298000  1.0
  C  C126  1  0.35883000  0.80716000  0.76717000  1.0
  C  C127  1  0.25614000  0.90999000  0.78874000  1.0
  C  C128  1  0.98373000  0.46284000  0.73515000  1.0
  C  C129  1  0.09772000  0.41354000  0.70307000  1.0
  C  C130  1  0.86975000  0.77981000  0.71252000  1.0
  C  C131  1  0.89364000  0.87997000  0.71901000  1.0
  C  C132  1  0.43792000  0.56083000  0.16296000  1.0
  C  C133  1  0.50532000  0.47644000  0.12335000  1.0
  C  C134  1  0.53828000  0.96769000  0.27628000  1.0
  C  C135  1  0.23525000  0.63850000  0.39101000  1.0
  C  C136  1  0.43940000  0.94726000  0.30379000  1.0
  C  C137  1  0.08383000  0.65351000  0.23865000  1.0
  N  N138  1  0.58841000  0.86713000  0.69542000  1.0
  N  N139  1  0.55064000  0.52936000  0.73616000  1.0
  N  N140  1  0.36787000  0.70481000  0.26523000  1.0
  N  N141  1  0.44335000  0.24816000  0.20888000  1.0
  O  O142  1  0.30868000  0.51045000  0.45927000  1.0
  O  O143  1  0.65421000  0.82841000  0.05217000  1.0
  O  O144  1  0.64670000  0.02518000  0.03536000  1.0
  O  O145  1  0.51114000  0.31318000  0.45791000  1.0
  O  O146  1  0.82375000  0.02597000  0.92606000  1.0
  O  O147  1  0.02220000  0.82744000  0.92376000  1.0
  O  O148  1  0.02551000  0.65182000  0.94205000  1.0
  O  O149  1  0.82631000  0.65177000  0.95628000  1.0
  O  O150  1  0.65698000  0.81715000  0.95350000  1.0
  O  O151  1  0.65075000  0.01423000  0.93669000  1.0
  O  O152  1  0.84269000  0.84203000  0.98943000  1.0
  O  O153  1  0.68707000  0.51209000  0.53579000  1.0
  O  O154  1  0.68989000  0.31195000  0.45208000  1.0
  O  O155  1  0.67804000  0.51046000  0.43694000  1.0
  O  O156  1  0.50935000  0.67724000  0.43853000  1.0
  O  O157  1  0.30870000  0.68485000  0.45567000  1.0
  O  O158  1  0.31334000  0.50935000  0.56660000  1.0
  O  O159  1  0.51196000  0.31241000  0.56535000  1.0
  O  O160  1  0.68802000  0.31738000  0.55116000  1.0
  O  O161  1  0.12681000  0.89146000  0.20524000  1.0
  O  O162  1  0.76836000  0.27965000  0.18923000  1.0
  O  O163  1  0.45994000  0.77870000  0.79529000  1.0
  O  O164  1  0.51835000  0.67809000  0.53768000  1.0
  O  O165  1  0.88958000  0.52278000  0.70169000  1.0
  O  O166  1  0.80793000  0.76011000  0.75891000  1.0
  O  O167  1  0.37110000  0.51531000  0.19770000  1.0
  O  O168  1  0.55788000  0.04548000  0.30381000  1.0
  O  O169  1  0.31850000  0.68201000  0.55381000  1.0
  O  O170  1  0.49551000  0.49375000  0.50201000  1.0
  O  O171  1  0.82573000  0.02222000  0.03365000  1.0
  O  O172  1  0.03161000  0.82646000  0.03058000  1.0
  O  O173  1  0.02655000  0.65404000  0.04063000  1.0
  O  O174  1  0.82458000  0.66330000  0.05485000  1.0
  O  O175  1  0.32493000  0.32995000  0.51968000  1.0
  O  O176  1  0.01244000  0.00636000  0.97064000  1.0
