# generated using pymatgen
data_AgH12C14N7O3
_symmetry_space_group_name_H-M   'P 1'
_cell_length_a   7.77972000
_cell_length_b   8.43756000
_cell_length_c   13.68570000
_cell_angle_alpha   90.75530000
_cell_angle_beta   90.87530000
_cell_angle_gamma   115.15710000
_symmetry_Int_Tables_number   1
_chemical_formula_structural   AgH12C14N7O3
_chemical_formula_sum   'Ag2 H24 C28 N14 O6'
_cell_volume   812.85477498
_cell_formula_units_Z   2
loop_
 _symmetry_equiv_pos_site_id
 _symmetry_equiv_pos_as_xyz
  1  'x, y, z'
loop_
 _atom_site_type_symbol
 _atom_site_label
 _atom_site_symmetry_multiplicity
 _atom_site_fract_x
 _atom_site_fract_y
 _atom_site_fract_z
 _atom_site_occupancy
  Ag  Ag0  1  0.97791000  0.49927000  0.75461000  1.0
  Ag  Ag1  1  0.02208000  0.50072000  0.24540000  1.0
  H  H2  1  0.52164000  0.36516000  0.16619000  1.0
  H  H3  1  0.47837000  0.63483000  0.83381000  1.0
  H  H4  1  0.69325000  0.68642000  0.20714000  1.0
  H  H5  1  0.30675000  0.31357000  0.79286000  1.0
  H  H6  1  0.92488000  0.88903000  0.09742000  1.0
  H  H7  1  0.07511000  0.11096000  0.90258000  1.0
  H  H8  1  0.99346000  0.78475000  0.93472000  1.0
  H  H9  1  0.00654000  0.21525000  0.06528000  1.0
  H  H10  1  0.33051000  0.03644000  0.96790000  1.0
  H  H11  1  0.66949000  0.96356000  0.03210000  1.0
  H  H12  1  0.44224000  0.07989000  0.08766000  1.0
  H  H13  1  0.55776000  0.92011000  0.91234000  1.0
  H  H14  1  0.33192000  0.34290000  0.35053000  1.0
  H  H15  1  0.66808000  0.65712000  0.64946000  1.0
  H  H16  1  0.47410000  0.66220000  0.31103000  1.0
  H  H17  1  0.52591000  0.33782000  0.68897000  1.0
  H  H18  1  0.44610000  0.87913000  0.42081000  1.0
  H  H19  1  0.55391000  0.12089000  0.57920000  1.0
  H  H20  1  0.27248000  0.79199000  0.57933000  1.0
  H  H21  1  0.72752000  0.20801000  0.42068000  1.0
  H  H22  1  0.17485000  0.01597000  0.56096000  1.0
  H  H23  1  0.82515000  0.98403000  0.43904000  1.0
  H  H24  1  0.17370000  0.07188000  0.43425000  1.0
  H  H25  1  0.82631000  0.92812000  0.56575000  1.0
  C  C26  1  0.66348000  0.39976000  0.02649000  1.0
  C  C27  1  0.33652000  0.60024000  0.97350000  1.0
  C  C28  1  0.62239000  0.45586000  0.11641000  1.0
  C  C29  1  0.37761000  0.54414000  0.88358000  1.0
  C  C30  1  0.71827000  0.63363000  0.13859000  1.0
  C  C31  1  0.28172000  0.36637000  0.86141000  1.0
  C  C32  1  0.85068000  0.75200000  0.07421000  1.0
  C  C33  1  0.14932000  0.24800000  0.92579000  1.0
  C  C34  1  0.89003000  0.69726000  0.98485000  1.0
  C  C35  1  0.10997000  0.30274000  0.01515000  1.0
  C  C36  1  0.79303000  0.51793000  0.96160000  1.0
  C  C37  1  0.20697000  0.48207000  0.03840000  1.0
  C  C38  1  0.46370000  0.06983000  0.00939000  1.0
  C  C39  1  0.53630000  0.93016000  0.99061000  1.0
  C  C40  1  0.22513000  0.39308000  0.48836000  1.0
  C  C41  1  0.77488000  0.60693000  0.51164000  1.0
  C  C42  1  0.32115000  0.43998000  0.40007000  1.0
  C  C43  1  0.67884000  0.56003000  0.59992000  1.0
  C  C44  1  0.39870000  0.61672000  0.37870000  1.0
  C  C45  1  0.60131000  0.38330000  0.62130000  1.0
  C  C46  1  0.38340000  0.74303000  0.44302000  1.0
  C  C47  1  0.61662000  0.25699000  0.55699000  1.0
  C  C48  1  0.28893000  0.69679000  0.53046000  1.0
  C  C49  1  0.71106000  0.30321000  0.46955000  1.0
  C  C50  1  0.20871000  0.51811000  0.55267000  1.0
  C  C51  1  0.79130000  0.48189000  0.44734000  1.0
  C  C52  1  0.10574000  0.06205000  0.50477000  1.0
  C  C53  1  0.89427000  0.93795000  0.49523000  1.0
  N  N54  1  0.60338000  0.24022000  0.97939000  1.0
  N  N55  1  0.39662000  0.75978000  0.02060000  1.0
  N  N56  1  0.68648000  0.25615000  0.89214000  1.0
  N  N57  1  0.31352000  0.74385000  0.10786000  1.0
  N  N58  1  0.80045000  0.42204000  0.88084000  1.0
  N  N59  1  0.19954000  0.57796000  0.11915000  1.0
  N  N60  1  0.13062000  0.23692000  0.53384000  1.0
  N  N61  1  0.86938000  0.76308000  0.46615000  1.0
  N  N62  1  0.06086000  0.26063000  0.61942000  1.0
  N  N63  1  0.93914000  0.73937000  0.38057000  1.0
  N  N64  1  0.10615000  0.42862000  0.63133000  1.0
  N  N65  1  0.89385000  0.57137000  0.36867000  1.0
  N  N66  1  0.19636000  0.89729000  0.74804000  1.0
  N  N67  1  0.80363000  0.10270000  0.25196000  1.0
  O  O68  1  0.05018000  0.80791000  0.69393000  1.0
  O  O69  1  0.94981000  0.19208000  0.30607000  1.0
  O  O70  1  0.22658000  0.82827000  0.82474000  1.0
  O  O71  1  0.77342000  0.17172000  0.17526000  1.0
  O  O72  1  0.30883000  0.04922000  0.72432000  1.0
  O  O73  1  0.69117000  0.95077000  0.27568000  1.0
