# generated using pymatgen
data_ZnH3C3(N2O)2
_symmetry_space_group_name_H-M   'P 1'
_cell_length_a   12.92350000
_cell_length_b   13.91010000
_cell_length_c   16.91500000
_cell_angle_alpha   90.00000000
_cell_angle_beta   89.99940000
_cell_angle_gamma   89.99990000
_symmetry_Int_Tables_number   1
_chemical_formula_structural   ZnH3C3(N2O)2
_chemical_formula_sum   'Zn16 H48 C48 N64 O32'
_cell_volume   3040.76180470
_cell_formula_units_Z   16
loop_
 _symmetry_equiv_pos_site_id
 _symmetry_equiv_pos_as_xyz
  1  'x, y, z'
loop_
 _atom_site_type_symbol
 _atom_site_label
 _atom_site_symmetry_multiplicity
 _atom_site_fract_x
 _atom_site_fract_y
 _atom_site_fract_z
 _atom_site_occupancy
  Zn  Zn0  1  0.56992000  0.01933000  0.90476000  1.0
  Zn  Zn1  1  0.43008000  0.48067000  0.40476000  1.0
  Zn  Zn2  1  0.06992000  0.98067000  0.59524000  1.0
  Zn  Zn3  1  0.93008000  0.51933000  0.09524000  1.0
  Zn  Zn4  1  0.43008000  0.98067000  0.09524000  1.0
  Zn  Zn5  1  0.56992000  0.51933000  0.59524000  1.0
  Zn  Zn6  1  0.93008000  0.01933000  0.40476000  1.0
  Zn  Zn7  1  0.06992000  0.48067000  0.90476000  1.0
  Zn  Zn8  1  0.52295000  0.09247000  0.57079000  1.0
  Zn  Zn9  1  0.47705000  0.40753000  0.07079000  1.0
  Zn  Zn10  1  0.02295000  0.90753000  0.92921000  1.0
  Zn  Zn11  1  0.97705000  0.59247000  0.42921000  1.0
  Zn  Zn12  1  0.47705000  0.90753000  0.42921000  1.0
  Zn  Zn13  1  0.52295000  0.59247000  0.92921000  1.0
  Zn  Zn14  1  0.97705000  0.09247000  0.07079000  1.0
  Zn  Zn15  1  0.02295000  0.40753000  0.57079000  1.0
  H  H16  1  0.73856000  0.14501000  0.00110000  1.0
  H  H17  1  0.26144000  0.35499000  0.50110000  1.0
  H  H18  1  0.23856000  0.85499000  0.49890000  1.0
  H  H19  1  0.76144000  0.64501000  0.99890000  1.0
  H  H20  1  0.26144000  0.85499000  0.99890000  1.0
  H  H21  1  0.73856000  0.64501000  0.49890000  1.0
  H  H22  1  0.76144000  0.14501000  0.50110000  1.0
  H  H23  1  0.23856000  0.35498000  0.00110000  1.0
  H  H24  1  0.55143000  0.80022000  0.84672000  1.0
  H  H25  1  0.44857000  0.69978000  0.34672000  1.0
  H  H26  1  0.05143000  0.19978000  0.65328000  1.0
  H  H27  1  0.94857000  0.30022000  0.15328000  1.0
  H  H28  1  0.44857000  0.19978000  0.15328000  1.0
  H  H29  1  0.55143000  0.30022000  0.65328000  1.0
  H  H30  1  0.94857000  0.80022000  0.34672000  1.0
  H  H31  1  0.05143000  0.69978000  0.84672000  1.0
  H  H32  1  0.84568000  0.84306000  0.83942000  1.0
  H  H33  1  0.15432000  0.65694000  0.33942000  1.0
  H  H34  1  0.34568000  0.15694000  0.66058000  1.0
  H  H35  1  0.65432000  0.34306000  0.16058000  1.0
  H  H36  1  0.15432000  0.15694000  0.16058000  1.0
  H  H37  1  0.84568000  0.34306000  0.66058000  1.0
  H  H38  1  0.65432000  0.84306000  0.33942000  1.0
  H  H39  1  0.34568000  0.65694000  0.83942000  1.0
  H  H40  1  0.72172000  0.88351000  0.81985000  1.0
  H  H41  1  0.27828000  0.61649000  0.31985000  1.0
  H  H42  1  0.22172000  0.11649000  0.68015000  1.0
  H  H43  1  0.77828000  0.38351000  0.18015000  1.0
  H  H44  1  0.27828000  0.11648000  0.18014000  1.0
  H  H45  1  0.72172000  0.38351000  0.68015000  1.0
  H  H46  1  0.77828000  0.88351000  0.31985000  1.0
  H  H47  1  0.22172000  0.61648000  0.81986000  1.0
  H  H48  1  0.44070000  0.77178000  0.14092000  1.0
  H  H49  1  0.55929000  0.72822000  0.64093000  1.0
  H  H50  1  0.94071000  0.22822000  0.35907000  1.0
  H  H51  1  0.05930000  0.27178000  0.85908000  1.0
  H  H52  1  0.55930000  0.22822000  0.85908000  1.0
  H  H53  1  0.44071000  0.27178000  0.35907000  1.0
  H  H54  1  0.05929000  0.77178000  0.64093000  1.0
  H  H55  1  0.94070000  0.72822000  0.14092000  1.0
  H  H56  1  0.43226000  0.66182000  0.09348000  1.0
  H  H57  1  0.56774000  0.83818000  0.59348000  1.0
  H  H58  1  0.93226000  0.33818000  0.40652000  1.0
  H  H59  1  0.06774000  0.16182000  0.90652000  1.0
  H  H60  1  0.56774000  0.33818000  0.90652000  1.0
  H  H61  1  0.43226000  0.16182000  0.40652000  1.0
  H  H62  1  0.06774000  0.66182000  0.59348000  1.0
  H  H63  1  0.93226000  0.83818000  0.09348000  1.0
  C  C64  1  0.57727000  0.98392000  0.71805000  1.0
  C  C65  1  0.42274000  0.51607000  0.21807000  1.0
  C  C66  1  0.07726000  0.01607000  0.78193000  1.0
  C  C67  1  0.92273000  0.48392000  0.28195000  1.0
  C  C68  1  0.42274000  0.01608000  0.28195000  1.0
  C  C69  1  0.57726000  0.48393000  0.78193000  1.0
  C  C70  1  0.92274000  0.98393000  0.21807000  1.0
  C  C71  1  0.07726000  0.51608000  0.71805000  1.0
  C  C72  1  0.53118000  0.08276000  0.74209000  1.0
  C  C73  1  0.46882000  0.41723000  0.24211000  1.0
  C  C74  1  0.03118000  0.91723000  0.75789000  1.0
  C  C75  1  0.96882000  0.58276000  0.25790000  1.0
  C  C76  1  0.46882000  0.91724000  0.25791000  1.0
  C  C77  1  0.53117000  0.58277000  0.75789000  1.0
  C  C78  1  0.96882000  0.08277000  0.24211000  1.0
  C  C79  1  0.03118000  0.41724000  0.74209000  1.0
  C  C80  1  0.79670000  0.95233000  0.90788000  1.0
  C  C81  1  0.20330000  0.54767000  0.40788000  1.0
  C  C82  1  0.29670000  0.04767000  0.59212000  1.0
  C  C83  1  0.70330000  0.45233000  0.09212000  1.0
  C  C84  1  0.20330000  0.04767000  0.09212000  1.0
  C  C85  1  0.79670000  0.45233000  0.59212000  1.0
  C  C86  1  0.70330000  0.95233000  0.40788000  1.0
  C  C87  1  0.29670000  0.54767000  0.90788000  1.0
  C  C88  1  0.77374000  0.08134000  0.97555000  1.0
  C  C89  1  0.22626000  0.41866000  0.47555000  1.0
  C  C90  1  0.27374000  0.91866000  0.52445000  1.0
  C  C91  1  0.72626000  0.58134000  0.02445000  1.0
  C  C92  1  0.22626000  0.91866000  0.02445000  1.0
  C  C93  1  0.77374000  0.58134000  0.52445000  1.0
  C  C94  1  0.72626000  0.08134000  0.47555000  1.0
  C  C95  1  0.27374000  0.41866000  0.97555000  1.0
  C  C96  1  0.47024000  0.78017000  0.02448000  1.0
  C  C97  1  0.52976000  0.71983000  0.52448000  1.0
  C  C98  1  0.97024000  0.21983000  0.47552000  1.0
  C  C99  1  0.02976000  0.28017000  0.97552000  1.0
  C  C100  1  0.52976000  0.21983000  0.97552000  1.0
  C  C101  1  0.47024000  0.28017000  0.47552000  1.0
  C  C102  1  0.02976000  0.78017000  0.52448000  1.0
  C  C103  1  0.97024000  0.71983000  0.02448000  1.0
  C  C104  1  0.52523000  0.80914000  0.90706000  1.0
  C  C105  1  0.47477000  0.69086000  0.40706000  1.0
  C  C106  1  0.02523000  0.19086000  0.59294000  1.0
  C  C107  1  0.97477000  0.30914000  0.09294000  1.0
  C  C108  1  0.47477000  0.19086000  0.09294000  1.0
  C  C109  1  0.52523000  0.30914000  0.59294000  1.0
  C  C110  1  0.97477000  0.80914000  0.40706000  1.0
  C  C111  1  0.02523000  0.69086000  0.90706000  1.0
  N  N112  1  0.72435000  0.02093000  0.92490000  1.0
  N  N113  1  0.27565000  0.47907000  0.42490000  1.0
  N  N114  1  0.22435000  0.97907000  0.57510000  1.0
  N  N115  1  0.77565000  0.52093000  0.07510000  1.0
  N  N116  1  0.27565000  0.97907000  0.07510000  1.0
  N  N117  1  0.72435000  0.52093000  0.57510000  1.0
  N  N118  1  0.77565000  0.02093000  0.42490000  1.0
  N  N119  1  0.22435000  0.47907000  0.92490000  1.0
  N  N120  1  0.86985000  0.05361000  0.98972000  1.0
  N  N121  1  0.13015000  0.44639000  0.48972000  1.0
  N  N122  1  0.36985000  0.94639000  0.51028000  1.0
  N  N123  1  0.63015000  0.55361000  0.01028000  1.0
  N  N124  1  0.13015000  0.94639000  0.01028000  1.0
  N  N125  1  0.86985000  0.55361000  0.51028000  1.0
  N  N126  1  0.63015000  0.05361000  0.48972000  1.0
  N  N127  1  0.36985000  0.44639000  0.98972000  1.0
  N  N128  1  0.88535000  0.97026000  0.94672000  1.0
  N  N129  1  0.11466000  0.52974000  0.44672000  1.0
  N  N130  1  0.38534000  0.02974000  0.55328000  1.0
  N  N131  1  0.61465000  0.47026000  0.05328000  1.0
  N  N132  1  0.11465000  0.02974000  0.05328000  1.0
  N  N133  1  0.88534000  0.47026000  0.55328000  1.0
  N  N134  1  0.61466000  0.97026000  0.44672000  1.0
  N  N135  1  0.38535000  0.52974000  0.94672000  1.0
  N  N136  1  0.78036000  0.87529000  0.86024000  1.0
  N  N137  1  0.21964000  0.62471000  0.36024000  1.0
  N  N138  1  0.28036000  0.12471000  0.63976000  1.0
  N  N139  1  0.71964000  0.37529000  0.13976000  1.0
  N  N140  1  0.21964000  0.12471000  0.13976000  1.0
  N  N141  1  0.78036000  0.37529000  0.63976000  1.0
  N  N142  1  0.71964000  0.87529000  0.36024000  1.0
  N  N143  1  0.28036000  0.62471000  0.86024000  1.0
  N  N144  1  0.47727000  0.87673000  0.01731000  1.0
  N  N145  1  0.52273000  0.62327000  0.51731000  1.0
  N  N146  1  0.97727000  0.12327000  0.48269000  1.0
  N  N147  1  0.02273000  0.37673000  0.98269000  1.0
  N  N148  1  0.52273000  0.12327000  0.98269000  1.0
  N  N149  1  0.47727000  0.37673000  0.48269000  1.0
  N  N150  1  0.02273000  0.87673000  0.51731000  1.0
  N  N151  1  0.97727000  0.62327000  0.01731000  1.0
  N  N152  1  0.51274000  0.89402000  0.94111000  1.0
  N  N153  1  0.48727000  0.60598000  0.44111000  1.0
  N  N154  1  0.01273000  0.10598000  0.55889000  1.0
  N  N155  1  0.98726000  0.39402000  0.05889000  1.0
  N  N156  1  0.48727000  0.10598000  0.05889000  1.0
  N  N157  1  0.51273000  0.39402000  0.55889000  1.0
  N  N158  1  0.98727000  0.89402000  0.44111000  1.0
  N  N159  1  0.01273000  0.60598000  0.94111000  1.0
  N  N160  1  0.50038000  0.73582000  0.95620000  1.0
  N  N161  1  0.49962000  0.76418000  0.45620000  1.0
  N  N162  1  0.00038000  0.26418000  0.54380000  1.0
  N  N163  1  0.99962000  0.23582000  0.04380000  1.0
  N  N164  1  0.49962000  0.26418000  0.04380000  1.0
  N  N165  1  0.50038000  0.23582000  0.54380000  1.0
  N  N166  1  0.99962000  0.73582000  0.45620000  1.0
  N  N167  1  0.00038000  0.76418000  0.95620000  1.0
  N  N168  1  0.43255000  0.73509000  0.08916000  1.0
  N  N169  1  0.56745000  0.76491000  0.58916000  1.0
  N  N170  1  0.93255000  0.26491000  0.41084000  1.0
  N  N171  1  0.06745000  0.23509000  0.91084000  1.0
  N  N172  1  0.56745000  0.26491000  0.91084000  1.0
  N  N173  1  0.43255000  0.23509000  0.41084000  1.0
  N  N174  1  0.06745000  0.73509000  0.58916000  1.0
  N  N175  1  0.93255000  0.76491000  0.08916000  1.0
  O  O176  1  0.60360000  0.92917000  0.77396000  1.0
  O  O177  1  0.39641000  0.57081000  0.27397000  1.0
  O  O178  1  0.10359000  0.07081000  0.72603000  1.0
  O  O179  1  0.89640000  0.42917000  0.22604000  1.0
  O  O180  1  0.39640000  0.07083000  0.22604000  1.0
  O  O181  1  0.60359000  0.42919000  0.72603000  1.0
  O  O182  1  0.89641000  0.92919000  0.27397000  1.0
  O  O183  1  0.10360000  0.57083000  0.77396000  1.0
  O  O184  1  0.52011000  0.10207000  0.81493000  1.0
  O  O185  1  0.47991000  0.39792000  0.31493000  1.0
  O  O186  1  0.02009000  0.89792000  0.68507000  1.0
  O  O187  1  0.97989000  0.60207000  0.18507000  1.0
  O  O188  1  0.47989000  0.89793000  0.18507000  1.0
  O  O189  1  0.52009000  0.60207000  0.68507000  1.0
  O  O190  1  0.97990000  0.10207000  0.31493000  1.0
  O  O191  1  0.02011000  0.39793000  0.81493000  1.0
  O  O192  1  0.58296000  0.96849000  0.64429000  1.0
  O  O193  1  0.41704000  0.53150000  0.14429000  1.0
  O  O194  1  0.08297000  0.03150000  0.85571000  1.0
  O  O195  1  0.91704000  0.46849000  0.35571000  1.0
  O  O196  1  0.41704000  0.03151000  0.35571000  1.0
  O  O197  1  0.58296000  0.46850000  0.85571000  1.0
  O  O198  1  0.91704000  0.96850000  0.14429000  1.0
  O  O199  1  0.08296000  0.53151000  0.64429000  1.0
  O  O200  1  0.50609000  0.14038000  0.68752000  1.0
  O  O201  1  0.49392000  0.35961000  0.18752000  1.0
  O  O202  1  0.00608000  0.85961000  0.81248000  1.0
  O  O203  1  0.99391000  0.64038000  0.31248000  1.0
  O  O204  1  0.49391000  0.85962000  0.31248000  1.0
  O  O205  1  0.50608000  0.64039000  0.81248000  1.0
  O  O206  1  0.99392000  0.14039000  0.18752000  1.0
  O  O207  1  0.00609000  0.35962000  0.68752000  1.0
