# generated using pymatgen
data_CdH26C40S4NO9
_symmetry_space_group_name_H-M   'P 1'
_cell_length_a   8.84774000
_cell_length_b   12.47840000
_cell_length_c   19.85650000
_cell_angle_alpha   82.11650000
_cell_angle_beta   77.76200000
_cell_angle_gamma   87.75060000
_symmetry_Int_Tables_number   1
_chemical_formula_structural   CdH26C40S4NO9
_chemical_formula_sum   'Cd2 H52 C80 S8 N2 O18'
_cell_volume   2122.08584772
_cell_formula_units_Z   2
loop_
 _symmetry_equiv_pos_site_id
 _symmetry_equiv_pos_as_xyz
  1  'x, y, z'
loop_
 _atom_site_type_symbol
 _atom_site_label
 _atom_site_symmetry_multiplicity
 _atom_site_fract_x
 _atom_site_fract_y
 _atom_site_fract_z
 _atom_site_occupancy
  Cd  Cd0  1  0.62566000  0.65714000  0.01986000  1.0
  Cd  Cd1  1  0.37433000  0.34285000  0.98013000  1.0
  H  H2  1  0.04521000  0.76204000  0.77218000  1.0
  H  H3  1  0.95478000  0.23796000  0.22782000  1.0
  H  H4  1  0.03089000  0.88224000  0.66339000  1.0
  H  H5  1  0.96909000  0.11776000  0.33661000  1.0
  H  H6  1  0.69650000  0.08439000  0.77992000  1.0
  H  H7  1  0.30349000  0.91561000  0.22009000  1.0
  H  H8  1  0.70810000  0.96134000  0.88818000  1.0
  H  H9  1  0.29190000  0.03866000  0.11183000  1.0
  H  H10  1  0.04996000  0.13974000  0.73127000  1.0
  H  H11  1  0.95003000  0.86025000  0.26873000  1.0
  H  H12  1  0.09556000  0.26525000  0.81112000  1.0
  H  H13  1  0.90445000  0.73475000  0.18888000  1.0
  H  H14  1  0.79546000  0.50268000  0.72740000  1.0
  H  H15  1  0.20457000  0.49732000  0.27260000  1.0
  H  H16  1  0.74064000  0.37576000  0.65039000  1.0
  H  H17  1  0.25937000  0.62425000  0.34962000  1.0
  H  H18  1  0.51650000  0.85967000  0.39626000  1.0
  H  H19  1  0.48349000  0.14034000  0.60373000  1.0
  H  H20  1  0.49698000  0.72533000  0.31744000  1.0
  H  H21  1  0.50301000  0.27468000  0.68255000  1.0
  H  H22  1  0.71135000  0.94810000  0.14149000  1.0
  H  H23  1  0.28867000  0.05191000  0.85851000  1.0
  H  H24  1  0.73790000  0.08186000  0.21989000  1.0
  H  H25  1  0.26211000  0.91814000  0.78011000  1.0
  H  H26  1  0.40368000  0.13803000  0.29097000  1.0
  H  H27  1  0.59633000  0.86198000  0.70902000  1.0
  H  H28  1  0.33163000  0.25635000  0.19128000  1.0
  H  H29  1  0.66839000  0.74365000  0.80870000  1.0
  H  H30  1  0.69859000  0.47352000  0.18921000  1.0
  H  H31  1  0.30141000  0.52649000  0.81079000  1.0
  H  H32  1  0.77466000  0.35517000  0.28688000  1.0
  H  H33  1  0.22534000  0.64484000  0.71312000  1.0
  H  H34  1  0.26002000  0.61975000  0.03894000  1.0
  H  H35  1  0.73997000  0.38025000  0.96106000  1.0
  H  H36  1  0.01788000  0.73162000  0.04910000  1.0
  H  H37  1  0.98211000  0.26838000  0.95090000  1.0
  H  H38  1  0.30314000  0.01563000  0.98748000  1.0
  H  H39  1  0.69686000  0.98437000  0.01253000  1.0
  H  H40  1  0.53451000  0.89154000  0.98005000  1.0
  H  H41  1  0.46549000  0.10846000  0.01996000  1.0
  H  H42  1  0.89671000  0.90299000  0.03649000  1.0
  H  H43  1  0.10329000  0.09701000  0.96351000  1.0
  H  H44  1  0.98928000  0.98952000  0.07870000  1.0
  H  H45  1  0.01073000  0.01048000  0.92131000  1.0
  H  H46  1  0.95074000  0.61384000  0.84497000  1.0
  H  H47  1  0.04928000  0.38616000  0.15503000  1.0
  H  H48  1  0.52223000  0.60419000  0.17174000  1.0
  H  H49  1  0.47776000  0.39582000  0.82826000  1.0
  H  H50  1  0.90783000  0.59573000  0.97442000  1.0
  H  H51  1  0.09217000  0.40426000  0.02558000  1.0
  H  H52  1  0.88735000  0.54819000  0.05559000  1.0
  H  H53  1  0.11265000  0.45180000  0.94441000  1.0
  C  C54  1  0.87260000  0.77548000  0.90249000  1.0
  C  C55  1  0.12740000  0.22451000  0.09752000  1.0
  C  C56  1  0.87838000  0.85401000  0.83759000  1.0
  C  C57  1  0.12161000  0.14598000  0.16242000  1.0
  C  C58  1  0.96929000  0.83282000  0.77384000  1.0
  C  C59  1  0.03070000  0.16718000  0.22616000  1.0
  C  C60  1  0.96117000  0.90040000  0.71283000  1.0
  C  C61  1  0.03881000  0.09960000  0.28718000  1.0
  C  C62  1  0.86501000  0.99280000  0.71441000  1.0
  C  C63  1  0.13498000  0.00720000  0.28559000  1.0
  C  C64  1  0.77436000  0.01450000  0.77850000  1.0
  C  C65  1  0.22563000  0.98550000  0.22151000  1.0
  C  C66  1  0.78109000  0.94582000  0.83899000  1.0
  C  C67  1  0.21891000  0.05418000  0.16102000  1.0
  C  C68  1  0.85483000  0.06355000  0.64990000  1.0
  C  C69  1  0.14515000  0.93645000  0.35011000  1.0
  C  C70  1  0.85805000  0.17399000  0.63887000  1.0
  C  C71  1  0.14193000  0.82601000  0.36114000  1.0
  C  C72  1  0.98452000  0.46562000  0.82135000  1.0
  C  C73  1  0.01550000  0.53438000  0.17865000  1.0
  C  C74  1  0.99083000  0.21792000  0.73134000  1.0
  C  C75  1  0.00917000  0.78208000  0.26867000  1.0
  C  C76  1  0.01819000  0.28844000  0.77553000  1.0
  C  C77  1  0.98182000  0.71156000  0.22447000  1.0
  C  C78  1  0.94908000  0.39176000  0.77433000  1.0
  C  C79  1  0.05094000  0.60824000  0.22567000  1.0
  C  C80  1  0.85015000  0.42289000  0.72833000  1.0
  C  C81  1  0.14987000  0.57711000  0.27168000  1.0
  C  C82  1  0.82033000  0.35148000  0.68491000  1.0
  C  C83  1  0.17968000  0.64852000  0.31509000  1.0
  C  C84  1  0.88888000  0.24751000  0.68587000  1.0
  C  C85  1  0.11112000  0.75248000  0.31413000  1.0
  C  C86  1  0.79330000  0.11461000  0.52741000  1.0
  C  C87  1  0.20667000  0.88539000  0.47260000  1.0
  C  C88  1  0.74272000  0.11286000  0.46752000  1.0
  C  C89  1  0.25725000  0.88715000  0.53249000  1.0
  C  C90  1  0.65073000  0.05530000  0.36156000  1.0
  C  C91  1  0.34926000  0.94471000  0.63843000  1.0
  C  C92  1  0.62751000  0.98068000  0.31368000  1.0
  C  C93  1  0.37249000  0.01933000  0.68631000  1.0
  C  C94  1  0.56052000  0.87904000  0.34041000  1.0
  C  C95  1  0.43948000  0.12097000  0.65958000  1.0
  C  C96  1  0.54819000  0.80390000  0.29638000  1.0
  C  C97  1  0.45181000  0.19611000  0.70361000  1.0
  C  C98  1  0.60217000  0.82853000  0.22443000  1.0
  C  C99  1  0.39784000  0.17148000  0.77556000  1.0
  C  C100  1  0.66850000  0.92991000  0.19736000  1.0
  C  C101  1  0.33151000  0.07009000  0.80263000  1.0
  C  C102  1  0.68210000  0.00481000  0.24126000  1.0
  C  C103  1  0.31791000  0.99519000  0.75873000  1.0
  C  C104  1  0.64500000  0.16581000  0.35218000  1.0
  C  C105  1  0.35500000  0.83419000  0.64782000  1.0
  C  C106  1  0.59617000  0.23698000  0.29521000  1.0
  C  C107  1  0.40383000  0.76303000  0.70478000  1.0
  C  C108  1  0.46959000  0.21076000  0.26811000  1.0
  C  C109  1  0.53042000  0.78924000  0.73189000  1.0
  C  C110  1  0.42835000  0.27718000  0.21264000  1.0
  C  C111  1  0.57166000  0.72282000  0.78735000  1.0
  C  C112  1  0.50904000  0.37281000  0.18406000  1.0
  C  C113  1  0.49098000  0.62719000  0.81593000  1.0
  C  C114  1  0.63293000  0.40066000  0.21184000  1.0
  C  C115  1  0.36707000  0.59934000  0.78815000  1.0
  C  C116  1  0.67593000  0.33365000  0.26672000  1.0
  C  C117  1  0.32407000  0.66636000  0.73328000  1.0
  C  C118  1  0.46495000  0.44311000  0.12373000  1.0
  C  C119  1  0.53505000  0.55689000  0.87626000  1.0
  C  C120  1  0.59247000  0.74851000  0.17673000  1.0
  C  C121  1  0.40753000  0.25150000  0.82326000  1.0
  C  C122  1  0.26437000  0.70787000  0.02849000  1.0
  C  C123  1  0.73563000  0.29212000  0.97151000  1.0
  C  C124  1  0.13005000  0.77073000  0.03371000  1.0
  C  C125  1  0.86994000  0.22927000  0.96630000  1.0
  C  C126  1  0.14048000  0.88347000  0.02054000  1.0
  C  C127  1  0.85952000  0.11652000  0.97946000  1.0
  C  C128  1  0.28856000  0.92831000  0.99953000  1.0
  C  C129  1  0.71144000  0.07168000  0.00048000  1.0
  C  C130  1  0.41712000  0.86058000  0.99539000  1.0
  C  C131  1  0.58288000  0.13942000  0.00461000  1.0
  C  C132  1  0.99842000  0.95397000  0.03004000  1.0
  C  C133  1  0.00158000  0.04603000  0.96997000  1.0
  S  S134  1  0.70648000  0.23110000  0.41435000  1.0
  S  S135  1  0.29350000  0.76890000  0.58565000  1.0
  S  S136  1  0.71464000  0.99278000  0.43552000  1.0
  S  S137  1  0.28535000  0.00723000  0.56448000  1.0
  S  S138  1  0.82900000  0.99703000  0.58105000  1.0
  S  S139  1  0.17096000  0.00298000  0.41896000  1.0
  S  S140  1  0.83357000  0.23479000  0.55639000  1.0
  S  S141  1  0.16640000  0.76521000  0.44362000  1.0
  N  N142  1  0.40561000  0.75234000  0.01055000  1.0
  N  N143  1  0.59439000  0.24765000  0.98945000  1.0
  O  O144  1  0.95478000  0.68862000  0.89930000  1.0
  O  O145  1  0.04523000  0.31137000  0.10070000  1.0
  O  O146  1  0.78202000  0.79858000  0.95767000  1.0
  O  O147  1  0.21798000  0.20141000  0.04234000  1.0
  O  O148  1  0.93311000  0.56606000  0.80875000  1.0
  O  O149  1  0.06692000  0.43393000  0.19124000  1.0
  O  O150  1  0.05800000  0.43439000  0.86742000  1.0
  O  O151  1  0.94202000  0.56561000  0.13259000  1.0
  O  O152  1  0.53066000  0.65553000  0.20827000  1.0
  O  O153  1  0.46933000  0.34448000  0.79172000  1.0
  O  O154  1  0.64004000  0.76955000  0.11254000  1.0
  O  O155  1  0.35997000  0.23045000  0.88746000  1.0
  O  O156  1  0.39312000  0.40399000  0.08505000  1.0
  O  O157  1  0.60690000  0.59601000  0.91494000  1.0
  O  O158  1  0.50484000  0.54396000  0.11525000  1.0
  O  O159  1  0.49516000  0.45605000  0.88475000  1.0
  O  O160  1  0.84058000  0.55049000  0.01422000  1.0
  O  O161  1  0.15943000  0.44950000  0.98578000  1.0
