# generated using pymatgen
data_Cu2Mo4H20C32N4O17
_symmetry_space_group_name_H-M   'P 1'
_cell_length_a   7.54139000
_cell_length_b   10.23840000
_cell_length_c   11.36780000
_cell_angle_alpha   78.13330000
_cell_angle_beta   87.14590000
_cell_angle_gamma   83.60200000
_symmetry_Int_Tables_number   1
_chemical_formula_structural   Cu2Mo4H20C32N4O17
_chemical_formula_sum   'Cu2 Mo4 H20 C32 N4 O17'
_cell_volume   853.29382045
_cell_formula_units_Z   1
loop_
 _symmetry_equiv_pos_site_id
 _symmetry_equiv_pos_as_xyz
  1  'x, y, z'
loop_
 _atom_site_type_symbol
 _atom_site_label
 _atom_site_symmetry_multiplicity
 _atom_site_fract_x
 _atom_site_fract_y
 _atom_site_fract_z
 _atom_site_occupancy
  Cu  Cu0  1  0.55761000  0.29528000  0.73031000  1.0
  Cu  Cu1  1  0.44239000  0.70471000  0.26969000  1.0
  Mo  Mo2  1  0.36612000  0.00579000  0.86200000  1.0
  Mo  Mo3  1  0.63388000  0.99421000  0.13800000  1.0
  Mo  Mo4  1  0.93872000  0.05089000  0.85742000  1.0
  Mo  Mo5  1  0.06128000  0.94911000  0.14258000  1.0
  H  H6  1  0.64193000  0.06415000  0.58896000  1.0
  H  H7  1  0.35808000  0.93585000  0.41103000  1.0
  H  H8  1  0.81153000  0.04702000  0.39165000  1.0
  H  H9  1  0.18847000  0.95299000  0.60834000  1.0
  H  H10  1  0.93048000  0.24931000  0.26972000  1.0
  H  H11  1  0.06952000  0.75070000  0.73027000  1.0
  H  H12  1  0.97185000  0.50067000  0.25000000  1.0
  H  H13  1  0.02815000  0.49934000  0.75001000  1.0
  H  H14  1  0.91476000  0.70737000  0.33107000  1.0
  H  H15  1  0.08523000  0.29264000  0.66894000  1.0
  H  H16  1  0.79516000  0.81977000  0.50388000  1.0
  H  H17  1  0.20485000  0.18023000  0.49614000  1.0
  H  H18  1  0.65391000  0.79213000  0.71303000  1.0
  H  H19  1  0.34610000  0.20786000  0.28699000  1.0
  H  H20  1  0.54403000  0.57237000  0.80809000  1.0
  H  H21  1  0.45596000  0.42762000  0.19192000  1.0
  H  H22  1  0.29691000  0.57738000  0.93303000  1.0
  H  H23  1  0.70309000  0.42262000  0.06696000  1.0
  H  H24  1  0.94048000  0.26688000  0.99978000  1.0
  H  H25  1  0.05953000  0.73311000  0.00022000  1.0
  C  C26  1  0.69600000  0.15004000  0.53098000  1.0
  C  C27  1  0.30400000  0.84996000  0.46902000  1.0
  C  C28  1  0.79117000  0.14158000  0.42281000  1.0
  C  C29  1  0.20882000  0.85843000  0.57718000  1.0
  C  C30  1  0.85651000  0.25496000  0.35382000  1.0
  C  C31  1  0.14349000  0.74505000  0.64618000  1.0
  C  C32  1  0.82818000  0.37763000  0.39396000  1.0
  C  C33  1  0.17182000  0.62238000  0.60604000  1.0
  C  C34  1  0.89431000  0.50027000  0.33346000  1.0
  C  C35  1  0.10568000  0.49974000  0.66655000  1.0
  C  C36  1  0.86382000  0.61477000  0.37899000  1.0
  C  C37  1  0.13617000  0.38524000  0.62102000  1.0
  C  C38  1  0.77006000  0.61460000  0.49184000  1.0
  C  C39  1  0.22994000  0.38540000  0.50817000  1.0
  C  C40  1  0.74701000  0.72527000  0.54946000  1.0
  C  C41  1  0.25299000  0.27473000  0.45056000  1.0
  C  C42  1  0.66921000  0.71082000  0.66359000  1.0
  C  C43  1  0.33079000  0.28917000  0.33643000  1.0
  C  C44  1  0.60803000  0.58719000  0.71900000  1.0
  C  C45  1  0.39196000  0.41280000  0.28101000  1.0
  C  C46  1  0.70587000  0.49417000  0.55460000  1.0
  C  C47  1  0.29413000  0.50583000  0.44541000  1.0
  C  C48  1  0.73196000  0.37647000  0.50428000  1.0
  C  C49  1  0.26804000  0.62353000  0.49572000  1.0
  C  C50  1  0.27088000  0.31588000  0.91122000  1.0
  C  C51  1  0.72912000  0.68411000  0.08879000  1.0
  C  C52  1  0.13565000  0.41063000  0.96184000  1.0
  C  C53  1  0.86436000  0.58937000  0.03816000  1.0
  C  C54  1  0.16737000  0.54280000  0.96245000  1.0
  C  C55  1  0.83264000  0.45720000  0.03755000  1.0
  C  C56  1  0.96717000  0.36879000  0.00033000  1.0
  C  C57  1  0.03284000  0.63121000  0.99966000  1.0
  N  N58  1  0.66691000  0.26506000  0.56955000  1.0
  N  N59  1  0.33309000  0.73494000  0.43045000  1.0
  N  N60  1  0.62487000  0.48213000  0.66541000  1.0
  N  N61  1  0.37513000  0.51786000  0.33459000  1.0
  O  O62  1  0.14660000  0.95208000  0.97577000  1.0
  O  O63  1  0.85339000  0.04791000  0.02422000  1.0
  O  O64  1  0.15013000  0.05251000  0.76130000  1.0
  O  O65  1  0.84987000  0.94749000  0.23869000  1.0
  O  O66  1  0.50000000  0.00000000  0.00000000  1.0
  O  O67  1  0.22780000  0.19925000  0.91587000  1.0
  O  O68  1  0.77220000  0.80075000  0.08412000  1.0
  O  O69  1  0.48837000  0.11671000  0.75600000  1.0
  O  O70  1  0.51164000  0.88328000  0.24399000  1.0
  O  O71  1  0.42789000  0.85010000  0.83146000  1.0
  O  O72  1  0.57211000  0.14990000  0.16854000  1.0
  O  O73  1  0.83268000  0.21020000  0.80022000  1.0
  O  O74  1  0.16732000  0.78980000  0.19978000  1.0
  O  O75  1  0.82867000  0.93585000  0.80803000  1.0
  O  O76  1  0.17133000  0.06415000  0.19196000  1.0
  O  O77  1  0.41511000  0.36156000  0.86235000  1.0
  O  O78  1  0.58490000  0.63844000  0.13765000  1.0
