# generated using pymatgen
data_MnH(CO)5
_symmetry_space_group_name_H-M   'P 1'
_cell_length_a   7.03512000
_cell_length_b   15.35870000
_cell_length_c   15.36140000
_cell_angle_alpha   117.69800000
_cell_angle_beta   98.79240000
_cell_angle_gamma   98.77520000
_symmetry_Int_Tables_number   1
_chemical_formula_structural   MnH(CO)5
_chemical_formula_sum   'Mn6 H6 C30 O30'
_cell_volume   1404.11359805
_cell_formula_units_Z   6
loop_
 _symmetry_equiv_pos_site_id
 _symmetry_equiv_pos_as_xyz
  1  'x, y, z'
loop_
 _atom_site_type_symbol
 _atom_site_label
 _atom_site_symmetry_multiplicity
 _atom_site_fract_x
 _atom_site_fract_y
 _atom_site_fract_z
 _atom_site_occupancy
  Mn  Mn0  1  0.47223000  0.26078000  0.58776000  1.0
  Mn  Mn1  1  0.21154000  0.32698000  0.73921000  1.0
  Mn  Mn2  1  0.88451000  0.41229000  0.67312000  1.0
  Mn  Mn3  1  0.52778000  0.73922000  0.41224000  1.0
  Mn  Mn4  1  0.78846000  0.67302000  0.26080000  1.0
  Mn  Mn5  1  0.11549000  0.58771000  0.32688000  1.0
  H  H6  1  0.80306000  0.44223000  0.46554000  1.0
  H  H7  1  0.36080000  0.02318000  0.55767000  1.0
  H  H8  1  0.33753000  0.53437000  0.97674000  1.0
  H  H9  1  0.19694000  0.55777000  0.53446000  1.0
  H  H10  1  0.63920000  0.97682000  0.44233000  1.0
  H  H11  1  0.66247000  0.46563000  0.02326000  1.0
  C  C12  1  0.25869000  0.43689000  0.60752000  1.0
  C  C13  1  0.82175000  0.17065000  0.56313000  1.0
  C  C14  1  0.65107000  0.39253000  0.82939000  1.0
  C  C15  1  0.74130000  0.56311000  0.39248000  1.0
  C  C16  1  0.17825000  0.82935000  0.43687000  1.0
  C  C17  1  0.34893000  0.60747000  0.17061000  1.0
  C  C18  1  0.38528000  0.46614000  0.55178000  1.0
  C  C19  1  0.91919000  0.08566000  0.53389000  1.0
  C  C20  1  0.83347000  0.44824000  0.91434000  1.0
  C  C21  1  0.61472000  0.53386000  0.44822000  1.0
  C  C22  1  0.08081000  0.91434000  0.46611000  1.0
  C  C23  1  0.16653000  0.55177000  0.08565000  1.0
  C  C24  1  0.56032000  0.43198000  0.53186000  1.0
  C  C25  1  0.12835000  0.09986000  0.56801000  1.0
  C  C26  1  0.02845000  0.46808000  0.90015000  1.0
  C  C27  1  0.43968000  0.56801000  0.46814000  1.0
  C  C28  1  0.87165000  0.90014000  0.43199000  1.0
  C  C29  1  0.97155000  0.53192000  0.09985000  1.0
  C  C30  1  0.66929000  0.46755000  0.48063000  1.0
  C  C31  1  0.20172000  0.01303000  0.53239000  1.0
  C  C32  1  0.18865000  0.51928000  0.98696000  1.0
  C  C33  1  0.33071000  0.53245000  0.51937000  1.0
  C  C34  1  0.79828000  0.98697000  0.46762000  1.0
  C  C35  1  0.81135000  0.48072000  0.01304000  1.0
  C  C36  1  0.28045000  0.06652000  0.35283000  1.0
  C  C37  1  0.21438000  0.28620000  0.93342000  1.0
  C  C38  1  0.92815000  0.64716000  0.71373000  1.0
  C  C39  1  0.71955000  0.93348000  0.64717000  1.0
  C  C40  1  0.78562000  0.71380000  0.06658000  1.0
  C  C41  1  0.07184000  0.35284000  0.28627000  1.0
  O  O42  1  0.30816000  0.37778000  0.64021000  1.0
  O  O43  1  0.93020000  0.26243000  0.62220000  1.0
  O  O44  1  0.66780000  0.35971000  0.73760000  1.0
  O  O45  1  0.69184000  0.62222000  0.35979000  1.0
  O  O46  1  0.06981000  0.73757000  0.37779000  1.0
  O  O47  1  0.33220000  0.64029000  0.26240000  1.0
  O  O48  1  0.10490000  0.47063000  0.62261000  1.0
  O  O49  1  0.63422000  0.15198000  0.52936000  1.0
  O  O50  1  0.48223000  0.37758000  0.84809000  1.0
  O  O51  1  0.89510000  0.52937000  0.37739000  1.0
  O  O52  1  0.36578000  0.84802000  0.47064000  1.0
  O  O53  1  0.51777000  0.62242000  0.15191000  1.0
  O  O54  1  0.62786000  0.36898000  0.55996000  1.0
  O  O55  1  0.25887000  0.19092000  0.63107000  1.0
  O  O56  1  0.06788000  0.44003000  0.80908000  1.0
  O  O57  1  0.37214000  0.63102000  0.44004000  1.0
  O  O58  1  0.74113000  0.80908000  0.36893000  1.0
  O  O59  1  0.93212000  0.55997000  0.19092000  1.0
  O  O60  1  0.29286000  0.98341000  0.30222000  1.0
  O  O61  1  0.30975000  0.31872000  0.01656000  1.0
  O  O62  1  0.99108000  0.69770000  0.68113000  1.0
  O  O63  1  0.70714000  0.01659000  0.69778000  1.0
  O  O64  1  0.69025000  0.68129000  0.98344000  1.0
  O  O65  1  0.00892000  0.30230000  0.31887000  1.0
  O  O66  1  0.26608000  0.15028000  0.40203000  1.0
  O  O67  1  0.11632000  0.25163000  0.84965000  1.0
  O  O68  1  0.86467000  0.59802000  0.74839000  1.0
  O  O69  1  0.73391000  0.84971000  0.59797000  1.0
  O  O70  1  0.88369000  0.74838000  0.15036000  1.0
  O  O71  1  0.13532000  0.40197000  0.25161000  1.0
