# generated using pymatgen
data_Na2H24C12S2O17
_symmetry_space_group_name_H-M   'P 1'
_cell_length_a   6.14227000
_cell_length_b   9.64557000
_cell_length_c   9.92774000
_cell_angle_alpha   78.69340000
_cell_angle_beta   76.17050000
_cell_angle_gamma   71.97050000
_symmetry_Int_Tables_number   1
_chemical_formula_structural   Na2H24C12S2O17
_chemical_formula_sum   'Na2 H24 C12 S2 O17'
_cell_volume   538.31406996
_cell_formula_units_Z   1
loop_
 _symmetry_equiv_pos_site_id
 _symmetry_equiv_pos_as_xyz
  1  'x, y, z'
loop_
 _atom_site_type_symbol
 _atom_site_label
 _atom_site_symmetry_multiplicity
 _atom_site_fract_x
 _atom_site_fract_y
 _atom_site_fract_z
 _atom_site_occupancy
  Na  Na0  1  0.61217000  0.87588000  0.35545000  1.0
  Na  Na1  1  0.38434000  0.12430000  0.64148000  1.0
  H  H2  1  0.20313000  0.94129000  0.23571000  1.0
  H  H3  1  0.81381000  0.57811000  0.32500000  1.0
  H  H4  1  0.26477000  0.68914000  0.06466000  1.0
  H  H5  1  0.18794000  0.72180000  0.37576000  1.0
  H  H6  1  0.62622000  0.61499000  0.15672000  1.0
  H  H7  1  0.42288000  0.42241000  0.40539000  1.0
  H  H8  1  0.39568000  0.43186000  0.09830000  1.0
  H  H9  1  0.25637000  0.33400000  0.24834000  1.0
  H  H10  1  0.70335000  0.90615000  0.04627000  1.0
  H  H11  1  0.90777000  0.74324000  0.98614000  1.0
  H  H12  1  0.99618000  0.90873000  0.96332000  1.0
  H  H13  1  0.94854000  0.05651000  0.75606000  1.0
  H  H14  1  0.26233000  0.42122000  0.68087000  1.0
  H  H15  1  0.63620000  0.29947000  0.94234000  1.0
  H  H16  1  0.81095000  0.27846000  0.62721000  1.0
  H  H17  1  0.97765000  0.38548000  0.84585000  1.0
  H  H18  1  0.76879000  0.57106000  0.59687000  1.0
  H  H19  1  0.54656000  0.56044000  0.90953000  1.0
  H  H20  1  0.40619000  0.65962000  0.76708000  1.0
  H  H21  1  0.30156000  0.06184000  0.96234000  1.0
  H  H22  1  0.19870000  0.25164000  0.98746000  1.0
  H  H23  1  0.44786000  0.13492000  0.05679000  1.0
  H  H24  1  0.17290000  0.06140000  0.42446000  1.0
  H  H25  1  0.17097000  0.94950000  0.56193000  1.0
  C  C26  1  0.15756000  0.69425000  0.17151000  1.0
  C  C27  1  0.29290000  0.72282000  0.26870000  1.0
  C  C28  1  0.52234000  0.60192000  0.26380000  1.0
  C  C29  1  0.48335000  0.44885000  0.29236000  1.0
  C  C30  1  0.31174000  0.43451000  0.20958000  1.0
  C  C31  1  0.88656000  0.84254000  0.03201000  1.0
  C  C32  1  0.60815000  0.29809000  0.83634000  1.0
  C  C33  1  0.84156000  0.27434000  0.73332000  1.0
  C  C34  1  0.94721000  0.39662000  0.73831000  1.0
  C  C35  1  0.77779000  0.54775000  0.70871000  1.0
  C  C36  1  0.53514000  0.55915000  0.80032000  1.0
  C  C37  1  0.35419000  0.15796000  0.96996000  1.0
  S  S38  1  0.76744000  0.18039000  0.31953000  1.0
  S  S39  1  0.81132000  0.81954000  0.66934000  1.0
  O  O40  1  0.10427000  0.55535000  0.22178000  1.0
  O  O41  1  0.94898000  0.80400000  0.16878000  1.0
  O  O42  1  0.34706000  0.85998000  0.22011000  1.0
  O  O43  1  0.64572000  0.61771000  0.36226000  1.0
  O  O44  1  0.71474000  0.35189000  0.24938000  1.0
  O  O45  1  0.64322000  0.11229000  0.25529000  1.0
  O  O46  1  0.68721000  0.18116000  0.47050000  1.0
  O  O47  1  0.02264000  0.13069000  0.27738000  1.0
  O  O48  1  0.45150000  0.43783000  0.79299000  1.0
  O  O49  1  0.50697000  0.18713000  0.83865000  1.0
  O  O50  1  0.99849000  0.13758000  0.77502000  1.0
  O  O51  1  0.16411000  0.38142000  0.64180000  1.0
  O  O52  1  0.88183000  0.64953000  0.74327000  1.0
  O  O53  1  0.57117000  0.88490000  0.73516000  1.0
  O  O54  1  0.84525000  0.81376000  0.51962000  1.0
  O  O55  1  0.98374000  0.87563000  0.70582000  1.0
  O  O56  1  0.26927000  0.00555000  0.49419000  1.0
