# generated using pymatgen
data_CuH11C11SN3
_symmetry_space_group_name_H-M   'P 1'
_cell_length_a   5.79521000
_cell_length_b   10.54340000
_cell_length_c   18.39280000
_cell_angle_alpha   89.99930000
_cell_angle_beta   89.99970000
_cell_angle_gamma   99.84640000
_symmetry_Int_Tables_number   1
_chemical_formula_structural   CuH11C11SN3
_chemical_formula_sum   'Cu4 H44 C44 S4 N12'
_cell_volume   1107.26826231
_cell_formula_units_Z   4
loop_
 _symmetry_equiv_pos_site_id
 _symmetry_equiv_pos_as_xyz
  1  'x, y, z'
loop_
 _atom_site_type_symbol
 _atom_site_label
 _atom_site_symmetry_multiplicity
 _atom_site_fract_x
 _atom_site_fract_y
 _atom_site_fract_z
 _atom_site_occupancy
  Cu  Cu0  1  0.90492000  0.53079000  0.56069000  1.0
  Cu  Cu1  1  0.09512000  0.96920000  0.06069000  1.0
  Cu  Cu2  1  0.09513000  0.46920000  0.43931000  1.0
  Cu  Cu3  1  0.90495000  0.03079000  0.93931000  1.0
  H  H4  1  0.32202000  0.35190000  0.58041000  1.0
  H  H5  1  0.67802000  0.14811000  0.08039000  1.0
  H  H6  1  0.67801000  0.64810000  0.41962000  1.0
  H  H7  1  0.32203000  0.85189000  0.91959000  1.0
  H  H8  1  0.54471000  0.20022000  0.64229000  1.0
  H  H9  1  0.45530000  0.29977000  0.14227000  1.0
  H  H10  1  0.45528000  0.79977000  0.35774000  1.0
  H  H11  1  0.54472000  0.70022000  0.85771000  1.0
  H  H12  1  0.45368000  0.13201000  0.77057000  1.0
  H  H13  1  0.54629000  0.36798000  0.27054000  1.0
  H  H14  1  0.54626000  0.86799000  0.22946000  1.0
  H  H15  1  0.45368000  0.63200000  0.72943000  1.0
  H  H16  1  0.14967000  0.21610000  0.84104000  1.0
  H  H17  1  0.85030000  0.28390000  0.34102000  1.0
  H  H18  1  0.85027000  0.78391000  0.15898000  1.0
  H  H19  1  0.14967000  0.71609000  0.65896000  1.0
  H  H20  1  0.69493000  0.52311000  0.71732000  1.0
  H  H21  1  0.30507000  0.97689000  0.21732000  1.0
  H  H22  1  0.30506000  0.47690000  0.28267000  1.0
  H  H23  1  0.69494000  0.02311000  0.78267000  1.0
  H  H24  1  0.74839000  0.29595000  0.86506000  1.0
  H  H25  1  0.25159000  0.20405000  0.36506000  1.0
  H  H26  1  0.25157000  0.70406000  0.13494000  1.0
  H  H27  1  0.74839000  0.79594000  0.63494000  1.0
  H  H28  1  0.63241000  0.43610000  0.84359000  1.0
  H  H29  1  0.36757000  0.06391000  0.34359000  1.0
  H  H30  1  0.36755000  0.56392000  0.15641000  1.0
  H  H31  1  0.63242000  0.93609000  0.65641000  1.0
  H  H32  1  0.01232000  0.57424000  0.87761000  1.0
  H  H33  1  0.98767000  0.92576000  0.37760000  1.0
  H  H34  1  0.98767000  0.42576000  0.12240000  1.0
  H  H35  1  0.01232000  0.07423000  0.62239000  1.0
  H  H36  1  0.14165000  0.43623000  0.89075000  1.0
  H  H37  1  0.85832000  0.06377000  0.39074000  1.0
  H  H38  1  0.85830000  0.56377000  0.10926000  1.0
  H  H39  1  0.14165000  0.93622000  0.60925000  1.0
  H  H40  1  0.74507000  0.51141000  0.98290000  1.0
  H  H41  1  0.25491000  0.98857000  0.48288000  1.0
  H  H42  1  0.25490000  0.48859000  0.01711000  1.0
  H  H43  1  0.74509000  0.01141000  0.51710000  1.0
  H  H44  1  0.85257000  0.36495000  0.99205000  1.0
  H  H45  1  0.14743000  0.13504000  0.49204000  1.0
  H  H46  1  0.14740000  0.63505000  0.00796000  1.0
  H  H47  1  0.85257000  0.86495000  0.50795000  1.0
  C  C48  1  0.10908000  0.36790000  0.67582000  1.0
  C  C49  1  0.89095000  0.13211000  0.17581000  1.0
  C  C50  1  0.89094000  0.63211000  0.32420000  1.0
  C  C51  1  0.10907000  0.86789000  0.82418000  1.0
  C  C52  1  0.28350000  0.32153000  0.63631000  1.0
  C  C53  1  0.71651000  0.17847000  0.13629000  1.0
  C  C54  1  0.71651000  0.67847000  0.36372000  1.0
  C  C55  1  0.28351000  0.82153000  0.86369000  1.0
  C  C56  1  0.40616000  0.23676000  0.67162000  1.0
  C  C57  1  0.59384000  0.26324000  0.17159000  1.0
  C  C58  1  0.59383000  0.76324000  0.32841000  1.0
  C  C59  1  0.40617000  0.73676000  0.82838000  1.0
  C  C60  1  0.35652000  0.19897000  0.74427000  1.0
  C  C61  1  0.64346000  0.30103000  0.24425000  1.0
  C  C62  1  0.64345000  0.80103000  0.25576000  1.0
  C  C63  1  0.35654000  0.69896000  0.75574000  1.0
  C  C64  1  0.18544000  0.24537000  0.78474000  1.0
  C  C65  1  0.81455000  0.25464000  0.28473000  1.0
  C  C66  1  0.81453000  0.75464000  0.21528000  1.0
  C  C67  1  0.18544000  0.74535000  0.71526000  1.0
  C  C68  1  0.06337000  0.33035000  0.74921000  1.0
  C  C69  1  0.93663000  0.16966000  0.24919000  1.0
  C  C70  1  0.93662000  0.66966000  0.25081000  1.0
  C  C71  1  0.06338000  0.83034000  0.75079000  1.0
  C  C72  1  0.83124000  0.46460000  0.71461000  1.0
  C  C73  1  0.16876000  0.03540000  0.21461000  1.0
  C  C74  1  0.16875000  0.53541000  0.28539000  1.0
  C  C75  1  0.83125000  0.96460000  0.78539000  1.0
  C  C76  1  0.79512000  0.39579000  0.84591000  1.0
  C  C77  1  0.20487000  0.10423000  0.34588000  1.0
  C  C78  1  0.20485000  0.60423000  0.15412000  1.0
  C  C79  1  0.79512000  0.89579000  0.65409000  1.0
  C  C80  1  0.97597000  0.47348000  0.89597000  1.0
  C  C81  1  0.02402000  0.02653000  0.39596000  1.0
  C  C82  1  0.02400000  0.52653000  0.10404000  1.0
  C  C83  1  0.97597000  0.97347000  0.60403000  1.0
  C  C84  1  0.90206000  0.46643000  0.97544000  1.0
  C  C85  1  0.09790000  0.03355000  0.47544000  1.0
  C  C86  1  0.09789000  0.53356000  0.02456000  1.0
  C  C87  1  0.90207000  0.96643000  0.52456000  1.0
  C  C88  1  0.55314000  0.36503000  0.45961000  1.0
  C  C89  1  0.44694000  0.13497000  0.95961000  1.0
  C  C90  1  0.44692000  0.63498000  0.54039000  1.0
  C  C91  1  0.55312000  0.86503000  0.04039000  1.0
  S  S92  1  0.79803000  0.32668000  0.49055000  1.0
  S  S93  1  0.20205000  0.17332000  0.99055000  1.0
  S  S94  1  0.20202000  0.67332000  0.50945000  1.0
  S  S95  1  0.79802000  0.82668000  0.00945000  1.0
  N  N96  1  0.95909000  0.45186000  0.65599000  1.0
  N  N97  1  0.04092000  0.04815000  0.15599000  1.0
  N  N98  1  0.04093000  0.54815000  0.34401000  1.0
  N  N99  1  0.95911000  0.95185000  0.84401000  1.0
  N  N100  1  0.88526000  0.39394000  0.77196000  1.0
  N  N101  1  0.11472000  0.10607000  0.27195000  1.0
  N  N102  1  0.11471000  0.60607000  0.22805000  1.0
  N  N103  1  0.88526000  0.89393000  0.72804000  1.0
  N  N104  1  0.37341000  0.39180000  0.43946000  1.0
  N  N105  1  0.62669000  0.10820000  0.93946000  1.0
  N  N106  1  0.62667000  0.60821000  0.56054000  1.0
  N  N107  1  0.37340000  0.89179000  0.06054000  1.0
