# generated using pymatgen
data_Zr3H37C49NO16
_symmetry_space_group_name_H-M   'P 1'
_cell_length_a   19.02760545
_cell_length_b   19.06883376
_cell_length_c   19.06990000
_cell_angle_alpha   90.14060765
_cell_angle_beta   119.89608294
_cell_angle_gamma   119.88675181
_symmetry_Int_Tables_number   1
_chemical_formula_structural   Zr3H37C49NO16
_chemical_formula_sum   'Zr6 H74 C98 N2 O32'
_cell_volume   4902.66062631
_cell_formula_units_Z   2
loop_
 _symmetry_equiv_pos_site_id
 _symmetry_equiv_pos_as_xyz
  1  'x, y, z'
loop_
 _atom_site_type_symbol
 _atom_site_label
 _atom_site_symmetry_multiplicity
 _atom_site_fract_x
 _atom_site_fract_y
 _atom_site_fract_z
 _atom_site_occupancy
  Zr  Zr0  1  0.49355000  0.90371000  0.90462000  1.0
  Zr  Zr1  1  0.50721000  0.09532000  0.09639000  1.0
  Zr  Zr2  1  0.68616000  0.08887000  0.08961000  1.0
  Zr  Zr3  1  0.31460000  0.91042000  0.91113000  1.0
  Zr  Zr4  1  0.50039000  0.90703000  0.09293000  1.0
  Zr  Zr5  1  0.50036000  0.09196000  0.90811000  1.0
  H  H6  1  0.64139000  0.92141000  0.06828000  1.0
  H  H7  1  0.35937000  0.93167000  0.07857000  1.0
  H  H8  1  0.65142000  0.21799000  0.07322000  1.0
  H  H9  1  0.34925000  0.92698000  0.78202000  1.0
  H  H10  1  0.51528000  0.46313000  0.11865000  1.0
  H  H11  1  0.53195000  0.55996000  0.90928000  1.0
  H  H12  1  0.43026000  0.64656000  0.06666000  1.0
  H  H13  1  0.42131000  0.51188000  0.06589000  1.0
  H  H14  1  0.46154000  0.29715000  0.87626000  1.0
  H  H15  1  0.44543000  0.41889000  0.86362000  1.0
  H  H16  1  0.46665000  0.08944000  0.43889000  1.0
  H  H17  1  0.48304000  0.88038000  0.53570000  1.0
  H  H18  1  0.53920000  0.12377000  0.70277000  1.0
  H  H19  1  0.55476000  0.13604000  0.58068000  1.0
  H  H20  1  0.56988000  0.93297000  0.35339000  1.0
  H  H21  1  0.57843000  0.93368000  0.48791000  1.0
  H  H22  1  0.84606000  0.46615000  0.90310000  1.0
  H  H23  1  0.14979000  0.55485000  0.11987000  1.0
  H  H24  1  0.08052000  0.65783000  0.87152000  1.0
  H  H25  1  0.94609000  0.51882000  0.85747000  1.0
  H  H26  1  0.91983000  0.28231000  0.06499000  1.0
  H  H27  1  0.05361000  0.40812000  0.06422000  1.0
  H  H28  1  0.85091000  0.88108000  0.44631000  1.0
  H  H29  1  0.15468000  0.09802000  0.53479000  1.0
  H  H30  1  0.08098000  0.93550000  0.71826000  1.0
  H  H31  1  0.94722000  0.93655000  0.59275000  1.0
  H  H32  1  0.92011000  0.12875000  0.34231000  1.0
  H  H33  1  0.05450000  0.14319000  0.48163000  1.0
  H  H34  1  0.29302000  0.12290000  0.11420000  1.0
  H  H35  1  0.24016000  0.18487000  0.17505000  1.0
  H  H36  1  0.07916000  0.90157000  0.88831000  1.0
  H  H37  1  0.70763000  0.88585000  0.87693000  1.0
  H  H38  1  0.76054000  0.82496000  0.81505000  1.0
  H  H39  1  0.92150000  0.11162000  0.09842000  1.0
  H  H40  1  0.06991000  0.47128000  0.44737000  1.0
  H  H41  1  0.93068000  0.55266000  0.52886000  1.0
  H  H42  1  0.28226000  0.65575000  0.71544000  1.0
  H  H43  1  0.16105000  0.51976000  0.59204000  1.0
  H  H44  1  0.71841000  0.28431000  0.34435000  1.0
  H  H45  1  0.83946000  0.40780000  0.48024000  1.0
  H  H46  1  0.54316000  0.38374000  0.19861000  1.0
  H  H47  1  0.59540000  0.33344000  0.18462000  1.0
  H  H48  1  0.46839000  0.27175000  0.14086000  1.0
  H  H49  1  0.56973000  0.67344000  0.86578000  1.0
  H  H50  1  0.59806000  0.76879000  0.92225000  1.0
  H  H51  1  0.47855000  0.69525000  0.82949000  1.0
  H  H52  1  0.42826000  0.13229000  0.32491000  1.0
  H  H53  1  0.40147000  0.07663000  0.23006000  1.0
  H  H54  1  0.52046000  0.16968000  0.30426000  1.0
  H  H55  1  0.45372000  0.80006000  0.61441000  1.0
  H  H56  1  0.40375000  0.81536000  0.66651000  1.0
  H  H57  1  0.53038000  0.85782000  0.72661000  1.0
  H  H58  1  0.68843000  0.38891000  0.85688000  1.0
  H  H59  1  0.65141000  0.32753000  0.91736000  1.0
  H  H60  1  0.63089000  0.27594000  0.82630000  1.0
  H  H61  1  0.30536000  0.67080000  0.20571000  1.0
  H  H62  1  0.34366000  0.76884000  0.18254000  1.0
  H  H63  1  0.36632000  0.69930000  0.15306000  1.0
  H  H64  1  0.69534000  0.79518000  0.33076000  1.0
  H  H65  1  0.65734000  0.81755000  0.23228000  1.0
  H  H66  1  0.63428000  0.84779000  0.30108000  1.0
  H  H67  1  0.31230000  0.14456000  0.61205000  1.0
  H  H68  1  0.34914000  0.08354000  0.67259000  1.0
  H  H69  1  0.36996000  0.17435000  0.72505000  1.0
  H  H70  1  0.04508000  0.39544000  0.33800000  1.0
  H  H71  1  0.92544000  0.33664000  0.23810000  1.0
  H  H72  1  0.96016000  0.28212000  0.30699000  1.0
  H  H73  1  0.95568000  0.66221000  0.60465000  1.0
  H  H74  1  0.07535000  0.76206000  0.66342000  1.0
  H  H75  1  0.04066000  0.69321000  0.71797000  1.0
  H  H76  1  0.06152000  0.18279000  0.19602000  1.0
  H  H77  1  0.18294000  0.23333000  0.23657000  1.0
  H  H78  1  0.93921000  0.80396000  0.81721000  1.0
  H  H79  1  0.81778000  0.76344000  0.76659000  1.0
  C  C80  1  0.48548000  0.75654000  0.99080000  1.0
  C  C81  1  0.51481000  0.00881000  0.24330000  1.0
  C  C82  1  0.50107000  0.23548000  0.00304000  1.0
  C  C83  1  0.49938000  0.99698000  0.76437000  1.0
  C  C84  1  0.72951000  0.99548000  0.98975000  1.0
  C  C85  1  0.25469000  0.76045000  0.76817000  1.0
  C  C86  1  0.27119000  0.01015000  0.00457000  1.0
  C  C87  1  0.74609000  0.23168000  0.23971000  1.0
  C  C88  1  0.73430000  0.99749000  0.23613000  1.0
  C  C89  1  0.73356000  0.22685000  0.98957000  1.0
  C  C90  1  0.26715000  0.01068000  0.77342000  1.0
  C  C91  1  0.26646000  0.76396000  0.00259000  1.0
  C  C92  1  0.49426000  0.30999000  0.00245000  1.0
  C  C93  1  0.48178000  0.67668000  0.98609000  1.0
  C  C94  1  0.50787000  0.35586000  0.07189000  1.0
  C  C95  1  0.50121000  0.42559000  0.06416000  1.0
  C  C96  1  0.50859000  0.65149000  0.93870000  1.0
  C  C97  1  0.50678000  0.57742000  0.94218000  1.0
  C  C98  1  0.45165000  0.62600000  0.03181000  1.0
  C  C99  1  0.44796000  0.55149000  0.03213000  1.0
  C  C100  1  0.47281000  0.33442000  0.92887000  1.0
  C  C101  1  0.46495000  0.40293000  0.92246000  1.0
  C  C102  1  0.48026000  0.45069000  0.99108000  1.0
  C  C103  1  0.47734000  0.52656000  0.98803000  1.0
  C  C104  1  0.51794000  0.01323000  0.32288000  1.0
  C  C105  1  0.50556000  0.99726000  0.68953000  1.0
  C  C106  1  0.49057000  0.06028000  0.34769000  1.0
  C  C107  1  0.49216000  0.05678000  0.42165000  1.0
  C  C108  1  0.49112000  0.92746000  0.64330000  1.0
  C  C109  1  0.49758000  0.93503000  0.57347000  1.0
  C  C110  1  0.52736000  0.07093000  0.66523000  1.0
  C  C111  1  0.53492000  0.07715000  0.59656000  1.0
  C  C112  1  0.54818000  0.96764000  0.37371000  1.0
  C  C113  1  0.55163000  0.96727000  0.44810000  1.0
  C  C114  1  0.52188000  0.01119000  0.47272000  1.0
  C  C115  1  0.51898000  0.00823000  0.54857000  1.0
  C  C116  1  0.80798000  0.30210000  0.98336000  1.0
  C  C117  1  0.19071000  0.68275000  0.00155000  1.0
  C  C118  1  0.78483000  0.35269000  0.93442000  1.0
  C  C119  1  0.86215000  0.42461000  0.93729000  1.0
  C  C120  1  0.21228000  0.65351000  0.07302000  1.0
  C  C121  1  0.13485000  0.57625000  0.06418000  1.0
  C  C122  1  0.09440000  0.63378000  0.92540000  1.0
  C  C123  1  0.01943000  0.55676000  0.91809000  1.0
  C  C124  1  0.90493000  0.32348000  0.02950000  1.0
  C  C125  1  0.97966000  0.39426000  0.02971000  1.0
  C  C126  1  0.95959000  0.44738000  0.98448000  1.0
  C  C127  1  0.03854000  0.52677000  0.98829000  1.0
  C  C128  1  0.81000000  0.99879000  0.31763000  1.0
  C  C129  1  0.19279000  0.01724000  0.69848000  1.0
  C  C130  1  0.78844000  0.92755000  0.34722000  1.0
  C  C131  1  0.86586000  0.93662000  0.42468000  1.0
  C  C132  1  0.21593000  0.06643000  0.64805000  1.0
  C  C133  1  0.13861000  0.06369000  0.57626000  1.0
  C  C134  1  0.09587000  0.97114000  0.67717000  1.0
  C  C135  1  0.02114000  0.97107000  0.60655000  1.0
  C  C136  1  0.90623000  0.07499000  0.36655000  1.0
  C  C137  1  0.98120000  0.08254000  0.44378000  1.0
  C  C138  1  0.96215000  0.01251000  0.47403000  1.0
  C  C139  1  0.04115000  0.01641000  0.55347000  1.0
  C  C140  1  0.21536000  0.07347000  0.06369000  1.0
  C  C141  1  0.14003000  0.07274000  0.06150000  1.0
  C  C142  1  0.16223000  0.13531000  0.12448000  1.0
  C  C143  1  0.09253000  0.94722000  0.93565000  1.0
  C  C144  1  0.01505000  0.94328000  0.93141000  1.0
  C  C145  1  0.91158000  0.87647000  0.86510000  1.0
  C  C146  1  0.78531000  0.93632000  0.92642000  1.0
  C  C147  1  0.86063000  0.93849000  0.92717000  1.0
  C  C148  1  0.83846000  0.87553000  0.86460000  1.0
  C  C149  1  0.90815000  0.06431000  0.05276000  1.0
  C  C150  1  0.98564000  0.06855000  0.05670000  1.0
  C  C151  1  0.08911000  0.13483000  0.12352000  1.0
  C  C152  1  0.19181000  0.01115000  0.00160000  1.0
  C  C153  1  0.03841000  0.00661000  0.99491000  1.0
  C  C154  1  0.80888000  0.99841000  0.98876000  1.0
  C  C155  1  0.96227000  0.00505000  0.99335000  1.0
  C  C156  1  0.82566000  0.30648000  0.32099000  1.0
  C  C157  1  0.17506000  0.67914000  0.69341000  1.0
  C  C158  1  0.92667000  0.35817000  0.35089000  1.0
  C  C159  1  0.99283000  0.42898000  0.42604000  1.0
  C  C160  1  0.07403000  0.64922000  0.64185000  1.0
  C  C161  1  0.00777000  0.57400000  0.57107000  1.0
  C  C162  1  0.20432000  0.63170000  0.67378000  1.0
  C  C163  1  0.13671000  0.55643000  0.60431000  1.0
  C  C164  1  0.79635000  0.32606000  0.36839000  1.0
  C  C165  1  0.86386000  0.39559000  0.44360000  1.0
  C  C166  1  0.96394000  0.44952000  0.47326000  1.0
  C  C167  1  0.03662000  0.52677000  0.55049000  1.0
  C  C168  1  0.53019000  0.33541000  0.15358000  1.0
  C  C169  1  0.54095000  0.69997000  0.88662000  1.0
  C  C170  1  0.45795000  0.11213000  0.29896000  1.0
  C  C171  1  0.46818000  0.84557000  0.66347000  1.0
  C  C172  1  0.68366000  0.33567000  0.88119000  1.0
  C  C173  1  0.31202000  0.70073000  0.15824000  1.0
  C  C174  1  0.68873000  0.84235000  0.30025000  1.0
  C  C175  1  0.31706000  0.11979000  0.66503000  1.0
  C  C176  1  0.96663000  0.34263000  0.30607000  1.0
  C  C177  1  0.03414000  0.69409000  0.65744000  1.0
  N  N178  1  0.11223000  0.19836000  0.18329000  1.0
  N  N179  1  0.88849000  0.81670000  0.80159000  1.0
  O  O180  1  0.48454000  0.78868000  0.93176000  1.0
  O  O181  1  0.51597000  0.06797000  0.21129000  1.0
  O  O182  1  0.50449000  0.20444000  0.06317000  1.0
  O  O183  1  0.49625000  0.93696000  0.79553000  1.0
  O  O184  1  0.75904000  0.05465000  0.05053000  1.0
  O  O185  1  0.22952000  0.79488000  0.80027000  1.0
  O  O186  1  0.24166000  0.94934000  0.94544000  1.0
  O  O187  1  0.77129000  0.19965000  0.20526000  1.0
  O  O188  1  0.64307000  0.93844000  0.20340000  1.0
  O  O189  1  0.64212000  0.19570000  0.93321000  1.0
  O  O190  1  0.35858000  0.06689000  0.80441000  1.0
  O  O191  1  0.35768000  0.79654000  0.06151000  1.0
  O  O192  1  0.76509000  0.19881000  0.05092000  1.0
  O  O193  1  0.23562000  0.94924000  0.80136000  1.0
  O  O194  1  0.23597000  0.79590000  0.94488000  1.0
  O  O195  1  0.76481000  0.05510000  0.20411000  1.0
  O  O196  1  0.63912000  0.93473000  0.93233000  1.0
  O  O197  1  0.65664000  0.20474000  0.20913000  1.0
  O  O198  1  0.36159000  0.06759000  0.06533000  1.0
  O  O199  1  0.34411000  0.79104000  0.79506000  1.0
  O  O200  1  0.49706000  0.05617000  0.79272000  1.0
  O  O201  1  0.49048000  0.78839000  0.05357000  1.0
  O  O202  1  0.51011000  0.94620000  0.21157000  1.0
  O  O203  1  0.50364000  0.20730000  0.94395000  1.0
  O  O204  1  0.39168000  0.94756000  0.84416000  1.0
  O  O205  1  0.60903000  0.15583000  0.05256000  1.0
  O  O206  1  0.39975000  0.95133000  0.05666000  1.0
  O  O207  1  0.60103000  0.94334000  0.04862000  1.0
  O  O208  1  0.58047000  0.03797000  0.11571000  1.0
  O  O209  1  0.42030000  0.88433000  0.96198000  1.0
  O  O210  1  0.42597000  0.04074000  0.96503000  1.0
  O  O211  1  0.57475000  0.03503000  0.95930000  1.0
