# generated using pymatgen
data_Zn2H10C9N4O3
_symmetry_space_group_name_H-M   'P 1'
_cell_length_a   4.68805000
_cell_length_b   10.56390000
_cell_length_c   12.30510000
_cell_angle_alpha   90.00000000
_cell_angle_beta   90.00000000
_cell_angle_gamma   90.00000000
_symmetry_Int_Tables_number   1
_chemical_formula_structural   Zn2H10C9N4O3
_chemical_formula_sum   'Zn4 H20 C18 N8 O6'
_cell_volume   609.39889702
_cell_formula_units_Z   2
loop_
 _symmetry_equiv_pos_site_id
 _symmetry_equiv_pos_as_xyz
  1  'x, y, z'
loop_
 _atom_site_type_symbol
 _atom_site_label
 _atom_site_symmetry_multiplicity
 _atom_site_fract_x
 _atom_site_fract_y
 _atom_site_fract_z
 _atom_site_occupancy
  Zn  Zn0  1  0.94754000  0.05235000  0.13845000  1.0
  Zn  Zn1  1  0.94754000  0.94765000  0.86155000  1.0
  Zn  Zn2  1  0.94754000  0.55235000  0.36155000  1.0
  Zn  Zn3  1  0.94754000  0.44765000  0.63845000  1.0
  H  H4  1  0.30748000  0.28231000  0.04083000  1.0
  H  H5  1  0.30748000  0.71769000  0.95917000  1.0
  H  H6  1  0.30748000  0.78231000  0.45917000  1.0
  H  H7  1  0.30748000  0.21769000  0.54083000  1.0
  H  H8  1  0.28640000  0.51761000  0.14099000  1.0
  H  H9  1  0.28640000  0.48239000  0.85901000  1.0
  H  H10  1  0.28640000  0.01761000  0.35901000  1.0
  H  H11  1  0.28640000  0.98239000  0.64099000  1.0
  H  H12  1  0.74927000  0.29059000  0.41784000  1.0
  H  H13  1  0.74927000  0.70940000  0.58216000  1.0
  H  H14  1  0.74927000  0.79060000  0.08216000  1.0
  H  H15  1  0.74927000  0.20941000  0.91784000  1.0
  H  H16  1  0.76107000  0.14252000  0.34963000  1.0
  H  H17  1  0.76107000  0.85748000  0.65037000  1.0
  H  H18  1  0.76107000  0.64252000  0.15037000  1.0
  H  H19  1  0.76107000  0.35748000  0.84963000  1.0
  H  H20  1  0.49601000  0.25608000  0.31416000  1.0
  H  H21  1  0.49601000  0.74393000  0.68584000  1.0
  H  H22  1  0.49601000  0.75607000  0.18584000  1.0
  H  H23  1  0.49601000  0.24393000  0.81416000  1.0
  C  C24  1  0.91662000  0.29794000  0.25587000  1.0
  C  C25  1  0.91662000  0.70206000  0.74413000  1.0
  C  C26  1  0.91662000  0.79794000  0.24413000  1.0
  C  C27  1  0.91662000  0.20206000  0.75587000  1.0
  C  C28  1  0.19027000  0.31349000  0.11179000  1.0
  C  C29  1  0.19027000  0.68651000  0.88821000  1.0
  C  C30  1  0.19027000  0.81349000  0.38821000  1.0
  C  C31  1  0.19027000  0.18651000  0.61179000  1.0
  C  C32  1  0.18070000  0.42964000  0.16168000  1.0
  C  C33  1  0.18070000  0.57036000  0.83832000  1.0
  C  C34  1  0.18069000  0.92964000  0.33832000  1.0
  C  C35  1  0.18069000  0.07036000  0.66168000  1.0
  C  C36  1  0.42462000  0.00000000  0.00000000  1.0
  C  C37  1  0.42462000  0.50000000  0.50000000  1.0
  C  C38  1  0.72002000  0.24412000  0.33894000  1.0
  C  C39  1  0.72002000  0.75588000  0.66106000  1.0
  C  C40  1  0.72002000  0.74412000  0.16106000  1.0
  C  C41  1  0.72002000  0.25588000  0.83894000  1.0
  N  N42  1  0.00790000  0.41930000  0.25252000  1.0
  N  N43  1  0.00790000  0.58070000  0.74748000  1.0
  N  N44  1  0.00790000  0.91930000  0.24748000  1.0
  N  N45  1  0.00790000  0.08070000  0.75252000  1.0
  N  N46  1  0.02371000  0.23090000  0.17170000  1.0
  N  N47  1  0.02371000  0.76910000  0.82830000  1.0
  N  N48  1  0.02371000  0.73090000  0.32830000  1.0
  N  N49  1  0.02371000  0.26910000  0.67170000  1.0
  O  O50  1  0.54515000  0.04232000  0.08573000  1.0
  O  O51  1  0.54515000  0.95768000  0.91427000  1.0
  O  O52  1  0.54515000  0.54232000  0.41427000  1.0
  O  O53  1  0.54515000  0.45768000  0.58573000  1.0
  O  O54  1  0.14074000  0.00000000  0.00000000  1.0
  O  O55  1  0.14074000  0.50000000  0.50000000  1.0
