# generated using pymatgen
data_AlH7C12SNClO5
_symmetry_space_group_name_H-M   'P 1'
_cell_length_a   6.63891000
_cell_length_b   12.59100000
_cell_length_c   15.36769628
_cell_angle_alpha   70.72652378
_cell_angle_beta   79.79991663
_cell_angle_gamma   76.25280000
_symmetry_Int_Tables_number   1
_chemical_formula_structural   AlH7C12SNClO5
_chemical_formula_sum   'Al2 H14 C24 S2 N2 Cl2 O10'
_cell_volume   1171.02412373
_cell_formula_units_Z   2
loop_
 _symmetry_equiv_pos_site_id
 _symmetry_equiv_pos_as_xyz
  1  'x, y, z'
loop_
 _atom_site_type_symbol
 _atom_site_label
 _atom_site_symmetry_multiplicity
 _atom_site_fract_x
 _atom_site_fract_y
 _atom_site_fract_z
 _atom_site_occupancy
  Al  Al0  1  0.50012000  0.99988000  0.49985000  1.0
  Al  Al1  1  0.00004000  0.99991000  0.49997000  1.0
  H  H2  1  0.81479000  0.92457000  0.41701000  1.0
  H  H3  1  0.18560000  0.07517000  0.58281000  1.0
  H  H4  1  0.01824000  0.84806000  0.76387000  1.0
  H  H5  1  0.11210000  0.68969000  0.90889000  1.0
  H  H6  1  0.63287000  0.52843000  0.88344000  1.0
  H  H7  1  0.36659000  0.47184000  0.11681000  1.0
  H  H8  1  0.88774000  0.31046000  0.09117000  1.0
  H  H9  1  0.98182000  0.15198000  0.23610000  1.0
  H  H10  1  0.43014000  0.59918000  0.76412000  1.0
  H  H11  1  0.55836000  0.66990000  0.65563000  1.0
  H  H12  1  0.36688000  0.75117000  0.71461000  1.0
  H  H13  1  0.63323000  0.24911000  0.28533000  1.0
  H  H14  1  0.44173000  0.33017000  0.34449000  1.0
  H  H15  1  0.56934000  0.40109000  0.23594000  1.0
  C  C16  1  0.33692000  0.81265000  0.48146000  1.0
  C  C17  1  0.26095000  0.12613000  0.34484000  1.0
  C  C18  1  0.66308000  0.18722000  0.51834000  1.0
  C  C19  1  0.73904000  0.87379000  0.65506000  1.0
  C  C20  1  0.77375000  0.77762000  0.74245000  1.0
  C  C21  1  0.93427000  0.77734000  0.79166000  1.0
  C  C22  1  0.98724000  0.69012000  0.87137000  1.0
  C  C23  1  0.87751000  0.59935000  0.90353000  1.0
  C  C24  1  0.71548000  0.59992000  0.85594000  1.0
  C  C25  1  0.66085000  0.68702000  0.77471000  1.0
  C  C26  1  0.28412000  0.40027000  0.14426000  1.0
  C  C27  1  0.12210000  0.40090000  0.09665000  1.0
  C  C28  1  0.01255000  0.31005000  0.12872000  1.0
  C  C29  1  0.06563000  0.22276000  0.20837000  1.0
  C  C30  1  0.22616000  0.22245000  0.25755000  1.0
  C  C31  1  0.33896000  0.31308000  0.22541000  1.0
  C  C32  1  0.40719000  0.36649000  0.54585000  1.0
  C  C33  1  0.59324000  0.63333000  0.45421000  1.0
  C  C34  1  0.59695000  0.30848000  0.51432000  1.0
  C  C35  1  0.40332000  0.69136000  0.48562000  1.0
  C  C36  1  0.59472000  0.51479000  0.47603000  1.0
  C  C37  1  0.40583000  0.48502000  0.52416000  1.0
  C  C38  1  0.49421000  0.67624000  0.72513000  1.0
  C  C39  1  0.50564000  0.32394000  0.27492000  1.0
  S  S40  1  0.77358000  0.39856000  0.45808000  1.0
  S  S41  1  0.22684000  0.60124000  0.54198000  1.0
  N  N42  1  0.91790000  0.50356000  0.98266000  1.0
  N  N43  1  0.08166000  0.49671000  0.01756000  1.0
  Cl  Cl44  1  0.19812000  0.30730000  0.60601000  1.0
  Cl  Cl45  1  0.80224000  0.69256000  0.39399000  1.0
  O  O46  1  0.47691000  0.87295000  0.46208000  1.0
  O  O47  1  0.11885000  0.06584000  0.37675000  1.0
  O  O48  1  0.85824000  0.15251000  0.50043000  1.0
  O  O49  1  0.57380000  0.89101000  0.61699000  1.0
  O  O50  1  0.52293000  0.12707000  0.53741000  1.0
  O  O51  1  0.88101000  0.93417000  0.62318000  1.0
  O  O52  1  0.14181000  0.84723000  0.49959000  1.0
  O  O53  1  0.42649000  0.10872000  0.38275000  1.0
  O  O54  1  0.77870000  0.98103000  0.45026000  1.0
  O  O55  1  0.22161000  0.01866000  0.54961000  1.0
