# generated using pymatgen
data_CuH6C9(NO)4
_symmetry_space_group_name_H-M   'P 1'
_cell_length_a   9.06689000
_cell_length_b   9.33332000
_cell_length_c   13.65910000
_cell_angle_alpha   89.99930000
_cell_angle_beta   89.99990000
_cell_angle_gamma   89.64710000
_symmetry_Int_Tables_number   1
_chemical_formula_structural   CuH6C9(NO)4
_chemical_formula_sum   'Cu4 H24 C36 N16 O16'
_cell_volume   1155.86829064
_cell_formula_units_Z   4
loop_
 _symmetry_equiv_pos_site_id
 _symmetry_equiv_pos_as_xyz
  1  'x, y, z'
loop_
 _atom_site_type_symbol
 _atom_site_label
 _atom_site_symmetry_multiplicity
 _atom_site_fract_x
 _atom_site_fract_y
 _atom_site_fract_z
 _atom_site_occupancy
  Cu  Cu0  1  0.36818000  0.57193000  0.58272000  1.0
  Cu  Cu1  1  0.63182000  0.92808000  0.08271000  1.0
  Cu  Cu2  1  0.63181000  0.42807000  0.41729000  1.0
  Cu  Cu3  1  0.36818000  0.07193000  0.91730000  1.0
  H  H4  1  0.74867000  0.97625000  0.60076000  1.0
  H  H5  1  0.25134000  0.52374000  0.10076000  1.0
  H  H6  1  0.25135000  0.02375000  0.39924000  1.0
  H  H7  1  0.74864000  0.47626000  0.89924000  1.0
  H  H8  1  0.57271000  0.81748000  0.50971000  1.0
  H  H9  1  0.42730000  0.68252000  0.00971000  1.0
  H  H10  1  0.42731000  0.18251000  0.49028000  1.0
  H  H11  1  0.57267000  0.31750000  0.99029000  1.0
  H  H12  1  0.14583000  0.36064000  0.68250000  1.0
  H  H13  1  0.85416000  0.13936000  0.18249000  1.0
  H  H14  1  0.85416000  0.63935000  0.31752000  1.0
  H  H15  1  0.14586000  0.86066000  0.81751000  1.0
  H  H16  1  0.94027000  0.23519000  0.58114000  1.0
  H  H17  1  0.05972000  0.26480000  0.08114000  1.0
  H  H18  1  0.05973000  0.76479000  0.41887000  1.0
  H  H19  1  0.94028000  0.73520000  0.91884000  1.0
  H  H20  1  0.97269000  0.27417000  0.40064000  1.0
  H  H21  1  0.02731000  0.22584000  0.90064000  1.0
  H  H22  1  0.02731000  0.72581000  0.59937000  1.0
  H  H23  1  0.97268000  0.77418000  0.09935000  1.0
  H  H24  1  0.20849000  0.46122000  0.38372000  1.0
  H  H25  1  0.79150000  0.03880000  0.88372000  1.0
  H  H26  1  0.79151000  0.53878000  0.61628000  1.0
  H  H27  1  0.20849000  0.96121000  0.11628000  1.0
  C  C28  1  0.50932000  0.71219000  0.73688000  1.0
  C  C29  1  0.49068000  0.78780000  0.23688000  1.0
  C  C30  1  0.49068000  0.28781000  0.26312000  1.0
  C  C31  1  0.50932000  0.21220000  0.76311000  1.0
  C  C32  1  0.61159000  0.79762000  0.78574000  1.0
  C  C33  1  0.38841000  0.70240000  0.28573000  1.0
  C  C34  1  0.38840000  0.20238000  0.21427000  1.0
  C  C35  1  0.61160000  0.29760000  0.71426000  1.0
  C  C36  1  0.68284000  0.89763000  0.64004000  1.0
  C  C37  1  0.31717000  0.60236000  0.14005000  1.0
  C  C38  1  0.31717000  0.10236000  0.35996000  1.0
  C  C39  1  0.68282000  0.39765000  0.85995000  1.0
  C  C40  1  0.58320000  0.81129000  0.58903000  1.0
  C  C41  1  0.41680000  0.68871000  0.08903000  1.0
  C  C42  1  0.41680000  0.18870000  0.41097000  1.0
  C  C43  1  0.58318000  0.31131000  0.91097000  1.0
  C  C44  1  0.40276000  0.61047000  0.78429000  1.0
  C  C45  1  0.59724000  0.88953000  0.28430000  1.0
  C  C46  1  0.59724000  0.38953000  0.21571000  1.0
  C  C47  1  0.40278000  0.11044000  0.71570000  1.0
  C  C48  1  0.64087000  0.79467000  0.89496000  1.0
  C  C49  1  0.35915000  0.70531000  0.39496000  1.0
  C  C50  1  0.35914000  0.20532000  0.10504000  1.0
  C  C51  1  0.64087000  0.29467000  0.60504000  1.0
  C  C52  1  0.13296000  0.36103000  0.60370000  1.0
  C  C53  1  0.86703000  0.13898000  0.10370000  1.0
  C  C54  1  0.86702000  0.63898000  0.39632000  1.0
  C  C55  1  0.13296000  0.86104000  0.89630000  1.0
  C  C56  1  0.04562000  0.31884000  0.45529000  1.0
  C  C57  1  0.95435000  0.18118000  0.95528000  1.0
  C  C58  1  0.95438000  0.68116000  0.54473000  1.0
  C  C59  1  0.04564000  0.81883000  0.04471000  1.0
  C  C60  1  0.16155000  0.41201000  0.44841000  1.0
  C  C61  1  0.83845000  0.08799000  0.94841000  1.0
  C  C62  1  0.83843000  0.58798000  0.55160000  1.0
  C  C63  1  0.16154000  0.91203000  0.05159000  1.0
  N  N64  1  0.49930000  0.71930000  0.63833000  1.0
  N  N65  1  0.50070000  0.78070000  0.13833000  1.0
  N  N66  1  0.50070000  0.28070000  0.36167000  1.0
  N  N67  1  0.49930000  0.21931000  0.86167000  1.0
  N  N68  1  0.69836000  0.89038000  0.73712000  1.0
  N  N69  1  0.30166000  0.60961000  0.23711000  1.0
  N  N70  1  0.30164000  0.10961000  0.26288000  1.0
  N  N71  1  0.69836000  0.39039000  0.76287000  1.0
  N  N72  1  0.21495000  0.43759000  0.54174000  1.0
  N  N73  1  0.78505000  0.06241000  0.04175000  1.0
  N  N74  1  0.78506000  0.56239000  0.45826000  1.0
  N  N75  1  0.21495000  0.93759000  0.95826000  1.0
  N  N76  1  0.03036000  0.28754000  0.55329000  1.0
  N  N77  1  0.96965000  0.21245000  0.05329000  1.0
  N  N78  1  0.96965000  0.71244000  0.44672000  1.0
  N  N79  1  0.03036000  0.78756000  0.94670000  1.0
  O  O80  1  0.32259000  0.53823000  0.72296000  1.0
  O  O81  1  0.67741000  0.96179000  0.22294000  1.0
  O  O82  1  0.67741000  0.46178000  0.27704000  1.0
  O  O83  1  0.32260000  0.03820000  0.77705000  1.0
  O  O84  1  0.39509000  0.60077000  0.87473000  1.0
  O  O85  1  0.60488000  0.89927000  0.37472000  1.0
  O  O86  1  0.60490000  0.39925000  0.12527000  1.0
  O  O87  1  0.39513000  0.10074000  0.62527000  1.0
  O  O88  1  0.57020000  0.89048000  0.94429000  1.0
  O  O89  1  0.42981000  0.60952000  0.44430000  1.0
  O  O90  1  0.42980000  0.10953000  0.05570000  1.0
  O  O91  1  0.57020000  0.39047000  0.55571000  1.0
  O  O92  1  0.73852000  0.71255000  0.92722000  1.0
  O  O93  1  0.26147000  0.78743000  0.42721000  1.0
  O  O94  1  0.26148000  0.28745000  0.07277000  1.0
  O  O95  1  0.73852000  0.21255000  0.57278000  1.0
