# generated using pymatgen
data_ZnH8C12N3ClO
_symmetry_space_group_name_H-M   'P 1'
_cell_length_a   7.25628000
_cell_length_b   10.96850000
_cell_length_c   15.79464554
_cell_angle_alpha   85.64626198
_cell_angle_beta   76.73279173
_cell_angle_gamma   70.71580000
_symmetry_Int_Tables_number   1
_chemical_formula_structural   ZnH8C12N3ClO
_chemical_formula_sum   'Zn4 H32 C48 N12 Cl4 O4'
_cell_volume   1154.90121456
_cell_formula_units_Z   4
loop_
 _symmetry_equiv_pos_site_id
 _symmetry_equiv_pos_as_xyz
  1  'x, y, z'
loop_
 _atom_site_type_symbol
 _atom_site_label
 _atom_site_symmetry_multiplicity
 _atom_site_fract_x
 _atom_site_fract_y
 _atom_site_fract_z
 _atom_site_occupancy
  Zn  Zn0  1  0.78554000  0.33296000  0.89302000  1.0
  Zn  Zn1  1  0.01191000  0.66702000  0.10698000  1.0
  Zn  Zn2  1  0.42840000  0.83287000  0.60691000  1.0
  Zn  Zn3  1  0.86849000  0.16715000  0.39303000  1.0
  H  H4  1  0.68904000  0.11724000  0.03807000  1.0
  H  H5  1  0.84522000  0.88266000  0.96204000  1.0
  H  H6  1  0.47644000  0.61732000  0.46188000  1.0
  H  H7  1  0.55715000  0.38255000  0.53810000  1.0
  H  H8  1  0.56125000  0.05023000  0.18700000  1.0
  H  H9  1  0.79889000  0.94981000  0.81318000  1.0
  H  H10  1  0.49659000  0.55037000  0.31306000  1.0
  H  H11  1  0.36207000  0.44951000  0.68692000  1.0
  H  H12  1  0.34186000  0.46895000  0.83537000  1.0
  H  H13  1  0.64661000  0.53113000  0.16497000  1.0
  H  H14  1  0.92775000  0.96917000  0.66469000  1.0
  H  H15  1  0.56162000  0.03082000  0.33517000  1.0
  H  H16  1  0.38309000  0.75576000  0.99660000  1.0
  H  H17  1  0.13448000  0.24438000  0.00333000  1.0
  H  H18  1  0.12935000  0.25602000  0.50309000  1.0
  H  H19  1  0.88763000  0.74406000  0.49697000  1.0
  H  H20  1  0.28842000  0.20517000  0.29124000  1.0
  H  H21  1  0.78480000  0.79500000  0.70891000  1.0
  H  H22  1  0.32840000  0.70539000  0.20874000  1.0
  H  H23  1  0.24400000  0.29461000  0.79122000  1.0
  H  H24  1  0.13784000  0.43288000  0.24832000  1.0
  H  H25  1  0.81901000  0.56718000  0.75167000  1.0
  H  H26  1  0.13584000  0.93329000  0.25155000  1.0
  H  H27  1  0.32079000  0.06688000  0.74833000  1.0
  H  H28  1  0.27835000  0.64095000  0.72053000  1.0
  H  H29  1  0.64062000  0.35903000  0.27975000  1.0
  H  H30  1  0.74994000  0.14117000  0.77948000  1.0
  H  H31  1  0.67085000  0.85884000  0.22029000  1.0
  H  H32  1  0.32834000  0.91289000  0.87332000  1.0
  H  H33  1  0.11388000  0.08708000  0.12654000  1.0
  H  H34  1  0.95179000  0.41319000  0.62635000  1.0
  H  H35  1  0.99055000  0.58685000  0.37370000  1.0
  C  C36  1  0.36865000  0.59777000  0.92580000  1.0
  C  C37  1  0.89178000  0.40229000  0.07429000  1.0
  C  C38  1  0.04453000  0.09799000  0.57406000  1.0
  C  C39  1  0.71632000  0.90206000  0.42584000  1.0
  C  C40  1  0.56879000  0.18531000  0.08291000  1.0
  C  C41  1  0.83786000  0.81460000  0.91715000  1.0
  C  C42  1  0.40100000  0.68547000  0.41705000  1.0
  C  C43  1  0.50503000  0.31440000  0.58295000  1.0
  C  C44  1  0.49605000  0.14926000  0.16698000  1.0
  C  C45  1  0.81281000  0.85074000  0.83313000  1.0
  C  C46  1  0.41182000  0.64946000  0.33302000  1.0
  C  C47  1  0.39597000  0.35042000  0.66697000  1.0
  C  C48  1  0.48309000  0.31369000  0.05897000  1.0
  C  C49  1  0.85627000  0.68622000  0.94105000  1.0
  C  C50  1  0.29174000  0.81389000  0.44094000  1.0
  C  C51  1  0.54750000  0.18601000  0.55903000  1.0
  C  C52  1  0.34178000  0.56554000  0.84639000  1.0
  C  C53  1  0.75383000  0.43451000  0.15380000  1.0
  C  C54  1  0.93860000  0.06578000  0.65356000  1.0
  C  C55  1  0.65784000  0.93423000  0.34631000  1.0
  C  C56  1  0.36365000  0.72465000  0.93649000  1.0
  C  C57  1  0.02412000  0.27540000  0.06350000  1.0
  C  C58  1  0.05003000  0.22491000  0.56326000  1.0
  C  C59  1  0.83777000  0.77517000  0.43672000  1.0
  C  C60  1  0.34374000  0.23753000  0.22625000  1.0
  C  C61  1  0.80782000  0.76251000  0.77384000  1.0
  C  C62  1  0.31903000  0.73778000  0.27369000  1.0
  C  C63  1  0.33177000  0.26219000  0.72627000  1.0
  C  C64  1  0.25926000  0.36576000  0.20347000  1.0
  C  C65  1  0.82881000  0.63422000  0.79652000  1.0
  C  C66  1  0.21234000  0.86609000  0.29639000  1.0
  C  C67  1  0.37537000  0.13395000  0.70352000  1.0
  C  C68  1  0.33143000  0.40335000  0.11904000  1.0
  C  C69  1  0.85404000  0.59660000  0.88095000  1.0
  C  C70  1  0.20027000  0.90360000  0.38083000  1.0
  C  C71  1  0.48513000  0.09640000  0.61910000  1.0
  C  C72  1  0.39146000  0.50055000  0.99500000  1.0
  C  C73  1  0.88667000  0.49948000  0.00506000  1.0
  C  C74  1  0.13641000  0.00075000  0.50487000  1.0
  C  C75  1  0.64196000  0.99928000  0.49502000  1.0
  C  C76  1  0.30847000  0.65736000  0.78197000  1.0
  C  C77  1  0.74812000  0.34262000  0.21819000  1.0
  C  C78  1  0.84118000  0.15760000  0.71796000  1.0
  C  C79  1  0.71668000  0.84239000  0.28189000  1.0
  C  C80  1  0.33459000  0.81313000  0.86978000  1.0
  C  C81  1  0.01702000  0.18684000  0.13016000  1.0
  C  C82  1  0.95453000  0.31341000  0.62996000  1.0
  C  C83  1  0.89744000  0.68665000  0.37003000  1.0
  N  N84  1  0.51858000  0.37787000  0.98065000  1.0
  N  N85  1  0.87725000  0.62209000  0.01939000  1.0
  N  N86  1  0.24906000  0.87803000  0.51924000  1.0
  N  N87  1  0.64686000  0.12190000  0.48072000  1.0
  N  N88  1  0.27688000  0.52164000  0.07685000  1.0
  N  N89  1  0.87514000  0.47836000  0.92319000  1.0
  N  N90  1  0.10375000  0.02190000  0.42300000  1.0
  N  N91  1  0.54848000  0.97816000  0.57687000  1.0
  N  N92  1  0.30742000  0.77880000  0.79373000  1.0
  N  N93  1  0.87988000  0.22113000  0.20629000  1.0
  N  N94  1  0.85170000  0.27907000  0.70611000  1.0
  N  N95  1  0.83666000  0.72095000  0.29382000  1.0
  Cl  Cl96  1  0.98358000  0.12911000  0.89729000  1.0
  Cl  Cl97  1  0.01046000  0.87092000  0.10266000  1.0
  Cl  Cl98  1  0.63020000  0.62891000  0.60277000  1.0
  Cl  Cl99  1  0.86251000  0.37108000  0.39731000  1.0
  O  O100  1  0.27365000  0.86775000  0.73203000  1.0
  O  O101  1  0.87344000  0.13214000  0.26798000  1.0
  O  O102  1  0.75649000  0.36801000  0.76782000  1.0
  O  O103  1  0.89223000  0.63200000  0.23210000  1.0
