# generated using pymatgen
data_ZnH14C13NClO4
_symmetry_space_group_name_H-M   'P 1'
_cell_length_a   9.53566000
_cell_length_b   10.85590000
_cell_length_c   10.91130000
_cell_angle_alpha   89.61350000
_cell_angle_beta   89.61700000
_cell_angle_gamma   90.93690000
_symmetry_Int_Tables_number   1
_chemical_formula_structural   ZnH14C13NClO4
_chemical_formula_sum   'Zn2 H28 C26 N2 Cl2 O8'
_cell_volume   1129.31504250
_cell_formula_units_Z   2
loop_
 _symmetry_equiv_pos_site_id
 _symmetry_equiv_pos_as_xyz
  1  'x, y, z'
loop_
 _atom_site_type_symbol
 _atom_site_label
 _atom_site_symmetry_multiplicity
 _atom_site_fract_x
 _atom_site_fract_y
 _atom_site_fract_z
 _atom_site_occupancy
  Zn  Zn0  1  0.64707000  0.49928000  0.50245000  1.0
  Zn  Zn1  1  0.35439000  0.50086000  0.50065000  1.0
  H  H2  1  0.39406000  0.92195000  0.30438000  1.0
  H  H3  1  0.62778000  0.34426000  0.88219000  1.0
  H  H4  1  0.44706000  0.30788000  0.90052000  1.0
  H  H5  1  0.12663000  0.35794000  0.37129000  1.0
  H  H6  1  0.87706000  0.35011000  0.38093000  1.0
  H  H7  1  0.12272000  0.50887000  0.31030000  1.0
  H  H8  1  0.87364000  0.49705000  0.31091000  1.0
  H  H9  1  0.12209000  0.32745000  0.59082000  1.0
  H  H10  1  0.87250000  0.32873000  0.59761000  1.0
  H  H11  1  0.12494000  0.66026000  0.60566000  1.0
  H  H12  1  0.87622000  0.66414000  0.59979000  1.0
  H  H13  1  0.12979000  0.68419000  0.44542000  1.0
  H  H14  1  0.88089000  0.67952000  0.43878000  1.0
  H  H15  1  0.12644000  0.45643000  0.68939000  1.0
  H  H16  1  0.87719000  0.46054000  0.69221000  1.0
  H  H17  1  0.62893000  0.08753000  0.31731000  1.0
  H  H18  1  0.25434000  0.06665000  0.48376000  1.0
  H  H19  1  0.74469000  0.93401000  0.50416000  1.0
  H  H20  1  0.37029000  0.91303000  0.66926000  1.0
  H  H21  1  0.60406000  0.07941000  0.68237000  1.0
  H  H22  1  0.70688000  0.58732000  0.10745000  1.0
  H  H23  1  0.28156000  0.44951000  0.10835000  1.0
  H  H24  1  0.56327000  0.68702000  0.10282000  1.0
  H  H25  1  0.31881000  0.60797000  0.12079000  1.0
  H  H26  1  0.58527000  0.68755000  0.88903000  1.0
  H  H27  1  0.32335000  0.63085000  0.90687000  1.0
  H  H28  1  0.70797000  0.56740000  0.89331000  1.0
  H  H29  1  0.26854000  0.47579000  0.89572000  1.0
  C  C30  1  0.50552000  0.49703000  0.26269000  1.0
  C  C31  1  0.49319000  0.12494000  0.49408000  1.0
  C  C32  1  0.60201000  0.59852000  0.06916000  1.0
  C  C33  1  0.35274000  0.52313000  0.07585000  1.0
  C  C34  1  0.60501000  0.59570000  0.92776000  1.0
  C  C35  1  0.34950000  0.53663000  0.93492000  1.0
  C  C36  1  0.54723000  0.37141000  0.06715000  1.0
  C  C37  1  0.50265000  0.49709000  0.12148000  1.0
  C  C38  1  0.49285000  0.50374000  0.88092000  1.0
  C  C39  1  0.53038000  0.37356000  0.92616000  1.0
  C  C40  1  0.08129000  0.44928000  0.38409000  1.0
  C  C41  1  0.91915000  0.44459000  0.38661000  1.0
  C  C42  1  0.08099000  0.42020000  0.60454000  1.0
  C  C43  1  0.91861000  0.42148000  0.60714000  1.0
  C  C44  1  0.08340000  0.62636000  0.51832000  1.0
  C  C45  1  0.92148000  0.62577000  0.51591000  1.0
  C  C46  1  0.49468000  0.26150000  0.50007000  1.0
  C  C47  1  0.49451000  0.50411000  0.74055000  1.0
  C  C48  1  0.50484000  0.73888000  0.49314000  1.0
  C  C49  1  0.57219000  0.04694000  0.39550000  1.0
  C  C50  1  0.36296000  0.03597000  0.48781000  1.0
  C  C51  1  0.44075000  0.95840000  0.38830000  1.0
  C  C52  1  0.50619000  0.87570000  0.49118000  1.0
  C  C53  1  0.63616000  0.96474000  0.49911000  1.0
  C  C54  1  0.42715000  0.95393000  0.59115000  1.0
  C  C55  1  0.55826000  0.04211000  0.59841000  1.0
  N  N56  1  0.13537000  0.49895000  0.50187000  1.0
  N  N57  1  0.86624000  0.49745000  0.50348000  1.0
  Cl  Cl58  1  0.72821000  0.33842000  0.10437000  1.0
  Cl  Cl59  1  0.44308000  0.24564000  0.13169000  1.0
  O  O60  1  0.62044000  0.52558000  0.31410000  1.0
  O  O61  1  0.39080000  0.47028000  0.31697000  1.0
  O  O62  1  0.61254000  0.31493000  0.47817000  1.0
  O  O63  1  0.38082000  0.31452000  0.52881000  1.0
  O  O64  1  0.60971000  0.47582000  0.68937000  1.0
  O  O65  1  0.38220000  0.53259000  0.68563000  1.0
  O  O66  1  0.61706000  0.68518000  0.52454000  1.0
  O  O67  1  0.38921000  0.68570000  0.46528000  1.0
