# generated using pymatgen
data_CdH4C6S3(NO2)2
_symmetry_space_group_name_H-M   'P 1'
_cell_length_a   4.73743000
_cell_length_b   8.18486000
_cell_length_c   25.89600000
_cell_angle_alpha   90.00020000
_cell_angle_beta   89.99970000
_cell_angle_gamma   90.00000000
_symmetry_Int_Tables_number   1
_chemical_formula_structural   CdH4C6S3(NO2)2
_chemical_formula_sum   'Cd4 H16 C24 S12 N8 O16'
_cell_volume   1004.12261310
_cell_formula_units_Z   4
loop_
 _symmetry_equiv_pos_site_id
 _symmetry_equiv_pos_as_xyz
  1  'x, y, z'
loop_
 _atom_site_type_symbol
 _atom_site_label
 _atom_site_symmetry_multiplicity
 _atom_site_fract_x
 _atom_site_fract_y
 _atom_site_fract_z
 _atom_site_occupancy
  Cd  Cd0  1  0.82027000  0.84827000  0.06368000  1.0
  Cd  Cd1  1  0.67974000  0.15173000  0.56369000  1.0
  Cd  Cd2  1  0.17973000  0.34827000  0.43631000  1.0
  Cd  Cd3  1  0.32026000  0.65174000  0.93631000  1.0
  H  H4  1  0.02350000  0.65004000  0.17616000  1.0
  H  H5  1  0.47649000  0.34996000  0.67616000  1.0
  H  H6  1  0.97649000  0.15004000  0.32384000  1.0
  H  H7  1  0.52351000  0.84996000  0.82384000  1.0
  H  H8  1  0.19967000  0.82705000  0.20012000  1.0
  H  H9  1  0.30032000  0.17295000  0.70012000  1.0
  H  H10  1  0.80033000  0.32705000  0.29988000  1.0
  H  H11  1  0.69967000  0.67295000  0.79988000  1.0
  H  H12  1  0.22291000  0.82066000  0.45686000  1.0
  H  H13  1  0.27709000  0.17934000  0.95686000  1.0
  H  H14  1  0.77709000  0.32066000  0.04314000  1.0
  H  H15  1  0.72291000  0.67934000  0.54314000  1.0
  H  H16  1  0.15399000  0.96712000  0.40711000  1.0
  H  H17  1  0.34602000  0.03288000  0.90711000  1.0
  H  H18  1  0.84602000  0.46711000  0.09289000  1.0
  H  H19  1  0.65398000  0.53289000  0.59289000  1.0
  C  C20  1  0.39010000  0.73278000  0.13274000  1.0
  C  C21  1  0.10990000  0.26723000  0.63274000  1.0
  C  C22  1  0.60990000  0.23278000  0.36726000  1.0
  C  C23  1  0.89010000  0.76723000  0.86726000  1.0
  C  C24  1  0.23113000  0.70558000  0.18298000  1.0
  C  C25  1  0.26888000  0.29442000  0.68298000  1.0
  C  C26  1  0.76887000  0.20558000  0.31702000  1.0
  C  C27  1  0.73113000  0.79442000  0.81702000  1.0
  C  C28  1  0.27236000  0.60585000  0.28367000  1.0
  C  C29  1  0.22764000  0.39415000  0.78367000  1.0
  C  C30  1  0.72764000  0.10585000  0.21633000  1.0
  C  C31  1  0.77236000  0.89415000  0.71633000  1.0
  C  C32  1  0.01600000  0.67238000  0.36119000  1.0
  C  C33  1  0.48400000  0.32761000  0.86119000  1.0
  C  C34  1  0.98401000  0.17238000  0.13881000  1.0
  C  C35  1  0.51600000  0.82762000  0.63881000  1.0
  C  C36  1  0.05758000  0.89232000  0.43741000  1.0
  C  C37  1  0.44242000  0.10768000  0.93741000  1.0
  C  C38  1  0.94242000  0.39232000  0.06259000  1.0
  C  C39  1  0.55757000  0.60768000  0.56259000  1.0
  C  C40  1  0.92099000  0.99787000  0.47814000  1.0
  C  C41  1  0.57901000  0.00213000  0.97814000  1.0
  C  C42  1  0.07901000  0.49786000  0.02186000  1.0
  C  C43  1  0.42099000  0.50213000  0.52186000  1.0
  S  S44  1  0.44736000  0.58226000  0.22540000  1.0
  S  S45  1  0.05263000  0.41775000  0.72541000  1.0
  S  S46  1  0.55263000  0.08226000  0.27460000  1.0
  S  S47  1  0.94737000  0.91774000  0.77460000  1.0
  S  S48  1  0.01771000  0.74998000  0.29877000  1.0
  S  S49  1  0.48229000  0.25002000  0.79877000  1.0
  S  S50  1  0.98229000  0.24998000  0.20123000  1.0
  S  S51  1  0.51771000  0.75002000  0.70123000  1.0
  S  S52  1  0.79988000  0.75036000  0.40976000  1.0
  S  S53  1  0.70013000  0.24964000  0.90976000  1.0
  S  S54  1  0.20012000  0.25036000  0.09024000  1.0
  S  S55  1  0.29987000  0.74963000  0.59024000  1.0
  N  N56  1  0.34022000  0.51112000  0.32330000  1.0
  N  N57  1  0.15978000  0.48888000  0.82330000  1.0
  N  N58  1  0.65978000  0.01112000  0.17670000  1.0
  N  N59  1  0.84022000  0.98887000  0.67670000  1.0
  N  N60  1  0.19417000  0.54934000  0.36658000  1.0
  N  N61  1  0.30584000  0.45066000  0.86658000  1.0
  N  N62  1  0.80583000  0.04934000  0.13342000  1.0
  N  N63  1  0.69418000  0.95066000  0.63342000  1.0
  O  O64  1  0.63868000  0.67487000  0.12884000  1.0
  O  O65  1  0.86132000  0.32514000  0.62884000  1.0
  O  O66  1  0.36131000  0.17486000  0.37116000  1.0
  O  O67  1  0.13868000  0.82514000  0.87116000  1.0
  O  O68  1  0.27634000  0.81850000  0.09779000  1.0
  O  O69  1  0.22367000  0.18151000  0.59779000  1.0
  O  O70  1  0.72366000  0.31849000  0.40221000  1.0
  O  O71  1  0.77634000  0.68151000  0.90221000  1.0
  O  O72  1  0.71070000  0.94294000  0.50326000  1.0
  O  O73  1  0.78930000  0.05705000  0.00326000  1.0
  O  O74  1  0.28930000  0.44294000  0.99674000  1.0
  O  O75  1  0.21070000  0.55705000  0.49674000  1.0
  O  O76  1  0.03019000  0.13652000  0.48840000  1.0
  O  O77  1  0.46981000  0.86348000  0.98840000  1.0
  O  O78  1  0.96981000  0.63652000  0.01160000  1.0
  O  O79  1  0.53019000  0.36348000  0.51160000  1.0
