# generated using pymatgen
data_MgH6C9NO4
_symmetry_space_group_name_H-M   'P 1'
_cell_length_a   6.85419000
_cell_length_b   31.19470000
_cell_length_c   31.20400000
_cell_angle_alpha   119.44500000
_cell_angle_beta   94.21980000
_cell_angle_gamma   94.19510000
_symmetry_Int_Tables_number   1
_chemical_formula_structural   MgH6C9NO4
_chemical_formula_sum   'Mg6 H36 C54 N6 O24'
_cell_volume   5748.20284945
_cell_formula_units_Z   6
loop_
 _symmetry_equiv_pos_site_id
 _symmetry_equiv_pos_as_xyz
  1  'x, y, z'
loop_
 _atom_site_type_symbol
 _atom_site_label
 _atom_site_symmetry_multiplicity
 _atom_site_fract_x
 _atom_site_fract_y
 _atom_site_fract_z
 _atom_site_occupancy
  Mg  Mg0  1  0.64488000  0.36999000  0.67357000  1.0
  Mg  Mg1  1  0.09593000  0.69335000  0.32235000  1.0
  Mg  Mg2  1  0.27485000  0.30360000  0.63013000  1.0
  Mg  Mg3  1  0.40251000  0.62901000  0.30666000  1.0
  Mg  Mg4  1  0.97145000  0.32652000  0.69650000  1.0
  Mg  Mg5  1  0.77361000  0.67763000  0.37098000  1.0
  H  H6  1  0.27032000  0.48097000  0.09998000  1.0
  H  H7  1  0.33941000  0.58001000  0.18442000  1.0
  H  H8  1  0.61416000  0.54166000  0.16630000  1.0
  H  H9  1  0.79388000  0.49581000  0.09325000  1.0
  H  H10  1  0.18860000  0.57978000  0.07357000  1.0
  H  H11  1  0.95124000  0.54582000  0.05648000  1.0
  H  H12  1  0.23494000  0.52259000  0.97904000  1.0
  H  H13  1  0.08141000  0.57052000  0.99418000  1.0
  H  H14  1  0.08690000  0.47306000  0.90431000  1.0
  H  H15  1  0.01912000  0.42973000  0.81986000  1.0
  H  H16  1  0.32686000  0.38810000  0.83558000  1.0
  H  H17  1  0.56552000  0.43881000  0.91238000  1.0
  H  H18  1  0.79009000  0.61905000  0.51918000  1.0
  H  H19  1  0.76000000  0.60452000  0.42005000  1.0
  H  H20  1  0.07303000  0.62450000  0.45836000  1.0
  H  H21  1  0.29924000  0.59743000  0.50428000  1.0
  H  H22  1  0.60986000  0.49391000  0.42035000  1.0
  H  H23  1  0.40615000  0.51071000  0.45415000  1.0
  H  H24  1  0.71260000  0.45644000  0.47752000  1.0
  H  H25  1  0.51149000  0.42373000  0.42950000  1.0
  H  H26  1  0.61332000  0.43105000  0.52684000  1.0
  H  H27  1  0.58859000  0.38992000  0.57016000  1.0
  H  H28  1  0.93818000  0.44739000  0.61172000  1.0
  H  H29  1  0.12618000  0.47345000  0.56100000  1.0
  H  H30  1  0.17125000  0.90005000  0.38094000  1.0
  H  H31  1  0.15536000  0.81554000  0.39550000  1.0
  H  H32  1  0.44834000  0.83378000  0.37525000  1.0
  H  H33  1  0.70147000  0.90683000  0.40246000  1.0
  H  H34  1  0.11541000  0.92637000  0.50606000  1.0
  H  H35  1  0.89541000  0.94356000  0.48918000  1.0
  H  H36  1  0.25670000  0.02100000  0.54340000  1.0
  H  H37  1  0.08830000  0.00578000  0.57618000  1.0
  H  H38  1  0.18272000  0.09585000  0.56897000  1.0
  H  H39  1  0.19899000  0.18027000  0.61013000  1.0
  H  H40  1  0.49100000  0.16442000  0.55266000  1.0
  H  H41  1  0.65301000  0.08763000  0.52654000  1.0
  C  C42  1  0.19428000  0.50342000  0.05110000  1.0
  C  C43  1  0.07953000  0.53428000  0.13504000  1.0
  C  C44  1  0.17983000  0.57154000  0.18010000  1.0
  C  C45  1  0.08069000  0.59948000  0.22129000  1.0
  C  C46  1  0.87164000  0.58696000  0.21610000  1.0
  C  C47  1  0.77331000  0.55025000  0.16937000  1.0
  C  C48  1  0.87256000  0.52439000  0.12887000  1.0
  C  C49  1  0.75648000  0.60837000  0.25827000  1.0
  C  C50  1  0.10207000  0.54407000  0.04638000  1.0
  C  C51  1  0.09697000  0.53548000  0.99390000  1.0
  C  C52  1  0.91723000  0.49921000  0.96075000  1.0
  C  C53  1  0.80674000  0.43864000  0.87101000  1.0
  C  C54  1  0.86678000  0.42099000  0.82391000  1.0
  C  C55  1  0.73405000  0.39308000  0.78030000  1.0
  C  C56  1  0.53277000  0.38205000  0.78523000  1.0
  C  C57  1  0.47949000  0.39833000  0.83310000  1.0
  C  C58  1  0.61049000  0.42620000  0.87585000  1.0
  C  C59  1  0.37722000  0.35547000  0.74289000  1.0
  C  C60  1  0.69131000  0.54772000  0.49674000  1.0
  C  C61  1  0.54608000  0.60080000  0.46577000  1.0
  C  C62  1  0.60886000  0.60862000  0.42851000  1.0
  C  C63  1  0.48148000  0.62181000  0.40053000  1.0
  C  C64  1  0.28490000  0.62907000  0.41304000  1.0
  C  C65  1  0.22359000  0.61904000  0.44977000  1.0
  C  C66  1  0.34899000  0.60446000  0.47566000  1.0
  C  C67  1  0.14820000  0.64984000  0.39163000  1.0
  C  C68  1  0.55874000  0.50239000  0.45601000  1.0
  C  C69  1  0.56189000  0.45844000  0.46456000  1.0
  C  C70  1  0.41805000  0.46151000  0.50072000  1.0
  C  C71  1  0.36744000  0.43220000  0.56120000  1.0
  C  C72  1  0.44505000  0.40274000  0.57888000  1.0
  C  C73  1  0.34041000  0.38712000  0.60687000  1.0
  C  C74  1  0.15015000  0.40308000  0.61786000  1.0
  C  C75  1  0.08054000  0.43465000  0.60151000  1.0
  C  C76  1  0.18367000  0.44949000  0.57360000  1.0
  C  C77  1  0.02143000  0.38739000  0.64453000  1.0
  C  C78  1  0.14391000  0.94893000  0.45223000  1.0
  C  C79  1  0.94508000  0.86497000  0.39914000  1.0
  C  C80  1  0.00012000  0.81988000  0.39133000  1.0
  C  C81  1  0.85964000  0.77870000  0.37811000  1.0
  C  C82  1  0.65578000  0.78393000  0.37076000  1.0
  C  C83  1  0.60440000  0.83068000  0.38076000  1.0
  C  C84  1  0.74430000  0.87117000  0.39540000  1.0
  C  C85  1  0.49829000  0.74176000  0.35005000  1.0
  C  C86  1  0.05638000  0.95361000  0.49754000  1.0
  C  C87  1  0.10390000  0.00610000  0.54144000  1.0
  C  C88  1  0.95707000  0.03924000  0.53836000  1.0
  C  C89  1  0.93558000  0.12905000  0.56781000  1.0
  C  C90  1  0.04258000  0.17618000  0.59732000  1.0
  C  C91  1  0.95345000  0.21978000  0.61298000  1.0
  C  C92  1  0.74719000  0.21482000  0.59701000  1.0
  C  C93  1  0.64609000  0.16691000  0.56541000  1.0
  C  C94  1  0.73447000  0.12417000  0.55052000  1.0
  C  C95  1  0.63407000  0.25717000  0.61272000  1.0
  N  N96  1  0.18917000  0.50506000  0.09595000  1.0
  N  N97  1  0.94730000  0.46937000  0.91207000  1.0
  N  N98  1  0.68513000  0.59092000  0.49499000  1.0
  N  N99  1  0.47749000  0.44254000  0.53051000  1.0
  N  N100  1  0.09404000  0.90406000  0.40903000  1.0
  N  N101  1  0.03540000  0.08801000  0.55743000  1.0
  O  O102  1  0.20200000  0.34460000  0.74881000  1.0
  O  O103  1  0.42148000  0.34439000  0.69923000  1.0
  O  O104  1  0.80113000  0.37900000  0.73652000  1.0
  O  O105  1  0.57652000  0.59172000  0.25407000  1.0
  O  O106  1  0.84304000  0.64442000  0.30040000  1.0
  O  O107  1  0.18781000  0.63577000  0.26296000  1.0
  O  O108  1  0.27913000  0.47217000  0.01850000  1.0
  O  O109  1  0.75808000  0.49876000  0.97663000  1.0
  O  O110  1  0.85716000  0.40423000  0.65544000  1.0
  O  O111  1  0.07692000  0.35484000  0.65568000  1.0
  O  O112  1  0.42176000  0.35750000  0.62107000  1.0
  O  O113  1  0.98492000  0.66230000  0.40828000  1.0
  O  O114  1  0.19863000  0.65596000  0.35559000  1.0
  O  O115  1  0.55212000  0.62721000  0.36424000  1.0
  O  O116  1  0.80677000  0.54637000  0.52811000  1.0
  O  O117  1  0.25948000  0.47790000  0.50112000  1.0
  O  O118  1  0.45287000  0.25125000  0.59593000  1.0
  O  O119  1  0.72216000  0.30085000  0.64526000  1.0
  O  O120  1  0.06444000  0.26357000  0.64265000  1.0
  O  O121  1  0.32247000  0.74596000  0.33762000  1.0
  O  O122  1  0.54266000  0.69962000  0.34400000  1.0
  O  O123  1  0.92493000  0.73703000  0.37276000  1.0
  O  O124  1  0.26137000  0.98155000  0.45359000  1.0
  O  O125  1  0.78220000  0.02325000  0.52185000  1.0
