# generated using pymatgen
data_SrH11PtC19N7
_symmetry_space_group_name_H-M   'P 1'
_cell_length_a   8.68951000
_cell_length_b   8.68945000
_cell_length_c   13.48050000
_cell_angle_alpha   80.48740000
_cell_angle_beta   80.48710000
_cell_angle_gamma   75.33520000
_symmetry_Int_Tables_number   1
_chemical_formula_structural   SrH11PtC19N7
_chemical_formula_sum   'Sr2 H22 Pt2 C38 N14'
_cell_volume   963.01281398
_cell_formula_units_Z   2
loop_
 _symmetry_equiv_pos_site_id
 _symmetry_equiv_pos_as_xyz
  1  'x, y, z'
loop_
 _atom_site_type_symbol
 _atom_site_label
 _atom_site_symmetry_multiplicity
 _atom_site_fract_x
 _atom_site_fract_y
 _atom_site_fract_z
 _atom_site_occupancy
  Sr  Sr0  1  0.89422000  0.10578000  0.75000000  1.0
  Sr  Sr1  1  0.10577000  0.89423000  0.25000000  1.0
  H  H2  1  0.27327000  0.72673000  0.75000000  1.0
  H  H3  1  0.72673000  0.27327000  0.25000000  1.0
  H  H4  1  0.46683000  0.68517000  0.59472000  1.0
  H  H5  1  0.31483000  0.53317000  0.90528000  1.0
  H  H6  1  0.53317000  0.31483000  0.40528000  1.0
  H  H7  1  0.68517000  0.46683000  0.09472000  1.0
  H  H8  1  0.63677000  0.66448000  0.48240000  1.0
  H  H9  1  0.33552000  0.36323000  0.01760000  1.0
  H  H10  1  0.36324000  0.33552000  0.51760000  1.0
  H  H11  1  0.66448000  0.63676000  0.98240000  1.0
  H  H12  1  0.83087000  0.60563000  0.32957000  1.0
  H  H13  1  0.39437000  0.16913000  0.17043000  1.0
  H  H14  1  0.16914000  0.39437000  0.67043000  1.0
  H  H15  1  0.60563000  0.83086000  0.82957000  1.0
  H  H16  1  0.03537000  0.34078000  0.33446000  1.0
  H  H17  1  0.65922000  0.96463000  0.16554000  1.0
  H  H18  1  0.96463000  0.65922000  0.66554000  1.0
  H  H19  1  0.34078000  0.03536000  0.83446000  1.0
  H  H20  1  0.04046000  0.15538000  0.49652000  1.0
  H  H21  1  0.84462000  0.95954000  0.00347000  1.0
  H  H22  1  0.95954000  0.84462000  0.50347000  1.0
  H  H23  1  0.15538000  0.04045000  0.99652000  1.0
  Pt  Pt24  1  0.00000000  0.50001000  0.99999000  1.0
  Pt  Pt25  1  0.50000000  0.00000000  0.50001000  1.0
  C  C26  1  0.02089000  0.36569000  0.89153000  1.0
  C  C27  1  0.63432000  0.97911000  0.60848000  1.0
  C  C28  1  0.97911000  0.63433000  0.10846000  1.0
  C  C29  1  0.36568000  0.02089000  0.39154000  1.0
  C  C30  1  0.37584000  0.62415000  0.75000000  1.0
  C  C31  1  0.62416000  0.37584000  0.25000000  1.0
  C  C32  1  0.48501000  0.60052000  0.66316000  1.0
  C  C33  1  0.39947000  0.51499000  0.83684000  1.0
  C  C34  1  0.51499000  0.39948000  0.33684000  1.0
  C  C35  1  0.60052000  0.48501000  0.16316000  1.0
  C  C36  1  0.61623000  0.46751000  0.66513000  1.0
  C  C37  1  0.53249000  0.38377000  0.83487000  1.0
  C  C38  1  0.38378000  0.53249000  0.33487000  1.0
  C  C39  1  0.46751000  0.61623000  0.16513000  1.0
  C  C40  1  0.73341000  0.43864000  0.57210000  1.0
  C  C41  1  0.56136000  0.26659000  0.92790000  1.0
  C  C42  1  0.26660000  0.56136000  0.42790000  1.0
  C  C43  1  0.43864000  0.73340000  0.07210000  1.0
  C  C44  1  0.72567000  0.55076000  0.48415000  1.0
  C  C45  1  0.44924000  0.27433000  0.01585000  1.0
  C  C46  1  0.27434000  0.44924000  0.51585000  1.0
  C  C47  1  0.55076000  0.72566000  0.98415000  1.0
  C  C48  1  0.83473000  0.51850000  0.39786000  1.0
  C  C49  1  0.48150000  0.16526000  0.10214000  1.0
  C  C50  1  0.16527000  0.48150000  0.60214000  1.0
  C  C51  1  0.51850000  0.83472000  0.89786000  1.0
  C  C52  1  0.94895000  0.37329000  0.40031000  1.0
  C  C53  1  0.62671000  0.05105000  0.09968000  1.0
  C  C54  1  0.05106000  0.62671000  0.59968000  1.0
  C  C55  1  0.37329000  0.94894000  0.90031000  1.0
  C  C56  1  0.95082000  0.26880000  0.49074000  1.0
  C  C57  1  0.73120000  0.04918000  0.00926000  1.0
  C  C58  1  0.04918000  0.73120000  0.50926000  1.0
  C  C59  1  0.26880000  0.95082000  0.99074000  1.0
  C  C60  1  0.98575000  0.69554000  0.90026000  1.0
  C  C61  1  0.30446000  0.01426000  0.59974000  1.0
  C  C62  1  0.01426000  0.30447000  0.09973000  1.0
  C  C63  1  0.69553000  0.98575000  0.40027000  1.0
  N  N64  1  0.03138000  0.28298000  0.82912000  1.0
  N  N65  1  0.71702000  0.96861000  0.67087000  1.0
  N  N66  1  0.96862000  0.71704000  0.17086000  1.0
  N  N67  1  0.28297000  0.03138000  0.32913000  1.0
  N  N68  1  0.63876000  0.36124000  0.75000000  1.0
  N  N69  1  0.36124000  0.63876000  0.25000000  1.0
  N  N70  1  0.84792000  0.29984000  0.57496000  1.0
  N  N71  1  0.70016000  0.15208000  0.92504000  1.0
  N  N72  1  0.15208000  0.70016000  0.42504000  1.0
  N  N73  1  0.29983000  0.84792000  0.07496000  1.0
  N  N74  1  0.97614000  0.81457000  0.84381000  1.0
  N  N75  1  0.18543000  0.02387000  0.65619000  1.0
  N  N76  1  0.02388000  0.18544000  0.15618000  1.0
  N  N77  1  0.81456000  0.97613000  0.34382000  1.0
