# generated using pymatgen
data_MnH4(C2O3)2
_symmetry_space_group_name_H-M   'P 1'
_cell_length_a   8.32146000
_cell_length_b   8.32149000
_cell_length_c   8.32146000
_cell_angle_alpha   89.29450000
_cell_angle_beta   89.29490000
_cell_angle_gamma   89.29440000
_symmetry_Int_Tables_number   1
_chemical_formula_structural   MnH4(C2O3)2
_chemical_formula_sum   'Mn3 H12 C12 O18'
_cell_volume   576.10574611
_cell_formula_units_Z   3
loop_
 _symmetry_equiv_pos_site_id
 _symmetry_equiv_pos_as_xyz
  1  'x, y, z'
loop_
 _atom_site_type_symbol
 _atom_site_label
 _atom_site_symmetry_multiplicity
 _atom_site_fract_x
 _atom_site_fract_y
 _atom_site_fract_z
 _atom_site_occupancy
  Mn  Mn0  1  0.00000000  0.49999000  0.99997000  1.0
  Mn  Mn1  1  0.50000000  0.99998000  0.00000000  1.0
  Mn  Mn2  1  0.00000000  0.00001000  0.50000000  1.0
  H  H3  1  0.04510000  0.75964000  0.80395000  1.0
  H  H4  1  0.75962000  0.80394000  0.04511000  1.0
  H  H5  1  0.80397000  0.04510000  0.75961000  1.0
  H  H6  1  0.95489000  0.24042000  0.19603000  1.0
  H  H7  1  0.24040000  0.19602000  0.95490000  1.0
  H  H8  1  0.19605000  0.95489000  0.24038000  1.0
  H  H9  1  0.19082000  0.75780000  0.93189000  1.0
  H  H10  1  0.75779000  0.93187000  0.19084000  1.0
  H  H11  1  0.93187000  0.19082000  0.75778000  1.0
  H  H12  1  0.80918000  0.24223000  0.06812000  1.0
  H  H13  1  0.24222000  0.06812000  0.80919000  1.0
  H  H14  1  0.06811000  0.80918000  0.24221000  1.0
  C  C15  1  0.38396000  0.45396000  0.00420000  1.0
  C  C16  1  0.45396000  0.00418000  0.38396000  1.0
  C  C17  1  0.00418000  0.38397000  0.45394000  1.0
  C  C18  1  0.61605000  0.54603000  0.99581000  1.0
  C  C19  1  0.54603000  0.99579000  0.61604000  1.0
  C  C20  1  0.99580000  0.61606000  0.54601000  1.0
  C  C21  1  0.54749000  0.38357000  0.00874000  1.0
  C  C22  1  0.38358000  0.00872000  0.54750000  1.0
  C  C23  1  0.00872000  0.54751000  0.38356000  1.0
  C  C24  1  0.45249000  0.61643000  0.99128000  1.0
  C  C25  1  0.61643000  0.99126000  0.45250000  1.0
  C  C26  1  0.99126000  0.45251000  0.61641000  1.0
  O  O27  1  0.07712000  0.72786000  0.91460000  1.0
  O  O28  1  0.72786000  0.91459000  0.07713000  1.0
  O  O29  1  0.91462000  0.07712000  0.72785000  1.0
  O  O30  1  0.92288000  0.27216000  0.08537000  1.0
  O  O31  1  0.27215000  0.08537000  0.92289000  1.0
  O  O32  1  0.08539000  0.92287000  0.27215000  1.0
  O  O33  1  0.24428000  0.39621000  0.00997000  1.0
  O  O34  1  0.39623000  0.00995000  0.24429000  1.0
  O  O35  1  0.00995000  0.24429000  0.39620000  1.0
  O  O36  1  0.75571000  0.60377000  0.99003000  1.0
  O  O37  1  0.60378000  0.99001000  0.75573000  1.0
  O  O38  1  0.99002000  0.75573000  0.60377000  1.0
  O  O39  1  0.60659000  0.24329000  0.02053000  1.0
  O  O40  1  0.24330000  0.02051000  0.60660000  1.0
  O  O41  1  0.02051000  0.60660000  0.24328000  1.0
  O  O42  1  0.39341000  0.75668000  0.97949000  1.0
  O  O43  1  0.75669000  0.97947000  0.39342000  1.0
  O  O44  1  0.97948000  0.39342000  0.75667000  1.0
