# generated using pymatgen
data_ZnH12C15(NO2)2
_symmetry_space_group_name_H-M   'P 1'
_cell_length_a   12.27050000
_cell_length_b   20.01470000
_cell_length_c   20.01470000
_cell_angle_alpha   103.08300000
_cell_angle_beta   93.82770000
_cell_angle_gamma   93.82740000
_symmetry_Int_Tables_number   1
_chemical_formula_structural   ZnH12C15(NO2)2
_chemical_formula_sum   'Zn8 H96 C120 N16 O32'
_cell_volume   4760.17190213
_cell_formula_units_Z   8
loop_
 _symmetry_equiv_pos_site_id
 _symmetry_equiv_pos_as_xyz
  1  'x, y, z'
loop_
 _atom_site_type_symbol
 _atom_site_label
 _atom_site_symmetry_multiplicity
 _atom_site_fract_x
 _atom_site_fract_y
 _atom_site_fract_z
 _atom_site_occupancy
  Zn  Zn0  1  0.80770000  0.60845000  0.11549000  1.0
  Zn  Zn1  1  0.61657000  0.66531000  0.15462000  1.0
  Zn  Zn2  1  0.92162000  0.19933000  0.92939000  1.0
  Zn  Zn3  1  0.01484000  0.35203000  0.08716000  1.0
  Zn  Zn4  1  0.30770000  0.11548000  0.60845000  1.0
  Zn  Zn5  1  0.11656000  0.15461000  0.66531000  1.0
  Zn  Zn6  1  0.42163000  0.92940000  0.19933000  1.0
  Zn  Zn7  1  0.51484000  0.08716000  0.35203000  1.0
  H  H8  1  0.51253000  0.72867000  0.28608000  1.0
  H  H9  1  0.42944000  0.65142000  0.24638000  1.0
  H  H10  1  0.29163000  0.84116000  0.28187000  1.0
  H  H11  1  0.43322000  0.83722000  0.30683000  1.0
  H  H12  1  0.32349000  0.79989000  0.09720000  1.0
  H  H13  1  0.22750000  0.81891000  0.16142000  1.0
  H  H14  1  0.18075000  0.73772000  0.22758000  1.0
  H  H15  1  0.23955000  0.65629000  0.21216000  1.0
  H  H16  1  0.36399000  0.62956000  0.12631000  1.0
  H  H17  1  0.40134000  0.69002000  0.07645000  1.0
  H  H18  1  0.51353000  0.79526000  0.13018000  1.0
  H  H19  1  0.56204000  0.81080000  0.21881000  1.0
  H  H20  1  0.04732000  0.60050000  0.17672000  1.0
  H  H21  1  0.05953000  0.64961000  0.11283000  1.0
  H  H22  1  0.86318000  0.46242000  0.06808000  1.0
  H  H23  1  0.93538000  0.49300000  0.15082000  1.0
  H  H24  1  0.96106000  0.60803000  0.00043000  1.0
  H  H25  1  0.87865000  0.52804000  0.98141000  1.0
  H  H26  1  0.20709000  0.46368000  0.09016000  1.0
  H  H27  1  0.13451000  0.49331000  0.16371000  1.0
  H  H28  1  0.15642000  0.61009000  0.01501000  1.0
  H  H29  1  0.22107000  0.53132000  0.00423000  1.0
  H  H30  1  0.96384000  0.42205000  0.96812000  1.0
  H  H31  1  0.10983000  0.42255000  0.97858000  1.0
  H  H32  1  0.64758000  0.83901000  0.05916000  1.0
  H  H33  1  0.62308000  0.95549000  0.04485000  1.0
  H  H34  1  0.69099000  0.05891000  0.00383000  1.0
  H  H35  1  0.96040000  0.95236000  0.91779000  1.0
  H  H36  1  0.98927000  0.83520000  0.93660000  1.0
  H  H37  1  0.92901000  0.73650000  0.98607000  1.0
  H  H38  1  0.80447000  0.45117000  0.22091000  1.0
  H  H39  1  0.45064000  0.41501000  0.32164000  1.0
  H  H40  1  0.48857000  0.51746000  0.27309000  1.0
  H  H41  1  0.86095000  0.34095000  0.24157000  1.0
  H  H42  1  0.82475000  0.23878000  0.29168000  1.0
  H  H43  1  0.50918000  0.30509000  0.34520000  1.0
  H  H44  1  0.75361000  0.83258000  0.33003000  1.0
  H  H45  1  0.76979000  0.93715000  0.42490000  1.0
  H  H46  1  0.17425000  0.92503000  0.45374000  1.0
  H  H47  1  0.15654000  0.81498000  0.36319000  1.0
  H  H48  1  0.03879000  0.72799000  0.27368000  1.0
  H  H49  1  0.88709000  0.02551000  0.51461000  1.0
  H  H50  1  0.68518000  0.38770000  0.11167000  1.0
  H  H51  1  0.48322000  0.38678000  0.11680000  1.0
  H  H52  1  0.29678000  0.33884000  0.06771000  1.0
  H  H53  1  0.64309000  0.22411000  0.92839000  1.0
  H  H54  1  0.45441000  0.17204000  0.88157000  1.0
  H  H55  1  0.25305000  0.17131000  0.88737000  1.0
  H  H56  1  0.01253000  0.28608000  0.72867000  1.0
  H  H57  1  0.92944000  0.24638000  0.65142000  1.0
  H  H58  1  0.79163000  0.28187000  0.84116000  1.0
  H  H59  1  0.93322000  0.30683000  0.83722000  1.0
  H  H60  1  0.82348000  0.09720000  0.79989000  1.0
  H  H61  1  0.72750000  0.16142000  0.81891000  1.0
  H  H62  1  0.68075000  0.22758000  0.73772000  1.0
  H  H63  1  0.73955000  0.21216000  0.65629000  1.0
  H  H64  1  0.86399000  0.12631000  0.62957000  1.0
  H  H65  1  0.90134000  0.07645000  0.69002000  1.0
  H  H66  1  0.01353000  0.13018000  0.79526000  1.0
  H  H67  1  0.06204000  0.21881000  0.81080000  1.0
  H  H68  1  0.54732000  0.17672000  0.60050000  1.0
  H  H69  1  0.55953000  0.11283000  0.64961000  1.0
  H  H70  1  0.36318000  0.06808000  0.46242000  1.0
  H  H71  1  0.43538000  0.15082000  0.49300000  1.0
  H  H72  1  0.46106000  0.00043000  0.60803000  1.0
  H  H73  1  0.37865000  0.98141000  0.52804000  1.0
  H  H74  1  0.70709000  0.09016000  0.46368000  1.0
  H  H75  1  0.63451000  0.16371000  0.49331000  1.0
  H  H76  1  0.65642000  0.01502000  0.61009000  1.0
  H  H77  1  0.72107000  0.00423000  0.53133000  1.0
  H  H78  1  0.46384000  0.96812000  0.42205000  1.0
  H  H79  1  0.60983000  0.97858000  0.42255000  1.0
  H  H80  1  0.14758000  0.05916000  0.83901000  1.0
  H  H81  1  0.12308000  0.04485000  0.95549000  1.0
  H  H82  1  0.19099000  0.00383000  0.05891000  1.0
  H  H83  1  0.46040000  0.91779000  0.95236000  1.0
  H  H84  1  0.48927000  0.93659000  0.83521000  1.0
  H  H85  1  0.42901000  0.98606000  0.73650000  1.0
  H  H86  1  0.30446000  0.22091000  0.45117000  1.0
  H  H87  1  0.95064000  0.32164000  0.41501000  1.0
  H  H88  1  0.98857000  0.27309000  0.51746000  1.0
  H  H89  1  0.36095000  0.24157000  0.34095000  1.0
  H  H90  1  0.32475000  0.29168000  0.23878000  1.0
  H  H91  1  0.00918000  0.34520000  0.30509000  1.0
  H  H92  1  0.25361000  0.33003000  0.83258000  1.0
  H  H93  1  0.26979000  0.42490000  0.93716000  1.0
  H  H94  1  0.67424000  0.45374000  0.92503000  1.0
  H  H95  1  0.65653000  0.36319000  0.81498000  1.0
  H  H96  1  0.53878000  0.27368000  0.72799000  1.0
  H  H97  1  0.38709000  0.51462000  0.02552000  1.0
  H  H98  1  0.18518000  0.11166000  0.38770000  1.0
  H  H99  1  0.98322000  0.11680000  0.38678000  1.0
  H  H100  1  0.79678000  0.06771000  0.33884000  1.0
  H  H101  1  0.14309000  0.92839000  0.22411000  1.0
  H  H102  1  0.95441000  0.88157000  0.17204000  1.0
  H  H103  1  0.75305000  0.88737000  0.17131000  1.0
  C  C104  1  0.44303000  0.70657000  0.24830000  1.0
  C  C105  1  0.36482000  0.81412000  0.26850000  1.0
  C  C106  1  0.30093000  0.79220000  0.14725000  1.0
  C  C107  1  0.25465000  0.71141000  0.21398000  1.0
  C  C108  1  0.37879000  0.68442000  0.12718000  1.0
  C  C109  1  0.49296000  0.78864000  0.18085000  1.0
  C  C110  1  0.05255000  0.59735000  0.12153000  1.0
  C  C111  1  0.93916000  0.48996000  0.09559000  1.0
  C  C112  1  0.95514000  0.55554000  0.00841000  1.0
  C  C113  1  0.13714000  0.49183000  0.10867000  1.0
  C  C114  1  0.14956000  0.55750000  0.02307000  1.0
  C  C115  1  0.03926000  0.45058000  0.99591000  1.0
  C  C116  1  0.75343000  0.72461000  0.05895000  1.0
  C  C117  1  0.78466000  0.78223000  0.02600000  1.0
  C  C118  1  0.72248000  0.83827000  0.03272000  1.0
  C  C119  1  0.75588000  0.89579000  0.00680000  1.0
  C  C120  1  0.69685000  0.95549000  0.01725000  1.0
  C  C121  1  0.73374000  0.01212000  0.99434000  1.0
  C  C122  1  0.88713000  0.95249000  0.94583000  1.0
  C  C123  1  0.91475000  0.83577000  0.96356000  1.0
  C  C124  1  0.88162000  0.78121000  0.99071000  1.0
  C  C125  1  0.82933000  0.01056000  0.95778000  1.0
  C  C126  1  0.87109000  0.07221000  0.93394000  1.0
  C  C127  1  0.85374000  0.89459000  0.97115000  1.0
  C  C128  1  0.67114000  0.54956000  0.21166000  1.0
  C  C129  1  0.64989000  0.49042000  0.24442000  1.0
  C  C130  1  0.72764000  0.44316000  0.24342000  1.0
  C  C131  1  0.70847000  0.38411000  0.26977000  1.0
  C  C132  1  0.60682000  0.37399000  0.29911000  1.0
  C  C133  1  0.52848000  0.42344000  0.30016000  1.0
  C  C134  1  0.54911000  0.48009000  0.27327000  1.0
  C  C135  1  0.78607000  0.33414000  0.26674000  1.0
  C  C136  1  0.76565000  0.27730000  0.29334000  1.0
  C  C137  1  0.58700000  0.31403000  0.32414000  1.0
  C  C138  1  0.66473000  0.26662000  0.32182000  1.0
  C  C139  1  0.64254000  0.20217000  0.34658000  1.0
  C  C140  1  0.82335000  0.72600000  0.23839000  1.0
  C  C141  1  0.88970000  0.77638000  0.29591000  1.0
  C  C142  1  0.84168000  0.82915000  0.33770000  1.0
  C  C143  1  0.90545000  0.87929000  0.38915000  1.0
  C  C144  1  0.85813000  0.93426000  0.43223000  1.0
  C  C145  1  0.08559000  0.92686000  0.44765000  1.0
  C  C146  1  0.02174000  0.87523000  0.39766000  1.0
  C  C147  1  0.06860000  0.81939000  0.35542000  1.0
  C  C148  1  0.00420000  0.77134000  0.30602000  1.0
  C  C149  1  0.03715000  0.97962000  0.48922000  1.0
  C  C150  1  0.10467000  0.03377000  0.54264000  1.0
  C  C151  1  0.92199000  0.98283000  0.48132000  1.0
  C  C152  1  0.67509000  0.30628000  0.01873000  1.0
  C  C153  1  0.79611000  0.30716000  0.01692000  1.0
  C  C154  1  0.63008000  0.35211000  0.07286000  1.0
  C  C155  1  0.51851000  0.35145000  0.07563000  1.0
  C  C156  1  0.33204000  0.30355000  0.02651000  1.0
  C  C157  1  0.14316000  0.25888000  0.97949000  1.0
  C  C158  1  0.44696000  0.30440000  0.02517000  1.0
  C  C159  1  0.49213000  0.25697000  0.97111000  1.0
  C  C160  1  0.60717000  0.25984000  0.96887000  1.0
  C  C161  1  0.41995000  0.20877000  0.92200000  1.0
  C  C162  1  0.26373000  0.25685000  0.97708000  1.0
  C  C163  1  0.30826000  0.20824000  0.92498000  1.0
  C  C164  1  0.94303000  0.24830000  0.70657000  1.0
  C  C165  1  0.86481000  0.26850000  0.81412000  1.0
  C  C166  1  0.80092000  0.14725000  0.79220000  1.0
  C  C167  1  0.75464000  0.21398000  0.71141000  1.0
  C  C168  1  0.87879000  0.12718000  0.68442000  1.0
  C  C169  1  0.99295000  0.18085000  0.78864000  1.0
  C  C170  1  0.55255000  0.12153000  0.59735000  1.0
  C  C171  1  0.43916000  0.09559000  0.48996000  1.0
  C  C172  1  0.45514000  0.00841000  0.55554000  1.0
  C  C173  1  0.63714000  0.10867000  0.49183000  1.0
  C  C174  1  0.64956000  0.02308000  0.55751000  1.0
  C  C175  1  0.53926000  0.99591000  0.45058000  1.0
  C  C176  1  0.25344000  0.05895000  0.72461000  1.0
  C  C177  1  0.28466000  0.02600000  0.78222000  1.0
  C  C178  1  0.22248000  0.03272000  0.83826000  1.0
  C  C179  1  0.25589000  0.00680000  0.89579000  1.0
  C  C180  1  0.19686000  0.01725000  0.95549000  1.0
  C  C181  1  0.23374000  0.99434000  0.01212000  1.0
  C  C182  1  0.38713000  0.94583000  0.95249000  1.0
  C  C183  1  0.41475000  0.96356000  0.83577000  1.0
  C  C184  1  0.38162000  0.99071000  0.78121000  1.0
  C  C185  1  0.32934000  0.95778000  0.01056000  1.0
  C  C186  1  0.37109000  0.93394000  0.07221000  1.0
  C  C187  1  0.35374000  0.97115000  0.89460000  1.0
  C  C188  1  0.17114000  0.21166000  0.54956000  1.0
  C  C189  1  0.14989000  0.24442000  0.49042000  1.0
  C  C190  1  0.22764000  0.24342000  0.44316000  1.0
  C  C191  1  0.20847000  0.26977000  0.38411000  1.0
  C  C192  1  0.10682000  0.29911000  0.37399000  1.0
  C  C193  1  0.02848000  0.30016000  0.42344000  1.0
  C  C194  1  0.04911000  0.27327000  0.48009000  1.0
  C  C195  1  0.28607000  0.26674000  0.33414000  1.0
  C  C196  1  0.26565000  0.29334000  0.27731000  1.0
  C  C197  1  0.08700000  0.32414000  0.31403000  1.0
  C  C198  1  0.16473000  0.32181000  0.26662000  1.0
  C  C199  1  0.14254000  0.34657000  0.20217000  1.0
  C  C200  1  0.32333000  0.23839000  0.72600000  1.0
  C  C201  1  0.38969000  0.29591000  0.77639000  1.0
  C  C202  1  0.34167000  0.33770000  0.82915000  1.0
  C  C203  1  0.40544000  0.38916000  0.87929000  1.0
  C  C204  1  0.35812000  0.43223000  0.93426000  1.0
  C  C205  1  0.58558000  0.44765000  0.92686000  1.0
  C  C206  1  0.52173000  0.39766000  0.87523000  1.0
  C  C207  1  0.56860000  0.35542000  0.81940000  1.0
  C  C208  1  0.50419000  0.30602000  0.77135000  1.0
  C  C209  1  0.53715000  0.48922000  0.97962000  1.0
  C  C210  1  0.60467000  0.54264000  0.03377000  1.0
  C  C211  1  0.42199000  0.48132000  0.98283000  1.0
  C  C212  1  0.17509000  0.01873000  0.30628000  1.0
  C  C213  1  0.29611000  0.01692000  0.30716000  1.0
  C  C214  1  0.13008000  0.07286000  0.35211000  1.0
  C  C215  1  0.01850000  0.07563000  0.35145000  1.0
  C  C216  1  0.83204000  0.02651000  0.30355000  1.0
  C  C217  1  0.64317000  0.97949000  0.25888000  1.0
  C  C218  1  0.94696000  0.02517000  0.30440000  1.0
  C  C219  1  0.99213000  0.97111000  0.25697000  1.0
  C  C220  1  0.10718000  0.96887000  0.25984000  1.0
  C  C221  1  0.91995000  0.92200000  0.20877000  1.0
  C  C222  1  0.76373000  0.97708000  0.25685000  1.0
  C  C223  1  0.80826000  0.92498000  0.20824000  1.0
  N  N224  1  0.47395000  0.71412000  0.17884000  1.0
  N  N225  1  0.34478000  0.74123000  0.26690000  1.0
  N  N226  1  0.28023000  0.71918000  0.14506000  1.0
  N  N227  1  0.39395000  0.82509000  0.19986000  1.0
  N  N228  1  0.94823000  0.56056000  0.08414000  1.0
  N  N229  1  0.03427000  0.45207000  0.07111000  1.0
  N  N230  1  0.14763000  0.56150000  0.09756000  1.0
  N  N231  1  0.04951000  0.51973000  0.98390000  1.0
  N  N232  1  0.97395000  0.17884000  0.71412000  1.0
  N  N233  1  0.84477000  0.26690000  0.74123000  1.0
  N  N234  1  0.78023000  0.14506000  0.71918000  1.0
  N  N235  1  0.89395000  0.19986000  0.82509000  1.0
  N  N236  1  0.44824000  0.08415000  0.56056000  1.0
  N  N237  1  0.53427000  0.07111000  0.45207000  1.0
  N  N238  1  0.64763000  0.09756000  0.56150000  1.0
  N  N239  1  0.54951000  0.98390000  0.51973000  1.0
  O  O240  1  0.81553000  0.67517000  0.05233000  1.0
  O  O241  1  0.66898000  0.72912000  0.09309000  1.0
  O  O242  1  0.83487000  0.13059000  0.96356000  1.0
  O  O243  1  0.93832000  0.06776000  0.88867000  1.0
  O  O244  1  0.76288000  0.55399000  0.18551000  1.0
  O  O245  1  0.59648000  0.59077000  0.21036000  1.0
  O  O246  1  0.71872000  0.17206000  0.36783000  1.0
  O  O247  1  0.53841000  0.18045000  0.34248000  1.0
  O  O248  1  0.87729000  0.68660000  0.19573000  1.0
  O  O249  1  0.71930000  0.72675000  0.23523000  1.0
  O  O250  1  0.05369000  0.06928000  0.58990000  1.0
  O  O251  1  0.20742000  0.04069000  0.53701000  1.0
  O  O252  1  0.10799000  0.31312000  0.01518000  1.0
  O  O253  1  0.08196000  0.20716000  0.94392000  1.0
  O  O254  1  0.85372000  0.33598000  0.07283000  1.0
  O  O255  1  0.83589000  0.28099000  0.96038000  1.0
  O  O256  1  0.31554000  0.05233000  0.67517000  1.0
  O  O257  1  0.16899000  0.09309000  0.72912000  1.0
  O  O258  1  0.33487000  0.96356000  0.13059000  1.0
  O  O259  1  0.43832000  0.88867000  0.06776000  1.0
  O  O260  1  0.26288000  0.18551000  0.55399000  1.0
  O  O261  1  0.09648000  0.21036000  0.59077000  1.0
  O  O262  1  0.21873000  0.36783000  0.17205000  1.0
  O  O263  1  0.03842000  0.34248000  0.18045000  1.0
  O  O264  1  0.37729000  0.19573000  0.68661000  1.0
  O  O265  1  0.21930000  0.23524000  0.72675000  1.0
  O  O266  1  0.55368000  0.58991000  0.06928000  1.0
  O  O267  1  0.70741000  0.53701000  0.04070000  1.0
  O  O268  1  0.60800000  0.01518000  0.31312000  1.0
  O  O269  1  0.58196000  0.94393000  0.20716000  1.0
  O  O270  1  0.35372000  0.07283000  0.33598000  1.0
  O  O271  1  0.33589000  0.96038000  0.28099000  1.0
