# generated using pymatgen
data_LiBH10(C4O5)2
_symmetry_space_group_name_H-M   'P 1'
_cell_length_a   8.72171000
_cell_length_b   8.84131000
_cell_length_c   9.30725000
_cell_angle_alpha   114.26000000
_cell_angle_beta   94.46040000
_cell_angle_gamma   106.87400000
_symmetry_Int_Tables_number   1
_chemical_formula_structural   LiBH10(C4O5)2
_chemical_formula_sum   'Li2 B2 H20 C16 O20'
_cell_volume   609.96653825
_cell_formula_units_Z   2
loop_
 _symmetry_equiv_pos_site_id
 _symmetry_equiv_pos_as_xyz
  1  'x, y, z'
loop_
 _atom_site_type_symbol
 _atom_site_label
 _atom_site_symmetry_multiplicity
 _atom_site_fract_x
 _atom_site_fract_y
 _atom_site_fract_z
 _atom_site_occupancy
  Li  Li0  1  0.99516000  0.46276000  0.66049000  1.0
  Li  Li1  1  0.00484000  0.53724000  0.33951000  1.0
  B  B2  1  0.40260000  0.22397000  0.35660000  1.0
  B  B3  1  0.59740000  0.77603000  0.64339000  1.0
  H  H4  1  0.12686000  0.89095000  0.97239000  1.0
  H  H5  1  0.87314000  0.10905000  0.02761000  1.0
  H  H6  1  0.15590000  0.88882000  0.78220000  1.0
  H  H7  1  0.84410000  0.11118000  0.21780000  1.0
  H  H8  1  0.32989000  0.96434000  0.94258000  1.0
  H  H9  1  0.67011000  0.03566000  0.05742000  1.0
  H  H10  1  0.19919000  0.67693000  0.03450000  1.0
  H  H11  1  0.80081000  0.32307000  0.96550000  1.0
  H  H12  1  0.39881000  0.74115000  0.99353000  1.0
  H  H13  1  0.60119000  0.25885000  0.00647000  1.0
  H  H14  1  0.33261000  0.43821000  0.76862000  1.0
  H  H15  1  0.66739000  0.56179000  0.23138000  1.0
  H  H16  1  0.29981000  0.42898000  0.95358000  1.0
  H  H17  1  0.70019000  0.57102000  0.04642000  1.0
  H  H18  1  0.07636000  0.14680000  0.83539000  1.0
  H  H19  1  0.92364000  0.85320000  0.16461000  1.0
  H  H20  1  0.13373000  0.12499000  0.64859000  1.0
  H  H21  1  0.86627000  0.87500000  0.35141000  1.0
  H  H22  1  0.92517000  0.10246000  0.66626000  1.0
  H  H23  1  0.07483000  0.89754000  0.33374000  1.0
  C  C24  1  0.64385000  0.21198000  0.46011000  1.0
  C  C25  1  0.35615000  0.78802000  0.53989000  1.0
  C  C26  1  0.52403000  0.02206000  0.34487000  1.0
  C  C27  1  0.47597000  0.97794000  0.65514000  1.0
  C  C28  1  0.24969000  0.34138000  0.25024000  1.0
  C  C29  1  0.75030000  0.65862000  0.74975000  1.0
  C  C30  1  0.19245000  0.33133000  0.39893000  1.0
  C  C31  1  0.80756000  0.66866000  0.60107000  1.0
  C  C32  1  0.20373000  0.86840000  0.88246000  1.0
  C  C33  1  0.79627000  0.13160000  0.11753000  1.0
  C  C34  1  0.26926000  0.65342000  0.93881000  1.0
  C  C35  1  0.73074000  0.34658000  0.06119000  1.0
  C  C36  1  0.25771000  0.46291000  0.86004000  1.0
  C  C37  1  0.74229000  0.53708000  0.13996000  1.0
  C  C38  1  0.05457000  0.17170000  0.73011000  1.0
  C  C39  1  0.94543000  0.82830000  0.26989000  1.0
  O  O40  1  0.57026000  0.32531000  0.46180000  1.0
  O  O41  1  0.42974000  0.67469000  0.53820000  1.0
  O  O42  1  0.78138000  0.25035000  0.53506000  1.0
  O  O43  1  0.21862000  0.74965000  0.46494000  1.0
  O  O44  1  0.38680000  0.03610000  0.28521000  1.0
  O  O45  1  0.61320000  0.96390000  0.71479000  1.0
  O  O46  1  0.54950000  0.88539000  0.31433000  1.0
  O  O47  1  0.45050000  0.11461000  0.68567000  1.0
  O  O48  1  0.37340000  0.28004000  0.22993000  1.0
  O  O49  1  0.62660000  0.71997000  0.77007000  1.0
  O  O50  1  0.18883000  0.39460000  0.16726000  1.0
  O  O51  1  0.81117000  0.60540000  0.83275000  1.0
  O  O52  1  0.27718000  0.25781000  0.45478000  1.0
  O  O53  1  0.72282000  0.74219000  0.54522000  1.0
  O  O54  1  0.08408000  0.38383000  0.45283000  1.0
  O  O55  1  0.91592000  0.61617000  0.54717000  1.0
  O  O56  1  0.20143000  0.69060000  0.81603000  1.0
  O  O57  1  0.79857000  0.30940000  0.18397000  1.0
  O  O58  1  0.08734000  0.35686000  0.78370000  1.0
  O  O59  1  0.91266000  0.64314000  0.21630000  1.0
