# generated using pymatgen
data_AlP2H7C6O7
_symmetry_space_group_name_H-M   'P 1'
_cell_length_a   9.16210000
_cell_length_b   10.10350000
_cell_length_c   10.16650000
_cell_angle_alpha   74.86400000
_cell_angle_beta   89.99990000
_cell_angle_gamma   89.99980000
_symmetry_Int_Tables_number   1
_chemical_formula_structural   AlP2H7C6O7
_chemical_formula_sum   'Al4 P8 H28 C24 O28'
_cell_volume   908.45743986
_cell_formula_units_Z   4
loop_
 _symmetry_equiv_pos_site_id
 _symmetry_equiv_pos_as_xyz
  1  'x, y, z'
loop_
 _atom_site_type_symbol
 _atom_site_label
 _atom_site_symmetry_multiplicity
 _atom_site_fract_x
 _atom_site_fract_y
 _atom_site_fract_z
 _atom_site_occupancy
  Al  Al0  1  0.89950000  0.00848000  0.21245000  1.0
  Al  Al1  1  0.39950000  0.99152000  0.28755000  1.0
  Al  Al2  1  0.10050000  0.99152000  0.78755000  1.0
  Al  Al3  1  0.60050000  0.00848000  0.71245000  1.0
  P  P4  1  0.82969000  0.13781000  0.90248000  1.0
  P  P5  1  0.32969000  0.86218000  0.59751000  1.0
  P  P6  1  0.17031000  0.86218000  0.09752000  1.0
  P  P7  1  0.67031000  0.13782000  0.40249000  1.0
  P  P8  1  0.82887000  0.77994000  0.86657000  1.0
  P  P9  1  0.32887000  0.22006000  0.63343000  1.0
  P  P10  1  0.17113000  0.22006000  0.13343000  1.0
  P  P11  1  0.67113000  0.77994000  0.36657000  1.0
  H  H12  1  0.83122000  0.81297000  0.07431000  1.0
  H  H13  1  0.33122000  0.18703000  0.42569000  1.0
  H  H14  1  0.16878000  0.18703000  0.92569000  1.0
  H  H15  1  0.66878000  0.81297000  0.57431000  1.0
  H  H16  1  0.11369000  0.93500000  0.40802000  1.0
  H  H17  1  0.61369000  0.06500000  0.09198000  1.0
  H  H18  1  0.88631000  0.06500000  0.59198000  1.0
  H  H19  1  0.38631000  0.93500000  0.90802000  1.0
  H  H20  1  0.94712000  0.89507000  0.46326000  1.0
  H  H21  1  0.44712000  0.10492000  0.03674000  1.0
  H  H22  1  0.05288000  0.10492000  0.53674000  1.0
  H  H23  1  0.55288000  0.89507000  0.96326000  1.0
  H  H24  1  0.01720000  0.36422000  0.75331000  1.0
  H  H25  1  0.51720000  0.63578000  0.74669000  1.0
  H  H26  1  0.98280000  0.63578000  0.24669000  1.0
  H  H27  1  0.48280000  0.36422000  0.25331000  1.0
  H  H28  1  0.65143000  0.55507000  0.01521000  1.0
  H  H29  1  0.15143000  0.44493000  0.48479000  1.0
  H  H30  1  0.34857000  0.44493000  0.98479000  1.0
  H  H31  1  0.84857000  0.55507000  0.51521000  1.0
  H  H32  1  0.02132000  0.61238000  0.74340000  1.0
  H  H33  1  0.52132000  0.38762000  0.75660000  1.0
  H  H34  1  0.97868000  0.38762000  0.25660000  1.0
  H  H35  1  0.47868000  0.61238000  0.24340000  1.0
  H  H36  1  0.64998000  0.30797000  0.02822000  1.0
  H  H37  1  0.14998000  0.69203000  0.47178000  1.0
  H  H38  1  0.35002000  0.69203000  0.97178000  1.0
  H  H39  1  0.85002000  0.30797000  0.52822000  1.0
  C  C40  1  0.93491000  0.40668000  0.80832000  1.0
  C  C41  1  0.43492000  0.59332000  0.69168000  1.0
  C  C42  1  0.06508000  0.59332000  0.19168000  1.0
  C  C43  1  0.56508000  0.40668000  0.30832000  1.0
  C  C44  1  0.72912000  0.51397000  0.95494000  1.0
  C  C45  1  0.22912000  0.48603000  0.54506000  1.0
  C  C46  1  0.27088000  0.48603000  0.04506000  1.0
  C  C47  1  0.77088000  0.51397000  0.45494000  1.0
  C  C48  1  0.83040000  0.31994000  0.88771000  1.0
  C  C49  1  0.33040000  0.68006000  0.61229000  1.0
  C  C50  1  0.16960000  0.68006000  0.11229000  1.0
  C  C51  1  0.66960000  0.31994000  0.38771000  1.0
  C  C52  1  0.93718000  0.54628000  0.80235000  1.0
  C  C53  1  0.43718000  0.45372000  0.69765000  1.0
  C  C54  1  0.06282000  0.45372000  0.19765000  1.0
  C  C55  1  0.56282000  0.54628000  0.30235000  1.0
  C  C56  1  0.72811000  0.37482000  0.96164000  1.0
  C  C57  1  0.22811000  0.62518000  0.53836000  1.0
  C  C58  1  0.27190000  0.62518000  0.03836000  1.0
  C  C59  1  0.77189000  0.37482000  0.46164000  1.0
  C  C60  1  0.83351000  0.60066000  0.87504000  1.0
  C  C61  1  0.33351000  0.39934000  0.62496000  1.0
  C  C62  1  0.16649000  0.39934000  0.12496000  1.0
  C  C63  1  0.66650000  0.60066000  0.37504000  1.0
  O  O64  1  0.78329000  0.06855000  0.05198000  1.0
  O  O65  1  0.28329000  0.93145000  0.44802000  1.0
  O  O66  1  0.21671000  0.93145000  0.94802000  1.0
  O  O67  1  0.71671000  0.06855000  0.55198000  1.0
  O  O68  1  0.98119000  0.83793000  0.84273000  1.0
  O  O69  1  0.48119000  0.16207000  0.65727000  1.0
  O  O70  1  0.01881000  0.16208000  0.15727000  1.0
  O  O71  1  0.51881000  0.83793000  0.34273000  1.0
  O  O72  1  0.98507000  0.10014000  0.87233000  1.0
  O  O73  1  0.48507000  0.89986000  0.62767000  1.0
  O  O74  1  0.01493000  0.89986000  0.12767000  1.0
  O  O75  1  0.51493000  0.10014000  0.37233000  1.0
  O  O76  1  0.76259000  0.78832000  0.00933000  1.0
  O  O77  1  0.26259000  0.21168000  0.49067000  1.0
  O  O78  1  0.23741000  0.21167000  0.99067000  1.0
  O  O79  1  0.73741000  0.78832000  0.50933000  1.0
  O  O80  1  0.71743000  0.10690000  0.80461000  1.0
  O  O81  1  0.21743000  0.89310000  0.69539000  1.0
  O  O82  1  0.28257000  0.89310000  0.19539000  1.0
  O  O83  1  0.78257000  0.10690000  0.30461000  1.0
  O  O84  1  0.71694000  0.84816000  0.76055000  1.0
  O  O85  1  0.21694000  0.15183000  0.73946000  1.0
  O  O86  1  0.28306000  0.15184000  0.23945000  1.0
  O  O87  1  0.78306000  0.84816000  0.26054000  1.0
  O  O88  1  0.00651000  0.93636000  0.38340000  1.0
  O  O89  1  0.50651000  0.06365000  0.11660000  1.0
  O  O90  1  0.99349000  0.06365000  0.61660000  1.0
  O  O91  1  0.49349000  0.93636000  0.88340000  1.0
