# generated using pymatgen
data_Co2H32C52(N2O3)3
_symmetry_space_group_name_H-M   'P 1'
_cell_length_a   15.00180000
_cell_length_b   15.00420000
_cell_length_c   15.17840000
_cell_angle_alpha   70.45300000
_cell_angle_beta   61.79600000
_cell_angle_gamma   89.87930000
_symmetry_Int_Tables_number   1
_chemical_formula_structural   Co2H32C52(N2O3)3
_chemical_formula_sum   'Co4 H64 C104 N12 O18'
_cell_volume   2786.82134283
_cell_formula_units_Z   2
loop_
 _symmetry_equiv_pos_site_id
 _symmetry_equiv_pos_as_xyz
  1  'x, y, z'
loop_
 _atom_site_type_symbol
 _atom_site_label
 _atom_site_symmetry_multiplicity
 _atom_site_fract_x
 _atom_site_fract_y
 _atom_site_fract_z
 _atom_site_occupancy
  Co  Co0  1  0.68434000  0.69755000  0.13674000  1.0
  Co  Co1  1  0.83075000  0.80067000  0.87567000  1.0
  Co  Co2  1  0.31569000  0.30232000  0.86349000  1.0
  Co  Co3  1  0.16919000  0.19930000  0.12461000  1.0
  H  H4  1  0.67774000  0.78715000  0.42928000  1.0
  H  H5  1  0.11004000  0.71526000  0.56821000  1.0
  H  H6  1  0.32211000  0.21304000  0.57079000  1.0
  H  H7  1  0.88968000  0.28486000  0.43144000  1.0
  H  H8  1  0.79365000  0.89134000  0.04321000  1.0
  H  H9  1  0.84097000  0.59531000  0.95051000  1.0
  H  H10  1  0.20669000  0.10845000  0.95672000  1.0
  H  H11  1  0.15944000  0.40459000  0.04955000  1.0
  H  H12  1  0.66156000  0.67306000  0.34567000  1.0
  H  H13  1  0.00996000  0.82443000  0.65957000  1.0
  H  H14  1  0.33836000  0.32698000  0.65457000  1.0
  H  H15  1  0.98979000  0.17561000  0.34031000  1.0
  H  H16  1  0.81666000  0.01249000  0.11272000  1.0
  H  H17  1  0.93594000  0.47859000  0.87499000  1.0
  H  H18  1  0.18367000  0.98746000  0.88710000  1.0
  H  H19  1  0.06461000  0.52143000  0.12475000  1.0
  H  H20  1  0.64943000  0.25014000  0.42824000  1.0
  H  H21  1  0.08747000  0.24754000  0.56089000  1.0
  H  H22  1  0.35050000  0.75002000  0.57175000  1.0
  H  H23  1  0.91241000  0.75243000  0.43891000  1.0
  H  H24  1  0.66855000  0.42798000  0.35497000  1.0
  H  H25  1  0.03070000  0.06910000  0.64313000  1.0
  H  H26  1  0.33144000  0.57203000  0.64477000  1.0
  H  H27  1  0.96932000  0.93089000  0.35669000  1.0
  H  H28  1  0.77131000  0.14464000  0.46448000  1.0
  H  H29  1  0.24462000  0.35902000  0.52620000  1.0
  H  H30  1  0.22879000  0.85543000  0.53558000  1.0
  H  H31  1  0.75530000  0.64100000  0.47374000  1.0
  H  H32  1  0.92531000  0.44243000  0.05316000  1.0
  H  H33  1  0.98743000  0.06801000  0.94489000  1.0
  H  H34  1  0.07488000  0.55773000  0.94677000  1.0
  H  H35  1  0.01261000  0.93215000  0.05489000  1.0
  H  H36  1  0.76371000  0.10885000  0.19906000  1.0
  H  H37  1  0.97394000  0.39222000  0.78453000  1.0
  H  H38  1  0.23638000  0.89128000  0.80092000  1.0
  H  H39  1  0.02569000  0.60795000  0.21503000  1.0
  H  H40  1  0.90276000  0.26491000  0.12254000  1.0
  H  H41  1  0.03529000  0.24483000  0.86744000  1.0
  H  H42  1  0.09764000  0.73520000  0.87731000  1.0
  H  H43  1  0.96457000  0.75535000  0.13227000  1.0
  H  H44  1  0.82057000  0.08652000  0.57320000  1.0
  H  H45  1  0.39857000  0.41744000  0.42431000  1.0
  H  H46  1  0.17940000  0.91355000  0.42690000  1.0
  H  H47  1  0.60118000  0.58255000  0.57592000  1.0
  H  H48  1  0.74850000  0.80950000  0.57038000  1.0
  H  H49  1  0.32122000  0.69345000  0.42971000  1.0
  H  H50  1  0.25144000  0.19064000  0.42955000  1.0
  H  H51  1  0.67851000  0.30641000  0.57058000  1.0
  H  H52  1  0.85092000  0.00095000  0.72515000  1.0
  H  H53  1  0.57505000  0.50321000  0.27724000  1.0
  H  H54  1  0.14899000  0.99904000  0.27497000  1.0
  H  H55  1  0.42490000  0.49681000  0.72302000  1.0
  H  H56  1  0.78169000  0.73545000  0.72485000  1.0
  H  H57  1  0.50365000  0.76812000  0.28061000  1.0
  H  H58  1  0.21818000  0.26457000  0.27514000  1.0
  H  H59  1  0.49622000  0.23193000  0.71979000  1.0
  H  H60  1  0.45573000  0.86789000  0.17387000  1.0
  H  H61  1  0.62777000  0.63098000  0.82907000  1.0
  H  H62  1  0.54394000  0.13191000  0.82623000  1.0
  H  H63  1  0.37259000  0.36868000  0.17106000  1.0
  H  H64  1  0.66398000  0.01753000  0.83467000  1.0
  H  H65  1  0.49253000  0.48393000  0.17181000  1.0
  H  H66  1  0.33556000  0.98195000  0.16572000  1.0
  H  H67  1  0.50765000  0.51569000  0.82828000  1.0
  C  C68  1  0.79743000  0.44734000  0.19884000  1.0
  C  C69  1  0.00553000  0.05691000  0.79886000  1.0
  C  C70  1  0.20269000  0.55263000  0.80115000  1.0
  C  C71  1  0.99453000  0.94323000  0.20093000  1.0
  C  C72  1  0.81585000  0.55641000  0.15434000  1.0
  C  C73  1  0.98281000  0.94829000  0.84554000  1.0
  C  C74  1  0.18414000  0.44354000  0.84588000  1.0
  C  C75  1  0.01729000  0.05186000  0.15432000  1.0
  C  C76  1  0.77858000  0.95418000  0.56006000  1.0
  C  C77  1  0.34236000  0.54915000  0.43826000  1.0
  C  C78  1  0.22146000  0.04592000  0.43990000  1.0
  C  C79  1  0.65752000  0.45085000  0.56183000  1.0
  C  C80  1  0.75138000  0.97946000  0.32739000  1.0
  C  C81  1  0.08687000  0.52187000  0.66315000  1.0
  C  C82  1  0.24867000  0.02064000  0.67256000  1.0
  C  C83  1  0.91304000  0.47821000  0.33661000  1.0
  C  C84  1  0.74237000  0.91092000  0.27959000  1.0
  C  C85  1  0.02861000  0.58755000  0.71300000  1.0
  C  C86  1  0.25759000  0.08917000  0.72039000  1.0
  C  C87  1  0.97138000  0.41254000  0.28675000  1.0
  C  C88  1  0.64378000  0.87132000  0.00547000  1.0
  C  C89  1  0.63935000  0.63403000  0.99972000  1.0
  C  C90  1  0.35601000  0.12852000  0.99476000  1.0
  C  C91  1  0.36079000  0.36563000  0.00041000  1.0
  C  C92  1  0.77365000  0.24522000  0.28017000  1.0
  C  C93  1  0.06482000  0.25802000  0.70856000  1.0
  C  C94  1  0.22651000  0.75483000  0.71971000  1.0
  C  C95  1  0.93505000  0.74213000  0.29115000  1.0
  C  C96  1  0.76591000  0.14007000  0.32692000  1.0
  C  C97  1  0.10344000  0.36254000  0.66035000  1.0
  C  C98  1  0.23433000  0.86002000  0.67298000  1.0
  C  C99  1  0.89639000  0.63758000  0.33939000  1.0
  C  C100  1  0.70189000  0.81282000  0.34381000  1.0
  C  C101  1  0.05006000  0.68667000  0.65292000  1.0
  C  C102  1  0.29804000  0.18728000  0.65625000  1.0
  C  C103  1  0.94975000  0.31342000  0.34683000  1.0
  C  C104  1  0.76579000  0.87228000  0.12868000  1.0
  C  C105  1  0.89981000  0.61826000  0.86580000  1.0
  C  C106  1  0.23448000  0.12764000  0.87127000  1.0
  C  C107  1  0.10035000  0.38173000  0.13415000  1.0
  C  C108  1  0.76246000  0.99926000  0.46688000  1.0
  C  C109  1  0.23572000  0.50350000  0.52729000  1.0
  C  C110  1  0.23767000  0.00086000  0.53303000  1.0
  C  C111  1  0.76417000  0.49655000  0.47266000  1.0
  C  C112  1  0.69265000  0.74953000  0.29848000  1.0
  C  C113  1  0.99511000  0.74674000  0.70253000  1.0
  C  C114  1  0.30737000  0.25049000  0.70162000  1.0
  C  C115  1  0.00471000  0.25329000  0.29738000  1.0
  C  C116  1  0.77692000  0.93928000  0.16910000  1.0
  C  C117  1  0.95220000  0.55382000  0.82234000  1.0
  C  C118  1  0.22322000  0.06073000  0.83083000  1.0
  C  C119  1  0.04800000  0.44623000  0.17749000  1.0
  C  C120  1  0.70872000  0.29235000  0.34501000  1.0
  C  C121  1  0.06366000  0.20795000  0.64571000  1.0
  C  C122  1  0.29131000  0.70762000  0.65491000  1.0
  C  C123  1  0.93628000  0.79212000  0.35407000  1.0
  C  C124  1  0.71907000  0.39202000  0.30407000  1.0
  C  C125  1  0.03178000  0.10847000  0.69141000  1.0
  C  C126  1  0.28101000  0.60794000  0.69582000  1.0
  C  C127  1  0.96825000  0.89159000  0.30839000  1.0
  C  C128  1  0.76560000  0.09841000  0.42458000  1.0
  C  C129  1  0.19890000  0.40462000  0.56593000  1.0
  C  C130  1  0.23458000  0.90172000  0.57536000  1.0
  C  C131  1  0.80100000  0.59544000  0.43396000  1.0
  C  C132  1  0.56760000  0.93614000  0.00447000  1.0
  C  C133  1  0.56781000  0.56382000  0.00025000  1.0
  C  C134  1  0.43204000  0.06366000  0.99575000  1.0
  C  C135  1  0.43234000  0.43584000  0.99982000  1.0
  C  C136  1  0.86235000  0.40024000  0.13409000  1.0
  C  C137  1  0.00533000  0.10710000  0.86194000  1.0
  C  C138  1  0.13790000  0.59983000  0.86584000  1.0
  C  C139  1  0.99477000  0.89309000  0.13779000  1.0
  C  C140  1  0.76162000  0.07901000  0.27612000  1.0
  C  C141  1  0.04792000  0.42282000  0.71045000  1.0
  C  C142  1  0.23852000  0.92109000  0.72383000  1.0
  C  C143  1  0.95185000  0.57729000  0.28924000  1.0
  C  C144  1  0.84960000  0.30008000  0.17312000  1.0
  C  C145  1  0.03256000  0.20707000  0.81818000  1.0
  C  C146  1  0.15065000  0.69998000  0.82675000  1.0
  C  C147  1  0.96739000  0.79314000  0.18150000  1.0
  C  C148  1  0.80901000  0.00818000  0.60432000  1.0
  C  C149  1  0.41649000  0.49566000  0.39510000  1.0
  C  C150  1  0.19095000  0.99188000  0.39574000  1.0
  C  C151  1  0.58340000  0.50434000  0.60506000  1.0
  C  C152  1  0.76965000  0.85393000  0.60390000  1.0
  C  C153  1  0.37540000  0.64927000  0.39685000  1.0
  C  C154  1  0.23029000  0.14615000  0.39610000  1.0
  C  C155  1  0.62448000  0.35071000  0.60335000  1.0
  C  C156  1  0.82684000  0.96160000  0.68897000  1.0
  C  C157  1  0.51584000  0.54214000  0.31326000  1.0
  C  C158  1  0.17299000  0.03840000  0.31119000  1.0
  C  C159  1  0.48411000  0.45788000  0.68699000  1.0
  C  C160  1  0.78886000  0.81304000  0.68843000  1.0
  C  C161  1  0.47622000  0.69067000  0.31524000  1.0
  C  C162  1  0.21098000  0.18700000  0.31166000  1.0
  C  C163  1  0.52372000  0.30935000  0.68508000  1.0
  C  C164  1  0.47491000  0.92596000  0.09798000  1.0
  C  C165  1  0.57186000  0.57295000  0.90344000  1.0
  C  C166  1  0.52475000  0.07390000  0.90219000  1.0
  C  C167  1  0.42840000  0.42667000  0.09660000  1.0
  C  C168  1  0.59172000  0.01062000  0.90662000  1.0
  C  C169  1  0.49550000  0.49016000  0.09689000  1.0
  C  C170  1  0.40787000  0.98916000  0.09361000  1.0
  C  C171  1  0.50473000  0.50948000  0.90316000  1.0
  N  N172  1  0.72123000  0.77929000  0.19295000  1.0
  N  N173  1  0.92022000  0.71314000  0.80696000  1.0
  N  N174  1  0.27889000  0.22067000  0.80712000  1.0
  N  N175  1  0.07975000  0.28688000  0.19305000  1.0
  N  N176  1  0.81627000  0.86540000  0.73134000  1.0
  N  N177  1  0.54566000  0.63848000  0.27269000  1.0
  N  N178  1  0.18352000  0.13459000  0.26884000  1.0
  N  N179  1  0.45436000  0.36156000  0.72760000  1.0
  N  N180  1  0.75089000  0.94062000  0.42129000  1.0
  N  N181  1  0.17884000  0.56152000  0.57290000  1.0
  N  N182  1  0.24920000  0.05949000  0.57863000  1.0
  N  N183  1  0.82112000  0.43858000  0.42697000  1.0
  O  O184  1  0.80059000  0.74517000  0.00943000  1.0
  O  O185  1  0.19947000  0.25482000  0.99088000  1.0
  O  O186  1  0.73173000  0.58971000  0.20119000  1.0
  O  O187  1  0.94984000  0.91002000  0.79857000  1.0
  O  O188  1  0.26845000  0.41045000  0.79922000  1.0
  O  O189  1  0.05024000  0.09008000  0.20135000  1.0
  O  O190  1  0.61071000  0.79453000  0.09194000  1.0
  O  O191  1  0.69468000  0.70527000  0.91354000  1.0
  O  O192  1  0.38913000  0.20514000  0.90810000  1.0
  O  O193  1  0.30528000  0.29450000  0.08660000  1.0
  O  O194  1  0.73244000  0.89842000  0.92313000  1.0
  O  O195  1  0.63594000  0.61272000  0.09095000  1.0
  O  O196  1  0.26750000  0.10163000  0.07731000  1.0
  O  O197  1  0.36440000  0.38686000  0.90911000  1.0
  O  O198  1  0.90276000  0.60307000  0.08220000  1.0
  O  O199  1  0.99715000  0.90426000  0.92210000  1.0
  O  O200  1  0.09719000  0.39682000  0.91787000  1.0
  O  O201  1  0.00308000  0.09607000  0.07772000  1.0
