# generated using pymatgen
data_Cu2H19C13SI2NO
_symmetry_space_group_name_H-M   'P 1'
_cell_length_a   10.98970000
_cell_length_b   12.12890000
_cell_length_c   16.06560000
_cell_angle_alpha   111.26300000
_cell_angle_beta   99.51510000
_cell_angle_gamma   93.96650000
_symmetry_Int_Tables_number   1
_chemical_formula_structural   Cu2H19C13SI2NO
_chemical_formula_sum   'Cu8 H76 C52 S4 I8 N4 O4'
_cell_volume   1948.67937462
_cell_formula_units_Z   4
loop_
 _symmetry_equiv_pos_site_id
 _symmetry_equiv_pos_as_xyz
  1  'x, y, z'
loop_
 _atom_site_type_symbol
 _atom_site_label
 _atom_site_symmetry_multiplicity
 _atom_site_fract_x
 _atom_site_fract_y
 _atom_site_fract_z
 _atom_site_occupancy
  Cu  Cu0  1  0.79876000  0.27671000  0.75183000  1.0
  Cu  Cu1  1  0.20124000  0.72329000  0.24817000  1.0
  Cu  Cu2  1  0.64690000  0.25695000  0.60360000  1.0
  Cu  Cu3  1  0.35310000  0.74305000  0.39640000  1.0
  Cu  Cu4  1  0.63734000  0.42688000  0.75386000  1.0
  Cu  Cu5  1  0.36267000  0.57312000  0.24614000  1.0
  Cu  Cu6  1  0.82920000  0.43021000  0.67927000  1.0
  Cu  Cu7  1  0.17081000  0.56979000  0.32073000  1.0
  H  H8  1  0.13105000  0.32413000  0.92524000  1.0
  H  H9  1  0.86895000  0.67588000  0.07476000  1.0
  H  H10  1  0.08700000  0.32877000  0.81561000  1.0
  H  H11  1  0.91300000  0.67124000  0.18440000  1.0
  H  H12  1  0.25861000  0.21581000  0.76343000  1.0
  H  H13  1  0.74140000  0.78420000  0.23658000  1.0
  H  H14  1  0.31978000  0.34063000  0.86426000  1.0
  H  H15  1  0.68022000  0.65938000  0.13575000  1.0
  H  H16  1  0.32576000  0.21394000  0.95614000  1.0
  H  H17  1  0.67424000  0.78607000  0.04387000  1.0
  H  H18  1  0.40627000  0.15517000  0.86627000  1.0
  H  H19  1  0.59374000  0.84484000  0.13374000  1.0
  H  H20  1  0.26672000  0.99417000  0.88195000  1.0
  H  H21  1  0.73328000  0.00584000  0.11806000  1.0
  H  H22  1  0.22197000  0.00391000  0.77460000  1.0
  H  H23  1  0.77804000  0.99609000  0.22541000  1.0
  H  H24  1  0.03389000  0.98769000  0.84084000  1.0
  H  H25  1  0.96612000  0.01231000  0.15915000  1.0
  H  H26  1  0.10203000  0.11469000  0.94020000  1.0
  H  H27  1  0.89797000  0.88531000  0.05980000  1.0
  H  H28  1  0.03278000  0.10937000  0.74536000  1.0
  H  H29  1  0.96722000  0.89063000  0.25464000  1.0
  H  H30  1  0.93883000  0.21042000  0.99007000  1.0
  H  H31  1  0.06117000  0.78959000  0.00993000  1.0
  H  H32  1  0.95221000  0.34269000  0.96506000  1.0
  H  H33  1  0.04778000  0.65731000  0.03494000  1.0
  H  H34  1  0.72438000  0.33119000  0.92813000  1.0
  H  H35  1  0.27562000  0.66881000  0.07186000  1.0
  H  H36  1  0.70316000  0.19882000  0.95219000  1.0
  H  H37  1  0.29684000  0.80118000  0.04780000  1.0
  H  H38  1  0.80517000  0.48128000  0.23361000  1.0
  H  H39  1  0.19483000  0.51871000  0.76639000  1.0
  H  H40  1  0.62719000  0.55946000  0.30519000  1.0
  H  H41  1  0.37282000  0.44054000  0.69481000  1.0
  H  H42  1  0.38118000  0.42370000  0.05542000  1.0
  H  H43  1  0.61882000  0.57631000  0.94459000  1.0
  H  H44  1  0.54538000  0.33495000  0.97341000  1.0
  H  H45  1  0.45462000  0.66506000  0.02659000  1.0
  H  H46  1  0.29827000  0.11997000  0.52763000  1.0
  H  H47  1  0.70173000  0.88003000  0.47237000  1.0
  H  H48  1  0.38172000  0.26514000  0.58776000  1.0
  H  H49  1  0.61827000  0.73486000  0.41223000  1.0
  H  H50  1  0.15120000  0.26979000  0.56377000  1.0
  H  H51  1  0.84879000  0.73021000  0.43623000  1.0
  H  H52  1  0.22342000  0.34961000  0.50743000  1.0
  H  H53  1  0.77658000  0.65039000  0.49257000  1.0
  H  H54  1  0.02943000  0.22072000  0.40481000  1.0
  H  H55  1  0.97057000  0.77928000  0.59519000  1.0
  H  H56  1  0.08512000  0.09325000  0.41765000  1.0
  H  H57  1  0.91488000  0.90675000  0.58235000  1.0
  H  H58  1  0.20561000  0.25116000  0.33219000  1.0
  H  H59  1  0.79439000  0.74884000  0.66781000  1.0
  H  H60  1  0.12451000  0.10482000  0.27207000  1.0
  H  H61  1  0.87549000  0.89518000  0.72793000  1.0
  H  H62  1  0.28347000  0.02164000  0.35243000  1.0
  H  H63  1  0.71653000  0.97837000  0.64757000  1.0
  H  H64  1  0.35265000  0.10238000  0.29618000  1.0
  H  H65  1  0.64735000  0.89763000  0.70382000  1.0
  H  H66  1  0.41806000  0.28015000  0.44457000  1.0
  H  H67  1  0.58194000  0.71985000  0.55544000  1.0
  H  H68  1  0.68259000  0.06514000  0.38662000  1.0
  H  H69  1  0.31741000  0.93486000  0.61338000  1.0
  H  H70  1  0.54513000  0.07153000  0.31429000  1.0
  H  H71  1  0.45487000  0.92846000  0.68571000  1.0
  H  H72  1  0.59778000  0.30049000  0.38136000  1.0
  H  H73  1  0.40221000  0.69950000  0.61864000  1.0
  H  H74  1  0.73292000  0.28493000  0.45342000  1.0
  H  H75  1  0.26707000  0.71508000  0.54658000  1.0
  H  H76  1  0.87520000  0.17997000  0.19741000  1.0
  H  H77  1  0.12480000  0.82002000  0.80259000  1.0
  H  H78  1  0.05353000  0.32492000  0.20482000  1.0
  H  H79  1  0.94647000  0.67507000  0.79518000  1.0
  H  H80  1  0.98372000  0.58018000  0.43867000  1.0
  H  H81  1  0.01629000  0.41981000  0.56133000  1.0
  H  H82  1  0.80579000  0.44666000  0.44351000  1.0
  H  H83  1  0.19421000  0.55333000  0.55649000  1.0
  C  C84  1  0.12681000  0.27407000  0.85198000  1.0
  C  C85  1  0.87319000  0.72593000  0.14802000  1.0
  C  C86  1  0.25930000  0.25411000  0.83717000  1.0
  C  C87  1  0.74071000  0.74589000  0.16283000  1.0
  C  C88  1  0.31335000  0.17082000  0.88132000  1.0
  C  C89  1  0.68665000  0.82919000  0.11868000  1.0
  C  C90  1  0.22769000  0.05217000  0.84826000  1.0
  C  C91  1  0.77232000  0.94784000  0.15175000  1.0
  C  C92  1  0.09673000  0.07271000  0.86598000  1.0
  C  C93  1  0.90327000  0.92729000  0.13402000  1.0
  C  C94  1  0.04307000  0.15438000  0.82003000  1.0
  C  C95  1  0.95693000  0.84562000  0.17997000  1.0
  C  C96  1  0.89447000  0.25709000  0.94863000  1.0
  C  C97  1  0.10553000  0.74291000  0.05137000  1.0
  C  C98  1  0.76668000  0.28147000  0.96805000  1.0
  C  C99  1  0.23332000  0.71852000  0.03195000  1.0
  C  C100  1  0.68928000  0.39844000  0.09833000  1.0
  C  C101  1  0.31072000  0.60156000  0.90167000  1.0
  C  C102  1  0.71166000  0.46509000  0.19271000  1.0
  C  C103  1  0.28834000  0.53490000  0.80729000  1.0
  C  C104  1  0.61340000  0.50922000  0.23185000  1.0
  C  C105  1  0.38660000  0.49078000  0.76815000  1.0
  C  C106  1  0.47641000  0.43295000  0.09269000  1.0
  C  C107  1  0.52359000  0.56705000  0.90731000  1.0
  C  C108  1  0.56861000  0.38346000  0.04700000  1.0
  C  C109  1  0.43139000  0.61654000  0.95299000  1.0
  C  C110  1  0.31996000  0.20748000  0.52288000  1.0
  C  C111  1  0.68004000  0.79252000  0.47712000  1.0
  C  C112  1  0.19954000  0.25955000  0.50716000  1.0
  C  C113  1  0.80046000  0.74045000  0.49284000  1.0
  C  C114  1  0.11475000  0.18112000  0.41585000  1.0
  C  C115  1  0.88526000  0.81888000  0.58415000  1.0
  C  C116  1  0.18362000  0.16421000  0.33768000  1.0
  C  C117  1  0.81638000  0.83579000  0.66231000  1.0
  C  C118  1  0.30475000  0.11204000  0.35285000  1.0
  C  C119  1  0.69525000  0.88796000  0.64715000  1.0
  C  C120  1  0.38815000  0.19136000  0.44443000  1.0
  C  C121  1  0.61185000  0.80864000  0.55557000  1.0
  C  C122  1  0.60907000  0.12031000  0.38009000  1.0
  C  C123  1  0.39093000  0.87969000  0.61991000  1.0
  C  C124  1  0.66716000  0.24114000  0.38761000  1.0
  C  C125  1  0.33283000  0.75886000  0.61239000  1.0
  C  C126  1  0.82672000  0.30033000  0.32025000  1.0
  C  C127  1  0.17328000  0.69967000  0.67975000  1.0
  C  C128  1  0.89785000  0.26771000  0.25225000  1.0
  C  C129  1  0.10215000  0.73229000  0.74775000  1.0
  C  C130  1  0.99648000  0.34772000  0.25650000  1.0
  C  C131  1  0.00353000  0.65228000  0.74350000  1.0
  C  C132  1  0.95804000  0.48979000  0.38707000  1.0
  C  C133  1  0.04196000  0.51020000  0.61292000  1.0
  C  C134  1  0.85802000  0.41489000  0.38940000  1.0
  C  C135  1  0.14198000  0.58510000  0.61060000  1.0
  S  S136  1  0.87962000  0.16559000  0.82879000  1.0
  S  S137  1  0.12038000  0.83441000  0.17121000  1.0
  S  S138  1  0.52807000  0.12633000  0.47043000  1.0
  S  S139  1  0.47193000  0.87367000  0.52957000  1.0
  I  I140  1  0.85351000  0.50865000  0.87003000  1.0
  I  I141  1  0.14649000  0.49135000  0.12997000  1.0
  I  I142  1  0.61722000  0.48487000  0.60633000  1.0
  I  I143  1  0.38278000  0.51513000  0.39367000  1.0
  I  I144  1  0.55312000  0.19929000  0.73076000  1.0
  I  I145  1  0.44688000  0.80072000  0.26924000  1.0
  I  I146  1  0.88412000  0.20647000  0.59663000  1.0
  I  I147  1  0.11587000  0.79353000  0.40337000  1.0
  N  N148  1  0.49612000  0.49368000  0.18339000  1.0
  N  N149  1  0.50388000  0.50632000  0.81661000  1.0
  N  N150  1  0.02753000  0.45861000  0.32255000  1.0
  N  N151  1  0.97247000  0.54139000  0.67745000  1.0
  O  O152  1  0.78740000  0.35328000  0.06431000  1.0
  O  O153  1  0.21260000  0.64672000  0.93569000  1.0
  O  O154  1  0.73327000  0.21755000  0.31333000  1.0
  O  O155  1  0.26673000  0.78244000  0.68667000  1.0
