# generated using pymatgen
data_H10PbC14S2N2O7
_symmetry_space_group_name_H-M   'P 1'
_cell_length_a   8.01086000
_cell_length_b   13.51000000
_cell_length_c   16.09670000
_cell_angle_alpha   89.99960000
_cell_angle_beta   93.11630000
_cell_angle_gamma   89.99890000
_symmetry_Int_Tables_number   1
_chemical_formula_structural   H10PbC14S2N2O7
_chemical_formula_sum   'H40 Pb4 C56 S8 N8 O28'
_cell_volume   1739.51689234
_cell_formula_units_Z   4
loop_
 _symmetry_equiv_pos_site_id
 _symmetry_equiv_pos_as_xyz
  1  'x, y, z'
loop_
 _atom_site_type_symbol
 _atom_site_label
 _atom_site_symmetry_multiplicity
 _atom_site_fract_x
 _atom_site_fract_y
 _atom_site_fract_z
 _atom_site_occupancy
  H  H0  1  0.21638000  0.90191000  0.59256000  1.0
  H  H1  1  0.28362000  0.40192000  0.40743000  1.0
  H  H2  1  0.78372000  0.09806000  0.40744000  1.0
  H  H3  1  0.71629000  0.59806000  0.59256000  1.0
  H  H4  1  0.20202000  0.82383000  0.66512000  1.0
  H  H5  1  0.29800000  0.32384000  0.33488000  1.0
  H  H6  1  0.79808000  0.17615000  0.33488000  1.0
  H  H7  1  0.70191000  0.67615000  0.66512000  1.0
  H  H8  1  0.06133000  0.51241000  0.34311000  1.0
  H  H9  1  0.43866000  0.01242000  0.65688000  1.0
  H  H10  1  0.93869000  0.48760000  0.65690000  1.0
  H  H11  1  0.56136000  0.98758000  0.34312000  1.0
  H  H12  1  0.15291000  0.56547000  0.20418000  1.0
  H  H13  1  0.34709000  0.06547000  0.79582000  1.0
  H  H14  1  0.84707000  0.43454000  0.79582000  1.0
  H  H15  1  0.65293000  0.93454000  0.20419000  1.0
  H  H16  1  0.14882000  0.74256000  0.16397000  1.0
  H  H17  1  0.35117000  0.24256000  0.83603000  1.0
  H  H18  1  0.85117000  0.25744000  0.83602000  1.0
  H  H19  1  0.64882000  0.75744000  0.16397000  1.0
  H  H20  1  0.04805000  0.87134000  0.26030000  1.0
  H  H21  1  0.45194000  0.37134000  0.73971000  1.0
  H  H22  1  0.95195000  0.12867000  0.73969000  1.0
  H  H23  1  0.54803000  0.62866000  0.26029000  1.0
  H  H24  1  0.89769000  0.87000000  0.04036000  1.0
  H  H25  1  0.60231000  0.37000000  0.95964000  1.0
  H  H26  1  0.10230000  0.13001000  0.95964000  1.0
  H  H27  1  0.39769000  0.63000000  0.04036000  1.0
  H  H28  1  0.88505000  0.68753000  0.07207000  1.0
  H  H29  1  0.61495000  0.18753000  0.92793000  1.0
  H  H30  1  0.11496000  0.31247000  0.92793000  1.0
  H  H31  1  0.38505000  0.81247000  0.07207000  1.0
  H  H32  1  0.83369000  0.56595000  0.96108000  1.0
  H  H33  1  0.66632000  0.06595000  0.03893000  1.0
  H  H34  1  0.16633000  0.43405000  0.03892000  1.0
  H  H35  1  0.33368000  0.93405000  0.96108000  1.0
  H  H36  1  0.79094000  0.61998000  0.81202000  1.0
  H  H37  1  0.70906000  0.11998000  0.18798000  1.0
  H  H38  1  0.20906000  0.38003000  0.18798000  1.0
  H  H39  1  0.29095000  0.88002000  0.81202000  1.0
  Pb  Pb40  1  0.86733000  0.92729000  0.59901000  1.0
  Pb  Pb41  1  0.63267000  0.42730000  0.40097000  1.0
  Pb  Pb42  1  0.13271000  0.07270000  0.40099000  1.0
  Pb  Pb43  1  0.36729000  0.57267000  0.59902000  1.0
  C  C44  1  0.00728000  0.66383000  0.37835000  1.0
  C  C45  1  0.49272000  0.16384000  0.62165000  1.0
  C  C46  1  0.99272000  0.33618000  0.62165000  1.0
  C  C47  1  0.50729000  0.83616000  0.37835000  1.0
  C  C48  1  0.05834000  0.59020000  0.32529000  1.0
  C  C49  1  0.44164000  0.09020000  0.67470000  1.0
  C  C50  1  0.94166000  0.40981000  0.67471000  1.0
  C  C51  1  0.55835000  0.90980000  0.32530000  1.0
  C  C52  1  0.10977000  0.62075000  0.24738000  1.0
  C  C53  1  0.39022000  0.12075000  0.75261000  1.0
  C  C54  1  0.89023000  0.37925000  0.75262000  1.0
  C  C55  1  0.60978000  0.87925000  0.24739000  1.0
  C  C56  1  0.10774000  0.72084000  0.22478000  1.0
  C  C57  1  0.39224000  0.22083000  0.77522000  1.0
  C  C58  1  0.89226000  0.27917000  0.77521000  1.0
  C  C59  1  0.60773000  0.77917000  0.22478000  1.0
  C  C60  1  0.05324000  0.79379000  0.27887000  1.0
  C  C61  1  0.44675000  0.29379000  0.72114000  1.0
  C  C62  1  0.94676000  0.20622000  0.72113000  1.0
  C  C63  1  0.55323000  0.70622000  0.27887000  1.0
  C  C64  1  0.00350000  0.76418000  0.35654000  1.0
  C  C65  1  0.49651000  0.26419000  0.64346000  1.0
  C  C66  1  0.99650000  0.23583000  0.64345000  1.0
  C  C67  1  0.50349000  0.73581000  0.35654000  1.0
  C  C68  1  0.94265000  0.82605000  0.42534000  1.0
  C  C69  1  0.55737000  0.32605000  0.57467000  1.0
  C  C70  1  0.05735000  0.17396000  0.57465000  1.0
  C  C71  1  0.44265000  0.67395000  0.42534000  1.0
  C  C72  1  0.84714000  0.84351000  0.90854000  1.0
  C  C73  1  0.65286000  0.34351000  0.09146000  1.0
  C  C74  1  0.15285000  0.15649000  0.09146000  1.0
  C  C75  1  0.34714000  0.65649000  0.90854000  1.0
  C  C76  1  0.87231000  0.81564000  0.99119000  1.0
  C  C77  1  0.62770000  0.31563000  0.00881000  1.0
  C  C78  1  0.12769000  0.18437000  0.00881000  1.0
  C  C79  1  0.37230000  0.68436000  0.99119000  1.0
  C  C80  1  0.86696000  0.71390000  0.00825000  1.0
  C  C81  1  0.63304000  0.21390000  0.99176000  1.0
  C  C82  1  0.13305000  0.28610000  0.99176000  1.0
  C  C83  1  0.36695000  0.78610000  0.00824000  1.0
  C  C84  1  0.83785000  0.64407000  0.94482000  1.0
  C  C85  1  0.66215000  0.14406000  0.05519000  1.0
  C  C86  1  0.16215000  0.35594000  0.05519000  1.0
  C  C87  1  0.33786000  0.85593000  0.94482000  1.0
  C  C88  1  0.81384000  0.67376000  0.86183000  1.0
  C  C89  1  0.68615000  0.17375000  0.13817000  1.0
  C  C90  1  0.18615000  0.32625000  0.13817000  1.0
  C  C91  1  0.31385000  0.82624000  0.86183000  1.0
  C  C92  1  0.81886000  0.77470000  0.84435000  1.0
  C  C93  1  0.68115000  0.27469000  0.15565000  1.0
  C  C94  1  0.18114000  0.22531000  0.15565000  1.0
  C  C95  1  0.31886000  0.72530000  0.84435000  1.0
  C  C96  1  0.80421000  0.82519000  0.76245000  1.0
  C  C97  1  0.69579000  0.32519000  0.23754000  1.0
  C  C98  1  0.19581000  0.17481000  0.23755000  1.0
  C  C99  1  0.30419000  0.67480000  0.76245000  1.0
  S  S100  1  0.93412000  0.65573000  0.48048000  1.0
  S  S101  1  0.56589000  0.15573000  0.51952000  1.0
  S  S102  1  0.06585000  0.34429000  0.51951000  1.0
  S  S103  1  0.43414000  0.84426000  0.48049000  1.0
  S  S104  1  0.84491000  0.96373000  0.86238000  1.0
  S  S105  1  0.65509000  0.46374000  0.13761000  1.0
  S  S106  1  0.15510000  0.03627000  0.13761000  1.0
  S  S107  1  0.34490000  0.53626000  0.86238000  1.0
  N  N108  1  0.90632000  0.77322000  0.49375000  1.0
  N  N109  1  0.59371000  0.27322000  0.50625000  1.0
  N  N110  1  0.09363000  0.22680000  0.50623000  1.0
  N  N111  1  0.40635000  0.72678000  0.49377000  1.0
  N  N112  1  0.81448000  0.92414000  0.76567000  1.0
  N  N113  1  0.68554000  0.42414000  0.23432000  1.0
  N  N114  1  0.18554000  0.07586000  0.23432000  1.0
  N  N115  1  0.31446000  0.57586000  0.76568000  1.0
  O  O116  1  0.77408000  0.60295000  0.47930000  1.0
  O  O117  1  0.72592000  0.10294000  0.52070000  1.0
  O  O118  1  0.22590000  0.39705000  0.52067000  1.0
  O  O119  1  0.27411000  0.89705000  0.47933000  1.0
  O  O120  1  0.05575000  0.61570000  0.54192000  1.0
  O  O121  1  0.44426000  0.11572000  0.45808000  1.0
  O  O122  1  0.94422000  0.38433000  0.45809000  1.0
  O  O123  1  0.55578000  0.88430000  0.54192000  1.0
  O  O124  1  0.92483000  0.91847000  0.42288000  1.0
  O  O125  1  0.57520000  0.41847000  0.57713000  1.0
  O  O126  1  0.07521000  0.08155000  0.57711000  1.0
  O  O127  1  0.42478000  0.58153000  0.42288000  1.0
  O  O128  1  0.00722000  0.01168000  0.87219000  1.0
  O  O129  1  0.49278000  0.51168000  0.12782000  1.0
  O  O130  1  0.99277000  0.98833000  0.12782000  1.0
  O  O131  1  0.50722000  0.48832000  0.87218000  1.0
  O  O132  1  0.70143000  0.02024000  0.88626000  1.0
  O  O133  1  0.79856000  0.52024000  0.11373000  1.0
  O  O134  1  0.29856000  0.97976000  0.11373000  1.0
  O  O135  1  0.20143000  0.47976000  0.88627000  1.0
  O  O136  1  0.79031000  0.78027000  0.69250000  1.0
  O  O137  1  0.70968000  0.28027000  0.30750000  1.0
  O  O138  1  0.20972000  0.21972000  0.30751000  1.0
  O  O139  1  0.29027000  0.71971000  0.69249000  1.0
  O  O140  1  0.16167000  0.89054000  0.64499000  1.0
  O  O141  1  0.33833000  0.39054000  0.35500000  1.0
  O  O142  1  0.83844000  0.10945000  0.35502000  1.0
  O  O143  1  0.66157000  0.60944000  0.64499000  1.0
