# generated using pymatgen
data_AlH6C13ClO5F
_symmetry_space_group_name_H-M   'P 1'
_cell_length_a   6.61418000
_cell_length_b   11.04507221
_cell_length_c   15.25360000
_cell_angle_alpha   89.25324678
_cell_angle_beta   78.15940000
_cell_angle_gamma   73.67530639
_symmetry_Int_Tables_number   1
_chemical_formula_structural   AlH6C13ClO5F
_chemical_formula_sum   'Al2 H12 C26 Cl2 O10 F2'
_cell_volume   1045.47501743
_cell_formula_units_Z   2
loop_
 _symmetry_equiv_pos_site_id
 _symmetry_equiv_pos_as_xyz
  1  'x, y, z'
loop_
 _atom_site_type_symbol
 _atom_site_label
 _atom_site_symmetry_multiplicity
 _atom_site_fract_x
 _atom_site_fract_y
 _atom_site_fract_z
 _atom_site_occupancy
  Al  Al0  1  0.99735000  0.50236000  0.49820000  1.0
  Al  Al1  1  0.49846000  0.50093000  0.49736000  1.0
  H  H2  1  0.34475000  0.35552000  0.43447000  1.0
  H  H3  1  0.64712000  0.65555000  0.54420000  1.0
  H  H4  1  0.56873000  0.63784000  0.22614000  1.0
  H  H5  1  0.46299000  0.45701000  0.77203000  1.0
  H  H6  1  0.79277000  0.52733000  0.76577000  1.0
  H  H7  1  0.70254000  0.52891000  0.93175000  1.0
  H  H8  1  0.18028000  0.36570000  0.22719000  1.0
  H  H9  1  0.26735000  0.35737000  0.06135000  1.0
  H  H10  1  0.56115000  0.23810000  0.62784000  1.0
  H  H11  1  0.35300000  0.12137000  0.72986000  1.0
  H  H12  1  0.80916000  0.76774000  0.62374000  1.0
  H  H13  1  0.47820000  0.88538000  0.72796000  1.0
  C  C14  1  0.86136000  0.27705000  0.50588000  1.0
  C  C15  1  0.81468000  0.50174000  0.33728000  1.0
  C  C16  1  0.13466000  0.72757000  0.49294000  1.0
  C  C17  1  0.18468000  0.49732000  0.65875000  1.0
  C  C18  1  0.86998000  0.50177000  0.23759000  1.0
  C  C19  1  0.13208000  0.49305000  0.75818000  1.0
  C  C20  1  0.72406000  0.57765000  0.19080000  1.0
  C  C21  1  0.78160000  0.57715000  0.09820000  1.0
  C  C22  1  0.29585000  0.47266000  0.80664000  1.0
  C  C23  1  0.24170000  0.47474000  0.89928000  1.0
  C  C24  1  0.91850000  0.51274000  0.80431000  1.0
  C  C25  1  0.86902000  0.51422000  0.89734000  1.0
  C  C26  1  0.06782000  0.42459000  0.19021000  1.0
  C  C27  1  0.11667000  0.42140000  0.09718000  1.0
  C  C28  1  0.97612000  0.49870000  0.04750000  1.0
  C  C29  1  0.02917000  0.49622000  0.94863000  1.0
  C  C30  1  0.93160000  0.13555000  0.50434000  1.0
  C  C31  1  0.80556000  0.07009000  0.56321000  1.0
  C  C32  1  0.11868000  0.06952000  0.44554000  1.0
  C  C33  1  0.61551000  0.13534000  0.62563000  1.0
  C  C34  1  0.49894000  0.06974000  0.68275000  1.0
  C  C35  1  0.06595000  0.86919000  0.49792000  1.0
  C  C36  1  0.18629000  0.93513000  0.44202000  1.0
  C  C37  1  0.87501000  0.93463000  0.56061000  1.0
  C  C38  1  0.75376000  0.87029000  0.62222000  1.0
  C  C39  1  0.56923000  0.93644000  0.68140000  1.0
  Cl  Cl40  1  0.41422000  0.85625000  0.36545000  1.0
  Cl  Cl41  1  0.26811000  0.14744000  0.37168000  1.0
  O  O42  1  0.98864000  0.33371000  0.52638000  1.0
  O  O43  1  0.61570000  0.52714000  0.37463000  1.0
  O  O44  1  0.31668000  0.67252000  0.51078000  1.0
  O  O45  1  0.02639000  0.52831000  0.61924000  1.0
  O  O46  1  0.00207000  0.67344000  0.47394000  1.0
  O  O47  1  0.38326000  0.47279000  0.62049000  1.0
  O  O48  1  0.68030000  0.32935000  0.48599000  1.0
  O  O49  1  0.97189000  0.47393000  0.37738000  1.0
  O  O50  1  0.29366000  0.44193000  0.45906000  1.0
  O  O51  1  0.69961000  0.56406000  0.53698000  1.0
  F  F52  1  0.64087000  0.65942000  0.05575000  1.0
  F  F53  1  0.40696000  0.45776000  0.94377000  1.0
