# generated using pymatgen
data_H3PbC7NO4
_symmetry_space_group_name_H-M   'P 1'
_cell_length_a   12.44284758
_cell_length_b   12.44290000
_cell_length_c   12.44290000
_cell_angle_alpha   100.24560000
_cell_angle_beta   114.27174407
_cell_angle_gamma   114.27184407
_symmetry_Int_Tables_number   1
_chemical_formula_structural   H3PbC7NO4
_chemical_formula_sum   'H24 Pb8 C56 N8 O32'
_cell_volume   1454.84149127
_cell_formula_units_Z   8
loop_
 _symmetry_equiv_pos_site_id
 _symmetry_equiv_pos_as_xyz
  1  'x, y, z'
loop_
 _atom_site_type_symbol
 _atom_site_label
 _atom_site_symmetry_multiplicity
 _atom_site_fract_x
 _atom_site_fract_y
 _atom_site_fract_z
 _atom_site_occupancy
  H  H0  1  0.96798000  0.08326000  0.32269000  1.0
  H  H1  1  0.73943000  0.82268000  0.85471000  1.0
  H  H2  1  0.53202000  0.35470000  0.61527000  1.0
  H  H3  1  0.76057000  0.11528000  0.58325000  1.0
  H  H4  1  0.03202000  0.91675000  0.67731000  1.0
  H  H5  1  0.26057000  0.17732000  0.14530000  1.0
  H  H6  1  0.46798000  0.64530000  0.38473000  1.0
  H  H7  1  0.23943000  0.88472000  0.41675000  1.0
  H  H8  1  0.13086000  0.00366000  0.39472000  1.0
  H  H9  1  0.89106000  0.89471000  0.76385000  1.0
  H  H10  1  0.36914000  0.26386000  0.37279000  1.0
  H  H11  1  0.60894000  0.87280000  0.50365000  1.0
  H  H12  1  0.86914000  0.99635000  0.60528000  1.0
  H  H13  1  0.10894000  0.10529000  0.23615000  1.0
  H  H14  1  0.63086000  0.73615000  0.62721000  1.0
  H  H15  1  0.39106000  0.12720000  0.49635000  1.0
  H  H16  1  0.29668000  0.08196000  0.63184000  1.0
  H  H17  1  0.04987000  0.13183000  0.83515000  1.0
  H  H18  1  0.20332000  0.33516000  0.28528000  1.0
  H  H19  1  0.45013000  0.78529000  0.58197000  1.0
  H  H20  1  0.70332000  0.91804000  0.36816000  1.0
  H  H21  1  0.95013000  0.86817000  0.16485000  1.0
  H  H22  1  0.79668000  0.66484000  0.71472000  1.0
  H  H23  1  0.54987000  0.21471000  0.41803000  1.0
  Pb  Pb24  1  0.92062000  0.49000000  0.62377000  1.0
  Pb  Pb25  1  0.63377000  0.12377000  0.20315000  1.0
  Pb  Pb26  1  0.57938000  0.70315000  0.06938000  1.0
  Pb  Pb27  1  0.86623000  0.56938000  0.99000000  1.0
  Pb  Pb28  1  0.07938000  0.51000000  0.37623000  1.0
  Pb  Pb29  1  0.36623000  0.87623000  0.79685000  1.0
  Pb  Pb30  1  0.42062000  0.29685000  0.93062000  1.0
  Pb  Pb31  1  0.13377000  0.43062000  0.01000000  1.0
  C  C32  1  0.94691000  0.24430000  0.47337000  1.0
  C  C33  1  0.72907000  0.97337000  0.02646000  1.0
  C  C34  1  0.55309000  0.52646000  0.79739000  1.0
  C  C35  1  0.77093000  0.29739000  0.74430000  1.0
  C  C36  1  0.05309000  0.75570000  0.52663000  1.0
  C  C37  1  0.27093000  0.02663000  0.97354000  1.0
  C  C38  1  0.44691000  0.47354000  0.20261000  1.0
  C  C39  1  0.22907000  0.70261000  0.25570000  1.0
  C  C40  1  0.14139000  0.23736000  0.65066000  1.0
  C  C41  1  0.91330000  0.15066000  0.00927000  1.0
  C  C42  1  0.35861000  0.50927000  0.59597000  1.0
  C  C43  1  0.58670000  0.09597000  0.73736000  1.0
  C  C44  1  0.85861000  0.76264000  0.34934000  1.0
  C  C45  1  0.08670000  0.84934000  0.99073000  1.0
  C  C46  1  0.64139000  0.49073000  0.40403000  1.0
  C  C47  1  0.41330000  0.90403000  0.26264000  1.0
  C  C48  1  0.04791000  0.20122000  0.51962000  1.0
  C  C49  1  0.81840000  0.01961000  0.97171000  1.0
  C  C50  1  0.45209000  0.47171000  0.65331000  1.0
  C  C51  1  0.68160000  0.15331000  0.70122000  1.0
  C  C52  1  0.95209000  0.79878000  0.48038000  1.0
  C  C53  1  0.18160000  0.98038000  0.02829000  1.0
  C  C54  1  0.54791000  0.52829000  0.34669000  1.0
  C  C55  1  0.31840000  0.84669000  0.29878000  1.0
  C  C56  1  0.04409000  0.11637000  0.42525000  1.0
  C  C57  1  0.80887000  0.92524000  0.88115000  1.0
  C  C58  1  0.45591000  0.38115000  0.57228000  1.0
  C  C59  1  0.69113000  0.07228000  0.61637000  1.0
  C  C60  1  0.95591000  0.88363000  0.57476000  1.0
  C  C61  1  0.19112000  0.07475000  0.11884000  1.0
  C  C62  1  0.54409000  0.61885000  0.42772000  1.0
  C  C63  1  0.30887000  0.92772000  0.38363000  1.0
  C  C64  1  0.13700000  0.31103000  0.75792000  1.0
  C  C65  1  0.94689000  0.25792000  0.12093000  1.0
  C  C66  1  0.36301000  0.62093000  0.67404000  1.0
  C  C67  1  0.55311000  0.17403000  0.81103000  1.0
  C  C68  1  0.86300000  0.68897000  0.24208000  1.0
  C  C69  1  0.05311000  0.74208000  0.87907000  1.0
  C  C70  1  0.63699000  0.37907000  0.32596000  1.0
  C  C71  1  0.44689000  0.82597000  0.18897000  1.0
  C  C72  1  0.13350000  0.07252000  0.46470000  1.0
  C  C73  1  0.89218000  0.96470000  0.83120000  1.0
  C  C74  1  0.36650000  0.33120000  0.43902000  1.0
  C  C75  1  0.60782000  0.93902000  0.57252000  1.0
  C  C76  1  0.86650000  0.92748000  0.53530000  1.0
  C  C77  1  0.10782000  0.03530000  0.16880000  1.0
  C  C78  1  0.63350000  0.66880000  0.56098000  1.0
  C  C79  1  0.39218000  0.06098000  0.42748000  1.0
  C  C80  1  0.22714000  0.11641000  0.59698000  1.0
  C  C81  1  0.98057000  0.09698000  0.86984000  1.0
  C  C82  1  0.27286000  0.36984000  0.38927000  1.0
  C  C83  1  0.51943000  0.88927000  0.61641000  1.0
  C  C84  1  0.77286000  0.88359000  0.40302000  1.0
  C  C85  1  0.01943000  0.90302000  0.13016000  1.0
  C  C86  1  0.72714000  0.63016000  0.61073000  1.0
  C  C87  1  0.48057000  0.11073000  0.38359000  1.0
  N  N88  1  0.23089000  0.19700000  0.68702000  1.0
  N  N89  1  0.99002000  0.18701000  0.95613000  1.0
  N  N90  1  0.26912000  0.45614000  0.46611000  1.0
  N  N91  1  0.50998000  0.96611000  0.69700000  1.0
  N  N92  1  0.76911000  0.80300000  0.31298000  1.0
  N  N93  1  0.00998000  0.81299000  0.04387000  1.0
  N  N94  1  0.73089000  0.54387000  0.53389000  1.0
  N  N95  1  0.49002000  0.03389000  0.30300000  1.0
  O  O96  1  0.99648000  0.36145000  0.48880000  1.0
  O  O97  1  0.62734000  0.98879000  0.99231000  1.0
  O  O98  1  0.50352000  0.49231000  0.86497000  1.0
  O  O99  1  0.87266000  0.36497000  0.86145000  1.0
  O  O100  1  0.00352000  0.63855000  0.51121000  1.0
  O  O101  1  0.37266000  0.01121000  0.00769000  1.0
  O  O102  1  0.49648000  0.50769000  0.13503000  1.0
  O  O103  1  0.12734000  0.63503000  0.13855000  1.0
  O  O104  1  0.81856000  0.15523000  0.41674000  1.0
  O  O105  1  0.76150000  0.91673000  0.09817000  1.0
  O  O106  1  0.68144000  0.59817000  0.83667000  1.0
  O  O107  1  0.73850000  0.33667000  0.65523000  1.0
  O  O108  1  0.18144000  0.84477000  0.58326000  1.0
  O  O109  1  0.23849000  0.08326000  0.90182000  1.0
  O  O110  1  0.31856000  0.40182000  0.16333000  1.0
  O  O111  1  0.26151000  0.66333000  0.34478000  1.0
  O  O112  1  0.03855000  0.32980000  0.72941000  1.0
  O  O113  1  0.89961000  0.22941000  0.19086000  1.0
  O  O114  1  0.46145000  0.69086000  0.79125000  1.0
  O  O115  1  0.60039000  0.29125000  0.82980000  1.0
  O  O116  1  0.96145000  0.67020000  0.27059000  1.0
  O  O117  1  0.10039000  0.77059000  0.80913000  1.0
  O  O118  1  0.53854000  0.30914000  0.20874000  1.0
  O  O119  1  0.39961000  0.70875000  0.17020000  1.0
  O  O120  1  0.23081000  0.34376000  0.87496000  1.0
  O  O121  1  0.03120000  0.37495000  0.14415000  1.0
  O  O122  1  0.26919000  0.64415000  0.61294000  1.0
  O  O123  1  0.46880000  0.11295000  0.84376000  1.0
  O  O124  1  0.76919000  0.65624000  0.12504000  1.0
  O  O125  1  0.96880000  0.62505000  0.85585000  1.0
  O  O126  1  0.73081000  0.35586000  0.38706000  1.0
  O  O127  1  0.53120000  0.88705000  0.15624000  1.0
