# generated using pymatgen
data_Al3H24C37Cl3O14
_symmetry_space_group_name_H-M   'P 1'
_cell_length_a   12.30820000
_cell_length_b   12.43060000
_cell_length_c   26.82480000
_cell_angle_alpha   82.86190000
_cell_angle_beta   82.01350000
_cell_angle_gamma   67.34810000
_symmetry_Int_Tables_number   1
_chemical_formula_structural   Al3H24C37Cl3O14
_chemical_formula_sum   'Al6 H48 C74 Cl6 O28'
_cell_volume   3739.56928351
_cell_formula_units_Z   2
loop_
 _symmetry_equiv_pos_site_id
 _symmetry_equiv_pos_as_xyz
  1  'x, y, z'
loop_
 _atom_site_type_symbol
 _atom_site_label
 _atom_site_symmetry_multiplicity
 _atom_site_fract_x
 _atom_site_fract_y
 _atom_site_fract_z
 _atom_site_occupancy
  Al  Al0  1  0.60076000  0.59686000  0.48627000  1.0
  Al  Al1  1  0.56215000  0.35358000  0.50439000  1.0
  Al  Al2  1  0.34637000  0.57714000  0.50396000  1.0
  Al  Al3  1  0.07108000  0.05374000  0.01921000  1.0
  Al  Al4  1  0.31486000  0.09534000  0.00523000  1.0
  Al  Al5  1  0.08731000  0.30714000  0.00616000  1.0
  H  H6  1  0.35537000  0.66643000  0.74028000  1.0
  H  H7  1  0.20730000  0.52328000  0.29260000  1.0
  H  H8  1  0.35422000  0.51144000  0.27235000  1.0
  H  H9  1  0.31514000  0.50511000  0.19033000  1.0
  H  H10  1  0.17819000  0.49192000  0.21188000  1.0
  H  H11  1  0.28373000  0.19906000  0.32024000  1.0
  H  H12  1  0.16455000  0.33542000  0.31475000  1.0
  H  H13  1  0.49324000  0.18548000  0.29427000  1.0
  H  H14  1  0.49106000  0.17781000  0.20849000  1.0
  H  H15  1  0.15898000  0.30867000  0.23178000  1.0
  H  H16  1  0.17010000  0.97695000  0.71104000  1.0
  H  H17  1  0.67680000  0.47449000  0.81616000  1.0
  H  H18  1  0.36714000  0.01096000  0.75373000  1.0
  H  H19  1  0.52574000  0.72011000  0.70473000  1.0
  H  H20  1  0.49999000  0.87046000  0.69709000  1.0
  H  H21  1  0.08689000  0.94621000  0.77566000  1.0
  H  H22  1  0.06685000  0.82067000  0.80618000  1.0
  H  H23  1  0.10607000  0.90942000  0.84080000  1.0
  H  H24  1  0.24879000  0.72022000  0.87069000  1.0
  H  H25  1  0.21015000  0.64867000  0.82704000  1.0
  H  H26  1  0.36025000  0.62380000  0.83014000  1.0
  H  H27  1  0.51239000  0.96332000  0.77317000  1.0
  H  H28  1  0.63857000  0.50168000  0.73280000  1.0
  H  H29  1  0.54944000  0.86601000  0.82795000  1.0
  H  H30  1  0.63411000  0.82892000  0.76882000  1.0
  H  H31  1  0.11025000  0.82491000  0.70890000  1.0
  H  H32  1  0.21232000  0.69725000  0.68148000  1.0
  H  H33  1  0.14352000  0.68694000  0.74365000  1.0
  H  H34  1  0.91530000  0.03150000  0.71479000  1.0
  H  H35  1  0.87354000  0.12964000  0.66044000  1.0
  H  H36  1  0.99620000  0.12202000  0.69052000  1.0
  H  H37  1  0.22691000  0.09868000  0.25798000  1.0
  H  H38  1  0.28740000  0.11899000  0.19504000  1.0
  H  H39  1  0.86743000  0.46942000  0.79047000  1.0
  H  H40  1  0.37703000  0.08210000  0.24599000  1.0
  H  H41  1  0.11882000  0.07639000  0.80723000  1.0
  H  H42  1  0.23323000  0.12216000  0.81569000  1.0
  H  H43  1  0.16545000  0.16588000  0.75843000  1.0
  H  H44  1  0.62270000  0.65168000  0.78663000  1.0
  H  H45  1  0.51675000  0.67640000  0.84059000  1.0
  H  H46  1  0.49544000  0.61813000  0.78694000  1.0
  H  H47  1  0.99047000  0.33739000  0.78183000  1.0
  H  H48  1  0.73902000  0.19779000  0.73768000  1.0
  H  H49  1  0.60530000  0.37398000  0.73953000  1.0
  H  H50  1  0.96460000  0.16096000  0.78041000  1.0
  H  H51  1  0.52495000  0.31366000  0.27978000  1.0
  H  H52  1  0.70404000  0.70946000  0.50257000  1.0
  H  H53  1  0.96266000  0.94588000  0.06184000  1.0
  C  C54  1  0.69813000  0.39878000  0.56655000  1.0
  C  C55  1  0.25301000  0.79606000  0.79292000  1.0
  C  C56  1  0.33351000  0.86806000  0.79752000  1.0
  C  C57  1  0.37002000  0.39310000  0.58193000  1.0
  C  C58  1  0.46752000  0.80536000  0.77589000  1.0
  C  C59  1  0.46676000  0.80556000  0.71788000  1.0
  C  C60  1  0.32473000  0.89144000  0.84969000  1.0
  C  C61  1  0.35081000  0.80765000  0.65066000  1.0
  C  C62  1  0.36630000  0.77597000  0.60828000  1.0
  C  C63  1  0.67196000  0.40840000  0.74521000  1.0
  C  C64  1  0.87989000  0.39521000  0.71952000  1.0
  C  C65  1  0.32155000  0.34451000  0.73123000  1.0
  C  C66  1  0.89667000  0.38279000  0.77623000  1.0
  C  C67  1  0.89038000  0.28568000  0.90061000  1.0
  C  C68  1  0.78719000  0.34287000  0.71166000  1.0
  C  C69  1  0.39360000  0.72047000  0.56175000  1.0
  C  C70  1  0.69378000  0.39055000  0.80151000  1.0
  C  C71  1  0.82494000  0.31348000  0.80787000  1.0
  C  C72  1  0.86769000  0.19467000  0.78410000  1.0
  C  C73  1  0.82374000  0.21037000  0.73187000  1.0
  C  C74  1  0.85441000  0.29895000  0.85950000  1.0
  C  C75  1  0.76245000  0.35953000  0.65941000  1.0
  C  C76  1  0.33015000  0.35524000  0.68070000  1.0
  C  C77  1  0.73925000  0.37345000  0.61598000  1.0
  C  C78  1  0.46146000  0.27412000  0.27537000  1.0
  C  C79  1  0.29060000  0.46919000  0.27227000  1.0
  C  C80  1  0.27248000  0.45693000  0.21778000  1.0
  C  C81  1  0.71105000  0.38926000  0.42283000  1.0
  C  C82  1  0.29844000  0.30837000  0.11127000  1.0
  C  C83  1  0.33802000  0.34664000  0.30098000  1.0
  C  C84  1  0.45447000  0.26830000  0.21886000  1.0
  C  C85  1  0.32426000  0.32648000  0.20648000  1.0
  C  C86  1  0.25011000  0.26346000  0.24202000  1.0
  C  C87  1  0.34035000  0.36682000  0.63442000  1.0
  C  C88  1  0.25306000  0.28344000  0.29772000  1.0
  C  C89  1  0.31329000  0.31610000  0.15436000  1.0
  C  C90  1  0.34598000  0.35739000  0.35332000  1.0
  C  C91  1  0.35233000  0.36790000  0.39717000  1.0
  C  C92  1  0.30062000  0.89894000  0.13688000  1.0
  C  C93  1  0.37678000  0.39196000  0.44416000  1.0
  C  C94  1  0.31513000  0.86781000  0.18151000  1.0
  C  C95  1  0.33024000  0.83696000  0.23052000  1.0
  C  C96  1  0.34279000  0.81236000  0.27593000  1.0
  C  C97  1  0.35783000  0.78461000  0.32508000  1.0
  C  C98  1  0.28410000  0.75367000  0.73835000  1.0
  C  C99  1  0.37268000  0.75791000  0.36992000  1.0
  C  C100  1  0.89544000  0.28025000  0.13825000  1.0
  C  C101  1  0.86720000  0.29532000  0.18329000  1.0
  C  C102  1  0.83902000  0.31111000  0.23263000  1.0
  C  C103  1  0.81592000  0.32507000  0.27820000  1.0
  C  C104  1  0.78839000  0.34187000  0.32750000  1.0
  C  C105  1  0.39998000  0.70925000  0.42028000  1.0
  C  C106  1  0.76150000  0.35851000  0.37248000  1.0
  C  C107  1  0.28058000  0.95325000  0.94329000  1.0
  C  C108  1  0.27352000  0.28282000  0.92722000  1.0
  C  C109  1  0.26332000  0.96164000  0.71265000  1.0
  C  C110  1  0.94869000  0.25710000  0.94628000  1.0
  C  C111  1  0.27271000  0.95122000  0.08696000  1.0
  C  C112  1  0.27293000  0.28243000  0.06487000  1.0
  C  C113  1  0.94754000  0.25435000  0.08765000  1.0
  C  C114  1  0.29835000  0.31221000  0.87455000  1.0
  C  C115  1  0.30772000  0.32486000  0.82828000  1.0
  C  C116  1  0.31617000  0.33634000  0.77774000  1.0
  C  C117  1  0.12124000  0.87352000  0.80394000  1.0
  C  C118  1  0.27114000  0.69078000  0.83232000  1.0
  C  C119  1  0.54414000  0.87079000  0.78714000  1.0
  C  C120  1  0.28932000  0.98742000  0.76337000  1.0
  C  C121  1  0.18166000  0.74040000  0.71688000  1.0
  C  C122  1  0.90776000  0.11843000  0.69717000  1.0
  C  C123  1  0.28806000  0.13376000  0.23449000  1.0
  C  C124  1  0.19521000  0.09353000  0.78764000  1.0
  C  C125  1  0.52758000  0.68037000  0.79911000  1.0
  C  C126  1  0.31122000  0.91072000  0.89394000  1.0
  C  C127  1  0.34101000  0.83284000  0.70290000  1.0
  Cl  Cl128  1  0.01861000  0.32504000  0.68354000  1.0
  Cl  Cl129  1  0.82788000  0.54818000  0.69714000  1.0
  Cl  Cl130  1  0.83013000  0.08444000  0.82356000  1.0
  Cl  Cl131  1  0.58975000  0.33809000  0.83947000  1.0
  Cl  Cl132  1  0.54560000  0.33594000  0.17945000  1.0
  Cl  Cl133  1  0.29221000  0.06341000  0.66350000  1.0
  O  O134  1  0.49530000  0.69992000  0.53851000  1.0
  O  O135  1  0.17632000  0.35039000  0.94901000  1.0
  O  O136  1  0.97383000  0.33862000  0.96151000  1.0
  O  O137  1  0.68680000  0.49691000  0.54382000  1.0
  O  O138  1  0.96993000  0.15308000  0.07491000  1.0
  O  O139  1  0.17334000  0.96359000  0.07437000  1.0
  O  O140  1  0.35118000  0.98473000  0.06030000  1.0
  O  O141  1  0.34803000  0.19086000  0.04475000  1.0
  O  O142  1  0.17455000  0.34834000  0.04793000  1.0
  O  O143  1  0.97116000  0.33721000  0.06036000  1.0
  O  O144  1  0.15854000  0.15340000  0.01036000  1.0
  O  O145  1  0.47076000  0.31938000  0.46264000  1.0
  O  O146  1  0.67211000  0.31849000  0.55063000  1.0
  O  O147  1  0.46483000  0.32005000  0.56104000  1.0
  O  O148  1  0.30314000  0.49032000  0.56172000  1.0
  O  O149  1  0.31233000  0.69109000  0.54846000  1.0
  O  O150  1  0.50351000  0.68673000  0.43084000  1.0
  O  O151  1  0.69623000  0.48973000  0.43410000  1.0
  O  O152  1  0.68101000  0.31171000  0.45142000  1.0
  O  O153  1  0.30699000  0.48707000  0.46318000  1.0
  O  O154  1  0.31619000  0.68921000  0.44948000  1.0
  O  O155  1  0.50214000  0.50803000  0.49862000  1.0
  O  O156  1  0.97439000  0.15431000  0.96628000  1.0
  O  O157  1  0.17888000  0.96581000  0.96475000  1.0
  O  O158  1  0.35876000  0.97986000  0.96112000  1.0
  O  O159  1  0.34686000  0.18860000  0.94665000  1.0
  O  O160  1  0.69395000  0.67493000  0.47404000  1.0
  O  O161  1  0.99145000  0.96229000  0.02750000  1.0
