# generated using pymatgen
data_Pr2H18C9(NO)12
_symmetry_space_group_name_H-M   'P 1'
_cell_length_a   9.49046000
_cell_length_b   10.15630000
_cell_length_c   14.14565508
_cell_angle_alpha   110.01014440
_cell_angle_beta   101.03694865
_cell_angle_gamma   95.72630000
_symmetry_Int_Tables_number   1
_chemical_formula_structural   Pr2H18C9(NO)12
_chemical_formula_sum   'Pr4 H36 C18 N24 O24'
_cell_volume   1237.10504910
_cell_formula_units_Z   2
loop_
 _symmetry_equiv_pos_site_id
 _symmetry_equiv_pos_as_xyz
  1  'x, y, z'
loop_
 _atom_site_type_symbol
 _atom_site_label
 _atom_site_symmetry_multiplicity
 _atom_site_fract_x
 _atom_site_fract_y
 _atom_site_fract_z
 _atom_site_occupancy
  Pr  Pr0  1  0.87890000  0.30912000  0.86754000  1.0
  Pr  Pr1  1  0.12110000  0.69087000  0.13245000  1.0
  Pr  Pr2  1  0.61774000  0.92091000  0.61648000  1.0
  Pr  Pr3  1  0.38227000  0.07908000  0.38352000  1.0
  H  H4  1  0.56899000  0.09828000  0.83565000  1.0
  H  H5  1  0.43101000  0.90172000  0.16435000  1.0
  H  H6  1  0.43633000  0.11655000  0.75560000  1.0
  H  H7  1  0.56367000  0.88346000  0.24440000  1.0
  H  H8  1  0.52204000  0.69550000  0.70247000  1.0
  H  H9  1  0.47796000  0.30450000  0.29753000  1.0
  H  H10  1  0.66713000  0.79961000  0.79220000  1.0
  H  H11  1  0.33287000  0.20039000  0.20780000  1.0
  H  H12  1  0.31112000  0.71570000  0.55489000  1.0
  H  H13  1  0.68888000  0.28430000  0.44511000  1.0
  H  H14  1  0.28728000  0.85626000  0.52468000  1.0
  H  H15  1  0.71272000  0.14374000  0.47532000  1.0
  H  H16  1  0.88873000  0.08588000  0.58020000  1.0
  H  H17  1  0.11127000  0.91411000  0.41980000  1.0
  H  H18  1  0.80688000  0.96021000  0.46893000  1.0
  H  H19  1  0.19312000  0.03979000  0.53108000  1.0
  H  H20  1  0.75501000  0.10404000  0.97791000  1.0
  H  H21  1  0.24499000  0.89598000  0.02210000  1.0
  H  H22  1  0.68551000  0.24645000  0.01335000  1.0
  H  H23  1  0.31449000  0.75356000  0.98665000  1.0
  H  H24  1  0.91282000  0.51098000  0.73529000  1.0
  H  H25  1  0.08717000  0.48903000  0.26471000  1.0
  H  H26  1  0.89420000  0.60860000  0.84741000  1.0
  H  H27  1  0.10580000  0.39140000  0.15259000  1.0
  H  H28  1  0.55979000  0.43448000  0.74843000  1.0
  H  H29  1  0.44021000  0.56552000  0.25156000  1.0
  H  H30  1  0.66504000  0.44525000  0.66178000  1.0
  H  H31  1  0.33496000  0.55475000  0.33821000  1.0
  H  H32  1  0.07345000  0.84948000  0.81048000  1.0
  H  H33  1  0.92655000  0.15052000  0.18953000  1.0
  H  H34  1  0.15066000  0.98372000  0.77551000  1.0
  H  H35  1  0.84934000  0.01626000  0.22449000  1.0
  H  H36  1  0.42763000  0.40071000  0.91894000  1.0
  H  H37  1  0.57238000  0.59929000  0.08106000  1.0
  H  H38  1  0.33416000  0.27767000  0.95665000  1.0
  H  H39  1  0.66583000  0.72232000  0.04335000  1.0
  C  C40  1  0.58346000  0.23649000  0.64620000  1.0
  C  C41  1  0.41654000  0.76351000  0.35380000  1.0
  C  C42  1  0.56339000  0.38770000  0.66653000  1.0
  C  C43  1  0.43661000  0.61230000  0.33346000  1.0
  C  C44  1  0.43984000  0.41841000  0.60043000  1.0
  C  C45  1  0.56015000  0.58160000  0.39957000  1.0
  C  C46  1  0.91924000  0.95483000  0.74784000  1.0
  C  C47  1  0.08076000  0.04516000  0.25215000  1.0
  C  C48  1  0.06725000  0.95855000  0.81442000  1.0
  C  C49  1  0.93274000  0.04143000  0.18557000  1.0
  C  C50  1  0.10338000  0.05747000  0.92456000  1.0
  C  C51  1  0.89662000  0.94252000  0.07544000  1.0
  C  C52  1  0.31718000  0.35589000  0.91916000  1.0
  C  C53  1  0.68283000  0.64412000  0.08085000  1.0
  C  C54  1  0.25514000  0.47074000  0.99093000  1.0
  C  C55  1  0.74486000  0.52928000  0.00907000  1.0
  C  C56  1  0.23059000  0.28052000  0.80989000  1.0
  C  C57  1  0.76941000  0.71947000  0.19011000  1.0
  N  N58  1  0.39680000  0.54463000  0.63272000  1.0
  N  N59  1  0.60320000  0.45536000  0.36727000  1.0
  N  N60  1  0.29924000  0.54472000  0.54946000  1.0
  N  N61  1  0.70076000  0.45527000  0.45053000  1.0
  N  N62  1  0.28289000  0.42460000  0.47083000  1.0
  N  N63  1  0.71711000  0.57540000  0.52917000  1.0
  N  N64  1  0.37070000  0.34127000  0.50111000  1.0
  N  N65  1  0.62930000  0.65873000  0.49889000  1.0
  N  N66  1  0.05790000  0.18246000  0.96229000  1.0
  N  N67  1  0.94210000  0.81753000  0.03771000  1.0
  N  N68  1  0.12266000  0.23720000  0.06425000  1.0
  N  N69  1  0.87734000  0.76280000  0.93574000  1.0
  N  N70  1  0.20349000  0.15021000  0.08772000  1.0
  N  N71  1  0.79651000  0.84980000  0.91228000  1.0
  N  N72  1  0.19344000  0.03591000  0.00178000  1.0
  N  N73  1  0.80655000  0.96410000  0.99823000  1.0
  N  N74  1  0.08541000  0.26251000  0.77226000  1.0
  N  N75  1  0.91460000  0.73750000  0.22775000  1.0
  N  N76  1  0.05983000  0.18248000  0.67046000  1.0
  N  N77  1  0.94017000  0.81751000  0.32954000  1.0
  N  N78  1  0.18377000  0.15341000  0.64823000  1.0
  N  N79  1  0.81624000  0.84659000  0.35177000  1.0
  N  N80  1  0.29334000  0.21307000  0.73376000  1.0
  N  N81  1  0.70666000  0.78694000  0.26624000  1.0
  O  O82  1  0.49493000  0.12947000  0.57750000  1.0
  O  O83  1  0.50507000  0.87053000  0.42250000  1.0
  O  O84  1  0.69587000  0.21768000  0.70332000  1.0
  O  O85  1  0.30413000  0.78233000  0.29668000  1.0
  O  O86  1  0.83975000  0.04850000  0.78282000  1.0
  O  O87  1  0.16026000  0.95150000  0.21718000  1.0
  O  O88  1  0.87730000  0.85972000  0.65961000  1.0
  O  O89  1  0.12270000  0.14026000  0.34040000  1.0
  O  O90  1  0.11912000  0.47876000  0.96751000  1.0
  O  O91  1  0.88088000  0.52124000  0.03249000  1.0
  O  O92  1  0.33819000  0.55836000  0.07487000  1.0
  O  O93  1  0.66182000  0.44165000  0.92514000  1.0
  O  O94  1  0.50120000  0.04931000  0.76734000  1.0
  O  O95  1  0.49880000  0.95070000  0.23266000  1.0
  O  O96  1  0.60068000  0.78175000  0.72416000  1.0
  O  O97  1  0.39932000  0.21825000  0.27584000  1.0
  O  O98  1  0.35483000  0.81589000  0.56557000  1.0
  O  O99  1  0.64517000  0.18411000  0.43443000  1.0
  O  O100  1  0.79127000  0.03364000  0.53377000  1.0
  O  O101  1  0.20872000  0.96635000  0.46623000  1.0
  O  O102  1  0.72581000  0.18808000  0.95846000  1.0
  O  O103  1  0.27419000  0.81192000  0.04154000  1.0
  O  O104  1  0.90270000  0.50958000  0.80201000  1.0
  O  O105  1  0.09730000  0.49043000  0.19799000  1.0
