# generated using pymatgen
data_ZnH6C7(N2O)2
_symmetry_space_group_name_H-M   'P 1'
_cell_length_a   6.05004000
_cell_length_b   9.27698000
_cell_length_c   14.45250000
_cell_angle_alpha   85.75150000
_cell_angle_beta   89.99950000
_cell_angle_gamma   89.99980000
_symmetry_Int_Tables_number   1
_chemical_formula_structural   ZnH6C7(N2O)2
_chemical_formula_sum   'Zn4 H24 C28 N16 O8'
_cell_volume   808.93348824
_cell_formula_units_Z   4
loop_
 _symmetry_equiv_pos_site_id
 _symmetry_equiv_pos_as_xyz
  1  'x, y, z'
loop_
 _atom_site_type_symbol
 _atom_site_label
 _atom_site_symmetry_multiplicity
 _atom_site_fract_x
 _atom_site_fract_y
 _atom_site_fract_z
 _atom_site_occupancy
  Zn  Zn0  1  0.17905000  0.95111000  0.79900000  1.0
  Zn  Zn1  1  0.32095000  0.95111000  0.29900000  1.0
  Zn  Zn2  1  0.82095000  0.04889000  0.20100000  1.0
  Zn  Zn3  1  0.67905000  0.04889000  0.70100000  1.0
  H  H4  1  0.64599000  0.45210000  0.80214000  1.0
  H  H5  1  0.85402000  0.45208000  0.30215000  1.0
  H  H6  1  0.35401000  0.54790000  0.19786000  1.0
  H  H7  1  0.14599000  0.54791000  0.69786000  1.0
  H  H8  1  0.68112000  0.70640000  0.84460000  1.0
  H  H9  1  0.81888000  0.70638000  0.34461000  1.0
  H  H10  1  0.31886000  0.29360000  0.15540000  1.0
  H  H11  1  0.18114000  0.29361000  0.65539000  1.0
  H  H12  1  0.33700000  0.61327000  0.94907000  1.0
  H  H13  1  0.16300000  0.61328000  0.44907000  1.0
  H  H14  1  0.66299000  0.38674000  0.05093000  1.0
  H  H15  1  0.83701000  0.38673000  0.55093000  1.0
  H  H16  1  0.29635000  0.35731000  0.91061000  1.0
  H  H17  1  0.20365000  0.35732000  0.41061000  1.0
  H  H18  1  0.70365000  0.64270000  0.08939000  1.0
  H  H19  1  0.79636000  0.64269000  0.58939000  1.0
  H  H20  1  0.89555000  0.87038000  0.93128000  1.0
  H  H21  1  0.60445000  0.87038000  0.43127000  1.0
  H  H22  1  0.10443000  0.12962000  0.06871000  1.0
  H  H23  1  0.39557000  0.12962000  0.56872000  1.0
  H  H24  1  0.15244000  0.83623000  0.96693000  1.0
  H  H25  1  0.34757000  0.83624000  0.46694000  1.0
  H  H26  1  0.84754000  0.16377000  0.03307000  1.0
  H  H27  1  0.65246000  0.16376000  0.53306000  1.0
  C  C28  1  0.94955000  0.24138000  0.81918000  1.0
  C  C29  1  0.55045000  0.24138000  0.31919000  1.0
  C  C30  1  0.05045000  0.75862000  0.18082000  1.0
  C  C31  1  0.44955000  0.75861000  0.68081000  1.0
  C  C32  1  0.96933000  0.38886000  0.85283000  1.0
  C  C33  1  0.53067000  0.38886000  0.35284000  1.0
  C  C34  1  0.03066000  0.61114000  0.14716000  1.0
  C  C35  1  0.46934000  0.61114000  0.64716000  1.0
  C  C36  1  0.79614000  0.48766000  0.83508000  1.0
  C  C37  1  0.70386000  0.48765000  0.33508000  1.0
  C  C38  1  0.20385000  0.51234000  0.16492000  1.0
  C  C39  1  0.29615000  0.51234000  0.66492000  1.0
  C  C40  1  0.81636000  0.62980000  0.85821000  1.0
  C  C41  1  0.68365000  0.62979000  0.35822000  1.0
  C  C42  1  0.18362000  0.37020000  0.14179000  1.0
  C  C43  1  0.31637000  0.37021000  0.64179000  1.0
  C  C44  1  0.01287000  0.67491000  0.89796000  1.0
  C  C45  1  0.48713000  0.67491000  0.39796000  1.0
  C  C46  1  0.98711000  0.32509000  0.10204000  1.0
  C  C47  1  0.51289000  0.32509000  0.60203000  1.0
  C  C48  1  0.18528000  0.57694000  0.91752000  1.0
  C  C49  1  0.31473000  0.57694000  0.41752000  1.0
  C  C50  1  0.81471000  0.42307000  0.08248000  1.0
  C  C51  1  0.68528000  0.42306000  0.58248000  1.0
  C  C52  1  0.16229000  0.43413000  0.89599000  1.0
  C  C53  1  0.33770000  0.43414000  0.39599000  1.0
  C  C54  1  0.83770000  0.56587000  0.10402000  1.0
  C  C55  1  0.66231000  0.56586000  0.60401000  1.0
  N  N56  1  0.04185000  0.82436000  0.91379000  1.0
  N  N57  1  0.45816000  0.82436000  0.41379000  1.0
  N  N58  1  0.95813000  0.17564000  0.08621000  1.0
  N  N59  1  0.54186000  0.17564000  0.58621000  1.0
  N  N60  1  0.00336000  0.98628000  0.67500000  1.0
  N  N61  1  0.49664000  0.98627000  0.17500000  1.0
  N  N62  1  0.99664000  0.01372000  0.32499000  1.0
  N  N63  1  0.50336000  0.01373000  0.82500000  1.0
  N  N64  1  0.03870000  0.91470000  0.60990000  1.0
  N  N65  1  0.46131000  0.91470000  0.10990000  1.0
  N  N66  1  0.96130000  0.08531000  0.39010000  1.0
  N  N67  1  0.53869000  0.08530000  0.89010000  1.0
  N  N68  1  0.07411000  0.84827000  0.54666000  1.0
  N  N69  1  0.42590000  0.84826000  0.04666000  1.0
  N  N70  1  0.92590000  0.15174000  0.45333000  1.0
  N  N71  1  0.57409000  0.15173000  0.95334000  1.0
  O  O72  1  0.07288000  0.13949000  0.85517000  1.0
  O  O73  1  0.42712000  0.13949000  0.35517000  1.0
  O  O74  1  0.92713000  0.86051000  0.14483000  1.0
  O  O75  1  0.57288000  0.86050000  0.64483000  1.0
  O  O76  1  0.80946000  0.22824000  0.75468000  1.0
  O  O77  1  0.69053000  0.22823000  0.25467000  1.0
  O  O78  1  0.19054000  0.77176000  0.24533000  1.0
  O  O79  1  0.30947000  0.77177000  0.74533000  1.0
