# generated using pymatgen
data_CdNiH12(C4N3)2
_symmetry_space_group_name_H-M   'P 1'
_cell_length_a   6.91094000
_cell_length_b   7.64529000
_cell_length_c   7.70344000
_cell_angle_alpha   89.99970000
_cell_angle_beta   89.99940000
_cell_angle_gamma   92.67390000
_symmetry_Int_Tables_number   1
_chemical_formula_structural   CdNiH12(C4N3)2
_chemical_formula_sum   'Cd1 Ni1 H12 C8 N6'
_cell_volume   406.57688663
_cell_formula_units_Z   1
loop_
 _symmetry_equiv_pos_site_id
 _symmetry_equiv_pos_as_xyz
  1  'x, y, z'
loop_
 _atom_site_type_symbol
 _atom_site_label
 _atom_site_symmetry_multiplicity
 _atom_site_fract_x
 _atom_site_fract_y
 _atom_site_fract_z
 _atom_site_occupancy
  Cd  Cd0  1  0.00000000  0.00000000  0.00000000  1.0
  Ni  Ni1  1  0.50000000  0.99999000  0.50000000  1.0
  H  H2  1  0.05755000  0.66123000  0.89324000  1.0
  H  H3  1  0.94245000  0.33876000  0.89326000  1.0
  H  H4  1  0.94246000  0.33877000  0.10676000  1.0
  H  H5  1  0.05756000  0.66124000  0.10674000  1.0
  H  H6  1  0.39247000  0.76691000  0.88592000  1.0
  H  H7  1  0.60753000  0.23309000  0.88592000  1.0
  H  H8  1  0.60754000  0.23309000  0.11408000  1.0
  H  H9  1  0.39247000  0.76691000  0.11408000  1.0
  H  H10  1  0.32802000  0.43851000  0.88547000  1.0
  H  H11  1  0.67198000  0.56149000  0.88547000  1.0
  H  H12  1  0.67198000  0.56149000  0.11453000  1.0
  H  H13  1  0.32802000  0.43851000  0.11453000  1.0
  C  C14  1  0.32650000  0.05837000  0.66884000  1.0
  C  C15  1  0.67350000  0.94162000  0.66885000  1.0
  C  C16  1  0.67350000  0.94162000  0.33115000  1.0
  C  C17  1  0.32650000  0.05837000  0.33116000  1.0
  C  C18  1  0.33236000  0.69761000  0.99999000  1.0
  C  C19  1  0.66765000  0.30239000  0.00001000  1.0
  C  C20  1  0.38991000  0.50740000  0.00000000  1.0
  C  C21  1  0.61009000  0.49260000  0.00000000  1.0
  N  N22  1  0.21721000  0.09422000  0.77845000  1.0
  N  N23  1  0.78277000  0.90579000  0.77843000  1.0
  N  N24  1  0.78276000  0.90579000  0.22156000  1.0
  N  N25  1  0.21722000  0.09421000  0.22155000  1.0
  N  N26  1  0.12100000  0.71897000  0.00003000  1.0
  N  N27  1  0.87901000  0.28103000  0.99999000  1.0
