# generated using pymatgen
data_Zn4H27C45O16
_symmetry_space_group_name_H-M   'P 1'
_cell_length_a   18.15098767
_cell_length_b   18.18400000
_cell_length_c   18.32865326
_cell_angle_alpha   90.15251215
_cell_angle_beta   119.56484684
_cell_angle_gamma   119.50855550
_symmetry_Int_Tables_number   1
_chemical_formula_structural   Zn4H27C45O16
_chemical_formula_sum   'Zn8 H54 C90 O32'
_cell_volume   4331.37512779
_cell_formula_units_Z   2
loop_
 _symmetry_equiv_pos_site_id
 _symmetry_equiv_pos_as_xyz
  1  'x, y, z'
loop_
 _atom_site_type_symbol
 _atom_site_label
 _atom_site_symmetry_multiplicity
 _atom_site_fract_x
 _atom_site_fract_y
 _atom_site_fract_z
 _atom_site_occupancy
  Zn  Zn0  1  0.59182000  0.38083000  0.79088000  1.0
  Zn  Zn1  1  0.40816000  0.61920000  0.20905000  1.0
  Zn  Zn2  1  0.41248000  0.20589000  0.79102000  1.0
  Zn  Zn3  1  0.58762000  0.79420000  0.20903000  1.0
  Zn  Zn4  1  0.59009000  0.20712000  0.79263000  1.0
  Zn  Zn5  1  0.40989000  0.79289000  0.20734000  1.0
  Zn  Zn6  1  0.41324000  0.20652000  0.61684000  1.0
  Zn  Zn7  1  0.58675000  0.79350000  0.38313000  1.0
  H  H8  1  0.66646000  0.59871000  0.52087000  1.0
  H  H9  1  0.84328000  0.77218000  0.33746000  1.0
  H  H10  1  0.22640000  0.31044000  0.81388000  1.0
  H  H11  1  0.77246000  0.68870000  0.18632000  1.0
  H  H12  1  0.89838000  0.97616000  0.56116000  1.0
  H  H13  1  0.10167000  0.02355000  0.43895000  1.0
  H  H14  1  0.54974000  0.87170000  0.68703000  1.0
  H  H15  1  0.45025000  0.12838000  0.31295000  1.0
  H  H16  1  0.40245000  0.88261000  0.64144000  1.0
  H  H17  1  0.59739000  0.11723000  0.35854000  1.0
  H  H18  1  0.38770000  0.93562000  0.75529000  1.0
  H  H19  1  0.33347000  0.40130000  0.47905000  1.0
  H  H20  1  0.61216000  0.06423000  0.24471000  1.0
  H  H21  1  0.68285000  0.91505000  0.84784000  1.0
  H  H22  1  0.31729000  0.08524000  0.15215000  1.0
  H  H23  1  0.75949000  0.72905000  0.82005000  1.0
  H  H24  1  0.24045000  0.27088000  0.17979000  1.0
  H  H25  1  0.48069000  0.59273000  0.81046000  1.0
  H  H26  1  0.51936000  0.40746000  0.18957000  1.0
  H  H27  1  0.58210000  0.66150000  0.02172000  1.0
  H  H28  1  0.41789000  0.33856000  0.97823000  1.0
  H  H29  1  0.36764000  0.40768000  0.34266000  1.0
  H  H30  1  0.20981000  0.22936000  0.91990000  1.0
  H  H31  1  0.63230000  0.59234000  0.65727000  1.0
  H  H32  1  0.07191000  0.47068000  0.92945000  1.0
  H  H33  1  0.92807000  0.52935000  0.07054000  1.0
  H  H34  1  0.93629000  0.52757000  0.85747000  1.0
  H  H35  1  0.06368000  0.47246000  0.14251000  1.0
  H  H36  1  0.05773000  0.65731000  0.02651000  1.0
  H  H37  1  0.94226000  0.34274000  0.97348000  1.0
  H  H38  1  0.45937000  0.85739000  0.52704000  1.0
  H  H39  1  0.54066000  0.14264000  0.47295000  1.0
  H  H40  1  0.37169000  0.97009000  0.34431000  1.0
  H  H41  1  0.79049000  0.76968000  0.08060000  1.0
  H  H42  1  0.62834000  0.02993000  0.65569000  1.0
  H  H43  1  0.66791000  0.96841000  0.96146000  1.0
  H  H44  1  0.33222000  0.03186000  0.03853000  1.0
  H  H45  1  0.52589000  0.38384000  0.39378000  1.0
  H  H46  1  0.47412000  0.61622000  0.60618000  1.0
  H  H47  1  0.53691000  0.88711000  0.99521000  1.0
  H  H48  1  0.46311000  0.11293000  0.00479000  1.0
  H  H49  1  0.84207000  0.68802000  0.95287000  1.0
  H  H50  1  0.15783000  0.31182000  0.04692000  1.0
  H  H51  1  0.70793000  0.55369000  0.03886000  1.0
  H  H52  1  0.12185000  0.06423000  0.87357000  1.0
  H  H53  1  0.29204000  0.44638000  0.96110000  1.0
  H  H54  1  0.61650000  0.73009000  0.72576000  1.0
  H  H55  1  0.38352000  0.27001000  0.27421000  1.0
  H  H56  1  0.32910000  0.91941000  0.47307000  1.0
  H  H57  1  0.67093000  0.08062000  0.52692000  1.0
  H  H58  1  0.87981000  0.93498000  0.12709000  1.0
  H  H59  1  0.04914000  0.98091000  0.72149000  1.0
  H  H60  1  0.95232000  0.01855000  0.27899000  1.0
  H  H61  1  0.15554000  0.22724000  0.66260000  1.0
  C  C62  1  0.22264000  0.11753000  0.60866000  1.0
  C  C63  1  0.89583000  0.44486000  0.94699000  1.0
  C  C64  1  0.03106000  0.58714000  0.01417000  1.0
  C  C65  1  0.96892000  0.41290000  0.98582000  1.0
  C  C66  1  0.40487000  0.95451000  0.48427000  1.0
  C  C67  1  0.59517000  0.04552000  0.51573000  1.0
  C  C68  1  0.47753000  0.92163000  0.51626000  1.0
  C  C69  1  0.52251000  0.07841000  0.48373000  1.0
  C  C70  1  0.50043000  0.95097000  0.44471000  1.0
  C  C71  1  0.49961000  0.04907000  0.55528000  1.0
  C  C72  1  0.42826000  0.98383000  0.41379000  1.0
  C  C73  1  0.77739000  0.88235000  0.39139000  1.0
  C  C74  1  0.57178000  0.01621000  0.58620000  1.0
  C  C75  1  0.12885000  0.10017000  0.82727000  1.0
  C  C76  1  0.87214000  0.89909000  0.17324000  1.0
  C  C77  1  0.78193000  0.38846000  0.88927000  1.0
  C  C78  1  0.21805000  0.61157000  0.11072000  1.0
  C  C79  1  0.08766000  0.05319000  0.74182000  1.0
  C  C80  1  0.91324000  0.94620000  0.25859000  1.0
  C  C81  1  0.09755000  0.09844000  0.68197000  1.0
  C  C82  1  0.90257000  0.90105000  0.31828000  1.0
  C  C83  1  0.14817000  0.19154000  0.70898000  1.0
  C  C84  1  0.42605000  0.44777000  0.41276000  1.0
  C  C85  1  0.85125000  0.80785000  0.29120000  1.0
  C  C86  1  0.18803000  0.23819000  0.79393000  1.0
  C  C87  1  0.81145000  0.76105000  0.20635000  1.0
  C  C88  1  0.17883000  0.19279000  0.85356000  1.0
  C  C89  1  0.82144000  0.80638000  0.14688000  1.0
  C  C90  1  0.94413000  0.98618000  0.53527000  1.0
  C  C91  1  0.05592000  0.01351000  0.46485000  1.0
  C  C92  1  0.89266000  0.93905000  0.44642000  1.0
  C  C93  1  0.10738000  0.06069000  0.55368000  1.0
  C  C94  1  0.94912000  0.95181000  0.40984000  1.0
  C  C95  1  0.57389000  0.55225000  0.58716000  1.0
  C  C96  1  0.05094000  0.04783000  0.59031000  1.0
  C  C97  1  0.46123000  0.90193000  0.71165000  1.0
  C  C98  1  0.53868000  0.09801000  0.28834000  1.0
  C  C99  1  0.45310000  0.93210000  0.77558000  1.0
  C  C100  1  0.54681000  0.06784000  0.22441000  1.0
  C  C101  1  0.50100000  0.38754000  0.88802000  1.0
  C  C102  1  0.49894000  0.61250000  0.11190000  1.0
  C  C103  1  0.52727000  0.95625000  0.86622000  1.0
  C  C104  1  0.47272000  0.04379000  0.13377000  1.0
  C  C105  1  0.60959000  0.94929000  0.89116000  1.0
  C  C106  1  0.96610000  0.51620000  0.92148000  1.0
  C  C107  1  0.39048000  0.05089000  0.10883000  1.0
  C  C108  1  0.61796000  0.91948000  0.82717000  1.0
  C  C109  1  0.38211000  0.08070000  0.17282000  1.0
  C  C110  1  0.54370000  0.89551000  0.73721000  1.0
  C  C111  1  0.45629000  0.10456000  0.26278000  1.0
  C  C112  1  0.52233000  0.93819000  0.99753000  1.0
  C  C113  1  0.47767000  0.06184000  0.00247000  1.0
  C  C114  1  0.50585000  0.95362000  0.06119000  1.0
  C  C115  1  0.49414000  0.04641000  0.93880000  1.0
  C  C116  1  0.48383000  0.01738000  0.06520000  1.0
  C  C117  1  0.03389000  0.48385000  0.07851000  1.0
  C  C118  1  0.51616000  0.98265000  0.93479000  1.0
  C  C119  1  0.76309000  0.66786000  0.92141000  1.0
  C  C120  1  0.23685000  0.33207000  0.07844000  1.0
  C  C121  1  0.70825000  0.61732000  0.95562000  1.0
  C  C122  1  0.29171000  0.38265000  0.04426000  1.0
  C  C123  1  0.60554000  0.58929000  0.91569000  1.0
  C  C124  1  0.39447000  0.41078000  0.08426000  1.0
  C  C125  1  0.49849000  0.10594000  0.61205000  1.0
  C  C126  1  0.50155000  0.89410000  0.38794000  1.0
  C  C127  1  0.55971000  0.61302000  0.84170000  1.0
  C  C128  1  0.03845000  0.48295000  0.95988000  1.0
  C  C129  1  0.44032000  0.38710000  0.15829000  1.0
  C  C130  1  0.61477000  0.66291000  0.80731000  1.0
  C  C131  1  0.38525000  0.33717000  0.19265000  1.0
  C  C132  1  0.71645000  0.69045000  0.84717000  1.0
  C  C133  1  0.28351000  0.30953000  0.15271000  1.0
  C  C134  1  0.54549000  0.59005000  0.01098000  1.0
  C  C135  1  0.45451000  0.41001000  0.98897000  1.0
  C  C136  1  0.49694000  0.55190000  0.05399000  1.0
  C  C137  1  0.50306000  0.44817000  0.94596000  1.0
  C  C138  1  0.45004000  0.45957000  0.04335000  1.0
  C  C139  1  0.96154000  0.51709000  0.04011000  1.0
  C  C140  1  0.54996000  0.54051000  0.95660000  1.0
  C  C141  1  0.49628000  0.10600000  0.88281000  1.0
  C  C142  1  0.50372000  0.89402000  0.11718000  1.0
  C  C143  1  0.50810000  0.39013000  0.60962000  1.0
  C  C144  1  0.49185000  0.60989000  0.39031000  1.0
  C  C145  1  0.52461000  0.44888000  0.47649000  1.0
  C  C146  1  0.47534000  0.55115000  0.52344000  1.0
  C  C147  1  0.59283000  0.55445000  0.51260000  1.0
  C  C148  1  0.40712000  0.44558000  0.48733000  1.0
  C  C149  1  0.49299000  0.55180000  0.44667000  1.0
  C  C150  1  0.10416000  0.55518000  0.05301000  1.0
  C  C151  1  0.50695000  0.44822000  0.55326000  1.0
  O  O152  1  0.50053000  0.25008000  0.74753000  1.0
  O  O153  1  0.26317000  0.69607000  0.12955000  1.0
  O  O154  1  0.26613000  0.14914000  0.56830000  1.0
  O  O155  1  0.73383000  0.85066000  0.43168000  1.0
  O  O156  1  0.73870000  0.43019000  0.86349000  1.0
  O  O157  1  0.26127000  0.56984000  0.13655000  1.0
  O  O158  1  0.43373000  0.30403000  0.86328000  1.0
  O  O159  1  0.56635000  0.69601000  0.13681000  1.0
  O  O160  1  0.57077000  0.13940000  0.69451000  1.0
  O  O161  1  0.42923000  0.86058000  0.30550000  1.0
  O  O162  1  0.43567000  0.13050000  0.86322000  1.0
  O  O163  1  0.49949000  0.74996000  0.25244000  1.0
  O  O164  1  0.56435000  0.86955000  0.13678000  1.0
  O  O165  1  0.45161000  0.30608000  0.56986000  1.0
  O  O166  1  0.54822000  0.69394000  0.43007000  1.0
  O  O167  1  0.56057000  0.12991000  0.86251000  1.0
  O  O168  1  0.43941000  0.87009000  0.13746000  1.0
  O  O169  1  0.56394000  0.42965000  0.69330000  1.0
  O  O170  1  0.43617000  0.57040000  0.30664000  1.0
  O  O171  1  0.55053000  0.39577000  0.45659000  1.0
  O  O172  1  0.44942000  0.60426000  0.54335000  1.0
  O  O173  1  0.75824000  0.59724000  0.02874000  1.0
  O  O174  1  0.56695000  0.42475000  0.86944000  1.0
  O  O175  1  0.24169000  0.40267000  0.97110000  1.0
  O  O176  1  0.56496000  0.68349000  0.73284000  1.0
  O  O177  1  0.43506000  0.31663000  0.26714000  1.0
  O  O178  1  0.43285000  0.57529000  0.13031000  1.0
  O  O179  1  0.42599000  0.11769000  0.57268000  1.0
  O  O180  1  0.57411000  0.88242000  0.42729000  1.0
  O  O181  1  0.26799000  0.12725000  0.69116000  1.0
  O  O182  1  0.73211000  0.87284000  0.30893000  1.0
  O  O183  1  0.73683000  0.30396000  0.87040000  1.0
