# generated using pymatgen
data_ZnH18C28O5
_symmetry_space_group_name_H-M   'P 1'
_cell_length_a   9.75195000
_cell_length_b   10.19150000
_cell_length_c   13.46680000
_cell_angle_alpha   85.60080000
_cell_angle_beta   72.17420000
_cell_angle_gamma   81.29060000
_symmetry_Int_Tables_number   1
_chemical_formula_structural   ZnH18C28O5
_chemical_formula_sum   'Zn2 H36 C56 O10'
_cell_volume   1258.82160599
_cell_formula_units_Z   2
loop_
 _symmetry_equiv_pos_site_id
 _symmetry_equiv_pos_as_xyz
  1  'x, y, z'
loop_
 _atom_site_type_symbol
 _atom_site_label
 _atom_site_symmetry_multiplicity
 _atom_site_fract_x
 _atom_site_fract_y
 _atom_site_fract_z
 _atom_site_occupancy
  Zn  Zn0  1  0.30396000  0.99055000  0.50646000  1.0
  Zn  Zn1  1  0.69604000  0.00945000  0.49354000  1.0
  H  H2  1  0.11800000  0.86159000  0.44446000  1.0
  H  H3  1  0.88200000  0.13842000  0.55554000  1.0
  H  H4  1  0.23784000  0.76362000  0.48843000  1.0
  H  H5  1  0.76216000  0.23639000  0.51157000  1.0
  H  H6  1  0.78570000  0.21427000  0.70752000  1.0
  H  H7  1  0.21429000  0.78573000  0.29249000  1.0
  H  H8  1  0.65103000  0.35031000  0.85960000  1.0
  H  H9  1  0.34896000  0.64969000  0.14040000  1.0
  H  H10  1  0.03746000  0.31623000  0.95661000  1.0
  H  H11  1  0.96253000  0.68376000  0.04339000  1.0
  H  H12  1  0.17331000  0.17806000  0.80354000  1.0
  H  H13  1  0.82668000  0.82193000  0.19646000  1.0
  H  H14  1  0.49363000  0.36233000  0.06321000  1.0
  H  H15  1  0.50636000  0.63767000  0.93680000  1.0
  H  H16  1  0.37860000  0.24188000  0.22867000  1.0
  H  H17  1  0.62140000  0.75812000  0.77133000  1.0
  H  H18  1  0.75841000  0.24629000  0.32684000  1.0
  H  H19  1  0.24159000  0.75372000  0.67317000  1.0
  H  H20  1  0.87330000  0.36664000  0.16288000  1.0
  H  H21  1  0.12670000  0.63336000  0.83712000  1.0
  H  H22  1  0.92948000  0.49792000  0.76956000  1.0
  H  H23  1  0.07052000  0.50208000  0.23043000  1.0
  H  H24  1  0.99520000  0.66295000  0.62571000  1.0
  H  H25  1  0.00480000  0.33704000  0.37429000  1.0
  H  H26  1  0.92789000  0.90387000  0.65597000  1.0
  H  H27  1  0.07211000  0.09613000  0.34402000  1.0
  H  H28  1  0.78880000  0.98394000  0.83427000  1.0
  H  H29  1  0.21122000  0.01605000  0.16573000  1.0
  H  H30  1  0.63565000  0.01721000  0.02481000  1.0
  H  H31  1  0.36438000  0.98279000  0.97518000  1.0
  H  H32  1  0.49542000  0.99941000  0.21350000  1.0
  H  H33  1  0.50460000  0.00060000  0.78650000  1.0
  H  H34  1  0.47893000  0.78059000  0.30496000  1.0
  H  H35  1  0.52107000  0.21941000  0.69504000  1.0
  H  H36  1  0.59256000  0.57341000  0.21085000  1.0
  H  H37  1  0.40743000  0.42660000  0.78914000  1.0
  C  C38  1  0.07779000  0.11982000  0.64708000  1.0
  C  C39  1  0.92220000  0.88019000  0.35292000  1.0
  C  C40  1  0.99031000  0.19091000  0.74349000  1.0
  C  C41  1  0.00968000  0.80909000  0.25652000  1.0
  C  C42  1  0.84192000  0.23680000  0.76134000  1.0
  C  C43  1  0.15808000  0.76320000  0.23866000  1.0
  C  C44  1  0.76550000  0.31279000  0.84755000  1.0
  C  C45  1  0.23449000  0.68721000  0.15245000  1.0
  C  C46  1  0.83696000  0.34604000  0.91614000  1.0
  C  C47  1  0.16304000  0.65396000  0.08386000  1.0
  C  C48  1  0.98267000  0.29314000  0.90204000  1.0
  C  C49  1  0.01733000  0.70686000  0.09796000  1.0
  C  C50  1  0.05899000  0.21625000  0.81637000  1.0
  C  C51  1  0.94100000  0.78375000  0.18363000  1.0
  C  C52  1  0.76070000  0.43961000  0.00137000  1.0
  C  C53  1  0.23930000  0.56039000  0.99863000  1.0
  C  C54  1  0.69055000  0.37327000  0.10246000  1.0
  C  C55  1  0.30944000  0.62673000  0.89754000  1.0
  C  C56  1  0.55121000  0.33726000  0.12133000  1.0
  C  C57  1  0.44879000  0.66274000  0.87867000  1.0
  C  C58  1  0.48657000  0.27006000  0.21369000  1.0
  C  C59  1  0.51343000  0.72994000  0.78631000  1.0
  C  C60  1  0.56040000  0.23727000  0.28858000  1.0
  C  C61  1  0.43959000  0.76273000  0.71142000  1.0
  C  C62  1  0.69949000  0.27335000  0.26978000  1.0
  C  C63  1  0.30051000  0.72666000  0.73022000  1.0
  C  C64  1  0.76462000  0.34003000  0.17724000  1.0
  C  C65  1  0.23537000  0.65997000  0.82277000  1.0
  C  C66  1  0.49407000  0.15926000  0.38459000  1.0
  C  C67  1  0.50593000  0.84074000  0.61541000  1.0
  C  C68  1  0.75485000  0.57341000  0.98550000  1.0
  C  C69  1  0.24515000  0.42659000  0.01450000  1.0
  C  C70  1  0.81714000  0.64617000  0.88562000  1.0
  C  C71  1  0.18286000  0.35383000  0.11439000  1.0
  C  C72  1  0.89733000  0.60280000  0.78562000  1.0
  C  C73  1  0.10268000  0.39719000  0.21438000  1.0
  C  C74  1  0.93589000  0.69690000  0.70415000  1.0
  C  C75  1  0.06411000  0.30310000  0.29584000  1.0
  C  C76  1  0.89781000  0.83309000  0.72118000  1.0
  C  C77  1  0.10220000  0.16690000  0.27882000  1.0
  C  C78  1  0.81942000  0.87790000  0.82088000  1.0
  C  C79  1  0.18059000  0.12210000  0.17911000  1.0
  C  C80  1  0.77841000  0.78476000  0.90224000  1.0
  C  C81  1  0.22160000  0.21523000  0.09776000  1.0
  C  C82  1  0.69178000  0.80379000  0.01131000  1.0
  C  C83  1  0.30824000  0.19621000  0.98869000  1.0
  C  C84  1  0.62642000  0.92013000  0.06466000  1.0
  C  C85  1  0.37359000  0.07987000  0.93534000  1.0
  C  C86  1  0.54820000  0.91025000  0.17033000  1.0
  C  C87  1  0.45182000  0.08975000  0.82966000  1.0
  C  C88  1  0.53791000  0.78588000  0.22199000  1.0
  C  C89  1  0.46210000  0.21411000  0.77801000  1.0
  C  C90  1  0.60222000  0.66877000  0.16894000  1.0
  C  C91  1  0.39778000  0.33123000  0.83106000  1.0
  C  C92  1  0.67848000  0.67703000  0.06258000  1.0
  C  C93  1  0.32153000  0.32297000  0.93742000  1.0
  O  O94  1  0.02943000  0.11257000  0.57018000  1.0
  O  O95  1  0.97057000  0.88744000  0.42982000  1.0
  O  O96  1  0.20794000  0.06748000  0.64340000  1.0
  O  O97  1  0.79205000  0.93252000  0.35661000  1.0
  O  O98  1  0.38457000  0.10312000  0.38518000  1.0
  O  O99  1  0.61543000  0.89688000  0.61483000  1.0
  O  O100  1  0.54653000  0.15072000  0.46123000  1.0
  O  O101  1  0.45347000  0.84928000  0.53878000  1.0
  O  O102  1  0.22066000  0.84932000  0.45434000  1.0
  O  O103  1  0.77934000  0.15069000  0.54566000  1.0
