# generated using pymatgen
data_CdH14C8(N2O3)2
_symmetry_space_group_name_H-M   'P 1'
_cell_length_a   4.69497000
_cell_length_b   9.26187000
_cell_length_c   14.87150000
_cell_angle_alpha   83.19480000
_cell_angle_beta   89.95810000
_cell_angle_gamma   75.46600000
_symmetry_Int_Tables_number   1
_chemical_formula_structural   CdH14C8(N2O3)2
_chemical_formula_sum   'Cd2 H28 C16 N8 O12'
_cell_volume   621.28771459
_cell_formula_units_Z   2
loop_
 _symmetry_equiv_pos_site_id
 _symmetry_equiv_pos_as_xyz
  1  'x, y, z'
loop_
 _atom_site_type_symbol
 _atom_site_label
 _atom_site_symmetry_multiplicity
 _atom_site_fract_x
 _atom_site_fract_y
 _atom_site_fract_z
 _atom_site_occupancy
  Cd  Cd0  1  0.00000000  0.00000000  0.00000000  1.0
  Cd  Cd1  1  0.00000000  0.00000000  0.50000000  1.0
  H  H2  1  0.20725000  0.13192000  0.13493000  1.0
  H  H3  1  0.33891000  0.86913000  0.36466000  1.0
  H  H4  1  0.79276000  0.86807000  0.86507000  1.0
  H  H5  1  0.66107000  0.13087000  0.63534000  1.0
  H  H6  1  0.27501000  0.22472000  0.04216000  1.0
  H  H7  1  0.50093000  0.77799000  0.45750000  1.0
  H  H8  1  0.72500000  0.77527000  0.95784000  1.0
  H  H9  1  0.49907000  0.22200000  0.54250000  1.0
  H  H10  1  0.52729000  0.54119000  0.14478000  1.0
  H  H11  1  0.06849000  0.45995000  0.35505000  1.0
  H  H12  1  0.47272000  0.45881000  0.85522000  1.0
  H  H13  1  0.93150000  0.54005000  0.64495000  1.0
  H  H14  1  0.74243000  0.35507000  0.02190000  1.0
  H  H15  1  0.10408000  0.64394000  0.47941000  1.0
  H  H16  1  0.25759000  0.64493000  0.97811000  1.0
  H  H17  1  0.89590000  0.35606000  0.52059000  1.0
  H  H18  1  0.70588000  0.27538000  0.13293000  1.0
  H  H19  1  0.98187000  0.72334000  0.36892000  1.0
  H  H20  1  0.29413000  0.72462000  0.86707000  1.0
  H  H21  1  0.01812000  0.27666000  0.63108000  1.0
  H  H22  1  0.01588000  0.69270000  0.16355000  1.0
  H  H23  1  0.70658000  0.30985000  0.33355000  1.0
  H  H24  1  0.98412000  0.30731000  0.83645000  1.0
  H  H25  1  0.29340000  0.69015000  0.66645000  1.0
  H  H26  1  0.74295000  0.69937000  0.24680000  1.0
  H  H27  1  0.43541000  0.30209000  0.25223000  1.0
  H  H28  1  0.25705000  0.30064000  0.75320000  1.0
  H  H29  1  0.56458000  0.69791000  0.74777000  1.0
  C  C30  1  0.86180000  0.31391000  0.08720000  1.0
  C  C31  1  0.17845000  0.68593000  0.41358000  1.0
  C  C32  1  0.13821000  0.68609000  0.91280000  1.0
  C  C33  1  0.82153000  0.31407000  0.58642000  1.0
  C  C34  1  0.95546000  0.44507000  0.12068000  1.0
  C  C35  1  0.40174000  0.55590000  0.37894000  1.0
  C  C36  1  0.04455000  0.55493000  0.87933000  1.0
  C  C37  1  0.59823000  0.44410000  0.62106000  1.0
  C  C38  1  0.78558000  0.69129000  0.17444000  1.0
  C  C39  1  0.47471000  0.31035000  0.32432000  1.0
  C  C40  1  0.21442000  0.30872000  0.82556000  1.0
  C  C41  1  0.52529000  0.68965000  0.67569000  1.0
  C  C42  1  0.58614000  0.83093000  0.12044000  1.0
  C  C43  1  0.41816000  0.17016000  0.37930000  1.0
  C  C44  1  0.41387000  0.16907000  0.87956000  1.0
  C  C45  1  0.58183000  0.82984000  0.62070000  1.0
  N  N46  1  0.11024000  0.18689000  0.07468000  1.0
  N  N47  1  0.29831000  0.81415000  0.42519000  1.0
  N  N48  1  0.88977000  0.81311000  0.92532000  1.0
  N  N49  1  0.70168000  0.18584000  0.57481000  1.0
  N  N50  1  0.73923000  0.55175000  0.15027000  1.0
  N  N51  1  0.29072000  0.44949000  0.34921000  1.0
  N  N52  1  0.26078000  0.44825000  0.84973000  1.0
  N  N53  1  0.70927000  0.55050000  0.65079000  1.0
  O  O54  1  0.21965000  0.44984000  0.11756000  1.0
  O  O55  1  0.67059000  0.55142000  0.38143000  1.0
  O  O56  1  0.78037000  0.55016000  0.88244000  1.0
  O  O57  1  0.32940000  0.44857000  0.61857000  1.0
  O  O58  1  0.36110000  0.81138000  0.08032000  1.0
  O  O59  1  0.17570000  0.18906000  0.42063000  1.0
  O  O60  1  0.63891000  0.18862000  0.91967000  1.0
  O  O61  1  0.82430000  0.81094000  0.57937000  1.0
  O  O62  1  0.65745000  0.95412000  0.12044000  1.0
  O  O63  1  0.61262000  0.04761000  0.37864000  1.0
  O  O64  1  0.34255000  0.04588000  0.87956000  1.0
  O  O65  1  0.38737000  0.95239000  0.62136000  1.0
