# generated using pymatgen
data_MnH15C16NO5
_symmetry_space_group_name_H-M   'P 1'
_cell_length_a   7.59189000
_cell_length_b   8.13393000
_cell_length_c   13.56220000
_cell_angle_alpha   77.92430000
_cell_angle_beta   75.18500000
_cell_angle_gamma   63.82380000
_symmetry_Int_Tables_number   1
_chemical_formula_structural   MnH15C16NO5
_chemical_formula_sum   'Mn2 H30 C32 N2 O10'
_cell_volume   722.11434477
_cell_formula_units_Z   2
loop_
 _symmetry_equiv_pos_site_id
 _symmetry_equiv_pos_as_xyz
  1  'x, y, z'
loop_
 _atom_site_type_symbol
 _atom_site_label
 _atom_site_symmetry_multiplicity
 _atom_site_fract_x
 _atom_site_fract_y
 _atom_site_fract_z
 _atom_site_occupancy
  Mn  Mn0  1  0.26034000  0.66790000  0.93499000  1.0
  Mn  Mn1  1  0.73965000  0.33211000  0.06501000  1.0
  H  H2  1  0.90050000  0.65931000  0.06544000  1.0
  H  H3  1  0.09950000  0.34068000  0.93456000  1.0
  H  H4  1  0.95231000  0.82237000  0.08256000  1.0
  H  H5  1  0.04768000  0.17763000  0.91744000  1.0
  H  H6  1  0.30644000  0.11499000  0.75156000  1.0
  H  H7  1  0.69357000  0.88500000  0.24843000  1.0
  H  H8  1  0.37229000  0.13651000  0.56035000  1.0
  H  H9  1  0.62773000  0.86345000  0.43964000  1.0
  H  H10  1  0.70022000  0.13196000  0.46125000  1.0
  H  H11  1  0.29981000  0.86799000  0.53874000  1.0
  H  H12  1  0.94816000  0.12342000  0.55366000  1.0
  H  H13  1  0.05185000  0.87656000  0.44634000  1.0
  H  H14  1  0.84553000  0.23860000  0.80326000  1.0
  H  H15  1  0.15446000  0.76140000  0.19674000  1.0
  H  H16  1  0.02961000  0.15878000  0.69553000  1.0
  H  H17  1  0.97038000  0.84123000  0.30447000  1.0
  H  H18  1  0.42016000  0.04208000  0.90208000  1.0
  H  H19  1  0.57983000  0.95794000  0.09791000  1.0
  H  H20  1  0.67396000  0.98300000  0.90586000  1.0
  H  H21  1  0.32604000  0.01701000  0.09413000  1.0
  H  H22  1  0.35422000  0.58595000  0.71347000  1.0
  H  H23  1  0.64578000  0.41405000  0.28652000  1.0
  H  H24  1  0.62059000  0.52812000  0.55877000  1.0
  H  H25  1  0.37942000  0.47188000  0.44124000  1.0
  H  H26  1  0.96848000  0.63589000  0.72616000  1.0
  H  H27  1  0.03152000  0.36410000  0.27384000  1.0
  H  H28  1  0.69154000  0.68074000  0.87375000  1.0
  H  H29  1  0.30846000  0.31925000  0.12626000  1.0
  H  H30  1  0.11825000  0.55412000  0.55476000  1.0
  H  H31  1  0.88175000  0.44589000  0.44525000  1.0
  C  C32  1  0.76819000  0.11574000  0.70387000  1.0
  C  C33  1  0.23182000  0.88426000  0.29613000  1.0
  C  C34  1  0.58635000  0.11062000  0.76019000  1.0
  C  C35  1  0.41365000  0.88938000  0.23980000  1.0
  C  C36  1  0.44588000  0.11971000  0.70707000  1.0
  C  C37  1  0.55413000  0.88028000  0.29292000  1.0
  C  C38  1  0.48383000  0.12922000  0.60026000  1.0
  C  C39  1  0.51620000  0.87075000  0.39973000  1.0
  C  C40  1  0.66707000  0.12691000  0.54476000  1.0
  C  C41  1  0.33295000  0.87306000  0.45523000  1.0
  C  C42  1  0.80656000  0.12086000  0.59690000  1.0
  C  C43  1  0.19345000  0.87913000  0.40310000  1.0
  C  C44  1  0.91678000  0.12547000  0.75470000  1.0
  C  C45  1  0.08322000  0.87453000  0.24530000  1.0
  C  C46  1  0.03313000  0.95334000  0.81990000  1.0
  C  C47  1  0.96686000  0.04667000  0.18010000  1.0
  C  C48  1  0.54182000  0.08870000  0.87648000  1.0
  C  C49  1  0.45818000  0.91131000  0.12351000  1.0
  C  C50  1  0.47910000  0.26455000  0.92475000  1.0
  C  C51  1  0.52089000  0.73545000  0.07525000  1.0
  C  C52  1  0.49391000  0.59448000  0.71253000  1.0
  C  C53  1  0.50607000  0.40554000  0.28747000  1.0
  C  C54  1  0.64377000  0.56275000  0.62631000  1.0
  C  C55  1  0.35623000  0.43727000  0.37369000  1.0
  C  C56  1  0.82316000  0.57318000  0.62826000  1.0
  C  C57  1  0.17684000  0.42683000  0.37174000  1.0
  C  C58  1  0.83695000  0.62064000  0.71890000  1.0
  C  C59  1  0.16305000  0.37937000  0.28110000  1.0
  C  C60  1  0.67976000  0.64917000  0.80217000  1.0
  C  C61  1  0.32023000  0.35083000  0.19783000  1.0
  C  C62  1  0.99286000  0.53235000  0.54359000  1.0
  C  C63  1  0.00714000  0.46765000  0.45642000  1.0
  N  N64  1  0.51011000  0.63592000  0.80034000  1.0
  N  N65  1  0.48988000  0.36409000  0.19966000  1.0
  O  O66  1  0.12417000  0.97410000  0.88148000  1.0
  O  O67  1  0.87582000  0.02590000  0.11852000  1.0
  O  O68  1  0.04687000  0.79571000  0.81237000  1.0
  O  O69  1  0.95311000  0.20429000  0.18763000  1.0
  O  O70  1  0.60369000  0.27952000  0.96481000  1.0
  O  O71  1  0.39630000  0.72048000  0.03519000  1.0
  O  O72  1  0.30270000  0.39097000  0.92159000  1.0
  O  O73  1  0.69729000  0.60904000  0.07841000  1.0
  O  O74  1  0.01170000  0.69695000  0.05811000  1.0
  O  O75  1  0.98829000  0.30305000  0.94189000  1.0
