# generated using pymatgen
data_CuH10C14O5
_symmetry_space_group_name_H-M   'P 1'
_cell_length_a   12.91480000
_cell_length_b   14.32662381
_cell_length_c   14.34600000
_cell_angle_alpha   78.27986090
_cell_angle_beta   63.25480000
_cell_angle_gamma   63.21797644
_symmetry_Int_Tables_number   1
_chemical_formula_structural   CuH10C14O5
_chemical_formula_sum   'Cu4 H40 C56 O20'
_cell_volume   2116.12182588
_cell_formula_units_Z   4
loop_
 _symmetry_equiv_pos_site_id
 _symmetry_equiv_pos_as_xyz
  1  'x, y, z'
loop_
 _atom_site_type_symbol
 _atom_site_label
 _atom_site_symmetry_multiplicity
 _atom_site_fract_x
 _atom_site_fract_y
 _atom_site_fract_z
 _atom_site_occupancy
  Cu  Cu0  1  0.46941000  0.47758000  0.40474000  1.0
  Cu  Cu1  1  0.35152000  0.52251000  0.59541000  1.0
  Cu  Cu2  1  0.19697000  0.90514000  0.02215000  1.0
  Cu  Cu3  1  0.12444000  0.09470000  0.97768000  1.0
  H  H4  1  0.58280000  0.29607000  0.73164000  1.0
  H  H5  1  0.61003000  0.70435000  0.26842000  1.0
  H  H6  1  0.12841000  0.23179000  0.20447000  1.0
  H  H7  1  0.56495000  0.76789000  0.79530000  1.0
  H  H8  1  0.74710000  0.14819000  0.78091000  1.0
  H  H9  1  0.67612000  0.85202000  0.21912000  1.0
  H  H10  1  0.14513000  0.28128000  0.35188000  1.0
  H  H11  1  0.77857000  0.71859000  0.64797000  1.0
  H  H12  1  0.99742000  0.08533000  0.45492000  1.0
  H  H13  1  0.53776000  0.91484000  0.54512000  1.0
  H  H14  1  0.33286000  0.95477000  0.41512000  1.0
  H  H15  1  0.70277000  0.04518000  0.58499000  1.0
  H  H16  1  0.82968000  0.22943000  0.40700000  1.0
  H  H17  1  0.46589000  0.77093000  0.59305000  1.0
  H  H18  1  0.30971000  0.90654000  0.27114000  1.0
  H  H19  1  0.48729000  0.09321000  0.72875000  1.0
  H  H20  1  0.05948000  0.92152000  0.52165000  1.0
  H  H21  1  0.50292000  0.07857000  0.47827000  1.0
  H  H22  1  0.23106000  0.02172000  0.57847000  1.0
  H  H23  1  0.83141000  0.97813000  0.42145000  1.0
  H  H24  1  0.22198000  0.77791000  0.57597000  1.0
  H  H25  1  0.57613000  0.22219000  0.42397000  1.0
  H  H26  1  0.25004000  0.07615000  0.72178000  1.0
  H  H27  1  0.04812000  0.92364000  0.27817000  1.0
  H  H28  1  0.23922000  0.79444000  0.73654000  1.0
  H  H29  1  0.77060000  0.20557000  0.26348000  1.0
  H  H30  1  0.28366000  0.23706000  0.70510000  1.0
  H  H31  1  0.22595000  0.76283000  0.29505000  1.0
  H  H32  1  0.93768000  0.10293000  0.78627000  1.0
  H  H33  1  0.82700000  0.89717000  0.21362000  1.0
  H  H34  1  0.29043000  0.28683000  0.39708000  1.0
  H  H35  1  0.97434000  0.71314000  0.60300000  1.0
  H  H36  1  0.52628000  0.36810000  0.24786000  1.0
  H  H37  1  0.14224000  0.63196000  0.75235000  1.0
  H  H38  1  0.14457000  0.74824000  0.13165000  1.0
  H  H39  1  0.02432000  0.25176000  0.86846000  1.0
  H  H40  1  0.49457000  0.48200000  0.20755000  1.0
  H  H41  1  0.18414000  0.51807000  0.79272000  1.0
  H  H42  1  0.22673000  0.70769000  0.01804000  1.0
  H  H43  1  0.95246000  0.29224000  0.98209000  1.0
  C  C44  1  0.59476000  0.36028000  0.53981000  1.0
  C  C45  1  0.49449000  0.64006000  0.46029000  1.0
  C  C46  1  0.20540000  0.03955000  0.14019000  1.0
  C  C47  1  0.38524000  0.96010000  0.85956000  1.0
  C  C48  1  0.69643000  0.27233000  0.56650000  1.0
  C  C49  1  0.53489000  0.72804000  0.43358000  1.0
  C  C50  1  0.21875000  0.06628000  0.22816000  1.0
  C  C51  1  0.51328000  0.93343000  0.77162000  1.0
  C  C52  1  0.67417000  0.24934000  0.67188000  1.0
  C  C53  1  0.59504000  0.75101000  0.32818000  1.0
  C  C54  1  0.17325000  0.17189000  0.25111000  1.0
  C  C55  1  0.59644000  0.82784000  0.74872000  1.0
  C  C56  1  0.76690000  0.16736000  0.69881000  1.0
  C  C57  1  0.63296000  0.83285000  0.30123000  1.0
  C  C58  1  0.18408000  0.19900000  0.33286000  1.0
  C  C59  1  0.71614000  0.80085000  0.66702000  1.0
  C  C60  1  0.88492000  0.10698000  0.62162000  1.0
  C  C61  1  0.61358000  0.89317000  0.37839000  1.0
  C  C62  1  0.24179000  0.12175000  0.39328000  1.0
  C  C63  1  0.75692000  0.87818000  0.60669000  1.0
  C  C64  1  0.90610000  0.13017000  0.51610000  1.0
  C  C65  1  0.55239000  0.87004000  0.48393000  1.0
  C  C66  1  0.28630000  0.01599000  0.37026000  1.0
  C  C67  1  0.67260000  0.98390000  0.62975000  1.0
  C  C68  1  0.81277000  0.21149000  0.48876000  1.0
  C  C69  1  0.51281000  0.78884000  0.51129000  1.0
  C  C70  1  0.27446000  0.98850000  0.28900000  1.0
  C  C71  1  0.55197000  0.01128000  0.71090000  1.0
  C  C72  1  0.98312000  0.02146000  0.65199000  1.0
  C  C73  1  0.65680000  0.97860000  0.34800000  1.0
  C  C74  1  0.25446000  0.15226000  0.47862000  1.0
  C  C75  1  0.88545000  0.84769000  0.52139000  1.0
  C  C76  1  0.06683000  0.92982000  0.59199000  1.0
  C  C77  1  0.58893000  0.07025000  0.40796000  1.0
  C  C78  1  0.24660000  0.09218000  0.57016000  1.0
  C  C79  1  0.90909000  0.90771000  0.42982000  1.0
  C  C80  1  0.15777000  0.84876000  0.62240000  1.0
  C  C81  1  0.62926000  0.15129000  0.37757000  1.0
  C  C82  1  0.25654000  0.12263000  0.65103000  1.0
  C  C83  1  0.03036000  0.87722000  0.34898000  1.0
  C  C84  1  0.16788000  0.85741000  0.71276000  1.0
  C  C85  1  0.73839000  0.14261000  0.28725000  1.0
  C  C86  1  0.27520000  0.21314000  0.64232000  1.0
  C  C87  1  0.13077000  0.78674000  0.35776000  1.0
  C  C88  1  0.08799000  0.94980000  0.77146000  1.0
  C  C89  1  0.80951000  0.05023000  0.22851000  1.0
  C  C90  1  0.28764000  0.27192000  0.55004000  1.0
  C  C91  1  0.10963000  0.72798000  0.45006000  1.0
  C  C92  1  0.99628000  0.03074000  0.74117000  1.0
  C  C93  1  0.76838000  0.96931000  0.25881000  1.0
  C  C94  1  0.27685000  0.24163000  0.46920000  1.0
  C  C95  1  0.98772000  0.75831000  0.53085000  1.0
  C  C96  1  0.10804000  0.96559000  0.86071000  1.0
  C  C97  1  0.93454000  0.03443000  0.13919000  1.0
  C  C98  1  0.32391000  0.36108000  0.53439000  1.0
  C  C99  1  0.21931000  0.63880000  0.46577000  1.0
  O  O100  1  0.55369000  0.42482000  0.23279000  1.0
  O  O101  1  0.21133000  0.57525000  0.76740000  1.0
  O  O102  1  0.22864000  0.73315000  0.07504000  1.0
  O  O103  1  0.03678000  0.26681000  0.92505000  1.0
  O  O104  1  0.60401000  0.36514000  0.44652000  1.0
  O  O105  1  0.41529000  0.63519000  0.55356000  1.0
  O  O106  1  0.21935000  0.94618000  0.13504000  1.0
  O  O107  1  0.30069000  0.05346000  0.86473000  1.0
  O  O108  1  0.50448000  0.42326000  0.61416000  1.0
  O  O109  1  0.54161000  0.57704000  0.38595000  1.0
  O  O110  1  0.17856000  0.11374000  0.07673000  1.0
  O  O111  1  0.36914000  0.88585000  0.92293000  1.0
  O  O112  1  0.06889000  0.06047000  0.88522000  1.0
  O  O113  1  0.01474000  0.93954000  0.11467000  1.0
  O  O114  1  0.37948000  0.38551000  0.43964000  1.0
  O  O115  1  0.20445000  0.61434000  0.56054000  1.0
  O  O116  1  0.16624000  0.88469000  0.90367000  1.0
  O  O117  1  0.95478000  0.11533000  0.09615000  1.0
  O  O118  1  0.30154000  0.40338000  0.61538000  1.0
  O  O119  1  0.32027000  0.59657000  0.38479000  1.0
