# generated using pymatgen
data_AlH9C14N2O5
_symmetry_space_group_name_H-M   'P 1'
_cell_length_a   6.69492000
_cell_length_b   17.01000000
_cell_length_c   17.01000000
_cell_angle_alpha   91.76530000
_cell_angle_beta   97.86690000
_cell_angle_gamma   97.86710000
_symmetry_Int_Tables_number   1
_chemical_formula_structural   AlH9C14N2O5
_chemical_formula_sum   'Al2 H18 C28 N4 O10'
_cell_volume   1898.39409814
_cell_formula_units_Z   2
loop_
 _symmetry_equiv_pos_site_id
 _symmetry_equiv_pos_as_xyz
  1  'x, y, z'
loop_
 _atom_site_type_symbol
 _atom_site_label
 _atom_site_symmetry_multiplicity
 _atom_site_fract_x
 _atom_site_fract_y
 _atom_site_fract_z
 _atom_site_occupancy
  Al  Al0  1  0.00000000  0.50000000  0.50000000  1.0
  Al  Al1  1  0.50000000  0.50000000  0.50000000  1.0
  H  H2  1  0.80335000  0.57620000  0.57620000  1.0
  H  H3  1  0.19665000  0.42380000  0.42380000  1.0
  H  H4  1  0.34537000  0.26090000  0.50210000  1.0
  H  H5  1  0.28629000  0.11113000  0.49938000  1.0
  H  H6  1  0.92615000  0.10767000  0.49933000  1.0
  H  H7  1  0.98495000  0.25792000  0.50219000  1.0
  H  H8  1  0.07386000  0.89233000  0.50067000  1.0
  H  H9  1  0.71372000  0.88887000  0.50062000  1.0
  H  H10  1  0.65464000  0.73910000  0.49790000  1.0
  H  H11  1  0.01506000  0.74208000  0.49781000  1.0
  H  H12  1  0.65463000  0.49790000  0.73910000  1.0
  H  H13  1  0.71371000  0.50062000  0.88887000  1.0
  H  H14  1  0.07385000  0.50067000  0.89233000  1.0
  H  H15  1  0.01506000  0.49781000  0.74207000  1.0
  H  H16  1  0.92614000  0.49933000  0.10767000  1.0
  H  H17  1  0.28628000  0.49938000  0.11113000  1.0
  H  H18  1  0.34536000  0.50210000  0.26090000  1.0
  H  H19  1  0.98494000  0.50219000  0.25792000  1.0
  C  C20  1  0.29925000  0.49752000  0.64383000  1.0
  C  C21  1  0.29926000  0.64384000  0.49752000  1.0
  C  C22  1  0.70075000  0.50248000  0.35616000  1.0
  C  C23  1  0.70075000  0.35617000  0.50248000  1.0
  C  C24  1  0.66838000  0.26759000  0.50234000  1.0
  C  C25  1  0.47084000  0.22641000  0.50157000  1.0
  C  C26  1  0.43792000  0.14414000  0.50015000  1.0
  C  C27  1  0.60405000  0.10160000  0.49960000  1.0
  C  C28  1  0.80127000  0.14251000  0.50007000  1.0
  C  C29  1  0.83327000  0.22507000  0.50161000  1.0
  C  C30  1  0.19874000  0.85749000  0.49993000  1.0
  C  C31  1  0.39596000  0.89841000  0.50040000  1.0
  C  C32  1  0.56209000  0.85586000  0.49986000  1.0
  C  C33  1  0.52917000  0.77360000  0.49843000  1.0
  C  C34  1  0.33163000  0.73241000  0.49766000  1.0
  C  C35  1  0.16675000  0.77493000  0.49839000  1.0
  C  C36  1  0.33162000  0.49766000  0.73241000  1.0
  C  C37  1  0.52917000  0.49843000  0.77359000  1.0
  C  C38  1  0.56208000  0.49985000  0.85586000  1.0
  C  C39  1  0.39595000  0.50039000  0.89840000  1.0
  C  C40  1  0.19873000  0.49993000  0.85749000  1.0
  C  C41  1  0.16674000  0.49839000  0.77493000  1.0
  C  C42  1  0.80126000  0.50007000  0.14251000  1.0
  C  C43  1  0.60404000  0.49960000  0.10159000  1.0
  C  C44  1  0.43791000  0.50014000  0.14414000  1.0
  C  C45  1  0.47083000  0.50157000  0.22640000  1.0
  C  C46  1  0.66837000  0.50234000  0.26759000  1.0
  C  C47  1  0.83325000  0.50161000  0.22507000  1.0
  N  N48  1  0.58880000  0.01787000  0.49842000  1.0
  N  N49  1  0.41121000  0.98213000  0.50158000  1.0
  N  N50  1  0.41120000  0.50157000  0.98213000  1.0
  N  N51  1  0.58879000  0.49842000  0.01787000  1.0
  O  O52  1  0.11780000  0.49815000  0.60959000  1.0
  O  O53  1  0.45680000  0.60930000  0.49806000  1.0
  O  O54  1  0.54320000  0.50194000  0.39070000  1.0
  O  O55  1  0.88220000  0.39041000  0.50185000  1.0
  O  O56  1  0.88219000  0.50185000  0.39040000  1.0
  O  O57  1  0.54321000  0.39070000  0.50193000  1.0
  O  O58  1  0.45680000  0.49807000  0.60930000  1.0
  O  O59  1  0.11781000  0.60960000  0.49815000  1.0
  O  O60  1  0.77412000  0.53453000  0.53453000  1.0
  O  O61  1  0.22588000  0.46546000  0.46547000  1.0
