# generated using pymatgen
data_ZnH17C20N3O4
_symmetry_space_group_name_H-M   'P 1'
_cell_length_a   10.96550000
_cell_length_b   13.92530000
_cell_length_c   15.32930000
_cell_angle_alpha   90.14120000
_cell_angle_beta   90.14360000
_cell_angle_gamma   89.54630000
_symmetry_Int_Tables_number   1
_chemical_formula_structural   ZnH17C20N3O4
_chemical_formula_sum   'Zn2 H34 C40 N6 O8'
_cell_volume   2340.66383610
_cell_formula_units_Z   2
loop_
 _symmetry_equiv_pos_site_id
 _symmetry_equiv_pos_as_xyz
  1  'x, y, z'
loop_
 _atom_site_type_symbol
 _atom_site_label
 _atom_site_symmetry_multiplicity
 _atom_site_fract_x
 _atom_site_fract_y
 _atom_site_fract_z
 _atom_site_occupancy
  Zn  Zn0  1  0.50530000  0.40000000  0.50008000  1.0
  Zn  Zn1  1  0.51051000  0.59964000  0.50187000  1.0
  H  H2  1  0.60689000  0.24807000  0.38882000  1.0
  H  H3  1  0.39195000  0.25060000  0.60995000  1.0
  H  H4  1  0.77138000  0.43699000  0.64450000  1.0
  H  H5  1  0.22122000  0.47537000  0.67092000  1.0
  H  H6  1  0.87290000  0.41104000  0.78544000  1.0
  H  H7  1  0.09931000  0.43009000  0.79987000  1.0
  H  H8  1  0.37875000  0.37208000  0.93435000  1.0
  H  H9  1  0.50159000  0.35677000  0.05599000  1.0
  H  H10  1  0.40726000  0.36888000  0.77311000  1.0
  H  H11  1  0.50908000  0.35436000  0.21857000  1.0
  H  H12  1  0.57341000  0.64608000  0.78316000  1.0
  H  H13  1  0.42852000  0.65576000  0.22575000  1.0
  H  H14  1  0.55089000  0.64920000  0.94478000  1.0
  H  H15  1  0.41727000  0.65951000  0.06358000  1.0
  H  H16  1  0.58518000  0.93438000  0.62929000  1.0
  H  H17  1  0.42193000  0.93064000  0.37280000  1.0
  H  H18  1  0.58894000  0.75325000  0.62376000  1.0
  H  H19  1  0.43203000  0.74973000  0.37867000  1.0
  H  H20  1  0.96916000  0.57671000  0.30255000  1.0
  H  H21  1  0.77385000  0.54053000  0.23899000  1.0
  H  H22  1  0.73289000  0.47714000  0.33391000  1.0
  H  H23  1  0.84758000  0.42901000  0.26423000  1.0
  H  H24  1  0.23036000  0.57696000  0.36952000  1.0
  H  H25  1  0.20944000  0.49820000  0.23138000  1.0
  H  H26  1  0.07392000  0.44331000  0.26993000  1.0
  H  H27  1  0.21728000  0.41044000  0.31658000  1.0
  H  H28  1  0.65407000  0.11002000  0.32284000  1.0
  H  H29  1  0.76773000  0.97009000  0.32202000  1.0
  H  H30  1  0.69672000  0.92803000  0.41771000  1.0
  H  H31  1  0.80103000  0.02542000  0.42474000  1.0
  H  H32  1  0.34183000  0.11345000  0.67545000  1.0
  H  H33  1  0.23761000  0.96990000  0.67879000  1.0
  H  H34  1  0.31130000  0.92779000  0.58369000  1.0
  H  H35  1  0.20056000  0.02188000  0.57540000  1.0
  C  C36  1  0.51117000  0.50338000  0.67178000  1.0
  C  C37  1  0.48183000  0.50293000  0.32937000  1.0
  C  C38  1  0.49347000  0.50668000  0.76860000  1.0
  C  C39  1  0.47130000  0.50501000  0.23194000  1.0
  C  C40  1  0.53097000  0.58649000  0.81721000  1.0
  C  C41  1  0.44468000  0.59069000  0.18774000  1.0
  C  C42  1  0.51710000  0.58814000  0.90741000  1.0
  C  C43  1  0.43917000  0.59246000  0.09703000  1.0
  C  C44  1  0.46484000  0.51016000  0.95156000  1.0
  C  C45  1  0.46038000  0.50855000  0.04780000  1.0
  C  C46  1  0.55085000  0.89611000  0.57239000  1.0
  C  C47  1  0.45911000  0.89402000  0.42976000  1.0
  C  C48  1  0.55325000  0.79634000  0.56999000  1.0
  C  C49  1  0.46449000  0.79442000  0.43227000  1.0
  C  C50  1  0.50311000  0.94686000  0.50098000  1.0
  C  C51  1  0.56340000  0.10432000  0.43479000  1.0
  C  C52  1  0.43577000  0.10563000  0.56473000  1.0
  C  C53  1  0.55950000  0.20505000  0.43740000  1.0
  C  C54  1  0.43917000  0.20648000  0.56147000  1.0
  C  C55  1  0.50038000  0.05307000  0.50021000  1.0
  C  C56  1  0.74308000  0.49316000  0.48872000  1.0
  C  C57  1  0.27167000  0.50512000  0.51075000  1.0
  C  C58  1  0.86961000  0.44620000  0.64963000  1.0
  C  C59  1  0.12270000  0.46671000  0.66505000  1.0
  C  C60  1  0.92709000  0.43106000  0.72880000  1.0
  C  C61  1  0.05466000  0.44138000  0.73698000  1.0
  C  C62  1  0.06621000  0.48302000  0.58300000  1.0
  C  C63  1  0.93662000  0.47276000  0.57416000  1.0
  C  C64  1  0.87975000  0.49350000  0.49213000  1.0
  C  C65  1  0.13484000  0.50718000  0.50770000  1.0
  C  C66  1  0.94867000  0.52195000  0.42032000  1.0
  C  C67  1  0.07935000  0.52570000  0.42859000  1.0
  C  C68  1  0.42354000  0.43177000  0.90179000  1.0
  C  C69  1  0.48361000  0.42237000  0.09295000  1.0
  C  C70  1  0.43827000  0.42982000  0.81173000  1.0
  C  C71  1  0.48917000  0.42065000  0.18354000  1.0
  C  C72  1  0.80992000  0.49632000  0.29251000  1.0
  C  C73  1  0.16344000  0.47081000  0.28962000  1.0
  C  C74  1  0.72860000  0.99266000  0.38465000  1.0
  C  C75  1  0.27520000  0.99218000  0.61584000  1.0
  N  N76  1  0.51081000  0.74656000  0.50111000  1.0
  N  N77  1  0.49955000  0.25349000  0.49945000  1.0
  N  N78  1  0.90082000  0.55058000  0.34048000  1.0
  N  N79  1  0.14723000  0.54987000  0.35279000  1.0
  N  N80  1  0.62761000  0.05971000  0.36681000  1.0
  N  N81  1  0.37148000  0.06253000  0.63260000  1.0
  O  O82  1  0.49109000  0.42338000  0.63394000  1.0
  O  O83  1  0.51183000  0.42342000  0.36438000  1.0
  O  O84  1  0.54432000  0.58045000  0.63422000  1.0
  O  O85  1  0.46052000  0.58135000  0.37031000  1.0
  O  O86  1  0.68999000  0.41337000  0.50216000  1.0
  O  O87  1  0.32145000  0.42463000  0.49293000  1.0
  O  O88  1  0.68925000  0.57315000  0.47494000  1.0
  O  O89  1  0.32679000  0.58287000  0.52836000  1.0
