# generated using pymatgen
data_CdH20C28(NO)4
_symmetry_space_group_name_H-M   'P 1'
_cell_length_a   7.51724000
_cell_length_b   13.44150000
_cell_length_c   13.44120000
_cell_angle_alpha   107.75100000
_cell_angle_beta   106.04000000
_cell_angle_gamma   106.04100000
_symmetry_Int_Tables_number   1
_chemical_formula_structural   CdH20C28(NO)4
_chemical_formula_sum   'Cd2 H40 C56 N8 O8'
_cell_volume   1142.60560810
_cell_formula_units_Z   2
loop_
 _symmetry_equiv_pos_site_id
 _symmetry_equiv_pos_as_xyz
  1  'x, y, z'
loop_
 _atom_site_type_symbol
 _atom_site_label
 _atom_site_symmetry_multiplicity
 _atom_site_fract_x
 _atom_site_fract_y
 _atom_site_fract_z
 _atom_site_occupancy
  Cd  Cd0  1  0.25000000  0.85488000  0.14512000  1.0
  Cd  Cd1  1  0.74999000  0.14512000  0.85488000  1.0
  H  H2  1  0.36155000  0.02970000  0.55227000  1.0
  H  H3  1  0.13845000  0.44774000  0.97031000  1.0
  H  H4  1  0.63847000  0.97032000  0.44775000  1.0
  H  H5  1  0.86153000  0.55227000  0.02970000  1.0
  H  H6  1  0.61383000  0.09671000  0.31285000  1.0
  H  H7  1  0.88616000  0.68715000  0.90330000  1.0
  H  H8  1  0.38616000  0.90329000  0.68715000  1.0
  H  H9  1  0.11382000  0.31285000  0.09670000  1.0
  H  H10  1  0.78968000  0.28596000  0.31638000  1.0
  H  H11  1  0.71031000  0.68362000  0.71404000  1.0
  H  H12  1  0.21032000  0.71404000  0.68361000  1.0
  H  H13  1  0.28968000  0.31638000  0.28596000  1.0
  H  H14  1  0.36888000  0.16344000  0.97020000  1.0
  H  H15  1  0.13111000  0.02979000  0.83655000  1.0
  H  H16  1  0.63110000  0.83655000  0.02980000  1.0
  H  H17  1  0.86888000  0.97020000  0.16345000  1.0
  H  H18  1  0.65755000  0.31931000  0.13941000  1.0
  H  H19  1  0.84244000  0.86058000  0.68069000  1.0
  H  H20  1  0.34244000  0.68068000  0.86058000  1.0
  H  H21  1  0.15755000  0.13941000  0.31931000  1.0
  H  H22  1  0.76116000  0.89685000  0.29711000  1.0
  H  H23  1  0.73884000  0.70290000  0.10315000  1.0
  H  H24  1  0.23885000  0.10315000  0.70291000  1.0
  H  H25  1  0.26115000  0.29710000  0.89685000  1.0
  H  H26  1  0.51628000  0.30382000  0.40595000  1.0
  H  H27  1  0.98374000  0.59405000  0.69620000  1.0
  H  H28  1  0.48371000  0.69619000  0.59405000  1.0
  H  H29  1  0.01627000  0.40594000  0.30380000  1.0
  H  H30  1  0.75001000  0.69907000  0.30094000  1.0
  H  H31  1  0.25002000  0.30093000  0.69905000  1.0
  H  H32  1  0.99764000  0.78098000  0.50481000  1.0
  H  H33  1  0.50239000  0.49520000  0.21903000  1.0
  H  H34  1  0.00237000  0.21902000  0.49519000  1.0
  H  H35  1  0.49764000  0.50480000  0.78097000  1.0
  H  H36  1  0.75000000  0.27693000  0.72306000  1.0
  H  H37  1  0.25000000  0.72306000  0.27693000  1.0
  H  H38  1  0.51737000  0.18760000  0.51930000  1.0
  H  H39  1  0.98263000  0.48069000  0.81240000  1.0
  H  H40  1  0.48263000  0.81240000  0.48069000  1.0
  H  H41  1  0.01737000  0.51930000  0.18759000  1.0
  C  C42  1  0.20374000  0.01744000  0.53000000  1.0
  C  C43  1  0.29625000  0.47001000  0.98256000  1.0
  C  C44  1  0.79627000  0.98257000  0.47002000  1.0
  C  C45  1  0.70373000  0.53000000  0.01744000  1.0
  C  C46  1  0.06935000  0.96062000  0.41551000  1.0
  C  C47  1  0.43065000  0.58450000  0.03939000  1.0
  C  C48  1  0.93066000  0.03940000  0.58451000  1.0
  C  C49  1  0.56933000  0.41550000  0.96061000  1.0
  C  C50  1  0.14447000  0.92102000  0.32507000  1.0
  C  C51  1  0.35553000  0.67494000  0.07899000  1.0
  C  C52  1  0.85554000  0.07900000  0.67494000  1.0
  C  C53  1  0.64447000  0.32507000  0.92102000  1.0
  C  C54  1  0.33711000  0.04622000  0.05159000  1.0
  C  C55  1  0.16288000  0.94841000  0.95377000  1.0
  C  C56  1  0.66288000  0.95378000  0.94841000  1.0
  C  C57  1  0.83711000  0.05158000  0.04623000  1.0
  C  C58  1  0.56592000  0.11518000  0.23848000  1.0
  C  C59  1  0.93408000  0.76152000  0.88482000  1.0
  C  C60  1  0.43407000  0.88482000  0.76151000  1.0
  C  C61  1  0.06591000  0.23848000  0.11518000  1.0
  C  C62  1  0.66120000  0.22081000  0.24002000  1.0
  C  C63  1  0.83879000  0.75997000  0.77919000  1.0
  C  C64  1  0.33879000  0.77918000  0.75997000  1.0
  C  C65  1  0.16120000  0.24002000  0.22081000  1.0
  C  C66  1  0.42448000  0.15038000  0.04702000  1.0
  C  C67  1  0.07552000  0.95297000  0.84962000  1.0
  C  C68  1  0.57551000  0.84961000  0.95297000  1.0
  C  C69  1  0.92447000  0.04703000  0.15038000  1.0
  C  C70  1  0.58812000  0.23792000  0.14207000  1.0
  C  C71  1  0.91187000  0.85792000  0.76207000  1.0
  C  C72  1  0.41186000  0.76208000  0.85792000  1.0
  C  C73  1  0.08812000  0.14207000  0.23792000  1.0
  C  C74  1  0.86539000  0.94321000  0.38593000  1.0
  C  C75  1  0.63461000  0.61408000  0.05680000  1.0
  C  C76  1  0.13462000  0.05680000  0.61409000  1.0
  C  C77  1  0.36537000  0.38592000  0.94320000  1.0
  C  C78  1  0.75002000  0.45637000  0.54365000  1.0
  C  C79  1  0.24999000  0.54363000  0.45635000  1.0
  C  C80  1  0.75001000  0.52456000  0.47544000  1.0
  C  C81  1  0.25000000  0.47544000  0.52455000  1.0
  C  C82  1  0.61796000  0.34157000  0.49486000  1.0
  C  C83  1  0.88205000  0.50513000  0.65843000  1.0
  C  C84  1  0.38204000  0.65842000  0.50513000  1.0
  C  C85  1  0.11796000  0.49486000  0.34157000  1.0
  C  C86  1  0.75002000  0.64895000  0.35106000  1.0
  C  C87  1  0.25001000  0.35105000  0.64894000  1.0
  C  C88  1  0.88578000  0.69344000  0.46345000  1.0
  C  C89  1  0.61425000  0.53656000  0.30657000  1.0
  C  C90  1  0.11424000  0.30656000  0.53655000  1.0
  C  C91  1  0.38577000  0.46344000  0.69343000  1.0
  C  C92  1  0.75000000  0.32702000  0.67296000  1.0
  C  C93  1  0.25001000  0.67297000  0.32702000  1.0
  C  C94  1  0.61887000  0.27704000  0.55866000  1.0
  C  C95  1  0.88115000  0.44134000  0.72297000  1.0
  C  C96  1  0.38113000  0.72296000  0.44133000  1.0
  C  C97  1  0.11885000  0.55865000  0.27702000  1.0
  N  N98  1  0.40969000  0.03074000  0.14703000  1.0
  N  N99  1  0.09029000  0.85296000  0.96926000  1.0
  N  N100  1  0.59029000  0.96926000  0.85297000  1.0
  N  N101  1  0.90969000  0.14703000  0.03074000  1.0
  N  N102  1  0.88750000  0.63269000  0.52595000  1.0
  N  N103  1  0.61255000  0.47406000  0.36732000  1.0
  N  N104  1  0.11251000  0.36731000  0.47405000  1.0
  N  N105  1  0.38747000  0.52594000  0.63268000  1.0
  O  O106  1  0.01398000  0.85554000  0.22320000  1.0
  O  O107  1  0.48603000  0.77681000  0.14446000  1.0
  O  O108  1  0.98602000  0.14446000  0.77682000  1.0
  O  O109  1  0.51398000  0.22320000  0.85554000  1.0
  O  O110  1  0.33282000  0.95453000  0.34921000  1.0
  O  O111  1  0.16718000  0.65080000  0.04549000  1.0
  O  O112  1  0.66719000  0.04549000  0.65081000  1.0
  O  O113  1  0.83282000  0.34921000  0.95452000  1.0
