# generated using pymatgen
data_CdH10C7(SN2)2
_symmetry_space_group_name_H-M   'P 1'
_cell_length_a   8.74979000
_cell_length_b   10.88740000
_cell_length_c   12.19550000
_cell_angle_alpha   110.58200000
_cell_angle_beta   90.00000000
_cell_angle_gamma   90.00000000
_symmetry_Int_Tables_number   1
_chemical_formula_structural   CdH10C7(SN2)2
_chemical_formula_sum   'Cd4 H40 C28 S8 N16'
_cell_volume   1087.61740856
_cell_formula_units_Z   4
loop_
 _symmetry_equiv_pos_site_id
 _symmetry_equiv_pos_as_xyz
  1  'x, y, z'
loop_
 _atom_site_type_symbol
 _atom_site_label
 _atom_site_symmetry_multiplicity
 _atom_site_fract_x
 _atom_site_fract_y
 _atom_site_fract_z
 _atom_site_occupancy
  Cd  Cd0  1  0.70243000  0.53496000  0.95673000  1.0
  Cd  Cd1  1  0.20243000  0.96504000  0.54327000  1.0
  Cd  Cd2  1  0.29757000  0.46504000  0.04327000  1.0
  Cd  Cd3  1  0.79757000  0.03496000  0.45673000  1.0
  H  H4  1  0.50612000  0.69771000  0.88938000  1.0
  H  H5  1  0.00612000  0.80229000  0.61062000  1.0
  H  H6  1  0.49388000  0.30229000  0.11062000  1.0
  H  H7  1  0.99388000  0.19771000  0.38938000  1.0
  H  H8  1  0.66506000  0.78130000  0.93556000  1.0
  H  H9  1  0.16506000  0.71870000  0.56444000  1.0
  H  H10  1  0.33494000  0.21870000  0.06444000  1.0
  H  H11  1  0.83494000  0.28130000  0.43556000  1.0
  H  H12  1  0.90334000  0.35937000  0.79020000  1.0
  H  H13  1  0.40334000  0.14063000  0.70980000  1.0
  H  H14  1  0.09666000  0.64063000  0.20980000  1.0
  H  H15  1  0.59666000  0.85937000  0.29020000  1.0
  H  H16  1  0.98744000  0.49930000  0.85489000  1.0
  H  H17  1  0.48744000  0.00070000  0.64511000  1.0
  H  H18  1  0.01256000  0.50070000  0.14511000  1.0
  H  H19  1  0.51256000  0.99930000  0.35489000  1.0
  H  H20  1  0.64835000  0.76885000  0.74400000  1.0
  H  H21  1  0.14835000  0.73115000  0.75600000  1.0
  H  H22  1  0.35165000  0.23115000  0.25600000  1.0
  H  H23  1  0.85165000  0.26885000  0.24401000  1.0
  H  H24  1  0.59035000  0.60231000  0.69969000  1.0
  H  H25  1  0.09035000  0.89769000  0.80032000  1.0
  H  H26  1  0.40965000  0.39769000  0.30031000  1.0
  H  H27  1  0.90965000  0.10231000  0.19969000  1.0
  H  H28  1  0.90718000  0.69773000  0.80046000  1.0
  H  H29  1  0.40718000  0.80227000  0.69954000  1.0
  H  H30  1  0.09282000  0.30227000  0.19954000  1.0
  H  H31  1  0.59282000  0.19773000  0.30046000  1.0
  H  H32  1  0.86129000  0.65320000  0.65053000  1.0
  H  H33  1  0.36129000  0.84680000  0.84947000  1.0
  H  H34  1  0.13871000  0.34680000  0.34947000  1.0
  H  H35  1  0.63871000  0.15320000  0.15053000  1.0
  H  H36  1  0.77647000  0.42811000  0.65510000  1.0
  H  H37  1  0.27647000  0.07189000  0.84490000  1.0
  H  H38  1  0.22353000  0.57189000  0.34490000  1.0
  H  H39  1  0.72353000  0.92811000  0.15510000  1.0
  H  H40  1  0.97368000  0.46348000  0.65520000  1.0
  H  H41  1  0.47368000  0.03652000  0.84480000  1.0
  H  H42  1  0.02632000  0.53652000  0.34480000  1.0
  H  H43  1  0.52632000  0.96348000  0.15520000  1.0
  C  C44  1  0.38018000  0.42901000  0.78577000  1.0
  C  C45  1  0.88018000  0.07099000  0.71423000  1.0
  C  C46  1  0.61982000  0.57099000  0.21423000  1.0
  C  C47  1  0.11982000  0.92901000  0.28577000  1.0
  C  C48  1  0.39578000  0.39852000  0.66326000  1.0
  C  C49  1  0.89578000  0.10148000  0.83674000  1.0
  C  C50  1  0.60422000  0.60148000  0.33674000  1.0
  C  C51  1  0.10422000  0.89852000  0.16326000  1.0
  C  C52  1  0.49556000  0.29796000  0.59748000  1.0
  C  C53  1  0.99556000  0.20204000  0.90251000  1.0
  C  C54  1  0.50444000  0.70204000  0.40251000  1.0
  C  C55  1  0.00444000  0.79796000  0.09749000  1.0
  C  C56  1  0.31474000  0.46741000  0.60305000  1.0
  C  C57  1  0.81474000  0.03259000  0.89695000  1.0
  C  C58  1  0.68526000  0.53259000  0.39695000  1.0
  C  C59  1  0.18527000  0.96741000  0.10305000  1.0
  C  C60  1  0.66644000  0.67611000  0.75928000  1.0
  C  C61  1  0.16644000  0.82389000  0.74072000  1.0
  C  C62  1  0.33356000  0.32389000  0.24072000  1.0
  C  C63  1  0.83356000  0.17611000  0.25928000  1.0
  C  C64  1  0.83232000  0.63439000  0.73088000  1.0
  C  C65  1  0.33232000  0.86561000  0.76911000  1.0
  C  C66  1  0.16768000  0.36561000  0.26912000  1.0
  C  C67  1  0.66768000  0.13439000  0.23089000  1.0
  C  C68  1  0.86814000  0.49025000  0.70750000  1.0
  C  C69  1  0.36814000  0.00975000  0.79250000  1.0
  C  C70  1  0.13186000  0.50975000  0.29250000  1.0
  C  C71  1  0.63187000  0.99025000  0.20750000  1.0
  S  S72  1  0.48899000  0.34280000  0.85305000  1.0
  S  S73  1  0.98898000  0.15720000  0.64695000  1.0
  S  S74  1  0.51102000  0.65720000  0.14695000  1.0
  S  S75  1  0.01101000  0.84280000  0.35305000  1.0
  S  S76  1  0.25842000  0.55050000  0.86747000  1.0
  S  S77  1  0.75842000  0.94950000  0.63253000  1.0
  S  S78  1  0.74158000  0.44950000  0.13253000  1.0
  S  S79  1  0.24157000  0.05050000  0.36747000  1.0
  N  N80  1  0.57725000  0.21298000  0.54302000  1.0
  N  N81  1  0.07725000  0.28701000  0.95698000  1.0
  N  N82  1  0.42276000  0.78701000  0.45698000  1.0
  N  N83  1  0.92275000  0.71298000  0.04302000  1.0
  N  N84  1  0.24866000  0.52558000  0.55323000  1.0
  N  N85  1  0.74866000  0.97442000  0.94677000  1.0
  N  N86  1  0.75134000  0.47442000  0.44677000  1.0
  N  N87  1  0.25133000  0.02557000  0.05324000  1.0
  N  N88  1  0.62275000  0.69270000  0.88125000  1.0
  N  N89  1  0.12275000  0.80730000  0.61875000  1.0
  N  N90  1  0.37725000  0.30730000  0.11875000  1.0
  N  N91  1  0.87725000  0.19270000  0.38125000  1.0
  N  N92  1  0.88619000  0.45883000  0.81566000  1.0
  N  N93  1  0.38619000  0.04117000  0.68434000  1.0
  N  N94  1  0.11381000  0.54117000  0.18434000  1.0
  N  N95  1  0.61381000  0.95883000  0.31566000  1.0
