# generated using pymatgen
data_CoH12C12(N3O)2
_symmetry_space_group_name_H-M   'P 1'
_cell_length_a   6.78808000
_cell_length_b   9.57857000
_cell_length_c   11.76880000
_cell_angle_alpha   89.99950000
_cell_angle_beta   97.73180000
_cell_angle_gamma   89.99990000
_symmetry_Int_Tables_number   1
_chemical_formula_structural   CoH12C12(N3O)2
_chemical_formula_sum   'Co2 H24 C24 N12 O4'
_cell_volume   758.25179269
_cell_formula_units_Z   2
loop_
 _symmetry_equiv_pos_site_id
 _symmetry_equiv_pos_as_xyz
  1  'x, y, z'
loop_
 _atom_site_type_symbol
 _atom_site_label
 _atom_site_symmetry_multiplicity
 _atom_site_fract_x
 _atom_site_fract_y
 _atom_site_fract_z
 _atom_site_occupancy
  Co  Co0  1  0.00000000  0.00000000  0.00000000  1.0
  Co  Co1  1  0.50000000  0.50000000  0.50000000  1.0
  H  H2  1  0.72969000  0.81095000  0.04195000  1.0
  H  H3  1  0.77031000  0.31094000  0.45806000  1.0
  H  H4  1  0.27031000  0.18905000  0.95805000  1.0
  H  H5  1  0.22969000  0.68906000  0.54194000  1.0
  H  H6  1  0.68640000  0.07281000  0.15955000  1.0
  H  H7  1  0.81359000  0.57281000  0.34045000  1.0
  H  H8  1  0.31359000  0.92719000  0.84045000  1.0
  H  H9  1  0.18641000  0.42719000  0.65955000  1.0
  H  H10  1  0.48364000  0.96257000  0.10821000  1.0
  H  H11  1  0.01637000  0.46257000  0.39180000  1.0
  H  H12  1  0.51637000  0.03743000  0.89179000  1.0
  H  H13  1  0.98363000  0.53743000  0.60820000  1.0
  H  H14  1  0.58430000  0.92107000  0.31743000  1.0
  H  H15  1  0.91570000  0.42107000  0.18257000  1.0
  H  H16  1  0.41570000  0.07893000  0.68257000  1.0
  H  H17  1  0.08430000  0.57893000  0.81743000  1.0
  H  H18  1  0.83207000  0.88258000  0.29380000  1.0
  H  H19  1  0.66793000  0.38259000  0.20621000  1.0
  H  H20  1  0.16793000  0.11742000  0.70620000  1.0
  H  H21  1  0.33207000  0.61741000  0.79380000  1.0
  H  H22  1  0.63359000  0.76944000  0.23936000  1.0
  H  H23  1  0.86642000  0.26944000  0.26065000  1.0
  H  H24  1  0.36641000  0.23056000  0.76064000  1.0
  H  H25  1  0.13358000  0.73056000  0.73935000  1.0
  C  C26  1  0.76986000  0.91899000  0.62142000  1.0
  C  C27  1  0.73013000  0.41900000  0.87858000  1.0
  C  C28  1  0.23014000  0.08101000  0.37858000  1.0
  C  C29  1  0.26986000  0.58100000  0.12142000  1.0
  C  C30  1  0.83459000  0.92661000  0.73921000  1.0
  C  C31  1  0.66541000  0.42661000  0.76080000  1.0
  C  C32  1  0.16541000  0.07339000  0.26079000  1.0
  C  C33  1  0.33459000  0.57339000  0.23920000  1.0
  C  C34  1  0.70395000  0.79229000  0.57138000  1.0
  C  C35  1  0.79604000  0.29230000  0.92862000  1.0
  C  C36  1  0.29604000  0.20771000  0.42862000  1.0
  C  C37  1  0.20395000  0.70770000  0.07138000  1.0
  C  C38  1  0.78472000  0.03915000  0.55480000  1.0
  C  C39  1  0.71528000  0.53915000  0.94520000  1.0
  C  C40  1  0.21528000  0.96085000  0.44520000  1.0
  C  C41  1  0.28472000  0.46085000  0.05480000  1.0
  C  C42  1  0.64143000  0.96347000  0.14503000  1.0
  C  C43  1  0.85857000  0.46347000  0.35498000  1.0
  C  C44  1  0.35857000  0.03653000  0.85497000  1.0
  C  C45  1  0.14144000  0.53653000  0.64502000  1.0
  C  C46  1  0.67570000  0.87908000  0.25506000  1.0
  C  C47  1  0.82431000  0.37909000  0.24495000  1.0
  C  C48  1  0.32430000  0.12091000  0.74494000  1.0
  C  C49  1  0.17570000  0.62092000  0.75506000  1.0
  N  N50  1  0.89210000  0.93710000  0.83722000  1.0
  N  N51  1  0.60790000  0.43710000  0.66278000  1.0
  N  N52  1  0.10790000  0.06290000  0.16278000  1.0
  N  N53  1  0.39210000  0.56290000  0.33722000  1.0
  N  N54  1  0.85062000  0.18464000  0.96834000  1.0
  N  N55  1  0.64937000  0.68464000  0.53166000  1.0
  N  N56  1  0.14937000  0.81536000  0.03166000  1.0
  N  N57  1  0.35062000  0.31536000  0.46834000  1.0
  N  N58  1  0.80110000  0.14071000  0.50147000  1.0
  N  N59  1  0.69889000  0.64071000  0.99853000  1.0
  N  N60  1  0.19890000  0.85929000  0.49853000  1.0
  N  N61  1  0.30110000  0.35928000  0.00147000  1.0
  O  O62  1  0.75724000  0.91187000  0.05985000  1.0
  O  O63  1  0.74276000  0.41187000  0.44015000  1.0
  O  O64  1  0.24276000  0.08813000  0.94015000  1.0
  O  O65  1  0.25724000  0.58813000  0.55985000  1.0
