# generated using pymatgen
data_CoH12C8(N2O)4
_symmetry_space_group_name_H-M   'P 1'
_cell_length_a   6.40413000
_cell_length_b   6.85240000
_cell_length_c   8.37613243
_cell_angle_alpha   68.98652888
_cell_angle_beta   72.40860542
_cell_angle_gamma   81.76530000
_symmetry_Int_Tables_number   1
_chemical_formula_structural   CoH12C8(N2O)4
_chemical_formula_sum   'Co1 H12 C8 N8 O4'
_cell_volume   326.83306173
_cell_formula_units_Z   1
loop_
 _symmetry_equiv_pos_site_id
 _symmetry_equiv_pos_as_xyz
  1  'x, y, z'
loop_
 _atom_site_type_symbol
 _atom_site_label
 _atom_site_symmetry_multiplicity
 _atom_site_fract_x
 _atom_site_fract_y
 _atom_site_fract_z
 _atom_site_occupancy
  Co  Co0  1  0.99960000  0.01559000  0.51338000  1.0
  H  H1  1  0.84903000  0.89433000  0.94120000  1.0
  H  H2  1  0.16092000  0.12386000  0.08818000  1.0
  H  H3  1  0.44443000  0.76218000  0.60102000  1.0
  H  H4  1  0.54240000  0.24123000  0.41109000  1.0
  H  H5  1  0.56823000  0.69968000  0.00420000  1.0
  H  H6  1  0.45340000  0.28450000  0.99713000  1.0
  H  H7  1  0.65909000  0.60772000  0.81882000  1.0
  H  H8  1  0.34289000  0.37910000  0.18100000  1.0
  H  H9  1  0.03860000  0.41187000  0.48085000  1.0
  H  H10  1  0.99716000  0.72923000  0.39509000  1.0
  H  H11  1  0.18934000  0.27379000  0.60255000  1.0
  H  H12  1  0.78946000  0.66424000  0.36831000  1.0
  C  C13  1  0.01339000  0.83670000  0.89244000  1.0
  C  C14  1  0.99292000  0.17500000  0.13299000  1.0
  C  C15  1  0.31293000  0.77346000  0.71436000  1.0
  C  C16  1  0.68156000  0.23016000  0.30246000  1.0
  C  C17  1  0.52569000  0.60530000  0.93787000  1.0
  C  C18  1  0.48319000  0.38228000  0.06620000  1.0
  C  C19  1  0.56024000  0.15896000  0.70906000  1.0
  C  C20  1  0.41236000  0.83469000  0.30623000  1.0
  N  N21  1  0.33182000  0.70057000  0.88052000  1.0
  N  N22  1  0.67158000  0.29446000  0.13383000  1.0
  N  N23  1  0.14279000  0.73857000  0.99655000  1.0
  N  N24  1  0.86806000  0.26176000  0.02360000  1.0
  N  N25  1  0.11125000  0.86208000  0.71641000  1.0
  N  N26  1  0.88520000  0.15159000  0.30771000  1.0
  N  N27  1  0.73340000  0.07673000  0.66230000  1.0
  N  N28  1  0.24201000  0.91010000  0.36863000  1.0
  O  O29  1  0.37922000  0.23619000  0.76086000  1.0
  O  O30  1  0.58681000  0.75849000  0.24027000  1.0
  O  O31  1  0.15346000  0.29504000  0.49101000  1.0
  O  O32  1  0.87759000  0.63055000  0.45389000  1.0
