# generated using pymatgen
data_FeH16C14(SN7)2
_symmetry_space_group_name_H-M   'P 1'
_cell_length_a   8.79140000
_cell_length_b   9.13672000
_cell_length_c   12.37550000
_cell_angle_alpha   90.41430000
_cell_angle_beta   89.99400000
_cell_angle_gamma   89.98950000
_symmetry_Int_Tables_number   1
_chemical_formula_structural   FeH16C14(SN7)2
_chemical_formula_sum   'Fe2 H32 C28 S4 N28'
_cell_volume   994.03058511
_cell_formula_units_Z   2
loop_
 _symmetry_equiv_pos_site_id
 _symmetry_equiv_pos_as_xyz
  1  'x, y, z'
loop_
 _atom_site_type_symbol
 _atom_site_label
 _atom_site_symmetry_multiplicity
 _atom_site_fract_x
 _atom_site_fract_y
 _atom_site_fract_z
 _atom_site_occupancy
  Fe  Fe0  1  0.49491000  0.48208000  0.50634000  1.0
  Fe  Fe1  1  0.00508000  0.98188000  0.00638000  1.0
  H  H2  1  0.03433000  0.29104000  0.57233000  1.0
  H  H3  1  0.52047000  0.21570000  0.92367000  1.0
  H  H4  1  0.97931000  0.71562000  0.42367000  1.0
  H  H5  1  0.46550000  0.79126000  0.07249000  1.0
  H  H6  1  0.75131000  0.65187000  0.64544000  1.0
  H  H7  1  0.26604000  0.83343000  0.85707000  1.0
  H  H8  1  0.23423000  0.33355000  0.35712000  1.0
  H  H9  1  0.74887000  0.15178000  0.14548000  1.0
  H  H10  1  0.19630000  0.05721000  0.65875000  1.0
  H  H11  1  0.69154000  0.45480000  0.84015000  1.0
  H  H12  1  0.80837000  0.95506000  0.34039000  1.0
  H  H13  1  0.30376000  0.55727000  0.15884000  1.0
  H  H14  1  0.64851000  0.16834000  0.57107000  1.0
  H  H15  1  0.14266000  0.33541000  0.92343000  1.0
  H  H16  1  0.35717000  0.83567000  0.42340000  1.0
  H  H17  1  0.85153000  0.66824000  0.07094000  1.0
  H  H18  1  0.14562000  0.47512000  0.69843000  1.0
  H  H19  1  0.64464000  0.03393000  0.79821000  1.0
  H  H20  1  0.85549000  0.53403000  0.29816000  1.0
  H  H21  1  0.35437000  0.97542000  0.19849000  1.0
  H  H22  1  0.08651000  0.65615000  0.66828000  1.0
  H  H23  1  0.59202000  0.85060000  0.82650000  1.0
  H  H24  1  0.90803000  0.35067000  0.32649000  1.0
  H  H25  1  0.41354000  0.15639000  0.16831000  1.0
  H  H26  1  0.90323000  0.65726000  0.82174000  1.0
  H  H27  1  0.40650000  0.84888000  0.67260000  1.0
  H  H28  1  0.09377000  0.34889000  0.17265000  1.0
  H  H29  1  0.59671000  0.15748000  0.32182000  1.0
  H  H30  1  0.08976000  0.61414000  0.86519000  1.0
  H  H31  1  0.59404000  0.89240000  0.63075000  1.0
  H  H32  1  0.90621000  0.39229000  0.13075000  1.0
  H  H33  1  0.41013000  0.11447000  0.36524000  1.0
  C  C34  1  0.56315000  0.42861000  0.26637000  1.0
  C  C35  1  0.06904000  0.05984000  0.24325000  1.0
  C  C36  1  0.43086000  0.55981000  0.74318000  1.0
  C  C37  1  0.93699000  0.92841000  0.76640000  1.0
  C  C38  1  0.93404000  0.36031000  0.57613000  1.0
  C  C39  1  0.42634000  0.13868000  0.92210000  1.0
  C  C40  1  0.07356000  0.63871000  0.42209000  1.0
  C  C41  1  0.56586000  0.86040000  0.07626000  1.0
  C  C42  1  0.78938000  0.54676000  0.61488000  1.0
  C  C43  1  0.29627000  0.94131000  0.88696000  1.0
  C  C44  1  0.20385000  0.44142000  0.38696000  1.0
  C  C45  1  0.71068000  0.04671000  0.11495000  1.0
  C  C46  1  0.04908000  0.55099000  0.70148000  1.0
  C  C47  1  0.55073000  0.95510000  0.79433000  1.0
  C  C48  1  0.94938000  0.45513000  0.29431000  1.0
  C  C49  1  0.45091000  0.05123000  0.20155000  1.0
  C  C50  1  0.78882000  0.39169000  0.86782000  1.0
  C  C51  1  0.29460000  0.11899000  0.63101000  1.0
  C  C52  1  0.20543000  0.61899000  0.13104000  1.0
  C  C53  1  0.71107000  0.89194000  0.36800000  1.0
  C  C54  1  0.52649000  0.17399000  0.58472000  1.0
  C  C55  1  0.02019000  0.33211000  0.91160000  1.0
  C  C56  1  0.47966000  0.83235000  0.41164000  1.0
  C  C57  1  0.97355000  0.67388000  0.08463000  1.0
  C  C58  1  0.99322000  0.57459000  0.81706000  1.0
  C  C59  1  0.49658000  0.93161000  0.67816000  1.0
  C  C60  1  0.00361000  0.43157000  0.17817000  1.0
  C  C61  1  0.50670000  0.07485000  0.31714000  1.0
  S  S62  1  0.59149000  0.42972000  0.13626000  1.0
  S  S63  1  0.09699000  0.06991000  0.37315000  1.0
  S  S64  1  0.40287000  0.56959000  0.87310000  1.0
  S  S65  1  0.90870000  0.92974000  0.63631000  1.0
  N  N66  1  0.54141000  0.42606000  0.36100000  1.0
  N  N67  1  0.04716000  0.05301000  0.14865000  1.0
  N  N68  1  0.45277000  0.55316000  0.64859000  1.0
  N  N69  1  0.95866000  0.92581000  0.86105000  1.0
  N  N70  1  0.71165000  0.45567000  0.55180000  1.0
  N  N71  1  0.21625000  0.02403000  0.95460000  1.0
  N  N72  1  0.28378000  0.52421000  0.45459000  1.0
  N  N73  1  0.78831000  0.95552000  0.05187000  1.0
  N  N74  1  0.80358000  0.33790000  0.52595000  1.0
  N  N75  1  0.29829000  0.14939000  0.97743000  1.0
  N  N76  1  0.20160000  0.64953000  0.47741000  1.0
  N  N77  1  0.69631000  0.83783000  0.02605000  1.0
  N  N78  1  0.93036000  0.48988000  0.63219000  1.0
  N  N79  1  0.42994000  0.00998000  0.86472000  1.0
  N  N80  1  0.07010000  0.51000000  0.36471000  1.0
  N  N81  1  0.56966000  0.98998000  0.13229000  1.0
  N  N82  1  0.92880000  0.22474000  0.94084000  1.0
  N  N83  1  0.43670000  0.28594000  0.55949000  1.0
  N  N84  1  0.06329000  0.78586000  0.05946000  1.0
  N  N85  1  0.57104000  0.72495000  0.44091000  1.0
  N  N86  1  0.78219000  0.26116000  0.91283000  1.0
  N  N87  1  0.28936000  0.25124000  0.58914000  1.0
  N  N88  1  0.21062000  0.75123000  0.08917000  1.0
  N  N89  1  0.71768000  0.76139000  0.41299000  1.0
  N  N90  1  0.93606000  0.44046000  0.86542000  1.0
  N  N91  1  0.44033000  0.06657000  0.62988000  1.0
  N  N92  1  0.05976000  0.56651000  0.12984000  1.0
  N  N93  1  0.56382000  0.94072000  0.36553000  1.0
