# generated using pymatgen
data_ZnH15C14(NO2)2
_symmetry_space_group_name_H-M   'P 1'
_cell_length_a   8.65819000
_cell_length_b   9.44981000
_cell_length_c   10.57390000
_cell_angle_alpha   70.00810000
_cell_angle_beta   80.28590000
_cell_angle_gamma   79.32560000
_symmetry_Int_Tables_number   1
_chemical_formula_structural   ZnH15C14(NO2)2
_chemical_formula_sum   'Zn2 H30 C28 N4 O8'
_cell_volume   793.71586597
_cell_formula_units_Z   2
loop_
 _symmetry_equiv_pos_site_id
 _symmetry_equiv_pos_as_xyz
  1  'x, y, z'
loop_
 _atom_site_type_symbol
 _atom_site_label
 _atom_site_symmetry_multiplicity
 _atom_site_fract_x
 _atom_site_fract_y
 _atom_site_fract_z
 _atom_site_occupancy
  Zn  Zn0  1  0.48069000  0.15827000  0.93173000  1.0
  Zn  Zn1  1  0.51931000  0.84173000  0.06827000  1.0
  H  H2  1  0.19692000  0.08504000  0.37515000  1.0
  H  H3  1  0.80308000  0.91496000  0.62485000  1.0
  H  H4  1  0.94315000  0.23625000  0.32804000  1.0
  H  H5  1  0.05686000  0.76375000  0.67196000  1.0
  H  H6  1  0.08586000  0.31400000  0.19209000  1.0
  H  H7  1  0.91414000  0.68600000  0.80791000  1.0
  H  H8  1  0.83413000  0.30030000  0.11007000  1.0
  H  H9  1  0.16587000  0.69970000  0.88993000  1.0
  H  H10  1  0.99830000  0.19040000  0.04909000  1.0
  H  H11  1  0.00170000  0.80960000  0.95091000  1.0
  H  H12  1  0.76190000  0.07018000  0.29708000  1.0
  H  H13  1  0.23810000  0.92982000  0.70291000  1.0
  H  H14  1  0.03624000  0.89388000  0.16546000  1.0
  H  H15  1  0.96376000  0.10612000  0.83454000  1.0
  H  H16  1  0.89530000  0.81397000  0.30041000  1.0
  H  H17  1  0.10470000  0.18604000  0.69959000  1.0
  H  H18  1  0.14256000  0.82792000  0.38663000  1.0
  H  H19  1  0.85744000  0.17208000  0.61337000  1.0
  H  H20  1  0.97556000  0.93873000  0.44422000  1.0
  H  H21  1  0.02444000  0.06127000  0.55577000  1.0
  H  H22  1  0.31229000  0.33970000  0.69409000  1.0
  H  H23  1  0.68771000  0.66030000  0.30591000  1.0
  H  H24  1  0.30709000  0.60145000  0.51990000  1.0
  H  H25  1  0.69291000  0.39855000  0.48010000  1.0
  H  H26  1  0.60548000  0.70655000  0.75639000  1.0
  H  H27  1  0.39452000  0.29345000  0.24361000  1.0
  H  H28  1  0.60837000  0.43742000  0.91239000  1.0
  H  H29  1  0.39163000  0.56258000  0.08760000  1.0
  H  H30  1  0.40220000  0.85102000  0.43023000  1.0
  H  H31  1  0.59780000  0.14898000  0.56977000  1.0
  C  C32  1  0.27911000  0.05223000  0.18851000  1.0
  C  C33  1  0.72089000  0.94777000  0.81149000  1.0
  C  C34  1  0.13990000  0.07180000  0.29454000  1.0
  C  C35  1  0.86010000  0.92820000  0.70546000  1.0
  C  C36  1  0.02211000  0.21531000  0.24088000  1.0
  C  C37  1  0.97789000  0.78470000  0.75912000  1.0
  C  C38  1  0.92199000  0.19878000  0.14160000  1.0
  C  C39  1  0.07801000  0.80122000  0.85840000  1.0
  C  C40  1  0.83863000  0.05699000  0.20578000  1.0
  C  C41  1  0.16138000  0.94301000  0.79422000  1.0
  C  C42  1  0.95796000  0.91358000  0.25324000  1.0
  C  C43  1  0.04204000  0.08643000  0.74676000  1.0
  C  C44  1  0.05562000  0.92984000  0.35382000  1.0
  C  C45  1  0.94438000  0.07017000  0.64618000  1.0
  C  C46  1  0.72192000  0.04121000  0.12010000  1.0
  C  C47  1  0.27809000  0.95879000  0.87990000  1.0
  C  C48  1  0.37632000  0.42530000  0.70136000  1.0
  C  C49  1  0.62368000  0.57470000  0.29863000  1.0
  C  C50  1  0.37350000  0.56985000  0.60666000  1.0
  C  C51  1  0.62650000  0.43015000  0.39334000  1.0
  C  C52  1  0.45791000  0.67426000  0.62349000  1.0
  C  C53  1  0.54209000  0.32574000  0.37651000  1.0
  C  C54  1  0.54192000  0.62820000  0.73696000  1.0
  C  C55  1  0.45808000  0.37180000  0.26304000  1.0
  C  C56  1  0.54147000  0.48079000  0.82506000  1.0
  C  C57  1  0.45853000  0.51921000  0.17493000  1.0
  C  C58  1  0.45420000  0.82641000  0.52484000  1.0
  C  C59  1  0.54580000  0.17359000  0.47516000  1.0
  N  N60  1  0.46027000  0.38107000  0.80779000  1.0
  N  N61  1  0.53973000  0.61893000  0.19221000  1.0
  N  N62  1  0.50933000  0.93069000  0.55084000  1.0
  N  N63  1  0.49067000  0.06931000  0.44916000  1.0
  O  O64  1  0.31829000  0.17137000  0.09564000  1.0
  O  O65  1  0.68172000  0.82863000  0.90436000  1.0
  O  O66  1  0.34902000  0.91756000  0.20334000  1.0
  O  O67  1  0.65098000  0.08244000  0.79666000  1.0
  O  O68  1  0.66017000  0.16184000  0.03566000  1.0
  O  O69  1  0.33984000  0.83816000  0.96434000  1.0
  O  O70  1  0.68954000  0.90797000  0.14278000  1.0
  O  O71  1  0.31046000  0.09204000  0.85722000  1.0
