# generated using pymatgen
data_CaH4C4S(NO3)2
_symmetry_space_group_name_H-M   'P 1'
_cell_length_a   6.78148000
_cell_length_b   9.04844209
_cell_length_c   14.60540000
_cell_angle_alpha   76.80815563
_cell_angle_beta   89.98260000
_cell_angle_gamma   68.01347082
_symmetry_Int_Tables_number   1
_chemical_formula_structural   CaH4C4S(NO3)2
_chemical_formula_sum   'Ca4 H16 C16 S4 N8 O24'
_cell_volume   805.49859703
_cell_formula_units_Z   4
loop_
 _symmetry_equiv_pos_site_id
 _symmetry_equiv_pos_as_xyz
  1  'x, y, z'
loop_
 _atom_site_type_symbol
 _atom_site_label
 _atom_site_symmetry_multiplicity
 _atom_site_fract_x
 _atom_site_fract_y
 _atom_site_fract_z
 _atom_site_occupancy
  Ca  Ca0  1  0.67372000  0.23168000  0.77140000  1.0
  Ca  Ca1  1  0.90579000  0.76837000  0.72857000  1.0
  Ca  Ca2  1  0.32627000  0.76832000  0.22860000  1.0
  Ca  Ca3  1  0.09421000  0.23163000  0.27143000  1.0
  H  H4  1  0.50492000  0.38311000  0.57958000  1.0
  H  H5  1  0.88849000  0.61686000  0.92047000  1.0
  H  H6  1  0.49508000  0.61689000  0.42042000  1.0
  H  H7  1  0.11151000  0.38314000  0.07953000  1.0
  H  H8  1  0.45230000  0.58267000  0.78411000  1.0
  H  H9  1  0.03449000  0.41728000  0.71586000  1.0
  H  H10  1  0.54771000  0.41733000  0.21589000  1.0
  H  H11  1  0.96552000  0.58271000  0.28414000  1.0
  H  H12  1  0.68230000  0.51932000  0.83655000  1.0
  H  H13  1  0.20124000  0.48069000  0.66342000  1.0
  H  H14  1  0.31770000  0.48068000  0.16345000  1.0
  H  H15  1  0.79876000  0.51931000  0.33658000  1.0
  H  H16  1  0.45952000  0.55560000  0.60274000  1.0
  H  H17  1  0.01549000  0.44444000  0.89723000  1.0
  H  H18  1  0.54047000  0.44440000  0.39726000  1.0
  H  H19  1  0.98451000  0.55556000  0.10278000  1.0
  C  C20  1  0.79441000  0.83683000  0.17188000  1.0
  C  C21  1  0.63068000  0.16329000  0.32817000  1.0
  C  C22  1  0.20559000  0.16317000  0.82812000  1.0
  C  C23  1  0.36931000  0.83672000  0.67183000  1.0
  C  C24  1  0.81548000  0.87767000  0.94373000  1.0
  C  C25  1  0.69314000  0.12240000  0.55630000  1.0
  C  C26  1  0.18452000  0.12233000  0.05626000  1.0
  C  C27  1  0.30685000  0.87760000  0.44370000  1.0
  C  C28  1  0.75434000  0.00948000  0.99665000  1.0
  C  C29  1  0.76374000  0.99064000  0.50337000  1.0
  C  C30  1  0.24566000  0.99052000  0.00335000  1.0
  C  C31  1  0.23624000  0.00937000  0.49663000  1.0
  C  C32  1  0.74100000  0.99391000  0.09576000  1.0
  C  C33  1  0.73436000  0.00625000  0.40429000  1.0
  C  C34  1  0.25900000  0.00609000  0.90424000  1.0
  C  C35  1  0.26564000  0.99375000  0.59571000  1.0
  S  S36  1  0.62724000  0.28245000  0.02151000  1.0
  S  S37  1  0.90956000  0.71774000  0.47843000  1.0
  S  S38  1  0.37276000  0.71755000  0.97850000  1.0
  S  S39  1  0.09044000  0.28226000  0.52157000  1.0
  N  N40  1  0.69597000  0.16557000  0.94798000  1.0
  N  N41  1  0.86173000  0.83457000  0.55198000  1.0
  N  N42  1  0.30402000  0.83444000  0.05202000  1.0
  N  N43  1  0.13828000  0.16543000  0.44802000  1.0
  N  N44  1  0.67157000  0.13822000  0.11849000  1.0
  N  N45  1  0.80900000  0.86198000  0.38154000  1.0
  N  N46  1  0.32843000  0.86178000  0.88151000  1.0
  N  N47  1  0.19100000  0.13802000  0.61846000  1.0
  O  O48  1  0.64296000  0.79493000  0.19790000  1.0
  O  O49  1  0.43752000  0.20498000  0.30205000  1.0
  O  O50  1  0.35704000  0.20507000  0.80211000  1.0
  O  O51  1  0.56247000  0.79503000  0.69795000  1.0
  O  O52  1  0.82530000  0.92131000  0.85474000  1.0
  O  O53  1  0.74689000  0.07873000  0.64525000  1.0
  O  O54  1  0.17470000  0.07869000  0.14526000  1.0
  O  O55  1  0.25311000  0.92127000  0.35474000  1.0
  O  O56  1  0.98944000  0.75767000  0.20412000  1.0
  O  O57  1  0.74653000  0.24264000  0.29601000  1.0
  O  O58  1  0.01057000  0.24232000  0.79588000  1.0
  O  O59  1  0.25348000  0.75736000  0.70399000  1.0
  O  O60  1  0.84968000  0.73294000  0.99139000  1.0
  O  O61  1  0.58233000  0.26706000  0.50868000  1.0
  O  O62  1  0.15031000  0.26706000  0.00860000  1.0
  O  O63  1  0.41766000  0.73294000  0.49132000  1.0
  O  O64  1  0.56442000  0.48383000  0.82527000  1.0
  O  O65  1  0.04789000  0.51616000  0.67471000  1.0
  O  O66  1  0.43558000  0.51617000  0.17473000  1.0
  O  O67  1  0.95211000  0.48384000  0.32529000  1.0
  O  O68  1  0.47037000  0.44333000  0.63195000  1.0
  O  O69  1  0.91418000  0.55672000  0.86807000  1.0
  O  O70  1  0.52962000  0.55667000  0.36805000  1.0
  O  O71  1  0.08582000  0.44328000  0.13193000  1.0
