# generated using pymatgen
data_CdH7C8NO5
_symmetry_space_group_name_H-M   'P 1'
_cell_length_a   6.92477000
_cell_length_b   8.37273000
_cell_length_c   9.04007000
_cell_angle_alpha   90.51000000
_cell_angle_beta   98.24460000
_cell_angle_gamma   110.12070000
_symmetry_Int_Tables_number   1
_chemical_formula_structural   CdH7C8NO5
_chemical_formula_sum   'Cd2 H14 C16 N2 O10'
_cell_volume   486.10468167
_cell_formula_units_Z   2
loop_
 _symmetry_equiv_pos_site_id
 _symmetry_equiv_pos_as_xyz
  1  'x, y, z'
loop_
 _atom_site_type_symbol
 _atom_site_label
 _atom_site_symmetry_multiplicity
 _atom_site_fract_x
 _atom_site_fract_y
 _atom_site_fract_z
 _atom_site_occupancy
  Cd  Cd0  1  0.00019000  0.87723000  0.20551000  1.0
  Cd  Cd1  1  0.99981000  0.12277000  0.79450000  1.0
  H  H2  1  0.41267000  0.20636000  0.70021000  1.0
  H  H3  1  0.58734000  0.79363000  0.29980000  1.0
  H  H4  1  0.24384000  0.18679000  0.54487000  1.0
  H  H5  1  0.75616000  0.81319000  0.45513000  1.0
  H  H6  1  0.57199000  0.45822000  0.86119000  1.0
  H  H7  1  0.42802000  0.54177000  0.13882000  1.0
  H  H8  1  0.16894000  0.43441000  0.44356000  1.0
  H  H9  1  0.83108000  0.56559000  0.55645000  1.0
  H  H10  1  0.49701000  0.91548000  0.69493000  1.0
  H  H11  1  0.50298000  0.08451000  0.30506000  1.0
  H  H12  1  0.88853000  0.12038000  0.35442000  1.0
  H  H13  1  0.11147000  0.87963000  0.64558000  1.0
  H  H14  1  0.87304000  0.15711000  0.17950000  1.0
  H  H15  1  0.12695000  0.84289000  0.82049000  1.0
  C  C16  1  0.70549000  0.79754000  0.92086000  1.0
  C  C17  1  0.29451000  0.20247000  0.07914000  1.0
  C  C18  1  0.54994000  0.69669000  0.79102000  1.0
  C  C19  1  0.45005000  0.30332000  0.20898000  1.0
  C  C20  1  0.49855000  0.52008000  0.77691000  1.0
  C  C21  1  0.50145000  0.47992000  0.22310000  1.0
  C  C22  1  0.35621000  0.42412000  0.65523000  1.0
  C  C23  1  0.64380000  0.57588000  0.34477000  1.0
  C  C24  1  0.27159000  0.50613000  0.54326000  1.0
  C  C25  1  0.72842000  0.49387000  0.45674000  1.0
  C  C26  1  0.32140000  0.68297000  0.55856000  1.0
  C  C27  1  0.67860000  0.31703000  0.44144000  1.0
  C  C28  1  0.45742000  0.77798000  0.68345000  1.0
  C  C29  1  0.54258000  0.22201000  0.31654000  1.0
  C  C30  1  0.22876000  0.77196000  0.44203000  1.0
  C  C31  1  0.77124000  0.22803000  0.55798000  1.0
  N  N32  1  0.29486000  0.24420000  0.65032000  1.0
  N  N33  1  0.70513000  0.75579000  0.34968000  1.0
  O  O34  1  0.78261000  0.71331000  0.01373000  1.0
  O  O35  1  0.21738000  0.28670000  0.98627000  1.0
  O  O36  1  0.75303000  0.95939000  0.93383000  1.0
  O  O37  1  0.24696000  0.04063000  0.06616000  1.0
  O  O38  1  0.18415000  0.90023000  0.48424000  1.0
  O  O39  1  0.81585000  0.09976000  0.51574000  1.0
  O  O40  1  0.19492000  0.71855000  0.30497000  1.0
  O  O41  1  0.80509000  0.28145000  0.69504000  1.0
  O  O42  1  0.96190000  0.13313000  0.26356000  1.0
  O  O43  1  0.03809000  0.86687000  0.73643000  1.0
