# generated using pymatgen
data_MgH38C18(NO3)4
_symmetry_space_group_name_H-M   'P 1'
_cell_length_a   7.83374000
_cell_length_b   10.01570000
_cell_length_c   10.10210000
_cell_angle_alpha   69.01160000
_cell_angle_beta   67.83220000
_cell_angle_gamma   68.24090000
_symmetry_Int_Tables_number   1
_chemical_formula_structural   MgH38C18(NO3)4
_chemical_formula_sum   'Mg1 H38 C18 N4 O12'
_cell_volume   659.40362469
_cell_formula_units_Z   1
loop_
 _symmetry_equiv_pos_site_id
 _symmetry_equiv_pos_as_xyz
  1  'x, y, z'
loop_
 _atom_site_type_symbol
 _atom_site_label
 _atom_site_symmetry_multiplicity
 _atom_site_fract_x
 _atom_site_fract_y
 _atom_site_fract_z
 _atom_site_occupancy
  Mg  Mg0  1  0.00000000  0.00000000  0.00000000  1.0
  H  H1  1  0.16159000  0.60096000  0.86665000  1.0
  H  H2  1  0.83841000  0.39904000  0.13335000  1.0
  H  H3  1  0.15981000  0.57812000  0.70143000  1.0
  H  H4  1  0.84019000  0.42188000  0.29857000  1.0
  H  H5  1  0.36891000  0.34652000  0.92788000  1.0
  H  H6  1  0.63110000  0.65348000  0.07211000  1.0
  H  H7  1  0.16464000  0.34246000  0.89429000  1.0
  H  H8  1  0.83537000  0.65753000  0.10572000  1.0
  H  H9  1  0.18594000  0.28675000  0.68855000  1.0
  H  H10  1  0.81406000  0.71326000  0.31144000  1.0
  H  H11  1  0.29339000  0.42915000  0.55874000  1.0
  H  H12  1  0.70662000  0.57086000  0.44125000  1.0
  H  H13  1  0.33621000  0.22410000  0.45481000  1.0
  H  H14  1  0.66379000  0.77590000  0.54519000  1.0
  H  H15  1  0.46988000  0.09561000  0.57344000  1.0
  H  H16  1  0.53011000  0.90439000  0.42656000  1.0
  H  H17  1  0.28601000  0.75359000  0.53715000  1.0
  H  H18  1  0.71399000  0.24641000  0.46286000  1.0
  H  H19  1  0.30636000  0.83022000  0.66238000  1.0
  H  H20  1  0.69363000  0.16978000  0.33762000  1.0
  H  H21  1  0.64728000  0.10172000  0.69940000  1.0
  H  H22  1  0.35272000  0.89828000  0.30060000  1.0
  H  H23  1  0.58547000  0.14349000  0.87084000  1.0
  H  H24  1  0.41453000  0.85651000  0.12916000  1.0
  H  H25  1  0.58533000  0.67096000  0.76261000  1.0
  H  H26  1  0.41466000  0.32905000  0.23738000  1.0
  H  H27  1  0.46690000  0.54478000  0.89922000  1.0
  H  H28  1  0.53309000  0.45524000  0.10078000  1.0
  H  H29  1  0.53667000  0.35074000  0.67270000  1.0
  H  H30  1  0.46333000  0.64927000  0.32730000  1.0
  H  H31  1  0.96310000  0.01931000  0.74376000  1.0
  H  H32  1  0.03688000  0.98069000  0.25624000  1.0
  H  H33  1  0.90731000  0.19239000  0.73632000  1.0
  H  H34  1  0.09268000  0.80760000  0.26368000  1.0
  H  H35  1  0.83434000  0.28350000  0.97493000  1.0
  H  H36  1  0.16566000  0.71650000  0.02508000  1.0
  H  H37  1  0.69416000  0.17955000  0.08929000  1.0
  H  H38  1  0.30584000  0.82045000  0.91072000  1.0
  C  C39  1  0.24903000  0.54657000  0.77533000  1.0
  C  C40  1  0.75097000  0.45343000  0.22467000  1.0
  C  C41  1  0.29465000  0.37988000  0.84332000  1.0
  C  C42  1  0.70535000  0.62011000  0.15667000  1.0
  C  C43  1  0.32226000  0.31212000  0.62077000  1.0
  C  C44  1  0.67774000  0.68788000  0.37923000  1.0
  C  C45  1  0.43472000  0.21369000  0.51422000  1.0
  C  C46  1  0.56528000  0.78631000  0.48578000  1.0
  C  C47  1  0.38317000  0.74702000  0.59624000  1.0
  C  C48  1  0.61683000  0.25298000  0.40376000  1.0
  C  C49  1  0.52720000  0.14041000  0.78922000  1.0
  C  C50  1  0.47280000  0.85959000  0.21078000  1.0
  C  C51  1  0.40420000  0.03153000  0.86307000  1.0
  C  C52  1  0.59580000  0.96846000  0.13693000  1.0
  C  C53  1  0.54533000  0.57033000  0.78058000  1.0
  C  C54  1  0.45467000  0.42967000  0.21942000  1.0
  C  C55  1  0.73056000  0.44354000  0.76389000  1.0
  C  C56  1  0.26945000  0.55646000  0.23612000  1.0
  N  N57  1  0.42566000  0.29723000  0.72693000  1.0
  N  N58  1  0.57434000  0.70277000  0.27307000  1.0
  N  N59  1  0.42315000  0.59524000  0.69010000  1.0
  N  N60  1  0.57686000  0.40476000  0.30990000  1.0
  O  O61  1  0.23254000  0.08086000  0.93564000  1.0
  O  O62  1  0.76747000  0.91913000  0.06435000  1.0
  O  O63  1  0.48630000  0.89998000  0.84956000  1.0
  O  O64  1  0.51372000  0.10001000  0.15044000  1.0
  O  O65  1  0.76039000  0.35566000  0.68644000  1.0
  O  O66  1  0.23961000  0.64434000  0.31358000  1.0
  O  O67  1  0.83971000  0.43057000  0.83625000  1.0
  O  O68  1  0.16029000  0.56944000  0.16377000  1.0
  O  O69  1  0.98884000  0.08958000  0.77463000  1.0
  O  O70  1  0.01116000  0.91041000  0.22537000  1.0
  O  O71  1  0.82639000  0.19201000  0.05853000  1.0
  O  O72  1  0.17361000  0.80798000  0.94147000  1.0
