# generated using pymatgen
data_DyAgH11C15(NO6)2
_symmetry_space_group_name_H-M   'P 1'
_cell_length_a   7.51419000
_cell_length_b   8.19894000
_cell_length_c   14.18850000
_cell_angle_alpha   98.35760000
_cell_angle_beta   100.45900000
_cell_angle_gamma   94.74430000
_symmetry_Int_Tables_number   1
_chemical_formula_structural   DyAgH11C15(NO6)2
_chemical_formula_sum   'Dy2 Ag2 H22 C30 N4 O24'
_cell_volume   845.11477462
_cell_formula_units_Z   2
loop_
 _symmetry_equiv_pos_site_id
 _symmetry_equiv_pos_as_xyz
  1  'x, y, z'
loop_
 _atom_site_type_symbol
 _atom_site_label
 _atom_site_symmetry_multiplicity
 _atom_site_fract_x
 _atom_site_fract_y
 _atom_site_fract_z
 _atom_site_occupancy
  Dy  Dy0  1  0.81115000  0.79725000  0.58027000  1.0
  Dy  Dy1  1  0.18885000  0.20275000  0.41973000  1.0
  Ag  Ag2  1  0.17026000  0.90254000  0.03183000  1.0
  Ag  Ag3  1  0.82974000  0.09746000  0.96817000  1.0
  H  H4  1  0.45426000  0.58456000  0.76701000  1.0
  H  H5  1  0.54574000  0.41545000  0.23299000  1.0
  H  H6  1  0.20257000  0.68832000  0.62647000  1.0
  H  H7  1  0.79743000  0.31168000  0.37353000  1.0
  H  H8  1  0.12666000  0.61410000  0.51639000  1.0
  H  H9  1  0.87334000  0.38591000  0.48361000  1.0
  H  H10  1  0.78475000  0.05125000  0.45939000  1.0
  H  H11  1  0.21524000  0.94874000  0.54061000  1.0
  H  H12  1  0.63700000  0.12041000  0.51974000  1.0
  H  H13  1  0.36300000  0.87959000  0.48026000  1.0
  H  H14  1  0.32941000  0.78711000  0.86334000  1.0
  H  H15  1  0.67059000  0.21289000  0.13666000  1.0
  H  H16  1  0.02513000  0.49259000  0.66964000  1.0
  H  H17  1  0.97487000  0.50742000  0.33036000  1.0
  H  H18  1  0.27982000  0.26333000  0.99450000  1.0
  H  H19  1  0.72018000  0.73667000  0.00550000  1.0
  H  H20  1  0.52430000  0.20034000  0.73972000  1.0
  H  H21  1  0.47570000  0.79967000  0.26028000  1.0
  H  H22  1  0.83489000  0.47053000  0.93695000  1.0
  H  H23  1  0.16510000  0.52947000  0.06305000  1.0
  H  H24  1  0.96555000  0.03794000  0.78497000  1.0
  H  H25  1  0.03445000  0.96206000  0.21503000  1.0
  C  C26  1  0.00547000  0.25521000  0.71736000  1.0
  C  C27  1  0.99452000  0.74479000  0.28264000  1.0
  C  C28  1  0.35356000  0.91985000  0.86250000  1.0
  C  C29  1  0.64643000  0.08015000  0.13750000  1.0
  C  C30  1  0.40353000  0.25606000  0.86657000  1.0
  C  C31  1  0.59647000  0.74394000  0.13343000  1.0
  C  C32  1  0.98875000  0.42449000  0.72489000  1.0
  C  C33  1  0.01125000  0.57551000  0.27511000  1.0
  C  C34  1  0.92443000  0.50517000  0.80337000  1.0
  C  C35  1  0.07557000  0.49483000  0.19663000  1.0
  C  C36  1  0.32706000  0.18701000  0.93650000  1.0
  C  C37  1  0.67294000  0.81299000  0.06350000  1.0
  C  C38  1  0.07243000  0.16489000  0.63379000  1.0
  C  C39  1  0.92757000  0.83511000  0.36621000  1.0
  C  C40  1  0.43447000  0.56016000  0.48037000  1.0
  C  C41  1  0.56553000  0.43985000  0.51963000  1.0
  C  C42  1  0.46355000  0.15089000  0.79515000  1.0
  C  C43  1  0.53645000  0.84911000  0.20485000  1.0
  C  C44  1  0.40492000  0.43722000  0.86208000  1.0
  C  C45  1  0.59507000  0.56279000  0.13794000  1.0
  C  C46  1  0.49954000  0.86369000  0.71679000  1.0
  C  C47  1  0.50046000  0.13631000  0.28320000  1.0
  C  C48  1  0.43872000  0.98012000  0.79306000  1.0
  C  C49  1  0.56128000  0.01988000  0.20694000  1.0
  C  C50  1  0.88346000  0.41285000  0.87360000  1.0
  C  C51  1  0.11654000  0.58715000  0.12639000  1.0
  C  C52  1  0.95694000  0.17081000  0.78892000  1.0
  C  C53  1  0.04306000  0.82919000  0.21108000  1.0
  C  C54  1  0.90103000  0.68776000  0.81101000  1.0
  C  C55  1  0.09897000  0.31224000  0.18899000  1.0
  N  N56  1  0.30175000  0.02159000  0.93380000  1.0
  N  N57  1  0.69825000  0.97841000  0.06620000  1.0
  N  N58  1  0.89917000  0.24858000  0.86629000  1.0
  N  N59  1  0.10083000  0.75142000  0.13371000  1.0
  O  O60  1  0.47850000  0.47347000  0.78818000  1.0
  O  O61  1  0.52150000  0.52652000  0.21182000  1.0
  O  O62  1  0.09089000  0.67034000  0.57519000  1.0
  O  O63  1  0.90911000  0.32966000  0.42481000  1.0
  O  O64  1  0.05967000  0.00596000  0.62275000  1.0
  O  O65  1  0.94033000  0.99404000  0.37725000  1.0
  O  O66  1  0.71669000  0.03138000  0.51083000  1.0
  O  O67  1  0.28331000  0.96862000  0.48917000  1.0
  O  O68  1  0.42549000  0.71344000  0.69789000  1.0
  O  O69  1  0.57451000  0.28656000  0.30211000  1.0
  O  O70  1  0.49943000  0.70960000  0.48773000  1.0
  O  O71  1  0.50057000  0.29040000  0.51228000  1.0
  O  O72  1  0.33934000  0.53513000  0.91698000  1.0
  O  O73  1  0.66068000  0.46485000  0.08301000  1.0
  O  O74  1  0.61915000  0.92235000  0.67495000  1.0
  O  O75  1  0.38085000  0.07765000  0.32505000  1.0
  O  O76  1  0.13916000  0.25023000  0.57861000  1.0
  O  O77  1  0.86084000  0.74978000  0.42139000  1.0
  O  O78  1  0.27110000  0.49829000  0.44489000  1.0
  O  O79  1  0.72890000  0.50171000  0.55511000  1.0
  O  O80  1  0.87257000  0.76399000  0.88958000  1.0
  O  O81  1  0.12742000  0.23600000  0.11042000  1.0
  O  O82  1  0.91493000  0.75301000  0.73540000  1.0
  O  O83  1  0.08506000  0.24699000  0.26460000  1.0
