# generated using pymatgen
data_AlH9C13SNO5
_symmetry_space_group_name_H-M   'P 1'
_cell_length_a   6.63985000
_cell_length_b   12.63468056
_cell_length_c   17.65220000
_cell_angle_alpha   93.02099794
_cell_angle_beta   100.80220000
_cell_angle_gamma   103.83822792
_symmetry_Int_Tables_number   1
_chemical_formula_structural   AlH9C13SNO5
_chemical_formula_sum   'Al2 H18 C26 S2 N2 O10'
_cell_volume   1405.01894519
_cell_formula_units_Z   2
loop_
 _symmetry_equiv_pos_site_id
 _symmetry_equiv_pos_as_xyz
  1  'x, y, z'
loop_
 _atom_site_type_symbol
 _atom_site_label
 _atom_site_symmetry_multiplicity
 _atom_site_fract_x
 _atom_site_fract_y
 _atom_site_fract_z
 _atom_site_occupancy
  Al  Al0  1  0.98511000  0.48302000  0.49851000  1.0
  Al  Al1  1  0.48550000  0.48343000  0.50009000  1.0
  H  H2  1  0.31917000  0.61096000  0.55474000  1.0
  H  H3  1  0.65646000  0.42472000  0.40354000  1.0
  H  H4  1  0.87419000  0.58956000  0.27706000  1.0
  H  H5  1  0.82444000  0.61302000  0.13556000  1.0
  H  H6  1  0.41126000  0.46040000  0.26337000  1.0
  H  H7  1  0.54649000  0.45645000  0.73443000  1.0
  H  H8  1  0.20840000  0.54215000  0.72601000  1.0
  H  H9  1  0.30267000  0.58188000  0.87087000  1.0
  H  H10  1  0.34225000  0.46755000  0.05369000  1.0
  H  H11  1  0.48731000  0.43021000  0.13447000  1.0
  H  H12  1  0.65190000  0.47888000  0.94708000  1.0
  H  H13  1  0.45901000  0.43661000  0.86391000  1.0
  H  H14  1  0.64706000  0.19148000  0.46372000  1.0
  H  H15  1  0.56029000  0.06120000  0.40751000  1.0
  H  H16  1  0.72867000  0.17504000  0.37570000  1.0
  H  H17  1  0.23547000  0.77913000  0.61911000  1.0
  H  H18  1  0.39819000  0.91018000  0.60897000  1.0
  H  H19  1  0.35356000  0.79898000  0.53715000  1.0
  C  C20  1  0.82263000  0.68162000  0.50580000  1.0
  C  C21  1  0.81588000  0.48013000  0.63667000  1.0
  C  C22  1  0.15183000  0.28856000  0.49561000  1.0
  C  C23  1  0.16862000  0.50231000  0.36121000  1.0
  C  C24  1  0.14407000  0.52171000  0.27769000  1.0
  C  C25  1  0.97869000  0.56592000  0.24233000  1.0
  C  C26  1  0.95217000  0.57920000  0.16387000  1.0
  C  C27  1  0.08656000  0.54780000  0.11873000  1.0
  C  C28  1  0.25769000  0.50554000  0.15507000  1.0
  C  C29  1  0.28346000  0.49387000  0.23459000  1.0
  C  C30  1  0.05068000  0.55199000  0.03765000  1.0
  C  C31  1  0.02835000  0.54753000  0.96690000  1.0
  C  C32  1  0.97881000  0.53442000  0.88504000  1.0
  C  C33  1  0.76112000  0.49817000  0.84664000  1.0
  C  C34  1  0.71157000  0.48186000  0.76537000  1.0
  C  C35  1  0.87188000  0.49615000  0.72298000  1.0
  C  C36  1  0.08646000  0.53054000  0.76058000  1.0
  C  C37  1  0.13769000  0.55168000  0.84072000  1.0
  C  C38  1  0.88483000  0.10047000  0.46809000  1.0
  C  C39  1  0.08893000  0.87013000  0.53513000  1.0
  C  C40  1  0.08546000  0.16983000  0.49767000  1.0
  C  C41  1  0.88910000  0.80058000  0.50484000  1.0
  C  C42  1  0.08568000  0.97921000  0.52112000  1.0
  C  C43  1  0.88872000  0.99141000  0.48183000  1.0
  C  C44  1  0.69447000  0.13332000  0.42666000  1.0
  C  C45  1  0.27886000  0.83784000  0.57761000  1.0
  S  S46  1  0.27235000  0.10328000  0.54086000  1.0
  S  S47  1  0.70262000  0.86711000  0.46133000  1.0
  N  N48  1  0.39474000  0.47876000  0.11207000  1.0
  N  N49  1  0.60512000  0.48313000  0.88944000  1.0
  O  O50  1  0.96988000  0.63190000  0.52047000  1.0
  O  O51  1  0.63801000  0.49522000  0.60434000  1.0
  O  O52  1  0.35046000  0.33459000  0.51120000  1.0
  O  O53  1  0.01911000  0.51360000  0.39459000  1.0
  O  O54  1  0.00520000  0.33773000  0.47770000  1.0
  O  O55  1  0.33465000  0.47412000  0.39306000  1.0
  O  O56  1  0.62332000  0.63643000  0.49214000  1.0
  O  O57  1  0.95185000  0.45579000  0.60139000  1.0
  O  O58  1  0.27644000  0.53383000  0.53587000  1.0
  O  O59  1  0.69354000  0.43709000  0.45964000  1.0
