# generated using pymatgen
data_CaH12C4(N3O2)4
_symmetry_space_group_name_H-M   'P 1'
_cell_length_a   8.75785000
_cell_length_b   8.75783000
_cell_length_c   11.60330000
_cell_angle_alpha   107.56900000
_cell_angle_beta   107.57000000
_cell_angle_gamma   101.36200000
_symmetry_Int_Tables_number   1
_chemical_formula_structural   CaH12C4(N3O2)4
_chemical_formula_sum   'Ca2 H24 C8 N24 O16'
_cell_volume   767.15410600
_cell_formula_units_Z   2
loop_
 _symmetry_equiv_pos_site_id
 _symmetry_equiv_pos_as_xyz
  1  'x, y, z'
loop_
 _atom_site_type_symbol
 _atom_site_label
 _atom_site_symmetry_multiplicity
 _atom_site_fract_x
 _atom_site_fract_y
 _atom_site_fract_z
 _atom_site_occupancy
  Ca  Ca0  1  0.74338000  0.25662000  0.25000000  1.0
  Ca  Ca1  1  0.25662000  0.74338000  0.75000000  1.0
  H  H2  1  0.69421000  0.80715000  0.18924000  1.0
  H  H3  1  0.19285000  0.30579000  0.31076000  1.0
  H  H4  1  0.30579000  0.19285000  0.81076000  1.0
  H  H5  1  0.80715000  0.69421000  0.68924000  1.0
  H  H6  1  0.69269000  0.61766000  0.21059000  1.0
  H  H7  1  0.38234000  0.30731000  0.28941000  1.0
  H  H8  1  0.30731000  0.38234000  0.78941000  1.0
  H  H9  1  0.61766000  0.69269000  0.71059000  1.0
  H  H10  1  0.89092000  0.00256000  0.11080000  1.0
  H  H11  1  0.99744000  0.10909000  0.38920000  1.0
  H  H12  1  0.10908000  0.99743000  0.88920000  1.0
  H  H13  1  0.00256000  0.89091000  0.61080000  1.0
  H  H14  1  0.62185000  0.50777000  0.41752000  1.0
  H  H15  1  0.49223000  0.37815000  0.08248000  1.0
  H  H16  1  0.37815000  0.49223000  0.58248000  1.0
  H  H17  1  0.50777000  0.62185000  0.91752000  1.0
  H  H18  1  0.57956000  0.33145000  0.44612000  1.0
  H  H19  1  0.66855000  0.42044000  0.05388000  1.0
  H  H20  1  0.42044000  0.66855000  0.55388000  1.0
  H  H21  1  0.33145000  0.57956000  0.94612000  1.0
  H  H22  1  0.70639000  0.97435000  0.01513000  1.0
  H  H23  1  0.02565000  0.29361000  0.48487000  1.0
  H  H24  1  0.29361000  0.02565000  0.98487000  1.0
  H  H25  1  0.97435000  0.70639000  0.51513000  1.0
  C  C26  1  0.62716000  0.78096000  0.33744000  1.0
  C  C27  1  0.21904000  0.37284000  0.16257000  1.0
  C  C28  1  0.37284000  0.21904000  0.66256000  1.0
  C  C29  1  0.78096000  0.62716000  0.83743000  1.0
  C  C30  1  0.52651000  0.93203000  0.46836000  1.0
  C  C31  1  0.06797000  0.47349000  0.03164000  1.0
  C  C32  1  0.47349000  0.06797000  0.53165000  1.0
  C  C33  1  0.93203000  0.52651000  0.96835000  1.0
  N  N34  1  0.57918000  0.92382000  0.36608000  1.0
  N  N35  1  0.07617000  0.42082000  0.13392000  1.0
  N  N36  1  0.42082000  0.07617000  0.63392000  1.0
  N  N37  1  0.92383000  0.57918000  0.86608000  1.0
  N  N38  1  0.58355000  0.02821000  0.29847000  1.0
  N  N39  1  0.97179000  0.41645000  0.20153000  1.0
  N  N40  1  0.41646000  0.97179000  0.70153000  1.0
  N  N41  1  0.02821000  0.58355000  0.79847000  1.0
  N  N42  1  0.69626000  0.74075000  0.24806000  1.0
  N  N43  1  0.25925000  0.30374000  0.25194000  1.0
  N  N44  1  0.30375000  0.25925000  0.75194000  1.0
  N  N45  1  0.74075000  0.69626000  0.74806000  1.0
  N  N46  1  0.60229000  0.70352000  0.41638000  1.0
  N  N47  1  0.29648000  0.39770000  0.08362000  1.0
  N  N48  1  0.39771000  0.29648000  0.58363000  1.0
  N  N49  1  0.70352000  0.60230000  0.91638000  1.0
  N  N50  1  0.53867000  0.79868000  0.49745000  1.0
  N  N51  1  0.20132000  0.46132000  0.00255000  1.0
  N  N52  1  0.46133000  0.20132000  0.50255000  1.0
  N  N53  1  0.79868000  0.53868000  0.99745000  1.0
  N  N54  1  0.43647000  0.97960000  0.19575000  1.0
  N  N55  1  0.02040000  0.56353000  0.30425000  1.0
  N  N56  1  0.56353000  0.02040000  0.80425000  1.0
  N  N57  1  0.97960000  0.43647000  0.69575000  1.0
  O  O58  1  0.62688000  0.38920000  0.39640000  1.0
  O  O59  1  0.61080000  0.37312000  0.10359000  1.0
  O  O60  1  0.37312000  0.61080000  0.60360000  1.0
  O  O61  1  0.38920000  0.62688000  0.89640000  1.0
  O  O62  1  0.77999000  0.00566000  0.10916000  1.0
  O  O63  1  0.99434000  0.22001000  0.39085000  1.0
  O  O64  1  0.22001000  0.99434000  0.89084000  1.0
  O  O65  1  0.00566000  0.77999000  0.60915000  1.0
  O  O66  1  0.44538000  0.07250000  0.12836000  1.0
  O  O67  1  0.92750000  0.55462000  0.37163000  1.0
  O  O68  1  0.55462000  0.92750000  0.87164000  1.0
  O  O69  1  0.07250000  0.44538000  0.62837000  1.0
  O  O70  1  0.30805000  0.86403000  0.16749000  1.0
  O  O71  1  0.13597000  0.69195000  0.33251000  1.0
  O  O72  1  0.69195000  0.13597000  0.83251000  1.0
  O  O73  1  0.86403000  0.30805000  0.66749000  1.0
