# generated using pymatgen
data_CuH6C6IN2
_symmetry_space_group_name_H-M   'P 1'
_cell_length_a   13.09210000
_cell_length_b   14.04500000
_cell_length_c   14.04464402
_cell_angle_alpha   77.45408340
_cell_angle_beta   62.22105665
_cell_angle_gamma   62.21830000
_symmetry_Int_Tables_number   1
_chemical_formula_structural   CuH6C6IN2
_chemical_formula_sum   'Cu8 H48 C48 I8 N16'
_cell_volume   2021.50212581
_cell_formula_units_Z   8
loop_
 _symmetry_equiv_pos_site_id
 _symmetry_equiv_pos_as_xyz
  1  'x, y, z'
loop_
 _atom_site_type_symbol
 _atom_site_label
 _atom_site_symmetry_multiplicity
 _atom_site_fract_x
 _atom_site_fract_y
 _atom_site_fract_z
 _atom_site_occupancy
  Cu  Cu0  1  0.88836000  0.75003000  0.72325000  1.0
  Cu  Cu1  1  0.36158000  0.74997000  0.77679000  1.0
  Cu  Cu2  1  0.63836000  0.72325000  0.75003000  1.0
  Cu  Cu3  1  0.11166000  0.77679000  0.74997000  1.0
  Cu  Cu4  1  0.11164000  0.24998000  0.27675000  1.0
  Cu  Cu5  1  0.63842000  0.25003000  0.22321000  1.0
  Cu  Cu6  1  0.36162000  0.27675000  0.24998000  1.0
  Cu  Cu7  1  0.88834000  0.22321000  0.25003000  1.0
  H  H8  1  0.14897000  0.66934000  0.48772000  1.0
  H  H9  1  0.12667000  0.62607000  0.62063000  1.0
  H  H10  1  0.30598000  0.83065000  0.01230000  1.0
  H  H11  1  0.37340000  0.87392000  0.87938000  1.0
  H  H12  1  0.81818000  0.48772000  0.83074000  1.0
  H  H13  1  0.75282000  0.62063000  0.87394000  1.0
  H  H14  1  0.13659000  0.01229000  0.66930000  1.0
  H  H15  1  0.24736000  0.87937000  0.62609000  1.0
  H  H16  1  0.85107000  0.01230000  0.83065000  1.0
  H  H17  1  0.87331000  0.87938000  0.87392000  1.0
  H  H18  1  0.69397000  0.48772000  0.66934000  1.0
  H  H19  1  0.62663000  0.62063000  0.62607000  1.0
  H  H20  1  0.18182000  0.66930000  0.01229000  1.0
  H  H21  1  0.24718000  0.62609000  0.87937000  1.0
  H  H22  1  0.86336000  0.83074000  0.48772000  1.0
  H  H23  1  0.75261000  0.87394000  0.62063000  1.0
  H  H24  1  0.85102000  0.33067000  0.51229000  1.0
  H  H25  1  0.87332000  0.37393000  0.37938000  1.0
  H  H26  1  0.69402000  0.16935000  0.98770000  1.0
  H  H27  1  0.62661000  0.12608000  0.12062000  1.0
  H  H28  1  0.18182000  0.51228000  0.16926000  1.0
  H  H29  1  0.24717000  0.37937000  0.12606000  1.0
  H  H30  1  0.86341000  0.98771000  0.33070000  1.0
  H  H31  1  0.75264000  0.12062000  0.37392000  1.0
  H  H32  1  0.14893000  0.98770000  0.16935000  1.0
  H  H33  1  0.12669000  0.12062000  0.12608000  1.0
  H  H34  1  0.30602000  0.51229000  0.33067000  1.0
  H  H35  1  0.37337000  0.37938000  0.37393000  1.0
  H  H36  1  0.81818000  0.33070000  0.98771000  1.0
  H  H37  1  0.75282000  0.37392000  0.12062000  1.0
  H  H38  1  0.13665000  0.16926000  0.51227000  1.0
  H  H39  1  0.24739000  0.12606000  0.37937000  1.0
  H  H40  1  0.34848000  0.51723000  0.48277000  1.0
  H  H41  1  0.26790000  0.43729000  0.56272000  1.0
  H  H42  1  0.34850000  0.98271000  0.01729000  1.0
  H  H43  1  0.26801000  0.06267000  0.93732000  1.0
  H  H44  1  0.86578000  0.48274000  0.98278000  1.0
  H  H45  1  0.70525000  0.56271000  0.06275000  1.0
  H  H46  1  0.33131000  0.01722000  0.51726000  1.0
  H  H47  1  0.33071000  0.93725000  0.43729000  1.0
  H  H48  1  0.65150000  0.01729000  0.98271000  1.0
  H  H49  1  0.73200000  0.93732000  0.06267000  1.0
  H  H50  1  0.65152000  0.48277000  0.51723000  1.0
  H  H51  1  0.73209000  0.56272000  0.43729000  1.0
  H  H52  1  0.13421000  0.51726000  0.01722000  1.0
  H  H53  1  0.29475000  0.43729000  0.93725000  1.0
  H  H54  1  0.66870000  0.98278000  0.48274000  1.0
  H  H55  1  0.66929000  0.06275000  0.56271000  1.0
  C  C56  1  0.03248000  0.58433000  0.55771000  1.0
  C  C57  1  0.14342000  0.60116000  0.54364000  1.0
  C  C58  1  0.17453000  0.91572000  0.94226000  1.0
  C  C59  1  0.28824000  0.89883000  0.95637000  1.0
  C  C60  1  0.61675000  0.55779000  0.91576000  1.0
  C  C61  1  0.74456000  0.54369000  0.89891000  1.0
  C  C62  1  0.09028000  0.94224000  0.58424000  1.0
  C  C63  1  0.18711000  0.95633000  0.60113000  1.0
  C  C64  1  0.96749000  0.94226000  0.91572000  1.0
  C  C65  1  0.85656000  0.95637000  0.89883000  1.0
  C  C66  1  0.82548000  0.55771000  0.58433000  1.0
  C  C67  1  0.71178000  0.54364000  0.60116000  1.0
  C  C68  1  0.38324000  0.58424000  0.94224000  1.0
  C  C69  1  0.25543000  0.60114000  0.95633000  1.0
  C  C70  1  0.90970000  0.91576000  0.55779000  1.0
  C  C71  1  0.81284000  0.89890000  0.54369000  1.0
  C  C72  1  0.96753000  0.41567000  0.44229000  1.0
  C  C73  1  0.85658000  0.39884000  0.45636000  1.0
  C  C74  1  0.82548000  0.08427000  0.05773000  1.0
  C  C75  1  0.71176000  0.10116000  0.04363000  1.0
  C  C76  1  0.38325000  0.44221000  0.08424000  1.0
  C  C77  1  0.25544000  0.45632000  0.10109000  1.0
  C  C78  1  0.90972000  0.05776000  0.41576000  1.0
  C  C79  1  0.81289000  0.04367000  0.39887000  1.0
  C  C80  1  0.03252000  0.05773000  0.08427000  1.0
  C  C81  1  0.14345000  0.04363000  0.10116000  1.0
  C  C82  1  0.17451000  0.44229000  0.41567000  1.0
  C  C83  1  0.28821000  0.45636000  0.39884000  1.0
  C  C84  1  0.61676000  0.41576000  0.05776000  1.0
  C  C85  1  0.74457000  0.39887000  0.04367000  1.0
  C  C86  1  0.09030000  0.08424000  0.44221000  1.0
  C  C87  1  0.18715000  0.10109000  0.45632000  1.0
  C  C88  1  0.05279000  0.50690000  0.49310000  1.0
  C  C89  1  0.26799000  0.49996000  0.50004000  1.0
  C  C90  1  0.05280000  0.99314000  0.00686000  1.0
  C  C91  1  0.26804000  0.00000000  1.00000000  1.0
  C  C92  1  0.55967000  0.49313000  0.99314000  1.0
  C  C93  1  0.76801000  0.50004000  0.00006000  1.0
  C  C94  1  0.04594000  0.00686000  0.50687000  1.0
  C  C95  1  0.26812000  0.99993000  0.49996000  1.0
  C  C96  1  0.94720000  0.00686000  0.99314000  1.0
  C  C97  1  0.73196000  0.00000000  1.00000000  1.0
  C  C98  1  0.94721000  0.49310000  0.50690000  1.0
  C  C99  1  0.73201000  0.50004000  0.49996000  1.0
  C  C100  1  0.44033000  0.50687000  0.00686000  1.0
  C  C101  1  0.23199000  0.49996000  0.99993000  1.0
  C  C102  1  0.95406000  0.99314000  0.49313000  1.0
  C  C103  1  0.73189000  0.00006000  0.50004000  1.0
  I  I104  1  0.64643000  0.85357000  0.85357000  1.0
  I  I105  1  0.35358000  0.64642000  0.64642000  1.0
  I  I106  1  0.49995000  0.85352000  0.64649000  1.0
  I  I107  1  0.00004000  0.64649000  0.85352000  1.0
  I  I108  1  0.35357000  0.14643000  0.14643000  1.0
  I  I109  1  0.64641000  0.35358000  0.35359000  1.0
  I  I110  1  0.50005000  0.14648000  0.35351000  1.0
  I  I111  1  0.99996000  0.35351000  0.14648000  1.0
  N  N112  1  0.91575000  0.64226000  0.63054000  1.0
  N  N113  1  0.18854000  0.85775000  0.86947000  1.0
  N  N114  1  0.55798000  0.63055000  0.85778000  1.0
  N  N115  1  0.04635000  0.86943000  0.64220000  1.0
  N  N116  1  0.08424000  0.86947000  0.85775000  1.0
  N  N117  1  0.81145000  0.63054000  0.64226000  1.0
  N  N118  1  0.44202000  0.64220000  0.86943000  1.0
  N  N119  1  0.95369000  0.85777000  0.63055000  1.0
  N  N120  1  0.08425000  0.35774000  0.36946000  1.0
  N  N121  1  0.81146000  0.14225000  0.13053000  1.0
  N  N122  1  0.44201000  0.36945000  0.14222000  1.0
  N  N123  1  0.95365000  0.13057000  0.35780000  1.0
  N  N124  1  0.91576000  0.13053000  0.14225000  1.0
  N  N125  1  0.18854000  0.36947000  0.35774000  1.0
  N  N126  1  0.55798000  0.35780000  0.13057000  1.0
  N  N127  1  0.04632000  0.14222000  0.36945000  1.0
