# generated using pymatgen
data_Al6H62C99O31
_symmetry_space_group_name_H-M   'P 1'
_cell_length_a   12.55890000
_cell_length_b   12.81220000
_cell_length_c   27.68390000
_cell_angle_alpha   89.29010000
_cell_angle_beta   89.98220000
_cell_angle_gamma   60.75150000
_symmetry_Int_Tables_number   1
_chemical_formula_structural   Al6H62C99O31
_chemical_formula_sum   'Al6 H62 C99 O31'
_cell_volume   3886.24032159
_cell_formula_units_Z   1
loop_
 _symmetry_equiv_pos_site_id
 _symmetry_equiv_pos_as_xyz
  1  'x, y, z'
loop_
 _atom_site_type_symbol
 _atom_site_label
 _atom_site_symmetry_multiplicity
 _atom_site_fract_x
 _atom_site_fract_y
 _atom_site_fract_z
 _atom_site_occupancy
  Al  Al0  1  0.14760000  0.42711000  0.49680000  1.0
  Al  Al1  1  0.40259000  0.42520000  0.49644000  1.0
  Al  Al2  1  0.40724000  0.18906000  0.49864000  1.0
  Al  Al3  1  0.16915000  0.92793000  0.98416000  1.0
  Al  Al4  1  0.91177000  0.93122000  0.98183000  1.0
  Al  Al5  1  0.90865000  0.16676000  0.98420000  1.0
  H  H6  1  0.57046000  0.06841000  0.19465000  1.0
  H  H7  1  0.04546000  0.35786000  0.20148000  1.0
  H  H8  1  0.33434000  0.61681000  0.18519000  1.0
  H  H9  1  0.44862000  0.23726000  0.27181000  1.0
  H  H10  1  0.24227000  0.28624000  0.27317000  1.0
  H  H11  1  0.32361000  0.47906000  0.26752000  1.0
  H  H12  1  0.47976000  0.22520000  0.18819000  1.0
  H  H13  1  0.20386000  0.28735000  0.19026000  1.0
  H  H14  1  0.28477000  0.50947000  0.18428000  1.0
  H  H15  1  0.73707000  0.29226000  0.20052000  1.0
  H  H16  1  0.25678000  0.97383000  0.20213000  1.0
  H  H17  1  0.95440000  0.72790000  0.20548000  1.0
  H  H18  1  0.75762000  0.96144000  0.85683000  1.0
  H  H19  1  0.91754000  0.29012000  0.85096000  1.0
  H  H20  1  0.25085000  0.81658000  0.85148000  1.0
  H  H21  1  0.74268000  0.87829000  0.77801000  1.0
  H  H22  1  0.83927000  0.37741000  0.76904000  1.0
  H  H23  1  0.36126000  0.79743000  0.77440000  1.0
  H  H24  1  0.70743000  0.90028000  0.69057000  1.0
  H  H25  1  0.87367000  0.38991000  0.68248000  1.0
  H  H26  1  0.39552000  0.74236000  0.68894000  1.0
  H  H27  1  0.68316000  0.32580000  0.86499000  1.0
  H  H28  1  0.29161000  0.01872000  0.87023000  1.0
  H  H29  1  0.95397000  0.74019000  0.85563000  1.0
  H  H30  1  0.61412000  0.45775000  0.79145000  1.0
  H  H31  1  0.43459000  0.95519000  0.80053000  1.0
  H  H32  1  0.89567000  0.66985000  0.78173000  1.0
  H  H33  1  0.57666000  0.48201000  0.70323000  1.0
  H  H34  1  0.47053000  0.96732000  0.71307000  1.0
  H  H35  1  0.92644000  0.61835000  0.69488000  1.0
  H  H36  1  0.54771000  0.08198000  0.27871000  1.0
  H  H37  1  0.08399000  0.35812000  0.28434000  1.0
  H  H38  1  0.36213000  0.59441000  0.26923000  1.0
  H  H39  1  0.56626000  0.39696000  0.62474000  1.0
  H  H40  1  0.39339000  0.05733000  0.63245000  1.0
  H  H41  1  0.04517000  0.58618000  0.62042000  1.0
  H  H42  1  0.83350000  0.10104000  0.29378000  1.0
  H  H43  1  0.06298000  0.07916000  0.30143000  1.0
  H  H44  1  0.04443000  0.84195000  0.29102000  1.0
  H  H45  1  0.77322000  0.00210000  0.29566000  1.0
  H  H46  1  0.97864000  0.23707000  0.30017000  1.0
  H  H47  1  0.19865000  0.80767000  0.28792000  1.0
  H  H48  1  0.79550000  0.97657000  0.21190000  1.0
  H  H49  1  0.94256000  0.23255000  0.21735000  1.0
  H  H50  1  0.18564000  0.83136000  0.20356000  1.0
  H  H51  1  0.86671000  0.06615000  0.21108000  1.0
  H  H52  1  0.03116000  0.07485000  0.21843000  1.0
  H  H53  1  0.02799000  0.88024000  0.20757000  1.0
  H  H54  1  0.53724000  0.37919000  0.27133000  1.0
  H  H55  1  0.36529000  0.05810000  0.27484000  1.0
  H  H56  1  0.10378000  0.52929000  0.27377000  1.0
  H  H57  1  0.69378000  0.32361000  0.28315000  1.0
  H  H58  1  0.29070000  0.97383000  0.28550000  1.0
  H  H59  1  0.98937000  0.67531000  0.28785000  1.0
  H  H60  1  0.57937000  0.35689000  0.18854000  1.0
  H  H61  1  0.32922000  0.05998000  0.19163000  1.0
  H  H62  1  0.05653000  0.57733000  0.19173000  1.0
  H  H63  1  0.54848000  0.01838000  0.59297000  1.0
  H  H64  1  0.99445000  0.43610000  0.58888000  1.0
  H  H65  1  0.44436000  0.55621000  0.59225000  1.0
  H  H66  1  0.94082000  0.49991000  0.47495000  1.0
  H  H67  1  0.36890000  0.80913000  0.01278000  1.0
  C  C68  1  0.22783000  0.22143000  0.43125000  1.0
  C  C69  1  0.23387000  0.55678000  0.42723000  1.0
  C  C70  1  0.54495000  0.23408000  0.43035000  1.0
  C  C71  1  0.65486000  0.28676000  0.20980000  1.0
  C  C72  1  0.25740000  0.05579000  0.21285000  1.0
  C  C73  1  0.04761000  0.65439000  0.21199000  1.0
  C  C74  1  0.62854000  0.30378000  0.26458000  1.0
  C  C75  1  0.28068000  0.05535000  0.26772000  1.0
  C  C76  1  0.07233000  0.62440000  0.26647000  1.0
  C  C77  1  0.69787000  0.14733000  0.14250000  1.0
  C  C78  1  0.11036000  0.16246000  0.14740000  1.0
  C  C79  1  0.12020000  0.71622000  0.13992000  1.0
  C  C80  1  0.61445000  0.20287000  0.33914000  1.0
  C  C81  1  0.19421000  0.17046000  0.34246000  1.0
  C  C82  1  0.19161000  0.62910000  0.33597000  1.0
  C  C83  1  0.59325000  0.21396000  0.38221000  1.0
  C  C84  1  0.20892000  0.18401000  0.38481000  1.0
  C  C85  1  0.20848000  0.60529000  0.37886000  1.0
  C  C86  1  0.08275000  0.81739000  0.90960000  1.0
  C  C87  1  0.76524000  0.11946000  0.91676000  1.0
  C  C88  1  0.07990000  0.13796000  0.91640000  1.0
  C  C89  1  0.08465000  0.78908000  0.04879000  1.0
  C  C90  1  0.77189000  0.11205000  0.05170000  1.0
  C  C91  1  0.07971000  0.12742000  0.05568000  1.0
  C  C92  1  0.62972000  0.10644000  0.63712000  1.0
  C  C93  1  0.09191000  0.27010000  0.63578000  1.0
  C  C94  1  0.27729000  0.65004000  0.63583000  1.0
  C  C95  1  0.65958000  0.08847000  0.68707000  1.0
  C  C96  1  0.06768000  0.25927000  0.68501000  1.0
  C  C97  1  0.25266000  0.69310000  0.68396000  1.0
  C  C98  1  0.70503000  0.06041000  0.78908000  1.0
  C  C99  1  0.02619000  0.24392000  0.78590000  1.0
  C  C100  1  0.21210000  0.75924000  0.78352000  1.0
  C  C101  1  0.24093000  0.21471000  0.56764000  1.0
  C  C102  1  0.22469000  0.55465000  0.56524000  1.0
  C  C103  1  0.54776000  0.24749000  0.56481000  1.0
  C  C104  1  0.71577000  0.96398000  0.76020000  1.0
  C  C105  1  0.93003000  0.32310000  0.75404000  1.0
  C  C106  1  0.30541000  0.76592000  0.75628000  1.0
  C  C107  1  0.69522000  0.97650000  0.71157000  1.0
  C  C108  1  0.94921000  0.33042000  0.70593000  1.0
  C  C109  1  0.32502000  0.73469000  0.70886000  1.0
  C  C110  1  0.72919000  0.04725000  0.83884000  1.0
  C  C111  1  0.00759000  0.23568000  0.83539000  1.0
  C  C112  1  0.19382000  0.78768000  0.83256000  1.0
  C  C113  1  0.72213000  0.14229000  0.86574000  1.0
  C  C114  1  0.10333000  0.15510000  0.86513000  1.0
  C  C115  1  0.10147000  0.78035000  0.85815000  1.0
  C  C116  1  0.59020000  0.31232000  0.64277000  1.0
  C  C117  1  0.30382000  0.11411000  0.64786000  1.0
  C  C118  1  0.10339000  0.61391000  0.63907000  1.0
  C  C119  1  0.61475000  0.29910000  0.69241000  1.0
  C  C120  1  0.28408000  0.10364000  0.69692000  1.0
  C  C121  1  0.07980000  0.65095000  0.68699000  1.0
  C  C122  1  0.64842000  0.18649000  0.71520000  1.0
  C  C123  1  0.16514000  0.17793000  0.71606000  1.0
  C  C124  1  0.15619000  0.68906000  0.71020000  1.0
  C  C125  1  0.60364000  0.39627000  0.72114000  1.0
  C  C126  1  0.38034000  0.02257000  0.72845000  1.0
  C  C127  1  0.98387000  0.64716000  0.71361000  1.0
  C  C128  1  0.62455000  0.38278000  0.76979000  1.0
  C  C129  1  0.36055000  0.01588000  0.77653000  1.0
  C  C130  1  0.96676000  0.67607000  0.76130000  1.0
  C  C131  1  0.66039000  0.27051000  0.79382000  1.0
  C  C132  1  0.24231000  0.08885000  0.79701000  1.0
  C  C133  1  0.04184000  0.71424000  0.78600000  1.0
  C  C134  1  0.54004000  0.16452000  0.26293000  1.0
  C  C135  1  0.15878000  0.28090000  0.26658000  1.0
  C  C136  1  0.29194000  0.57276000  0.25710000  1.0
  C  C137  1  0.67111000  0.17256000  0.76588000  1.0
  C  C138  1  0.14458000  0.17024000  0.76618000  1.0
  C  C139  1  0.13628000  0.72142000  0.75969000  1.0
  C  C140  1  0.68733000  0.25325000  0.84342000  1.0
  C  C141  1  0.21959000  0.08192000  0.84613000  1.0
  C  C142  1  0.02570000  0.74464000  0.83501000  1.0
  C  C143  1  0.59291000  0.21975000  0.61557000  1.0
  C  C144  1  0.21094000  0.19788000  0.61798000  1.0
  C  C145  1  0.20271000  0.60866000  0.61423000  1.0
  C  C146  1  0.76482000  0.08248000  0.27745000  1.0
  C  C147  1  0.05442000  0.15941000  0.28300000  1.0
  C  C148  1  0.13137000  0.78558000  0.27271000  1.0
  C  C149  1  0.78411000  0.06390000  0.22234000  1.0
  C  C150  1  0.03154000  0.15744000  0.22821000  1.0
  C  C151  1  0.11873000  0.80679000  0.21738000  1.0
  C  C152  1  0.72232000  0.13365000  0.09971000  1.0
  C  C153  1  0.09524000  0.15592000  0.10442000  1.0
  C  C154  1  0.10540000  0.73939000  0.09693000  1.0
  C  C155  1  0.63654000  0.18928000  0.28749000  1.0
  C  C156  1  0.17339000  0.16511000  0.29133000  1.0
  C  C157  1  0.17203000  0.65282000  0.28451000  1.0
  C  C158  1  0.55890000  0.15409000  0.20753000  1.0
  C  C159  1  0.13378000  0.28107000  0.21191000  1.0
  C  C160  1  0.27065000  0.59160000  0.20194000  1.0
  C  C161  1  0.67370000  0.16325000  0.19401000  1.0
  C  C162  1  0.13272000  0.16463000  0.19866000  1.0
  C  C163  1  0.13857000  0.69201000  0.19136000  1.0
  C  C164  1  0.63533000  0.00373000  0.60942000  1.0
  C  C165  1  0.98833000  0.35875000  0.60414000  1.0
  C  C166  1  0.38630000  0.64177000  0.61070000  1.0
  O  O167  1  0.15470000  0.53845000  0.44772000  1.0
  O  O168  1  0.52916000  0.32776000  0.45216000  1.0
  O  O169  1  0.32008000  0.14584000  0.45662000  1.0
  O  O170  1  0.15590000  0.02417000  0.04167000  1.0
  O  O171  1  0.98393000  0.81022000  0.02790000  1.0
  O  O172  1  0.79381000  0.19194000  0.03344000  1.0
  O  O173  1  0.15392000  0.32843000  0.44230000  1.0
  O  O174  1  0.33965000  0.53096000  0.44466000  1.0
  O  O175  1  0.51516000  0.15782000  0.44671000  1.0
  O  O176  1  0.15650000  0.51326000  0.55214000  1.0
  O  O177  1  0.51304000  0.35353000  0.54834000  1.0
  O  O178  1  0.35091000  0.14448000  0.55270000  1.0
  O  O179  1  0.16021000  0.29974000  0.54274000  1.0
  O  O180  1  0.31323000  0.54907000  0.53955000  1.0
  O  O181  1  0.53809000  0.16779000  0.54080000  1.0
  O  O182  1  0.32113000  0.34596000  0.49683000  1.0
  O  O183  1  0.16115000  0.04812000  0.93903000  1.0
  O  O184  1  0.98772000  0.82546000  0.93122000  1.0
  O  O185  1  0.78394000  0.19748000  0.93776000  1.0
  O  O186  1  0.15914000  0.84217000  0.92835000  1.0
  O  O187  1  0.78874000  0.01876000  0.93597000  1.0
  O  O188  1  0.97500000  0.21324000  0.93403000  1.0
  O  O189  1  0.99411000  0.00949000  0.98396000  1.0
  O  O190  1  0.16361000  0.81289000  0.03170000  1.0
  O  O191  1  0.79576000  0.01345000  0.03204000  1.0
  O  O192  1  0.98767000  0.20722000  0.03122000  1.0
  O  O193  1  0.72843000  0.90678000  0.60710000  1.0
  O  O194  1  0.89761000  0.34828000  0.59746000  1.0
  O  O195  1  0.41544000  0.72026000  0.61122000  1.0
  O  O196  1  0.98851000  0.50531000  0.50115000  1.0
  O  O197  1  0.32929000  0.85424000  0.98378000  1.0
