# generated using pymatgen
data_GdH9(C2O3)3
_symmetry_space_group_name_H-M   'P 1'
_cell_length_a   6.04733000
_cell_length_b   9.52553000
_cell_length_c   16.77340000
_cell_angle_alpha   89.99980000
_cell_angle_beta   85.94140000
_cell_angle_gamma   89.99980000
_symmetry_Int_Tables_number   1
_chemical_formula_structural   GdH9(C2O3)3
_chemical_formula_sum   'Gd4 H36 C24 O36'
_cell_volume   963.79223492
_cell_formula_units_Z   4
loop_
 _symmetry_equiv_pos_site_id
 _symmetry_equiv_pos_as_xyz
  1  'x, y, z'
loop_
 _atom_site_type_symbol
 _atom_site_label
 _atom_site_symmetry_multiplicity
 _atom_site_fract_x
 _atom_site_fract_y
 _atom_site_fract_z
 _atom_site_occupancy
  Gd  Gd0  1  0.13189000  0.18866000  0.93748000  1.0
  Gd  Gd1  1  0.36811000  0.68866000  0.56252000  1.0
  Gd  Gd2  1  0.86811000  0.81134000  0.06252000  1.0
  Gd  Gd3  1  0.63189000  0.31134000  0.43748000  1.0
  H  H4  1  0.71298000  0.09076000  0.15387000  1.0
  H  H5  1  0.78702000  0.59076000  0.34613000  1.0
  H  H6  1  0.28702000  0.90924000  0.84613000  1.0
  H  H7  1  0.21298000  0.40924000  0.65387000  1.0
  H  H8  1  0.31069000  0.45209000  0.88532000  1.0
  H  H9  1  0.18932000  0.95209000  0.61468000  1.0
  H  H10  1  0.68931000  0.54791000  0.11468000  1.0
  H  H11  1  0.81068000  0.04791000  0.38532000  1.0
  H  H12  1  0.18755000  0.52365000  0.96148000  1.0
  H  H13  1  0.31246000  0.02366000  0.53852000  1.0
  H  H14  1  0.81245000  0.47635000  0.03852000  1.0
  H  H15  1  0.68754000  0.97634000  0.46148000  1.0
  H  H16  1  0.82480000  0.27938000  0.07763000  1.0
  H  H17  1  0.67520000  0.77938000  0.42237000  1.0
  H  H18  1  0.17521000  0.72062000  0.92237000  1.0
  H  H19  1  0.32480000  0.22062000  0.57763000  1.0
  H  H20  1  0.69054000  0.27389000  0.99575000  1.0
  H  H21  1  0.80946000  0.77389000  0.50425000  1.0
  H  H22  1  0.30946000  0.72611000  0.00425000  1.0
  H  H23  1  0.19054000  0.22611000  0.49575000  1.0
  H  H24  1  0.14319000  0.04551000  0.21591000  1.0
  H  H25  1  0.35681000  0.54550000  0.28409000  1.0
  H  H26  1  0.85681000  0.95449000  0.78409000  1.0
  H  H27  1  0.64319000  0.45449000  0.71592000  1.0
  H  H28  1  0.36679000  0.16803000  0.21071000  1.0
  H  H29  1  0.13321000  0.66803000  0.28929000  1.0
  H  H30  1  0.63321000  0.83197000  0.78929000  1.0
  H  H31  1  0.86680000  0.33197000  0.71071000  1.0
  H  H32  1  0.56961000  0.99606000  0.29222000  1.0
  H  H33  1  0.93039000  0.49605000  0.20777000  1.0
  H  H34  1  0.43039000  0.00394000  0.70778000  1.0
  H  H35  1  0.06961000  0.50394000  0.79223000  1.0
  H  H36  1  0.34642000  0.87824000  0.29456000  1.0
  H  H37  1  0.15358000  0.37823000  0.20543000  1.0
  H  H38  1  0.65358000  0.12176000  0.70543000  1.0
  H  H39  1  0.84642000  0.62177000  0.79457000  1.0
  C  C40  1  0.22593000  0.12507000  0.09879000  1.0
  C  C41  1  0.27406000  0.62507000  0.40121000  1.0
  C  C42  1  0.77408000  0.87493000  0.90121000  1.0
  C  C43  1  0.72593000  0.37493000  0.59880000  1.0
  C  C44  1  0.29278000  0.07977000  0.18018000  1.0
  C  C45  1  0.20722000  0.57977000  0.31982000  1.0
  C  C46  1  0.70723000  0.92023000  0.81982000  1.0
  C  C47  1  0.79278000  0.42023000  0.68018000  1.0
  C  C48  1  0.35759000  0.83733000  0.12707000  1.0
  C  C49  1  0.14241000  0.33733000  0.37293000  1.0
  C  C50  1  0.64241000  0.16267000  0.87293000  1.0
  C  C51  1  0.85760000  0.66267000  0.62707000  1.0
  C  C52  1  0.45662000  0.95564000  0.17566000  1.0
  C  C53  1  0.04337000  0.45564000  0.32433000  1.0
  C  C54  1  0.54338000  0.04436000  0.82434000  1.0
  C  C55  1  0.95663000  0.54436000  0.67567000  1.0
  C  C56  1  0.50116000  0.90721000  0.26006000  1.0
  C  C57  1  0.99884000  0.40720000  0.23995000  1.0
  C  C58  1  0.49884000  0.09279000  0.73994000  1.0
  C  C59  1  0.00116000  0.59280000  0.76006000  1.0
  C  C60  1  0.65654000  0.78219000  0.26115000  1.0
  C  C61  1  0.84345000  0.28219000  0.23885000  1.0
  C  C62  1  0.34346000  0.21781000  0.73885000  1.0
  C  C63  1  0.15655000  0.71781000  0.76115000  1.0
  O  O64  1  0.26829000  0.24676000  0.07257000  1.0
  O  O65  1  0.23170000  0.74675000  0.42743000  1.0
  O  O66  1  0.73172000  0.75325000  0.92743000  1.0
  O  O67  1  0.76829000  0.25324000  0.57257000  1.0
  O  O68  1  0.12480000  0.03604000  0.05524000  1.0
  O  O69  1  0.37520000  0.53603000  0.44476000  1.0
  O  O70  1  0.87520000  0.96397000  0.94476000  1.0
  O  O71  1  0.62480000  0.46397000  0.55524000  1.0
  O  O72  1  0.47436000  0.79257000  0.06605000  1.0
  O  O73  1  0.02563000  0.29256000  0.43395000  1.0
  O  O74  1  0.52564000  0.20744000  0.93395000  1.0
  O  O75  1  0.97436000  0.70744000  0.56605000  1.0
  O  O76  1  0.66246000  0.99513000  0.13330000  1.0
  O  O77  1  0.83754000  0.49513000  0.36669000  1.0
  O  O78  1  0.33754000  0.00487000  0.86670000  1.0
  O  O79  1  0.16246000  0.50487000  0.63331000  1.0
  O  O80  1  0.72680000  0.72358000  0.19656000  1.0
  O  O81  1  0.77318000  0.22358000  0.30344000  1.0
  O  O82  1  0.27319000  0.27642000  0.80344000  1.0
  O  O83  1  0.22681000  0.77642000  0.69656000  1.0
  O  O84  1  0.70541000  0.73770000  0.32970000  1.0
  O  O85  1  0.79459000  0.23769000  0.17031000  1.0
  O  O86  1  0.29459000  0.26230000  0.67030000  1.0
  O  O87  1  0.20541000  0.76231000  0.82970000  1.0
  O  O88  1  0.16467000  0.79402000  0.14839000  1.0
  O  O89  1  0.33532000  0.29401000  0.35161000  1.0
  O  O90  1  0.83533000  0.20599000  0.85161000  1.0
  O  O91  1  0.66467000  0.70599000  0.64839000  1.0
  O  O92  1  0.20821000  0.43351000  0.93142000  1.0
  O  O93  1  0.29179000  0.93351000  0.56858000  1.0
  O  O94  1  0.79179000  0.56649000  0.06858000  1.0
  O  O95  1  0.70821000  0.06649000  0.43142000  1.0
  O  O96  1  0.83381000  0.30188000  0.01880000  1.0
  O  O97  1  0.66619000  0.80188000  0.48120000  1.0
  O  O98  1  0.16620000  0.69812000  0.98120000  1.0
  O  O99  1  0.33381000  0.19812000  0.51880000  1.0
