# generated using pymatgen
data_Zn4H12C24Br2O13
_symmetry_space_group_name_H-M   'P 1'
_cell_length_a   10.91520000
_cell_length_b   10.91920000
_cell_length_c   19.53500000
_cell_angle_alpha   92.42600000
_cell_angle_beta   96.54220000
_cell_angle_gamma   99.61970000
_symmetry_Int_Tables_number   1
_chemical_formula_structural   Zn4H12C24Br2O13
_chemical_formula_sum   'Zn4 H12 C24 Br2 O13'
_cell_volume   2276.11660817
_cell_formula_units_Z   1
loop_
 _symmetry_equiv_pos_site_id
 _symmetry_equiv_pos_as_xyz
  1  'x, y, z'
loop_
 _atom_site_type_symbol
 _atom_site_label
 _atom_site_symmetry_multiplicity
 _atom_site_fract_x
 _atom_site_fract_y
 _atom_site_fract_z
 _atom_site_occupancy
  Zn  Zn0  1  0.40620000  0.59221000  0.55944000  1.0
  Zn  Zn1  1  0.60462000  0.61532000  0.45109000  1.0
  Zn  Zn2  1  0.37000000  0.39102000  0.43219000  1.0
  Zn  Zn3  1  0.59420000  0.39759000  0.55656000  1.0
  H  H4  1  0.35299000  0.56567000  0.76532000  1.0
  H  H5  1  0.64839000  0.52138000  0.00998000  1.0
  H  H6  1  0.37111000  0.57831000  0.89327000  1.0
  H  H7  1  0.01821000  0.63177000  0.52156000  1.0
  H  H8  1  0.26876000  0.42978000  0.09269000  1.0
  H  H9  1  0.97265000  0.34730000  0.48774000  1.0
  H  H10  1  0.56012000  0.02034000  0.56387000  1.0
  H  H11  1  0.66282000  0.60522000  0.24305000  1.0
  H  H12  1  0.27693000  0.42812000  0.22068000  1.0
  H  H13  1  0.36067000  0.48841000  0.99221000  1.0
  H  H14  1  0.65745000  0.60423000  0.11572000  1.0
  H  H15  1  0.69677000  0.42046000  0.77370000  1.0
  C  C16  1  0.82763000  0.52394000  0.51237000  1.0
  C  C17  1  0.55399000  0.51402000  0.98290000  1.0
  C  C18  1  0.45559000  0.50693000  0.01978000  1.0
  C  C19  1  0.16043000  0.46273000  0.49521000  1.0
  C  C20  1  0.47076000  0.51519000  0.23960000  1.0
  C  C21  1  0.02365000  0.44194000  0.49960000  1.0
  C  C22  1  0.96544000  0.53715000  0.51356000  1.0
  C  C23  1  0.46443000  0.02993000  0.46631000  1.0
  C  C24  1  0.51814000  0.96761000  0.51578000  1.0
  C  C25  1  0.51874000  0.83140000  0.51302000  1.0
  C  C26  1  0.46656000  0.16757000  0.47680000  1.0
  C  C27  1  0.54380000  0.50585000  0.90787000  1.0
  C  C28  1  0.47609000  0.51317000  0.31599000  1.0
  C  C29  1  0.51405000  0.48798000  0.68477000  1.0
  C  C30  1  0.52340000  0.49181000  0.76156000  1.0
  C  C31  1  0.43126000  0.53554000  0.79571000  1.0
  C  C32  1  0.44164000  0.54165000  0.86716000  1.0
  C  C33  1  0.63545000  0.46339000  0.87186000  1.0
  C  C34  1  0.62566000  0.45491000  0.80020000  1.0
  C  C35  1  0.57400000  0.56418000  0.13825000  1.0
  C  C36  1  0.57755000  0.56546000  0.20949000  1.0
  C  C37  1  0.35950000  0.46638000  0.19701000  1.0
  C  C38  1  0.35562000  0.46742000  0.12572000  1.0
  C  C39  1  0.46312000  0.51388000  0.09478000  1.0
  Br  Br40  1  0.37913000  0.95073000  0.38211000  1.0
  Br  Br41  1  0.77735000  0.41129000  0.92126000  1.0
  O  O42  1  0.49429000  0.49775000  0.49986000  1.0
  O  O43  1  0.57616000  0.57092000  0.35185000  1.0
  O  O44  1  0.59219000  0.43444000  0.65582000  1.0
  O  O45  1  0.38075000  0.45334000  0.33999000  1.0
  O  O46  1  0.42817000  0.53956000  0.65401000  1.0
  O  O47  1  0.46389000  0.77301000  0.55933000  1.0
  O  O48  1  0.53043000  0.21948000  0.53240000  1.0
  O  O49  1  0.78024000  0.61447000  0.48756000  1.0
  O  O50  1  0.20026000  0.38005000  0.45956000  1.0
  O  O51  1  0.76920000  0.42621000  0.53544000  1.0
  O  O52  1  0.22633000  0.56081000  0.52683000  1.0
  O  O53  1  0.57476000  0.78702000  0.46683000  1.0
  O  O54  1  0.40613000  0.21944000  0.43036000  1.0
