# generated using pymatgen
data_Cu3H36C60(N4O9)2
_symmetry_space_group_name_H-M   'P 1'
_cell_length_a   9.81046000
_cell_length_b   12.06390000
_cell_length_c   14.19130000
_cell_angle_alpha   67.56350000
_cell_angle_beta   76.29240000
_cell_angle_gamma   70.28440000
_symmetry_Int_Tables_number   1
_chemical_formula_structural   Cu3H36C60(N4O9)2
_chemical_formula_sum   'Cu3 H36 C60 N8 O18'
_cell_volume   1450.08413229
_cell_formula_units_Z   1
loop_
 _symmetry_equiv_pos_site_id
 _symmetry_equiv_pos_as_xyz
  1  'x, y, z'
loop_
 _atom_site_type_symbol
 _atom_site_label
 _atom_site_symmetry_multiplicity
 _atom_site_fract_x
 _atom_site_fract_y
 _atom_site_fract_z
 _atom_site_occupancy
  Cu  Cu0  1  0.50000000  0.50000000  0.50000000  1.0
  Cu  Cu1  1  0.58673000  0.50356000  0.24954000  1.0
  Cu  Cu2  1  0.41327000  0.49644000  0.75047000  1.0
  H  H3  1  0.71531000  0.11404000  0.61709000  1.0
  H  H4  1  0.28470000  0.88596000  0.38291000  1.0
  H  H5  1  0.89700000  0.92031000  0.34289000  1.0
  H  H6  1  0.10300000  0.07969000  0.65710000  1.0
  H  H7  1  0.76249000  0.14059000  0.30096000  1.0
  H  H8  1  0.23751000  0.85941000  0.69904000  1.0
  H  H9  1  0.20963000  0.69356000  0.42222000  1.0
  H  H10  1  0.79037000  0.30644000  0.57777000  1.0
  H  H11  1  0.04770000  0.51502000  0.27730000  1.0
  H  H12  1  0.95229000  0.48497000  0.72270000  1.0
  H  H13  1  0.75788000  0.69321000  0.48968000  1.0
  H  H14  1  0.24212000  0.30679000  0.51032000  1.0
  H  H15  1  0.47573000  0.74048000  0.28045000  1.0
  H  H16  1  0.52427000  0.25952000  0.71955000  1.0
  H  H17  1  0.42705000  0.96457000  0.17930000  1.0
  H  H18  1  0.57295000  0.03543000  0.82070000  1.0
  H  H19  1  0.61734000  0.85673000  0.90721000  1.0
  H  H20  1  0.38266000  0.14327000  0.09280000  1.0
  H  H21  1  0.65472000  0.63844000  0.02052000  1.0
  H  H22  1  0.34528000  0.36156000  0.97948000  1.0
  H  H23  1  0.51465000  0.42594000  0.10871000  1.0
  H  H24  1  0.48535000  0.57406000  0.89129000  1.0
  H  H25  1  0.63908000  0.30794000  0.98499000  1.0
  H  H26  1  0.36092000  0.69206000  0.01501000  1.0
  H  H27  1  0.05090000  0.28969000  0.05884000  1.0
  H  H28  1  0.94910000  0.71032000  0.94116000  1.0
  H  H29  1  0.90941000  0.41688000  0.17189000  1.0
  H  H30  1  0.09060000  0.58312000  0.82810000  1.0
  H  H31  1  0.76037000  0.12572000  0.96823000  1.0
  H  H32  1  0.23963000  0.87428000  0.03177000  1.0
  H  H33  1  0.89604000  0.00117000  0.85319000  1.0
  H  H34  1  0.10397000  0.99883000  0.14681000  1.0
  H  H35  1  0.24909000  0.14356000  0.78867000  1.0
  H  H36  1  0.75091000  0.85644000  0.21133000  1.0
  H  H37  1  0.12690000  0.27928000  0.89607000  1.0
  H  H38  1  0.87309000  0.72072000  0.10393000  1.0
  C  C39  1  0.64639000  0.27909000  0.42792000  1.0
  C  C40  1  0.35360000  0.72091000  0.57209000  1.0
  C  C41  1  0.72783000  0.14323000  0.45635000  1.0
  C  C42  1  0.27217000  0.85677000  0.54365000  1.0
  C  C43  1  0.75392000  0.07192000  0.55684000  1.0
  C  C44  1  0.24608000  0.92808000  0.44316000  1.0
  C  C45  1  0.83022000  0.94506000  0.58271000  1.0
  C  C46  1  0.16978000  0.05494000  0.41729000  1.0
  C  C47  1  0.88394000  0.88695000  0.50572000  1.0
  C  C48  1  0.11606000  0.11305000  0.49428000  1.0
  C  C49  1  0.85725000  0.96079000  0.40441000  1.0
  C  C50  1  0.14275000  0.03921000  0.59559000  1.0
  C  C51  1  0.78092000  0.08558000  0.38033000  1.0
  C  C52  1  0.21908000  0.91443000  0.61967000  1.0
  C  C53  1  0.98057000  0.70474000  0.45790000  1.0
  C  C54  1  0.01943000  0.29526000  0.54210000  1.0
  C  C55  1  0.11980000  0.67096000  0.40772000  1.0
  C  C56  1  0.88020000  0.32903000  0.59228000  1.0
  C  C57  1  0.14375000  0.60211000  0.34209000  1.0
  C  C58  1  0.85625000  0.39789000  0.65791000  1.0
  C  C59  1  0.02840000  0.56932000  0.32763000  1.0
  C  C60  1  0.97160000  0.43067000  0.67238000  1.0
  C  C61  1  0.88969000  0.60213000  0.38079000  1.0
  C  C62  1  0.11030000  0.39786000  0.61921000  1.0
  C  C63  1  0.86528000  0.67040000  0.44672000  1.0
  C  C64  1  0.13472000  0.32960000  0.55328000  1.0
  C  C65  1  0.76582000  0.56213000  0.37063000  1.0
  C  C66  1  0.23417000  0.43787000  0.62937000  1.0
  C  C67  1  0.29412000  0.56048000  0.28908000  1.0
  C  C68  1  0.70588000  0.43952000  0.71092000  1.0
  C  C69  1  0.50462000  0.77149000  0.19734000  1.0
  C  C70  1  0.49539000  0.22852000  0.80266000  1.0
  C  C71  1  0.47843000  0.89704000  0.13925000  1.0
  C  C72  1  0.52156000  0.10296000  0.86075000  1.0
  C  C73  1  0.51489000  0.93354000  0.03211000  1.0
  C  C74  1  0.48511000  0.06646000  0.96789000  1.0
  C  C75  1  0.58122000  0.83771000  0.98910000  1.0
  C  C76  1  0.41878000  0.16230000  0.01090000  1.0
  C  C77  1  0.60399000  0.71415000  0.05229000  1.0
  C  C78  1  0.39601000  0.28585000  0.94771000  1.0
  C  C79  1  0.63349000  0.39509000  0.09259000  1.0
  C  C80  1  0.36651000  0.60491000  0.90741000  1.0
  C  C81  1  0.70335000  0.32734000  0.02655000  1.0
  C  C82  1  0.29665000  0.67266000  0.97345000  1.0
  C  C83  1  0.85643000  0.28792000  0.01127000  1.0
  C  C84  1  0.14357000  0.71208000  0.98873000  1.0
  C  C85  1  0.93226000  0.32100000  0.06412000  1.0
  C  C86  1  0.06774000  0.67900000  0.93588000  1.0
  C  C87  1  0.85505000  0.39098000  0.12804000  1.0
  C  C88  1  0.14495000  0.60903000  0.87196000  1.0
  C  C89  1  0.93292000  0.21263000  0.94374000  1.0
  C  C90  1  0.06708000  0.78738000  0.05626000  1.0
  C  C91  1  0.86808000  0.13400000  0.92899000  1.0
  C  C92  1  0.13192000  0.86600000  0.07101000  1.0
  C  C93  1  0.94469000  0.06276000  0.86599000  1.0
  C  C94  1  0.05531000  0.93724000  0.13401000  1.0
  C  C95  1  0.14089000  0.14076000  0.83084000  1.0
  C  C96  1  0.85911000  0.85925000  0.16916000  1.0
  C  C97  1  0.07300000  0.21587000  0.89215000  1.0
  C  C98  1  0.92700000  0.78413000  0.10785000  1.0
  N  N99  1  0.84718000  0.87627000  0.69020000  1.0
  N  N100  1  0.15282000  0.12373000  0.30980000  1.0
  N  N101  1  0.56509000  0.68081000  0.15461000  1.0
  N  N102  1  0.43491000  0.31919000  0.84539000  1.0
  N  N103  1  0.70844000  0.42722000  0.14173000  1.0
  N  N104  1  0.29156000  0.57278000  0.85827000  1.0
  N  N105  1  0.07986000  0.06445000  0.81768000  1.0
  N  N106  1  0.92015000  0.93555000  0.18232000  1.0
  O  O107  1  0.62664000  0.33216000  0.49407000  1.0
  O  O108  1  0.37336000  0.66784000  0.50593000  1.0
  O  O109  1  0.60546000  0.32796000  0.33874000  1.0
  O  O110  1  0.39454000  0.67204000  0.66126000  1.0
  O  O111  1  0.78029000  0.93105000  0.75447000  1.0
  O  O112  1  0.21971000  0.06895000  0.24553000  1.0
  O  O113  1  0.92521000  0.76732000  0.71517000  1.0
  O  O114  1  0.07479000  0.23267000  0.28483000  1.0
  O  O115  1  0.95878000  0.76504000  0.53013000  1.0
  O  O116  1  0.04122000  0.23496000  0.46987000  1.0
  O  O117  1  0.65152000  0.58358000  0.43489000  1.0
  O  O118  1  0.34847000  0.41642000  0.56511000  1.0
  O  O119  1  0.78039000  0.51491000  0.30228000  1.0
  O  O120  1  0.21960000  0.48509000  0.69772000  1.0
  O  O121  1  0.39969000  0.56381000  0.32862000  1.0
  O  O122  1  0.60031000  0.43619000  0.67138000  1.0
  O  O123  1  0.31277000  0.52663000  0.21286000  1.0
  O  O124  1  0.68723000  0.47336000  0.78714000  1.0
