# generated using pymatgen
data_CuMoAsH8C12N2O6F
_symmetry_space_group_name_H-M   'P 1'
_cell_length_a   8.52523000
_cell_length_b   8.56974000
_cell_length_c   11.11840000
_cell_angle_alpha   68.93780000
_cell_angle_beta   89.35190000
_cell_angle_gamma   68.33470000
_symmetry_Int_Tables_number   1
_chemical_formula_structural   CuMoAsH8C12N2O6F
_chemical_formula_sum   'Cu2 Mo2 As2 H16 C24 N4 O12 F2'
_cell_volume   697.54792941
_cell_formula_units_Z   2
loop_
 _symmetry_equiv_pos_site_id
 _symmetry_equiv_pos_as_xyz
  1  'x, y, z'
loop_
 _atom_site_type_symbol
 _atom_site_label
 _atom_site_symmetry_multiplicity
 _atom_site_fract_x
 _atom_site_fract_y
 _atom_site_fract_z
 _atom_site_occupancy
  Cu  Cu0  1  0.91019000  0.47218000  0.78636000  1.0
  Cu  Cu1  1  0.08981000  0.52782000  0.21364000  1.0
  Mo  Mo2  1  0.51848000  0.27128000  0.09224000  1.0
  Mo  Mo3  1  0.48152000  0.72872000  0.90776000  1.0
  As  As4  1  0.14973000  0.59953000  0.91353000  1.0
  As  As5  1  0.85027000  0.40048000  0.08647000  1.0
  H  H6  1  0.87138000  0.10936000  0.94454000  1.0
  H  H7  1  0.12862000  0.89065000  0.05546000  1.0
  H  H8  1  0.76301000  0.91036000  0.88235000  1.0
  H  H9  1  0.23700000  0.08963000  0.11766000  1.0
  H  H10  1  0.65502000  0.00022000  0.64977000  1.0
  H  H11  1  0.34499000  0.99978000  0.35023000  1.0
  H  H12  1  0.59543000  0.23974000  0.41079000  1.0
  H  H13  1  0.40458000  0.76026000  0.58921000  1.0
  H  H14  1  0.60181000  0.52791000  0.26077000  1.0
  H  H15  1  0.39819000  0.47209000  0.73923000  1.0
  H  H16  1  0.68759000  0.80083000  0.22254000  1.0
  H  H17  1  0.31241000  0.19917000  0.77746000  1.0
  H  H18  1  0.80927000  0.95850000  0.32177000  1.0
  H  H19  1  0.19073000  0.04151000  0.67823000  1.0
  H  H20  1  0.90937000  0.81891000  0.56399000  1.0
  H  H21  1  0.09063000  0.18109000  0.43600000  1.0
  C  C22  1  0.82653000  0.14285000  0.84372000  1.0
  C  C23  1  0.17347000  0.85715000  0.15628000  1.0
  C  C24  1  0.76416000  0.03330000  0.80718000  1.0
  C  C25  1  0.23585000  0.96669000  0.19282000  1.0
  C  C26  1  0.70597000  0.08369000  0.67773000  1.0
  C  C27  1  0.29404000  0.91630000  0.32227000  1.0
  C  C28  1  0.70921000  0.24530000  0.58369000  1.0
  C  C29  1  0.29079000  0.75470000  0.41631000  1.0
  C  C30  1  0.64803000  0.31513000  0.44748000  1.0
  C  C31  1  0.35197000  0.68488000  0.55252000  1.0
  C  C32  1  0.65205000  0.47548000  0.36339000  1.0
  C  C33  1  0.34795000  0.52451000  0.63661000  1.0
  C  C34  1  0.71959000  0.57879000  0.40761000  1.0
  C  C35  1  0.28041000  0.42120000  0.59239000  1.0
  C  C36  1  0.77364000  0.34689000  0.62957000  1.0
  C  C37  1  0.22636000  0.65311000  0.37043000  1.0
  C  C38  1  0.77906000  0.51311000  0.54163000  1.0
  C  C39  1  0.22094000  0.48689000  0.45837000  1.0
  C  C40  1  0.73153000  0.74321000  0.32690000  1.0
  C  C41  1  0.26847000  0.25679000  0.67310000  1.0
  C  C42  1  0.79832000  0.83158000  0.38166000  1.0
  C  C43  1  0.20168000  0.16842000  0.61834000  1.0
  C  C44  1  0.85353000  0.75673000  0.51622000  1.0
  C  C45  1  0.14647000  0.24327000  0.48378000  1.0
  N  N46  1  0.83136000  0.29515000  0.75673000  1.0
  N  N47  1  0.16864000  0.70485000  0.24327000  1.0
  N  N48  1  0.84359000  0.60153000  0.59358000  1.0
  N  N49  1  0.15641000  0.39847000  0.40642000  1.0
  O  O50  1  0.44860000  0.21537000  0.24179000  1.0
  O  O51  1  0.55140000  0.78463000  0.75821000  1.0
  O  O52  1  0.59725000  0.07382000  0.06596000  1.0
  O  O53  1  0.40274000  0.92618000  0.93404000  1.0
  O  O54  1  0.29940000  0.37533000  0.97802000  1.0
  O  O55  1  0.70060000  0.62468000  0.02198000  1.0
  O  O56  1  0.02140000  0.63252000  0.78300000  1.0
  O  O57  1  0.97859000  0.36748000  0.21700000  1.0
  O  O58  1  0.03644000  0.66238000  0.02744000  1.0
  O  O59  1  0.96357000  0.33762000  0.97257000  1.0
  O  O60  1  0.25955000  0.73922000  0.84370000  1.0
  O  O61  1  0.74045000  0.26078000  0.15630000  1.0
  F  F62  1  0.57515000  0.44289000  0.91682000  1.0
  F  F63  1  0.42485000  0.55711000  0.08318000  1.0
