# generated using pymatgen
data_Zr3H20C42(Cl3O8)2
_symmetry_space_group_name_H-M   'P 1'
_cell_length_a   19.25020000
_cell_length_b   19.25020000
_cell_length_c   19.25020000
_cell_angle_alpha   59.99990000
_cell_angle_beta   90.00008660
_cell_angle_gamma   120.00000000
_symmetry_Int_Tables_number   1
_chemical_formula_structural   Zr3H20C42(Cl3O8)2
_chemical_formula_sum   'Zr6 H40 C84 Cl12 O32'
_cell_volume   5044.17809545
_cell_formula_units_Z   2
loop_
 _symmetry_equiv_pos_site_id
 _symmetry_equiv_pos_as_xyz
  1  'x, y, z'
loop_
 _atom_site_type_symbol
 _atom_site_label
 _atom_site_symmetry_multiplicity
 _atom_site_fract_x
 _atom_site_fract_y
 _atom_site_fract_z
 _atom_site_occupancy
  Zr  Zr0  1  0.90813000  0.50000000  0.40813000  1.0
  Zr  Zr1  1  0.09187000  0.50000000  0.59187000  1.0
  Zr  Zr2  1  0.09187000  0.68374000  0.40813000  1.0
  Zr  Zr3  1  0.90813000  0.31626000  0.59187000  1.0
  Zr  Zr4  1  0.09186000  0.50000000  0.40814000  1.0
  Zr  Zr5  1  0.90814000  0.50000000  0.59186000  1.0
  H  H6  1  0.07226000  0.64453000  0.28320000  1.0
  H  H7  1  0.07227000  0.35547000  0.57226000  1.0
  H  H8  1  0.07226000  0.64453000  0.57227000  1.0
  H  H9  1  0.78319000  0.35546000  0.57227000  1.0
  H  H10  1  0.11083000  0.49796000  0.82010000  1.0
  H  H11  1  0.88712000  0.49796000  0.18194000  1.0
  H  H12  1  0.10974000  0.49823000  0.17929000  1.0
  H  H13  1  0.10865000  0.50093000  0.05239000  1.0
  H  H14  1  0.88850000  0.49823000  0.82248000  1.0
  H  H15  1  0.89228000  0.50093000  0.94668000  1.0
  H  H16  1  0.32009000  0.50203000  0.61084000  1.0
  H  H17  1  0.68193000  0.50203000  0.38713000  1.0
  H  H18  1  0.67929000  0.50177000  0.60973000  1.0
  H  H19  1  0.55239000  0.49907000  0.60865000  1.0
  H  H20  1  0.32249000  0.50178000  0.38849000  1.0
  H  H21  1  0.44669000  0.49908000  0.39227000  1.0
  H  H22  1  0.88713000  0.70723000  0.61083000  1.0
  H  H23  1  0.11083000  0.29277000  0.38713000  1.0
  H  H24  1  0.88849000  0.06778000  0.60973000  1.0
  H  H25  1  0.89227000  0.94466000  0.60865000  1.0
  H  H26  1  0.10973000  0.93222000  0.38849000  1.0
  H  H27  1  0.10865000  0.05534000  0.39227000  1.0
  H  H28  1  0.32009000  0.70722000  0.18194000  1.0
  H  H29  1  0.68194000  0.29277000  0.82010000  1.0
  H  H30  1  0.67929000  0.06778000  0.82248000  1.0
  H  H31  1  0.55239000  0.94466000  0.94668000  1.0
  H  H32  1  0.32248000  0.93221000  0.17929000  1.0
  H  H33  1  0.44667000  0.05533000  0.05239000  1.0
  H  H34  1  0.88713000  0.06907000  0.82009000  1.0
  H  H35  1  0.11083000  0.93093000  0.18194000  1.0
  H  H36  1  0.88850000  0.71098000  0.17929000  1.0
  H  H37  1  0.89227000  0.83895000  0.05239000  1.0
  H  H38  1  0.10974000  0.28903000  0.82248000  1.0
  H  H39  1  0.10865000  0.16104000  0.94668000  1.0
  H  H40  1  0.32010000  0.93094000  0.38712000  1.0
  H  H41  1  0.68193000  0.06906000  0.61084000  1.0
  H  H42  1  0.67929000  0.28903000  0.38849000  1.0
  H  H43  1  0.55239000  0.16105000  0.39227000  1.0
  H  H44  1  0.32249000  0.71098000  0.60973000  1.0
  H  H45  1  0.44668000  0.83896000  0.60865000  1.0
  C  C46  1  0.99716000  0.49591000  0.26861000  1.0
  C  C47  1  0.23548000  0.50409000  0.49874000  1.0
  C  C48  1  0.99875000  0.49592000  0.73547000  1.0
  C  C49  1  0.76861000  0.50409000  0.49717000  1.0
  C  C50  1  0.99874000  0.73422000  0.26861000  1.0
  C  C51  1  0.76861000  0.26578000  0.49874000  1.0
  C  C52  1  0.99717000  0.26578000  0.73548000  1.0
  C  C53  1  0.23549000  0.73423000  0.49716000  1.0
  C  C54  1  0.23547000  0.73264000  0.26861000  1.0
  C  C55  1  0.99717000  0.73265000  0.49874000  1.0
  C  C56  1  0.76861000  0.26735000  0.73548000  1.0
  C  C57  1  0.99874000  0.26735000  0.49717000  1.0
  C  C58  1  0.99941000  0.49722000  0.81221000  1.0
  C  C59  1  0.99780000  0.49721000  0.19057000  1.0
  C  C60  1  0.06224000  0.49831000  0.84848000  1.0
  C  C61  1  0.06485000  0.49987000  0.92019000  1.0
  C  C62  1  0.93607000  0.49831000  0.15321000  1.0
  C  C63  1  0.93501000  0.49987000  0.07994000  1.0
  C  C64  1  0.06020000  0.49849000  0.15209000  1.0
  C  C65  1  0.05885000  0.50008000  0.07940000  1.0
  C  C66  1  0.93830000  0.49850000  0.84941000  1.0
  C  C67  1  0.94123000  0.50008000  0.92052000  1.0
  C  C68  1  0.00286000  0.50039000  0.96096000  1.0
  C  C69  1  0.99752000  0.50038000  0.03865000  1.0
  C  C70  1  0.31221000  0.50278000  0.49941000  1.0
  C  C71  1  0.69057000  0.50278000  0.49781000  1.0
  C  C72  1  0.34847000  0.50168000  0.56224000  1.0
  C  C73  1  0.42019000  0.50012000  0.56486000  1.0
  C  C74  1  0.65321000  0.50169000  0.43607000  1.0
  C  C75  1  0.57993000  0.50012000  0.43502000  1.0
  C  C76  1  0.65208000  0.50150000  0.56020000  1.0
  C  C77  1  0.57939000  0.49992000  0.55885000  1.0
  C  C78  1  0.34941000  0.50150000  0.43830000  1.0
  C  C79  1  0.42052000  0.49992000  0.44123000  1.0
  C  C80  1  0.46095000  0.49960000  0.50286000  1.0
  C  C81  1  0.53865000  0.49961000  0.49753000  1.0
  C  C82  1  0.99780000  0.81002000  0.49941000  1.0
  C  C83  1  0.99941000  0.18998000  0.49780000  1.0
  C  C84  1  0.93607000  0.78455000  0.56224000  1.0
  C  C85  1  0.93502000  0.85521000  0.56486000  1.0
  C  C86  1  0.06224000  0.21545000  0.43607000  1.0
  C  C87  1  0.06485000  0.14479000  0.43502000  1.0
  C  C88  1  0.93829000  0.09038000  0.56020000  1.0
  C  C89  1  0.94122000  0.02062000  0.55885000  1.0
  C  C90  1  0.06020000  0.90962000  0.43829000  1.0
  C  C91  1  0.05886000  0.97938000  0.44122000  1.0
  C  C92  1  0.99753000  0.95850000  0.50285000  1.0
  C  C93  1  0.00285000  0.04150000  0.49753000  1.0
  C  C94  1  0.31220000  0.81001000  0.19057000  1.0
  C  C95  1  0.69057000  0.18998000  0.81221000  1.0
  C  C96  1  0.34848000  0.78455000  0.15321000  1.0
  C  C97  1  0.42018000  0.85520000  0.07994000  1.0
  C  C98  1  0.65320000  0.21544000  0.84848000  1.0
  C  C99  1  0.57993000  0.14479000  0.92019000  1.0
  C  C100  1  0.65209000  0.09038000  0.84942000  1.0
  C  C101  1  0.57940000  0.02063000  0.92052000  1.0
  C  C102  1  0.34941000  0.90961000  0.15209000  1.0
  C  C103  1  0.42052000  0.97937000  0.07940000  1.0
  C  C104  1  0.46096000  0.95849000  0.03865000  1.0
  C  C105  1  0.53866000  0.04151000  0.96096000  1.0
  C  C106  1  0.99781000  0.18838000  0.81221000  1.0
  C  C107  1  0.99941000  0.81163000  0.19056000  1.0
  C  C108  1  0.93607000  0.08928000  0.84848000  1.0
  C  C109  1  0.93501000  0.01495000  0.92019000  1.0
  C  C110  1  0.06223000  0.91071000  0.15321000  1.0
  C  C111  1  0.06486000  0.98505000  0.07993000  1.0
  C  C112  1  0.93829000  0.78771000  0.15209000  1.0
  C  C113  1  0.94122000  0.86175000  0.07940000  1.0
  C  C114  1  0.06021000  0.21230000  0.84941000  1.0
  C  C115  1  0.05885000  0.13825000  0.92052000  1.0
  C  C116  1  0.99753000  0.03618000  0.96096000  1.0
  C  C117  1  0.00285000  0.96382000  0.03865000  1.0
  C  C118  1  0.31222000  0.81163000  0.49780000  1.0
  C  C119  1  0.69056000  0.18837000  0.49941000  1.0
  C  C120  1  0.34848000  0.91072000  0.43607000  1.0
  C  C121  1  0.42019000  0.98505000  0.43501000  1.0
  C  C122  1  0.65320000  0.08928000  0.56224000  1.0
  C  C123  1  0.57993000  0.01495000  0.56486000  1.0
  C  C124  1  0.65209000  0.21229000  0.43829000  1.0
  C  C125  1  0.57939000  0.13824000  0.44123000  1.0
  C  C126  1  0.34942000  0.78771000  0.56020000  1.0
  C  C127  1  0.42052000  0.86175000  0.55885000  1.0
  C  C128  1  0.46096000  0.96382000  0.49753000  1.0
  C  C129  1  0.53865000  0.03618000  0.50285000  1.0
  Cl  Cl130  1  0.15157000  0.50110000  0.94931000  1.0
  Cl  Cl131  1  0.84953000  0.50110000  0.04959000  1.0
  Cl  Cl132  1  0.44930000  0.49889000  0.65157000  1.0
  Cl  Cl133  1  0.54960000  0.49890000  0.34953000  1.0
  Cl  Cl134  1  0.84954000  0.79884000  0.65157000  1.0
  Cl  Cl135  1  0.15158000  0.20117000  0.34953000  1.0
  Cl  Cl136  1  0.44930000  0.79883000  0.04960000  1.0
  Cl  Cl137  1  0.54959000  0.20116000  0.94930000  1.0
  Cl  Cl138  1  0.84954000  0.89913000  0.94930000  1.0
  Cl  Cl139  1  0.15156000  0.10087000  0.04959000  1.0
  Cl  Cl140  1  0.44931000  0.10088000  0.34953000  1.0
  Cl  Cl141  1  0.54958000  0.89912000  0.65157000  1.0
  O  O142  1  0.93838000  0.49648000  0.29875000  1.0
  O  O143  1  0.20477000  0.50352000  0.55810000  1.0
  O  O144  1  0.05811000  0.49648000  0.70477000  1.0
  O  O145  1  0.79876000  0.50353000  0.43837000  1.0
  O  O146  1  0.05810000  0.76288000  0.29875000  1.0
  O  O147  1  0.79875000  0.23712000  0.55810000  1.0
  O  O148  1  0.93837000  0.23712000  0.70478000  1.0
  O  O149  1  0.20478000  0.76288000  0.43837000  1.0
  O  O150  1  0.20477000  0.64315000  0.29875000  1.0
  O  O151  1  0.93837000  0.64315000  0.55810000  1.0
  O  O152  1  0.79874000  0.35684000  0.70478000  1.0
  O  O153  1  0.05810000  0.35685000  0.43837000  1.0
  O  O154  1  0.05627000  0.76165000  0.43957000  1.0
  O  O155  1  0.79877000  0.23835000  0.70538000  1.0
  O  O156  1  0.93958000  0.23836000  0.55626000  1.0
  O  O157  1  0.20538000  0.76164000  0.29878000  1.0
  O  O158  1  0.93958000  0.64496000  0.29878000  1.0
  O  O159  1  0.20538000  0.64495000  0.55626000  1.0
  O  O160  1  0.05625000  0.35504000  0.70538000  1.0
  O  O161  1  0.79878000  0.35504000  0.43958000  1.0
  O  O162  1  0.79878000  0.50416000  0.55626000  1.0
  O  O163  1  0.05626000  0.49584000  0.29878000  1.0
  O  O164  1  0.20538000  0.50416000  0.43958000  1.0
  O  O165  1  0.93958000  0.49584000  0.70538000  1.0
  O  O166  1  0.84487000  0.39658000  0.55171000  1.0
  O  O167  1  0.05171000  0.60342000  0.55171000  1.0
  O  O168  1  0.05171000  0.39658000  0.55171000  1.0
  O  O169  1  0.05171000  0.60342000  0.34487000  1.0
  O  O170  1  0.11459000  0.57639000  0.46180000  1.0
  O  O171  1  0.96181000  0.42361000  0.46180000  1.0
  O  O172  1  0.96180000  0.42361000  0.61459000  1.0
  O  O173  1  0.96181000  0.57640000  0.46180000  1.0
