# generated using pymatgen
data_CuH3C5(SN)2
_symmetry_space_group_name_H-M   'P 1'
_cell_length_a   6.91565000
_cell_length_b   6.91650000
_cell_length_c   15.07430000
_cell_angle_alpha   90.47200000
_cell_angle_beta   89.41750000
_cell_angle_gamma   89.68770000
_symmetry_Int_Tables_number   1
_chemical_formula_structural   CuH3C5(SN)2
_chemical_formula_sum   'Cu4 H12 C20 S8 N8'
_cell_volume   720.96255242
_cell_formula_units_Z   4
loop_
 _symmetry_equiv_pos_site_id
 _symmetry_equiv_pos_as_xyz
  1  'x, y, z'
loop_
 _atom_site_type_symbol
 _atom_site_label
 _atom_site_symmetry_multiplicity
 _atom_site_fract_x
 _atom_site_fract_y
 _atom_site_fract_z
 _atom_site_occupancy
  Cu  Cu0  1  0.49723000  0.49860000  0.50103000  1.0
  Cu  Cu1  1  0.00136000  0.00280000  0.00100000  1.0
  Cu  Cu2  1  0.99966000  0.50036000  0.23452000  1.0
  Cu  Cu3  1  0.99827000  0.50205000  0.73456000  1.0
  H  H4  1  0.68503000  0.49600000  0.08507000  1.0
  H  H5  1  0.31751000  0.50994000  0.91712000  1.0
  H  H6  1  0.31960000  0.49530000  0.08570000  1.0
  H  H7  1  0.68600000  0.50966000  0.91441000  1.0
  H  H8  1  0.99078000  0.81140000  0.41424000  1.0
  H  H9  1  0.00417000  0.18287000  0.58574000  1.0
  H  H10  1  0.99069000  0.17982000  0.41713000  1.0
  H  H11  1  0.00355000  0.81750000  0.58501000  1.0
  H  H12  1  0.51384000  0.98979000  0.13858000  1.0
  H  H13  1  0.48933000  0.00693000  0.86062000  1.0
  H  H14  1  0.49017000  0.00317000  0.36056000  1.0
  H  H15  1  0.51208000  0.99476000  0.63861000  1.0
  C  C16  1  0.60110000  0.49647000  0.14652000  1.0
  C  C17  1  0.40069000  0.50657000  0.85542000  1.0
  C  C18  1  0.40144000  0.49606000  0.14691000  1.0
  C  C19  1  0.60099000  0.50662000  0.85406000  1.0
  C  C20  1  0.99436000  0.89678000  0.35394000  1.0
  C  C21  1  0.00293000  0.10061000  0.64694000  1.0
  C  C22  1  0.99449000  0.09709000  0.35539000  1.0
  C  C23  1  0.00250000  0.90100000  0.64649000  1.0
  C  C24  1  0.00086000  0.89709000  0.20101000  1.0
  C  C25  1  0.00097000  0.10613000  0.80019000  1.0
  C  C26  1  0.00124000  0.10180000  0.20268000  1.0
  C  C27  1  0.99987000  0.89889000  0.79964000  1.0
  C  C28  1  0.39519000  0.49702000  0.30014000  1.0
  C  C29  1  0.60166000  0.50115000  0.70114000  1.0
  C  C30  1  0.60247000  0.49795000  0.29971000  1.0
  C  C31  1  0.39694000  0.50077000  0.70269000  1.0
  C  C32  1  0.49805000  0.99875000  0.28964000  1.0
  C  C33  1  0.50476000  0.99856000  0.70957000  1.0
  C  C34  1  0.50638000  0.99404000  0.20955000  1.0
  C  C35  1  0.49714000  0.00275000  0.78969000  1.0
  S  S36  1  0.00322000  0.77044000  0.10176000  1.0
  S  S37  1  0.00097000  0.23177000  0.89953000  1.0
  S  S38  1  0.00443000  0.23241000  0.10530000  1.0
  S  S39  1  0.99706000  0.77382000  0.89802000  1.0
  S  S40  1  0.72687000  0.50032000  0.39810000  1.0
  S  S41  1  0.26696000  0.49763000  0.60524000  1.0
  S  S42  1  0.26883000  0.49701000  0.39947000  1.0
  S  S43  1  0.72897000  0.49903000  0.60194000  1.0
  N  N44  1  0.29779000  0.49638000  0.22352000  1.0
  N  N45  1  0.70080000  0.50359000  0.77681000  1.0
  N  N46  1  0.70222000  0.49744000  0.22284000  1.0
  N  N47  1  0.29920000  0.50321000  0.77963000  1.0
  N  N48  1  0.99844000  0.19901000  0.27965000  1.0
  N  N49  1  0.00088000  0.79948000  0.72276000  1.0
  N  N50  1  0.99797000  0.79750000  0.27665000  1.0
  N  N51  1  0.00207000  0.20388000  0.72358000  1.0
