# generated using pymatgen
data_AgH11C8NCl
_symmetry_space_group_name_H-M   'P 1'
_cell_length_a   4.06786000
_cell_length_b   13.98610000
_cell_length_c   15.28160000
_cell_angle_alpha   89.99970000
_cell_angle_beta   89.99940000
_cell_angle_gamma   85.78470000
_symmetry_Int_Tables_number   1
_chemical_formula_structural   AgH11C8NCl
_chemical_formula_sum   'Ag4 H44 C32 N4 Cl4'
_cell_volume   867.07176838
_cell_formula_units_Z   4
loop_
 _symmetry_equiv_pos_site_id
 _symmetry_equiv_pos_as_xyz
  1  'x, y, z'
loop_
 _atom_site_type_symbol
 _atom_site_label
 _atom_site_symmetry_multiplicity
 _atom_site_fract_x
 _atom_site_fract_y
 _atom_site_fract_z
 _atom_site_occupancy
  Ag  Ag0  1  0.32230000  0.98289000  0.08914000  1.0
  Ag  Ag1  1  0.67768000  0.51711000  0.58913000  1.0
  Ag  Ag2  1  0.67767000  0.01711000  0.91087000  1.0
  Ag  Ag3  1  0.32233000  0.48289000  0.41086000  1.0
  H  H4  1  0.26766000  0.85017000  0.25492000  1.0
  H  H5  1  0.73239000  0.64983000  0.75491000  1.0
  H  H6  1  0.73232000  0.14983000  0.74508000  1.0
  H  H7  1  0.26766000  0.35017000  0.24508000  1.0
  H  H8  1  0.95253000  0.87864000  0.33360000  1.0
  H  H9  1  0.04751000  0.62136000  0.83359000  1.0
  H  H10  1  0.04744000  0.12137000  0.66640000  1.0
  H  H11  1  0.95254000  0.37864000  0.16640000  1.0
  H  H12  1  0.89717000  0.91331000  0.22153000  1.0
  H  H13  1  0.10285000  0.58668000  0.72152000  1.0
  H  H14  1  0.10281000  0.08670000  0.77847000  1.0
  H  H15  1  0.89718000  0.41331000  0.27847000  1.0
  H  H16  1  0.13257000  0.99400000  0.43282000  1.0
  H  H17  1  0.86747000  0.50600000  0.93281000  1.0
  H  H18  1  0.86743000  0.00600000  0.56718000  1.0
  H  H19  1  0.13258000  0.49400000  0.06718000  1.0
  H  H20  1  0.64078000  0.18082000  0.50131000  1.0
  H  H21  1  0.35923000  0.31918000  0.00130000  1.0
  H  H22  1  0.35925000  0.81918000  0.49870000  1.0
  H  H23  1  0.64078000  0.68083000  0.99869000  1.0
  H  H24  1  0.23034000  0.22827000  0.49020000  1.0
  H  H25  1  0.76967000  0.27173000  0.99019000  1.0
  H  H26  1  0.76966000  0.77173000  0.50981000  1.0
  H  H27  1  0.23033000  0.72827000  0.00981000  1.0
  H  H28  1  0.31384000  0.11080000  0.53540000  1.0
  H  H29  1  0.68616000  0.38920000  0.03540000  1.0
  H  H30  1  0.68616000  0.88920000  0.46460000  1.0
  H  H31  1  0.31383000  0.61080000  0.96459000  1.0
  H  H32  1  0.61917000  0.23460000  0.33396000  1.0
  H  H33  1  0.38081000  0.26540000  0.83396000  1.0
  H  H34  1  0.38081000  0.76540000  0.66605000  1.0
  H  H35  1  0.61916000  0.73460000  0.16604000  1.0
  H  H36  1  0.41795000  0.19853000  0.11600000  1.0
  H  H37  1  0.58203000  0.30147000  0.61599000  1.0
  H  H38  1  0.58204000  0.80147000  0.88401000  1.0
  H  H39  1  0.41795000  0.69853000  0.38400000  1.0
  H  H40  1  0.74455000  0.24010000  0.18104000  1.0
  H  H41  1  0.25544000  0.25990000  0.68104000  1.0
  H  H42  1  0.25543000  0.75990000  0.81896000  1.0
  H  H43  1  0.74454000  0.74010000  0.31896000  1.0
  H  H44  1  0.79195000  0.12765000  0.12608000  1.0
  H  H45  1  0.20805000  0.37235000  0.62608000  1.0
  H  H46  1  0.20804000  0.87235000  0.87392000  1.0
  H  H47  1  0.79194000  0.62765000  0.37392000  1.0
  C  C48  1  0.22184000  0.99789000  0.29438000  1.0
  C  C49  1  0.77818000  0.50210000  0.79437000  1.0
  C  C50  1  0.77815000  0.00211000  0.70562000  1.0
  C  C51  1  0.22184000  0.49790000  0.20562000  1.0
  C  C52  1  0.07557000  0.90499000  0.27555000  1.0
  C  C53  1  0.92446000  0.59500000  0.77553000  1.0
  C  C54  1  0.92441000  0.09500000  0.72446000  1.0
  C  C55  1  0.07558000  0.40499000  0.22446000  1.0
  C  C56  1  0.23468000  0.03402000  0.37935000  1.0
  C  C57  1  0.76534000  0.46598000  0.87935000  1.0
  C  C58  1  0.76532000  0.96598000  0.62065000  1.0
  C  C59  1  0.23469000  0.53403000  0.12065000  1.0
  C  C60  1  0.37561000  0.12028000  0.39579000  1.0
  C  C61  1  0.62439000  0.37972000  0.89579000  1.0
  C  C62  1  0.62440000  0.87972000  0.60422000  1.0
  C  C63  1  0.37561000  0.62028000  0.10421000  1.0
  C  C64  1  0.39047000  0.16140000  0.48590000  1.0
  C  C65  1  0.60954000  0.33860000  0.98589000  1.0
  C  C66  1  0.60954000  0.83860000  0.51411000  1.0
  C  C67  1  0.39047000  0.66140000  0.01410000  1.0
  C  C68  1  0.50201000  0.16770000  0.32400000  1.0
  C  C69  1  0.49799000  0.33230000  0.82400000  1.0
  C  C70  1  0.49798000  0.83230000  0.67600000  1.0
  C  C71  1  0.50200000  0.66770000  0.17599000  1.0
  C  C72  1  0.48442000  0.12875000  0.24028000  1.0
  C  C73  1  0.51558000  0.37125000  0.74027000  1.0
  C  C74  1  0.51557000  0.87125000  0.75973000  1.0
  C  C75  1  0.48442000  0.62875000  0.25972000  1.0
  C  C76  1  0.61730000  0.17697000  0.16209000  1.0
  C  C77  1  0.38268000  0.32302000  0.66209000  1.0
  C  C78  1  0.38268000  0.82303000  0.83792000  1.0
  C  C79  1  0.61730000  0.67698000  0.33791000  1.0
  N  N80  1  0.34502000  0.04497000  0.22600000  1.0
  N  N81  1  0.65497000  0.45503000  0.72599000  1.0
  N  N82  1  0.65496000  0.95504000  0.77400000  1.0
  N  N83  1  0.34504000  0.54496000  0.27400000  1.0
  Cl  Cl84  1  0.84580000  0.88144000  0.03827000  1.0
  Cl  Cl85  1  0.15420000  0.61856000  0.53827000  1.0
  Cl  Cl86  1  0.15417000  0.11856000  0.96173000  1.0
  Cl  Cl87  1  0.84582000  0.38144000  0.46173000  1.0
