# generated using pymatgen
data_CuH10Au(C3N)4
_symmetry_space_group_name_H-M   'P 1'
_cell_length_a   7.70870000
_cell_length_b   12.54060000
_cell_length_c   13.87740000
_cell_angle_alpha   90.00000000
_cell_angle_beta   90.52790000
_cell_angle_gamma   90.00000000
_symmetry_Int_Tables_number   1
_chemical_formula_structural   CuH10Au(C3N)4
_chemical_formula_sum   'Cu4 H40 Au4 C48 N16'
_cell_volume   1341.49522983
_cell_formula_units_Z   4
loop_
 _symmetry_equiv_pos_site_id
 _symmetry_equiv_pos_as_xyz
  1  'x, y, z'
loop_
 _atom_site_type_symbol
 _atom_site_label
 _atom_site_symmetry_multiplicity
 _atom_site_fract_x
 _atom_site_fract_y
 _atom_site_fract_z
 _atom_site_occupancy
  Cu  Cu0  1  0.32073000  0.82350000  0.30973000  1.0
  Cu  Cu1  1  0.17928000  0.32350000  0.19027000  1.0
  Cu  Cu2  1  0.67928000  0.17650000  0.69028000  1.0
  Cu  Cu3  1  0.82070000  0.67649000  0.80972000  1.0
  H  H4  1  0.04668000  0.89997000  0.17290000  1.0
  H  H5  1  0.45332000  0.39996000  0.32711000  1.0
  H  H6  1  0.95331000  0.10004000  0.82711000  1.0
  H  H7  1  0.54667000  0.60004000  0.67288000  1.0
  H  H8  1  0.74475000  0.85223000  0.12425000  1.0
  H  H9  1  0.75526000  0.35222000  0.37575000  1.0
  H  H10  1  0.25525000  0.14779000  0.87575000  1.0
  H  H11  1  0.24474000  0.64779000  0.62425000  1.0
  H  H12  1  0.60207000  0.69408000  0.20167000  1.0
  H  H13  1  0.89794000  0.19408000  0.29833000  1.0
  H  H14  1  0.39794000  0.30592000  0.79833000  1.0
  H  H15  1  0.10206000  0.80592000  0.70167000  1.0
  H  H16  1  0.77536000  0.58744000  0.32296000  1.0
  H  H17  1  0.72465000  0.08743000  0.17703000  1.0
  H  H18  1  0.22465000  0.41257000  0.67703000  1.0
  H  H19  1  0.27534000  0.91257000  0.82297000  1.0
  H  H20  1  0.07701000  0.64602000  0.36306000  1.0
  H  H21  1  0.42300000  0.14602000  0.13694000  1.0
  H  H22  1  0.92299000  0.35399000  0.63694000  1.0
  H  H23  1  0.57701000  0.85399000  0.86306000  1.0
  H  H24  1  0.24111000  0.05508000  0.28937000  1.0
  H  H25  1  0.25890000  0.55508000  0.21063000  1.0
  H  H26  1  0.75890000  0.94492000  0.71064000  1.0
  H  H27  1  0.74109000  0.44492000  0.78937000  1.0
  H  H28  1  0.20244000  0.21396000  0.39514000  1.0
  H  H29  1  0.29755000  0.71396000  0.10485000  1.0
  H  H30  1  0.79756000  0.78604000  0.60486000  1.0
  H  H31  1  0.70245000  0.28603000  0.89515000  1.0
  H  H32  1  0.22763000  0.19035000  0.57523000  1.0
  H  H33  1  0.27235000  0.69036000  0.92476000  1.0
  H  H34  1  0.77236000  0.80965000  0.42477000  1.0
  H  H35  1  0.72765000  0.30964000  0.07524000  1.0
  H  H36  1  0.28664000  0.00668000  0.64021000  1.0
  H  H37  1  0.21336000  0.50669000  0.85980000  1.0
  H  H38  1  0.71336000  0.99333000  0.35979000  1.0
  H  H39  1  0.78665000  0.49331000  0.14020000  1.0
  H  H40  1  0.32192000  0.85609000  0.52373000  1.0
  H  H41  1  0.17810000  0.35609000  0.97627000  1.0
  H  H42  1  0.67809000  0.14391000  0.47628000  1.0
  H  H43  1  0.82191000  0.64390000  0.02373000  1.0
  Au  Au44  1  0.49999000  0.00000000  0.00000000  1.0
  Au  Au45  1  0.99999000  0.50001000  0.49999000  1.0
  Au  Au46  1  0.49999000  0.49998000  0.50000000  1.0
  Au  Au47  1  0.99999000  0.99999000  0.00000000  1.0
  C  C48  1  0.43463000  0.92734000  0.12011000  1.0
  C  C49  1  0.06538000  0.42735000  0.37988000  1.0
  C  C50  1  0.56536000  0.07264000  0.87990000  1.0
  C  C51  1  0.93460000  0.57265000  0.62010000  1.0
  C  C52  1  0.44467000  0.62929000  0.42508000  1.0
  C  C53  1  0.05534000  0.12928000  0.07494000  1.0
  C  C54  1  0.55532000  0.37071000  0.57494000  1.0
  C  C55  1  0.94467000  0.87069000  0.92506000  1.0
  C  C56  1  0.98130000  0.83146000  0.20498000  1.0
  C  C57  1  0.51870000  0.33146000  0.29503000  1.0
  C  C58  1  0.01870000  0.16854000  0.79504000  1.0
  C  C59  1  0.48129000  0.66854000  0.70497000  1.0
  C  C60  1  0.81314000  0.80423000  0.17769000  1.0
  C  C61  1  0.68687000  0.30422000  0.32231000  1.0
  C  C62  1  0.18686000  0.19578000  0.82231000  1.0
  C  C63  1  0.31313000  0.69578000  0.67769000  1.0
  C  C64  1  0.73496000  0.71582000  0.22014000  1.0
  C  C65  1  0.76504000  0.21581000  0.27986000  1.0
  C  C66  1  0.26504000  0.28418000  0.77987000  1.0
  C  C67  1  0.23495000  0.78418000  0.72013000  1.0
  C  C68  1  0.83026000  0.65699000  0.28747000  1.0
  C  C69  1  0.66977000  0.15699000  0.21252000  1.0
  C  C70  1  0.16974000  0.34302000  0.71253000  1.0
  C  C71  1  0.33026000  0.84303000  0.78747000  1.0
  C  C72  1  0.99811000  0.68960000  0.31053000  1.0
  C  C73  1  0.50190000  0.18960000  0.18946000  1.0
  C  C74  1  0.00189000  0.31041000  0.68947000  1.0
  C  C75  1  0.49810000  0.81041000  0.81052000  1.0
  C  C76  1  0.24875000  0.04771000  0.36768000  1.0
  C  C77  1  0.25125000  0.54770000  0.13232000  1.0
  C  C78  1  0.75125000  0.95229000  0.63232000  1.0
  C  C79  1  0.74875000  0.45229000  0.86768000  1.0
  C  C80  1  0.22742000  0.13609000  0.42713000  1.0
  C  C81  1  0.27257000  0.63608000  0.07287000  1.0
  C  C82  1  0.77258000  0.86392000  0.57287000  1.0
  C  C83  1  0.72744000  0.36391000  0.92713000  1.0
  C  C84  1  0.24049000  0.12261000  0.52676000  1.0
  C  C85  1  0.25950000  0.62262000  0.97323000  1.0
  C  C86  1  0.75951000  0.87740000  0.47324000  1.0
  C  C87  1  0.74050000  0.37738000  0.02677000  1.0
  C  C88  1  0.27331000  0.02077000  0.56303000  1.0
  C  C89  1  0.22669000  0.52077000  0.93697000  1.0
  C  C90  1  0.72671000  0.97924000  0.43697000  1.0
  C  C91  1  0.77332000  0.47922000  0.06303000  1.0
  C  C92  1  0.29330000  0.93667000  0.49863000  1.0
  C  C93  1  0.20672000  0.43667000  0.00137000  1.0
  C  C94  1  0.70673000  0.06333000  0.50137000  1.0
  C  C95  1  0.79328000  0.56332000  0.99863000  1.0
  N  N96  1  0.40136000  0.88525000  0.19326000  1.0
  N  N97  1  0.09865000  0.38526000  0.30673000  1.0
  N  N98  1  0.59865000  0.11474000  0.80674000  1.0
  N  N99  1  0.90134000  0.61474000  0.69326000  1.0
  N  N100  1  0.41045000  0.70576000  0.37983000  1.0
  N  N101  1  0.08955000  0.20576000  0.12018000  1.0
  N  N102  1  0.58954000  0.29422000  0.62018000  1.0
  N  N103  1  0.91044000  0.79422000  0.87982000  1.0
  N  N104  1  0.28206000  0.94922000  0.40224000  1.0
  N  N105  1  0.21796000  0.44921000  0.09776000  1.0
  N  N106  1  0.71795000  0.05078000  0.59776000  1.0
  N  N107  1  0.78204000  0.55078000  0.90224000  1.0
  N  N108  1  0.07307000  0.77572000  0.27080000  1.0
  N  N109  1  0.42694000  0.27571000  0.22920000  1.0
  N  N110  1  0.92692000  0.22429000  0.72921000  1.0
  N  N111  1  0.57307000  0.72429000  0.77079000  1.0
