# generated using pymatgen
data_CuH8C6N2O7
_symmetry_space_group_name_H-M   'P 1'
_cell_length_a   5.88554000
_cell_length_b   10.50550000
_cell_length_c   16.33610000
_cell_angle_alpha   96.06010000
_cell_angle_beta   89.99300000
_cell_angle_gamma   89.99800000
_symmetry_Int_Tables_number   1
_chemical_formula_structural   CuH8C6N2O7
_chemical_formula_sum   'Cu4 H32 C24 N8 O28'
_cell_volume   1004.42531385
_cell_formula_units_Z   4
loop_
 _symmetry_equiv_pos_site_id
 _symmetry_equiv_pos_as_xyz
  1  'x, y, z'
loop_
 _atom_site_type_symbol
 _atom_site_label
 _atom_site_symmetry_multiplicity
 _atom_site_fract_x
 _atom_site_fract_y
 _atom_site_fract_z
 _atom_site_occupancy
  Cu  Cu0  1  0.13016000  0.10253000  0.63871000  1.0
  Cu  Cu1  1  0.63004000  0.89749000  0.86129000  1.0
  Cu  Cu2  1  0.86997000  0.89755000  0.36129000  1.0
  Cu  Cu3  1  0.37013000  0.10244000  0.13869000  1.0
  H  H4  1  0.41288000  0.56624000  0.60417000  1.0
  H  H5  1  0.91291000  0.43372000  0.89583000  1.0
  H  H6  1  0.58708000  0.43377000  0.39580000  1.0
  H  H7  1  0.08705000  0.56627000  0.10421000  1.0
  H  H8  1  0.34595000  0.68487000  0.53774000  1.0
  H  H9  1  0.84584000  0.31512000  0.96226000  1.0
  H  H10  1  0.65404000  0.31515000  0.46222000  1.0
  H  H11  1  0.15414000  0.68487000  0.03778000  1.0
  H  H12  1  0.74602000  0.69208000  0.65937000  1.0
  H  H13  1  0.24596000  0.30775000  0.84062000  1.0
  H  H14  1  0.25398000  0.30791000  0.34059000  1.0
  H  H15  1  0.75400000  0.69224000  0.15942000  1.0
  H  H16  1  0.66666667  0.82327000  0.60315000  1.0
  H  H17  1  0.16661000  0.17666000  0.89690000  1.0
  H  H18  1  0.33327000  0.17675000  0.39682000  1.0
  H  H19  1  0.83336000  0.82334000  0.10314000  1.0
  H  H20  1  0.25940000  0.69705000  0.71729000  1.0
  H  H21  1  0.75944000  0.30295000  0.78270000  1.0
  H  H22  1  0.74045000  0.30295000  0.28265000  1.0
  H  H23  1  0.24039000  0.69708000  0.21736000  1.0
  H  H24  1  0.87201000  0.57511000  0.53755000  1.0
  H  H25  1  0.37188000  0.42484000  0.96243000  1.0
  H  H26  1  0.12793000  0.42488000  0.46240000  1.0
  H  H27  1  0.62802000  0.57517000  0.03761000  1.0
  H  H28  1  0.72829000  0.06863000  0.51900000  1.0
  H  H29  1  0.22815000  0.93134000  0.98100000  1.0
  H  H30  1  0.27176000  0.93142000  0.48101000  1.0
  H  H31  1  0.77193000  0.06855000  0.01900000  1.0
  H  H32  1  0.65222000  0.10297000  0.61149000  1.0
  H  H33  1  0.15206000  0.89698000  0.88852000  1.0
  H  H34  1  0.34786000  0.89706000  0.38852000  1.0
  H  H35  1  0.84801000  0.10294000  0.11149000  1.0
  C  C36  1  0.07074000  0.91008000  0.73672000  1.0
  C  C37  1  0.57072000  0.08993000  0.76327000  1.0
  C  C38  1  0.92921000  0.08995000  0.26324000  1.0
  C  C39  1  0.42924000  0.91005000  0.23677000  1.0
  C  C40  1  0.20371000  0.85298000  0.66110000  1.0
  C  C41  1  0.70364000  0.14703000  0.83890000  1.0
  C  C42  1  0.79634000  0.14705000  0.33889000  1.0
  C  C43  1  0.29639000  0.85294000  0.16112000  1.0
  C  C44  1  0.41828000  0.66914000  0.59788000  1.0
  C  C45  1  0.91825000  0.33083000  0.90212000  1.0
  C  C46  1  0.58168000  0.33088000  0.40209000  1.0
  C  C47  1  0.08171000  0.66916000  0.09792000  1.0
  C  C48  1  0.66496000  0.71872000  0.60316000  1.0
  C  C49  1  0.16489000  0.28119000  0.89685000  1.0
  C  C50  1  0.33502000  0.28128000  0.39681000  1.0
  C  C51  1  0.83511000  0.71881000  0.10320000  1.0
  C  C52  1  0.82075000  0.71982000  0.46507000  1.0
  C  C53  1  0.32072000  0.28014000  0.03491000  1.0
  C  C54  1  0.17927000  0.28022000  0.53490000  1.0
  C  C55  1  0.67932000  0.71984000  0.96512000  1.0
  C  C56  1  0.96172000  0.65293000  0.39345000  1.0
  C  C57  1  0.46162000  0.34709000  0.10652000  1.0
  C  C58  1  0.03830000  0.34712000  0.60651000  1.0
  C  C59  1  0.53839000  0.65286000  0.89350000  1.0
  N  N60  1  0.27721000  0.73405000  0.66218000  1.0
  N  N61  1  0.77717000  0.26594000  0.83782000  1.0
  N  N62  1  0.72277000  0.26597000  0.33778000  1.0
  N  N63  1  0.22278000  0.73404000  0.16222000  1.0
  N  N64  1  0.79497000  0.66226000  0.53272000  1.0
  N  N65  1  0.29487000  0.33769000  0.96726000  1.0
  N  N66  1  0.20499000  0.33775000  0.46723000  1.0
  N  N67  1  0.70509000  0.66231000  0.03278000  1.0
  O  O68  1  0.01479000  0.83987000  0.79044000  1.0
  O  O69  1  0.51481000  0.16014000  0.70955000  1.0
  O  O70  1  0.98507000  0.16016000  0.20951000  1.0
  O  O71  1  0.48505000  0.83985000  0.29050000  1.0
  O  O72  1  0.02589000  0.02960000  0.73684000  1.0
  O  O73  1  0.52587000  0.97039000  0.76317000  1.0
  O  O74  1  0.97401000  0.97041000  0.26313000  1.0
  O  O75  1  0.47404000  0.02960000  0.23687000  1.0
  O  O76  1  0.23424000  0.92066000  0.60233000  1.0
  O  O77  1  0.73409000  0.07935000  0.89767000  1.0
  O  O78  1  0.76592000  0.07941000  0.39767000  1.0
  O  O79  1  0.26608000  0.92060000  0.10233000  1.0
  O  O80  1  0.73312000  0.82761000  0.45622000  1.0
  O  O81  1  0.23322000  0.17233000  0.04376000  1.0
  O  O82  1  0.26698000  0.17246000  0.54376000  1.0
  O  O83  1  0.76695000  0.82762000  0.95624000  1.0
  O  O84  1  0.97583000  0.71759000  0.33127000  1.0
  O  O85  1  0.47586000  0.28243000  0.16870000  1.0
  O  O86  1  0.02420000  0.28249000  0.66870000  1.0
  O  O87  1  0.52425000  0.71752000  0.83131000  1.0
  O  O88  1  0.04565000  0.54524000  0.39906000  1.0
  O  O89  1  0.54538000  0.45479000  0.10090000  1.0
  O  O90  1  0.95432000  0.45479000  0.60088000  1.0
  O  O91  1  0.45453000  0.54520000  0.89917000  1.0
  O  O92  1  0.77351000  0.06347000  0.57606000  1.0
  O  O93  1  0.27335000  0.93649000  0.92393000  1.0
  O  O94  1  0.22653000  0.93654000  0.42395000  1.0
  O  O95  1  0.72672000  0.06343000  0.07607000  1.0
