# generated using pymatgen
data_Cu4H8(C7N8)3
_symmetry_space_group_name_H-M   'P 1'
_cell_length_a   24.65960000
_cell_length_b   24.76090000
_cell_length_c   24.89010000
_cell_angle_alpha   89.89370000
_cell_angle_beta   90.02920000
_cell_angle_gamma   89.91330000
_symmetry_Int_Tables_number   1
_chemical_formula_structural   Cu4H8(C7N8)3
_chemical_formula_sum   'Cu12 H24 C63 N72'
_cell_volume   15197.69742146
_cell_formula_units_Z   3
loop_
 _symmetry_equiv_pos_site_id
 _symmetry_equiv_pos_as_xyz
  1  'x, y, z'
loop_
 _atom_site_type_symbol
 _atom_site_label
 _atom_site_symmetry_multiplicity
 _atom_site_fract_x
 _atom_site_fract_y
 _atom_site_fract_z
 _atom_site_occupancy
  Cu  Cu0  1  0.78191000  0.78327000  0.87222000  1.0
  Cu  Cu1  1  0.87363000  0.78347000  0.78276000  1.0
  Cu  Cu2  1  0.78169000  0.87434000  0.78231000  1.0
  Cu  Cu3  1  0.78413000  0.21630000  0.12653000  1.0
  Cu  Cu4  1  0.87493000  0.21680000  0.21724000  1.0
  Cu  Cu5  1  0.78374000  0.12572000  0.21701000  1.0
  Cu  Cu6  1  0.21662000  0.78294000  0.12900000  1.0
  Cu  Cu7  1  0.12476000  0.78309000  0.21874000  1.0
  Cu  Cu8  1  0.21636000  0.87382000  0.21866000  1.0
  Cu  Cu9  1  0.21603000  0.21811000  0.87222000  1.0
  Cu  Cu10  1  0.12439000  0.21867000  0.78231000  1.0
  Cu  Cu11  1  0.21596000  0.12723000  0.78287000  1.0
  H  H12  1  0.81759000  0.68118000  0.94136000  1.0
  H  H13  1  0.94415000  0.68209000  0.82032000  1.0
  H  H14  1  0.67930000  0.94404000  0.81907000  1.0
  H  H15  1  0.68019000  0.81946000  0.94190000  1.0
  H  H16  1  0.94316000  0.82004000  0.68158000  1.0
  H  H17  1  0.81812000  0.94351000  0.68089000  1.0
  H  H18  1  0.82028000  0.31790000  0.05717000  1.0
  H  H19  1  0.94437000  0.31897000  0.18081000  1.0
  H  H20  1  0.68149000  0.05626000  0.18047000  1.0
  H  H21  1  0.68210000  0.18026000  0.05708000  1.0
  H  H22  1  0.94387000  0.18070000  0.31929000  1.0
  H  H23  1  0.81971000  0.05675000  0.31889000  1.0
  H  H24  1  0.18114000  0.68094000  0.06031000  1.0
  H  H25  1  0.05454000  0.68192000  0.18131000  1.0
  H  H26  1  0.31781000  0.94419000  0.18141000  1.0
  H  H27  1  0.31862000  0.81919000  0.05947000  1.0
  H  H28  1  0.05569000  0.81935000  0.32057000  1.0
  H  H29  1  0.18079000  0.94238000  0.32052000  1.0
  H  H30  1  0.18021000  0.31953000  0.94155000  1.0
  H  H31  1  0.05499000  0.32106000  0.81902000  1.0
  H  H32  1  0.31780000  0.05677000  0.82022000  1.0
  H  H33  1  0.31840000  0.18228000  0.94164000  1.0
  H  H34  1  0.05516000  0.18209000  0.68083000  1.0
  H  H35  1  0.17984000  0.05823000  0.68174000  1.0
  C  C36  1  0.84411000  0.68920000  0.90756000  1.0
  C  C37  1  0.89134000  0.66182000  0.89144000  1.0
  C  C38  1  0.90909000  0.68974000  0.84547000  1.0
  C  C39  1  0.68741000  0.90946000  0.84465000  1.0
  C  C40  1  0.65993000  0.89217000  0.89105000  1.0
  C  C41  1  0.68785000  0.84551000  0.90768000  1.0
  C  C42  1  0.90846000  0.84585000  0.68927000  1.0
  C  C43  1  0.89111000  0.89223000  0.66147000  1.0
  C  C44  1  0.84427000  0.90918000  0.68888000  1.0
  C  C45  1  0.84628000  0.31025000  0.09150000  1.0
  C  C46  1  0.89269000  0.33834000  0.10853000  1.0
  C  C47  1  0.90993000  0.31084000  0.15498000  1.0
  C  C48  1  0.68956000  0.09067000  0.15471000  1.0
  C  C49  1  0.66189000  0.10787000  0.10832000  1.0
  C  C50  1  0.68988000  0.15428000  0.09135000  1.0
  C  C51  1  0.90945000  0.15475000  0.31127000  1.0
  C  C52  1  0.89217000  0.10833000  0.33897000  1.0
  C  C53  1  0.84573000  0.09114000  0.31108000  1.0
  C  C54  1  0.15458000  0.68900000  0.09407000  1.0
  C  C55  1  0.10743000  0.66162000  0.11027000  1.0
  C  C56  1  0.08959000  0.68952000  0.15614000  1.0
  C  C57  1  0.31016000  0.90948000  0.15603000  1.0
  C  C58  1  0.33805000  0.89219000  0.10989000  1.0
  C  C59  1  0.31058000  0.84532000  0.09346000  1.0
  C  C60  1  0.09032000  0.84508000  0.31266000  1.0
  C  C61  1  0.10792000  0.89126000  0.34041000  1.0
  C  C62  1  0.15453000  0.90821000  0.31264000  1.0
  C  C63  1  0.15394000  0.31199000  0.90744000  1.0
  C  C64  1  0.10728000  0.34012000  0.89085000  1.0
  C  C65  1  0.08968000  0.31279000  0.84456000  1.0
  C  C66  1  0.31005000  0.09158000  0.84547000  1.0
  C  C67  1  0.33794000  0.10904000  0.89154000  1.0
  C  C68  1  0.31041000  0.15601000  0.90775000  1.0
  C  C69  1  0.08974000  0.15619000  0.68888000  1.0
  C  C70  1  0.10712000  0.10967000  0.66150000  1.0
  C  C71  1  0.15371000  0.09263000  0.68938000  1.0
  C  C72  1  0.00003000  0.00033000  0.50079000  1.0
  C  C73  1  0.99993000  0.50082000  0.00075000  1.0
  C  C74  1  0.49926000  0.00044000  0.00080000  1.0
  C  C75  1  0.91709000  0.61644000  0.91752000  1.0
  C  C76  1  0.96582000  0.53948000  0.96676000  1.0
  C  C77  1  0.91800000  0.38417000  0.08295000  1.0
  C  C78  1  0.96602000  0.46190000  0.03446000  1.0
  C  C79  1  0.08199000  0.61614000  0.08435000  1.0
  C  C80  1  0.03380000  0.53920000  0.03500000  1.0
  C  C81  1  0.08215000  0.38580000  0.91681000  1.0
  C  C82  1  0.03407000  0.46267000  0.96644000  1.0
  C  C83  1  0.61442000  0.91774000  0.91713000  1.0
  C  C84  1  0.53761000  0.96636000  0.96662000  1.0
  C  C85  1  0.38341000  0.08325000  0.91761000  1.0
  C  C86  1  0.46053000  0.03448000  0.96682000  1.0
  C  C87  1  0.61605000  0.08246000  0.08274000  1.0
  C  C88  1  0.53824000  0.03427000  0.03444000  1.0
  C  C89  1  0.38356000  0.91791000  0.08400000  1.0
  C  C90  1  0.46068000  0.96653000  0.03493000  1.0
  C  C91  1  0.91686000  0.91784000  0.61607000  1.0
  C  C92  1  0.96577000  0.96643000  0.53921000  1.0
  C  C93  1  0.08277000  0.91679000  0.38615000  1.0
  C  C94  1  0.03433000  0.96592000  0.46289000  1.0
  C  C95  1  0.08186000  0.08387000  0.61601000  1.0
  C  C96  1  0.03388000  0.03465000  0.53910000  1.0
  C  C97  1  0.91760000  0.08283000  0.38469000  1.0
  C  C98  1  0.96604000  0.03425000  0.46201000  1.0
  N  N99  1  0.87486000  0.73064000  0.83507000  1.0
  N  N100  1  0.83457000  0.73034000  0.87364000  1.0
  N  N101  1  0.72888000  0.83582000  0.87361000  1.0
  N  N102  1  0.72863000  0.87551000  0.83450000  1.0
  N  N103  1  0.83454000  0.87531000  0.72992000  1.0
  N  N104  1  0.87438000  0.83599000  0.73015000  1.0
  N  N105  1  0.87617000  0.26950000  0.16479000  1.0
  N  N106  1  0.83667000  0.26916000  0.12540000  1.0
  N  N107  1  0.73110000  0.16391000  0.12522000  1.0
  N  N108  1  0.73092000  0.12443000  0.16454000  1.0
  N  N109  1  0.83616000  0.12490000  0.26988000  1.0
  N  N110  1  0.87571000  0.16440000  0.27001000  1.0
  N  N111  1  0.12369000  0.73044000  0.16640000  1.0
  N  N112  1  0.16401000  0.73012000  0.12785000  1.0
  N  N113  1  0.26946000  0.83553000  0.12739000  1.0
  N  N114  1  0.26919000  0.87534000  0.16624000  1.0
  N  N115  1  0.16390000  0.87456000  0.27145000  1.0
  N  N116  1  0.12405000  0.83536000  0.27146000  1.0
  N  N117  1  0.12346000  0.27147000  0.83446000  1.0
  N  N118  1  0.16335000  0.27100000  0.87349000  1.0
  N  N119  1  0.26921000  0.16568000  0.87380000  1.0
  N  N120  1  0.26901000  0.12572000  0.83512000  1.0
  N  N121  1  0.16328000  0.12657000  0.73028000  1.0
  N  N122  1  0.12357000  0.16603000  0.72998000  1.0
  N  N123  1  0.89312000  0.59602000  0.96226000  1.0
  N  N124  1  0.96437000  0.59806000  0.89618000  1.0
  N  N125  1  0.98930000  0.55866000  0.92188000  1.0
  N  N126  1  0.91863000  0.55659000  0.98760000  1.0
  N  N127  1  0.89512000  0.40322000  0.03698000  1.0
  N  N128  1  0.96360000  0.40447000  0.10595000  1.0
  N  N129  1  0.98821000  0.44431000  0.08064000  1.0
  N  N130  1  0.92026000  0.44300000  0.01208000  1.0
  N  N131  1  0.10591000  0.59628000  0.03936000  1.0
  N  N132  1  0.03525000  0.59694000  0.10608000  1.0
  N  N133  1  0.01057000  0.55756000  0.08029000  1.0
  N  N134  1  0.08071000  0.55687000  0.01400000  1.0
  N  N135  1  0.03650000  0.40655000  0.89414000  1.0
  N  N136  1  0.10539000  0.40439000  0.96270000  1.0
  N  N137  1  0.08019000  0.44372000  0.98823000  1.0
  N  N138  1  0.01186000  0.44594000  0.92005000  1.0
  N  N139  1  0.59561000  0.89490000  0.96316000  1.0
  N  N140  1  0.59422000  0.96353000  0.89450000  1.0
  N  N141  1  0.55486000  0.98845000  0.92034000  1.0
  N  N142  1  0.55629000  0.92036000  0.98859000  1.0
  N  N143  1  0.40360000  0.10678000  0.96261000  1.0
  N  N144  1  0.40209000  0.03639000  0.89602000  1.0
  N  N145  1  0.44158000  0.01143000  0.92170000  1.0
  N  N146  1  0.44310000  0.08126000  0.98792000  1.0
  N  N147  1  0.59585000  0.03698000  0.10585000  1.0
  N  N148  1  0.59693000  0.10508000  0.03668000  1.0
  N  N149  1  0.55709000  0.07988000  0.01190000  1.0
  N  N150  1  0.55600000  0.01225000  0.08061000  1.0
  N  N151  1  0.40287000  0.96418000  0.10617000  1.0
  N  N152  1  0.40326000  0.89475000  0.03857000  1.0
  N  N153  1  0.44278000  0.92015000  0.01340000  1.0
  N  N154  1  0.44234000  0.98913000  0.08051000  1.0
  N  N155  1  0.89361000  0.96343000  0.59609000  1.0
  N  N156  1  0.96329000  0.89520000  0.59709000  1.0
  N  N157  1  0.98836000  0.92058000  0.55772000  1.0
  N  N158  1  0.91921000  0.98840000  0.55674000  1.0
  N  N159  1  0.03679000  0.89408000  0.40600000  1.0
  N  N160  1  0.10631000  0.96223000  0.40581000  1.0
  N  N161  1  0.08095000  0.98750000  0.44508000  1.0
  N  N162  1  0.01196000  0.91975000  0.44529000  1.0
  N  N163  1  0.03589000  0.10654000  0.59594000  1.0
  N  N164  1  0.10527000  0.03802000  0.59696000  1.0
  N  N165  1  0.08017000  0.01274000  0.55759000  1.0
  N  N166  1  0.01128000  0.08082000  0.55654000  1.0
  N  N167  1  0.96365000  0.10560000  0.40425000  1.0
  N  N168  1  0.89443000  0.03713000  0.40434000  1.0
  N  N169  1  0.91977000  0.01219000  0.44394000  1.0
  N  N170  1  0.98849000  0.08022000  0.44386000  1.0
