# generated using pymatgen
data_KH28C13SeNO6
_symmetry_space_group_name_H-M   'P 1'
_cell_length_a   8.73517000
_cell_length_b   8.84691000
_cell_length_c   13.12402083
_cell_angle_alpha   70.31016040
_cell_angle_beta   70.88018281
_cell_angle_gamma   78.67700000
_symmetry_Int_Tables_number   1
_chemical_formula_structural   KH28C13SeNO6
_chemical_formula_sum   'K2 H56 C26 Se2 N2 O12'
_cell_volume   898.01261375
_cell_formula_units_Z   2
loop_
 _symmetry_equiv_pos_site_id
 _symmetry_equiv_pos_as_xyz
  1  'x, y, z'
loop_
 _atom_site_type_symbol
 _atom_site_label
 _atom_site_symmetry_multiplicity
 _atom_site_fract_x
 _atom_site_fract_y
 _atom_site_fract_z
 _atom_site_occupancy
  K  K0  1  0.78854000  0.65014000  0.30812000  1.0
  K  K1  1  0.21148000  0.34985000  0.69189000  1.0
  H  H2  1  0.63177000  0.84480000  0.02432000  1.0
  H  H3  1  0.36822000  0.15520000  0.97569000  1.0
  H  H4  1  0.41941000  0.82295000  0.09370000  1.0
  H  H5  1  0.58059000  0.17705000  0.90631000  1.0
  H  H6  1  0.50336000  0.54510000  0.21513000  1.0
  H  H7  1  0.49663000  0.45490000  0.78488000  1.0
  H  H8  1  0.53733000  0.56615000  0.06826000  1.0
  H  H9  1  0.46266000  0.43387000  0.93174000  1.0
  H  H10  1  0.11330000  0.34041000  0.40011000  1.0
  H  H11  1  0.88670000  0.65959000  0.59989000  1.0
  H  H12  1  0.31872000  0.36779000  0.31973000  1.0
  H  H13  1  0.68128000  0.63222000  0.68027000  1.0
  H  H14  1  0.64092000  0.89518000  0.46633000  1.0
  H  H15  1  0.35909000  0.10481000  0.53368000  1.0
  H  H16  1  0.65062000  0.11121000  0.41838000  1.0
  H  H17  1  0.34938000  0.88879000  0.58164000  1.0
  H  H18  1  0.95025000  0.06840000  0.32930000  1.0
  H  H19  1  0.04975000  0.93162000  0.67071000  1.0
  H  H20  1  0.88812000  0.98676000  0.47872000  1.0
  H  H21  1  0.11190000  0.01322000  0.52129000  1.0
  H  H22  1  0.16383000  0.83680000  0.42604000  1.0
  H  H23  1  0.83618000  0.16322000  0.57393000  1.0
  H  H24  1  0.18087000  0.87682000  0.27962000  1.0
  H  H25  1  0.81913000  0.12319000  0.72036000  1.0
  H  H26  1  0.98314000  0.21107000  0.16317000  1.0
  H  H27  1  0.01684000  0.78892000  0.83683000  1.0
  H  H28  1  0.03247000  0.40157000  0.06414000  1.0
  H  H29  1  0.96753000  0.59841000  0.93586000  1.0
  H  H30  1  0.74327000  0.32586000  0.10734000  1.0
  H  H31  1  0.25673000  0.67412000  0.89266000  1.0
  H  H32  1  0.70325000  0.34176000  0.24685000  1.0
  H  H33  1  0.29674000  0.65824000  0.75315000  1.0
  H  H34  1  0.48308000  0.14909000  0.28907000  1.0
  H  H35  1  0.51692000  0.85090000  0.71095000  1.0
  H  H36  1  0.45910000  0.93811000  0.36290000  1.0
  H  H37  1  0.54092000  0.06187000  0.63712000  1.0
  H  H38  1  0.31938000  0.60822000  0.37211000  1.0
  H  H39  1  0.68062000  0.39179000  0.62787000  1.0
  H  H40  1  0.12697000  0.55201000  0.46451000  1.0
  H  H41  1  0.87303000  0.44803000  0.53546000  1.0
  H  H42  1  0.40534000  0.04194000  0.16979000  1.0
  H  H43  1  0.59467000  0.95806000  0.83023000  1.0
  H  H44  1  0.61866000  0.06256000  0.10799000  1.0
  H  H45  1  0.38134000  0.93744000  0.89203000  1.0
  H  H46  1  0.23480000  0.42439000  0.14072000  1.0
  H  H47  1  0.76521000  0.57559000  0.85927000  1.0
  H  H48  1  0.20198000  0.22645000  0.23603000  1.0
  H  H49  1  0.79802000  0.77354000  0.76398000  1.0
  H  H50  1  0.09876000  0.74038000  0.15118000  1.0
  H  H51  1  0.90124000  0.25959000  0.84881000  1.0
  H  H52  1  0.06835000  0.73682000  0.03488000  1.0
  H  H53  1  0.93159000  0.26317000  0.96512000  1.0
  H  H54  1  0.16040000  0.00543000  0.02108000  1.0
  H  H55  1  0.83960000  0.99456000  0.97890000  1.0
  H  H56  1  0.96354000  0.02175000  0.11660000  1.0
  H  H57  1  0.03646000  0.97825000  0.88339000  1.0
  C  C58  1  0.54353000  0.78476000  0.10381000  1.0
  C  C59  1  0.45647000  0.21525000  0.89620000  1.0
  C  C60  1  0.57526000  0.60373000  0.12834000  1.0
  C  C61  1  0.42474000  0.39628000  0.87167000  1.0
  C  C62  1  0.19121000  0.40359000  0.31674000  1.0
  C  C63  1  0.80879000  0.59642000  0.68325000  1.0
  C  C64  1  0.70666000  0.99577000  0.40031000  1.0
  C  C65  1  0.29336000  0.00423000  0.59970000  1.0
  C  C66  1  0.88219000  0.97361000  0.39928000  1.0
  C  C67  1  0.11782000  0.02640000  0.60072000  1.0
  C  C68  1  0.12604000  0.80007000  0.36600000  1.0
  C  C69  1  0.87396000  0.19995000  0.63397000  1.0
  C  C70  1  0.95579000  0.34268000  0.14913000  1.0
  C  C71  1  0.04422000  0.65731000  0.85087000  1.0
  C  C72  1  0.77694000  0.38541000  0.15801000  1.0
  C  C73  1  0.22306000  0.61459000  0.84199000  1.0
  C  C74  1  0.53305000  0.02407000  0.28849000  1.0
  C  C75  1  0.46698000  0.97593000  0.71152000  1.0
  C  C76  1  0.18827000  0.62599000  0.37919000  1.0
  C  C77  1  0.81174000  0.37404000  0.62078000  1.0
  C  C78  1  0.52720000  0.99609000  0.18261000  1.0
  C  C79  1  0.47280000  0.00392000  0.81740000  1.0
  C  C80  1  0.16214000  0.35651000  0.22499000  1.0
  C  C81  1  0.83786000  0.64348000  0.77501000  1.0
  C  C82  1  0.03620000  0.96657000  0.04963000  1.0
  C  C83  1  0.96379000  0.03341000  0.95037000  1.0
  Se  Se84  1  0.46136000  0.61897000  0.53297000  1.0
  Se  Se85  1  0.53862000  0.38101000  0.46702000  1.0
  N  N86  1  0.02887000  0.79229000  0.09682000  1.0
  N  N87  1  0.97111000  0.20770000  0.90317000  1.0
  O  O88  1  0.99318000  0.38754000  0.23241000  1.0
  O  O89  1  0.00683000  0.61244000  0.76759000  1.0
  O  O90  1  0.15501000  0.57427000  0.29628000  1.0
  O  O91  1  0.84499000  0.42574000  0.70371000  1.0
  O  O92  1  0.69802000  0.99775000  0.29246000  1.0
  O  O93  1  0.30199000  0.00225000  0.70756000  1.0
  O  O94  1  0.95276000  0.81774000  0.38924000  1.0
  O  O95  1  0.04725000  0.18228000  0.61074000  1.0
  O  O96  1  0.55689000  0.82753000  0.19555000  1.0
  O  O97  1  0.44311000  0.17248000  0.80447000  1.0
  O  O98  1  0.74447000  0.55672000  0.11744000  1.0
  O  O99  1  0.25552000  0.44327000  0.88257000  1.0
