# generated using pymatgen
data_Cu2H12C10N4O7
_symmetry_space_group_name_H-M   'P 1'
_cell_length_a   6.89560000
_cell_length_b   10.19030000
_cell_length_c   10.64740000
_cell_angle_alpha   107.44300000
_cell_angle_beta   93.14640000
_cell_angle_gamma   104.65600000
_symmetry_Int_Tables_number   1
_chemical_formula_structural   Cu2H12C10N4O7
_chemical_formula_sum   'Cu4 H24 C20 N8 O14'
_cell_volume   683.58332177
_cell_formula_units_Z   2
loop_
 _symmetry_equiv_pos_site_id
 _symmetry_equiv_pos_as_xyz
  1  'x, y, z'
loop_
 _atom_site_type_symbol
 _atom_site_label
 _atom_site_symmetry_multiplicity
 _atom_site_fract_x
 _atom_site_fract_y
 _atom_site_fract_z
 _atom_site_occupancy
  Cu  Cu0  1  0.08913000  0.32050000  0.69021000  1.0
  Cu  Cu1  1  0.91102000  0.67946000  0.30979000  1.0
  Cu  Cu2  1  0.99999000  0.99997000  0.49992000  1.0
  Cu  Cu3  1  0.00013000  0.49996000  0.00003000  1.0
  H  H4  1  0.05123000  0.10220000  0.73695000  1.0
  H  H5  1  0.94872000  0.89768000  0.26288000  1.0
  H  H6  1  0.96159000  0.23711000  0.87235000  1.0
  H  H7  1  0.03889000  0.76283000  0.12770000  1.0
  H  H8  1  0.74582000  0.17545000  0.45460000  1.0
  H  H9  1  0.25411000  0.82459000  0.54554000  1.0
  H  H10  1  0.63846000  0.17010000  0.58111000  1.0
  H  H11  1  0.36165000  0.82993000  0.41908000  1.0
  H  H12  1  0.20378000  0.59803000  0.58105000  1.0
  H  H13  1  0.79624000  0.40196000  0.41898000  1.0
  H  H14  1  0.09652000  0.82433000  0.96328000  1.0
  H  H15  1  0.90333000  0.17555000  0.03675000  1.0
  H  H16  1  0.34803000  0.51125000  0.41096000  1.0
  H  H17  1  0.65201000  0.48880000  0.58906000  1.0
  H  H18  1  0.37350000  0.93853000  0.77245000  1.0
  H  H19  1  0.62633000  0.06145000  0.22759000  1.0
  H  H20  1  0.12662000  0.93762000  0.76796000  1.0
  H  H21  1  0.87319000  0.06231000  0.23211000  1.0
  H  H22  1  0.39039000  0.14394000  0.99264000  1.0
  H  H23  1  0.60953000  0.85614000  0.00731000  1.0
  H  H24  1  0.45116000  0.58478000  0.21813000  1.0
  H  H25  1  0.54903000  0.41531000  0.78193000  1.0
  H  H26  1  0.47342000  0.39754000  0.00683000  1.0
  H  H27  1  0.52672000  0.60258000  0.99321000  1.0
  C  C28  1  0.22855000  0.24207000  0.42641000  1.0
  C  C29  1  0.77139000  0.75793000  0.57353000  1.0
  C  C30  1  0.16710000  0.62118000  0.68143000  1.0
  C  C31  1  0.83291000  0.37879000  0.31860000  1.0
  C  C32  1  0.30281000  0.28539000  0.31107000  1.0
  C  C33  1  0.69713000  0.71466000  0.68889000  1.0
  C  C34  1  0.11415000  0.73809000  0.87897000  1.0
  C  C35  1  0.88576000  0.26181000  0.12106000  1.0
  C  C36  1  0.31286000  0.18079000  0.19167000  1.0
  C  C37  1  0.68703000  0.81928000  0.80827000  1.0
  C  C38  1  0.35505000  0.43037000  0.31900000  1.0
  C  C39  1  0.64497000  0.56969000  0.68101000  1.0
  C  C40  1  0.37789000  0.22384000  0.08412000  1.0
  C  C41  1  0.62203000  0.77625000  0.91584000  1.0
  C  C42  1  0.25030000  0.02138000  0.16908000  1.0
  C  C43  1  0.74954000  0.97867000  0.83082000  1.0
  C  C44  1  0.41428000  0.47174000  0.21036000  1.0
  C  C45  1  0.58582000  0.52835000  0.78966000  1.0
  C  C46  1  0.42623000  0.36788000  0.09290000  1.0
  C  C47  1  0.57383000  0.63223000  0.90711000  1.0
  N  N48  1  0.11085000  0.52854000  0.74559000  1.0
  N  N49  1  0.88924000  0.47141000  0.25442000  1.0
  N  N50  1  0.07709000  0.60119000  0.86869000  1.0
  N  N51  1  0.92295000  0.39872000  0.13133000  1.0
  N  N52  1  0.17218000  0.75373000  0.76282000  1.0
  N  N53  1  0.82772000  0.24621000  0.23722000  1.0
  N  N54  1  0.22378000  0.87893000  0.72787000  1.0
  N  N55  1  0.77605000  0.12103000  0.27219000  1.0
  O  O56  1  0.18913000  0.33793000  0.52174000  1.0
  O  O57  1  0.81085000  0.66204000  0.47822000  1.0
  O  O58  1  0.12390000  0.13511000  0.66925000  1.0
  O  O59  1  0.87612000  0.86479000  0.33061000  1.0
  O  O60  1  0.00296000  0.33236000  0.86063000  1.0
  O  O61  1  0.99741000  0.66760000  0.13941000  1.0
  O  O62  1  0.74212000  0.23093000  0.54854000  1.0
  O  O63  1  0.25786000  0.76913000  0.45161000  1.0
  O  O64  1  0.20489000  0.11102000  0.41744000  1.0
  O  O65  1  0.79503000  0.88897000  0.58244000  1.0
  O  O66  1  0.05898000  0.95715000  0.14085000  1.0
  O  O67  1  0.94088000  0.04291000  0.85905000  1.0
  O  O68  1  0.38542000  0.95772000  0.16525000  1.0
  O  O69  1  0.61441000  0.04231000  0.83464000  1.0
