# generated using pymatgen
data_Cu3H12C6(I2N)2
_symmetry_space_group_name_H-M   'P 1'
_cell_length_a   16.15340000
_cell_length_b   16.15430000
_cell_length_c   16.15690000
_cell_angle_alpha   104.62500000
_cell_angle_beta   104.66800000
_cell_angle_gamma   104.65600000
_symmetry_Int_Tables_number   1
_chemical_formula_structural   Cu3H12C6(I2N)2
_chemical_formula_sum   'Cu18 H72 C36 I24 N12'
_cell_volume   3713.41541071
_cell_formula_units_Z   6
loop_
 _symmetry_equiv_pos_site_id
 _symmetry_equiv_pos_as_xyz
  1  'x, y, z'
loop_
 _atom_site_type_symbol
 _atom_site_label
 _atom_site_symmetry_multiplicity
 _atom_site_fract_x
 _atom_site_fract_y
 _atom_site_fract_z
 _atom_site_occupancy
  Cu  Cu0  1  0.57539000  0.97934000  0.22082000  1.0
  Cu  Cu1  1  0.62965000  0.85377000  0.27240000  1.0
  Cu  Cu2  1  0.79842000  0.14421000  0.47318000  1.0
  Cu  Cu3  1  0.97928000  0.22088000  0.57532000  1.0
  Cu  Cu4  1  0.85370000  0.27258000  0.62978000  1.0
  Cu  Cu5  1  0.14416000  0.47330000  0.79857000  1.0
  Cu  Cu6  1  0.22060000  0.57532000  0.97913000  1.0
  Cu  Cu7  1  0.27243000  0.62972000  0.85390000  1.0
  Cu  Cu8  1  0.47322000  0.79845000  0.14388000  1.0
  Cu  Cu9  1  0.42450000  0.02058000  0.77913000  1.0
  Cu  Cu10  1  0.37033000  0.14621000  0.72762000  1.0
  Cu  Cu11  1  0.20155000  0.85578000  0.52681000  1.0
  Cu  Cu12  1  0.02082000  0.77920000  0.42475000  1.0
  Cu  Cu13  1  0.14640000  0.72752000  0.37023000  1.0
  Cu  Cu14  1  0.85599000  0.52683000  0.20152000  1.0
  Cu  Cu15  1  0.77936000  0.42468000  0.02081000  1.0
  Cu  Cu16  1  0.72751000  0.37027000  0.14605000  1.0
  Cu  Cu17  1  0.52666000  0.20146000  0.85600000  1.0
  H  H18  1  0.83016000  0.93397000  0.29461000  1.0
  H  H19  1  0.81372000  0.97029000  0.40024000  1.0
  H  H20  1  0.93725000  0.93545000  0.47832000  1.0
  H  H21  1  0.97096000  0.93195000  0.38128000  1.0
  H  H22  1  0.75165000  0.85450000  0.45967000  1.0
  H  H23  1  0.68872000  0.74103000  0.38512000  1.0
  H  H24  1  0.81884000  0.69626000  0.40968000  1.0
  H  H25  1  0.87242000  0.79883000  0.50487000  1.0
  H  H26  1  0.70854000  0.69476000  0.23984000  1.0
  H  H27  1  0.74772000  0.77718000  0.19101000  1.0
  H  H28  1  0.90102000  0.78863000  0.25311000  1.0
  H  H29  1  0.85475000  0.68593000  0.27192000  1.0
  H  H30  1  0.93386000  0.29454000  0.83020000  1.0
  H  H31  1  0.97045000  0.40015000  0.81372000  1.0
  H  H32  1  0.93573000  0.47847000  0.93712000  1.0
  H  H33  1  0.93220000  0.38147000  0.97101000  1.0
  H  H34  1  0.85491000  0.45993000  0.75188000  1.0
  H  H35  1  0.74132000  0.38558000  0.68891000  1.0
  H  H36  1  0.69652000  0.40993000  0.81894000  1.0
  H  H37  1  0.79913000  0.50511000  0.87251000  1.0
  H  H38  1  0.69467000  0.24024000  0.70880000  1.0
  H  H39  1  0.77695000  0.19114000  0.74778000  1.0
  H  H40  1  0.78885000  0.25328000  0.90116000  1.0
  H  H41  1  0.68611000  0.27213000  0.85502000  1.0
  H  H42  1  0.29466000  0.83002000  0.93391000  1.0
  H  H43  1  0.40031000  0.81357000  0.97033000  1.0
  H  H44  1  0.47842000  0.93715000  0.93546000  1.0
  H  H45  1  0.38130000  0.97077000  0.93191000  1.0
  H  H46  1  0.45973000  0.75146000  0.85459000  1.0
  H  H47  1  0.38512000  0.68861000  0.74112000  1.0
  H  H48  1  0.40971000  0.81875000  0.69639000  1.0
  H  H49  1  0.50491000  0.87233000  0.79901000  1.0
  H  H50  1  0.23986000  0.70838000  0.69476000  1.0
  H  H51  1  0.19094000  0.74747000  0.77710000  1.0
  H  H52  1  0.25303000  0.90076000  0.78866000  1.0
  H  H53  1  0.27179000  0.85463000  0.68597000  1.0
  H  H54  1  0.16987000  0.06605000  0.70546000  1.0
  H  H55  1  0.18635000  0.02972000  0.59985000  1.0
  H  H56  1  0.06284000  0.06457000  0.52171000  1.0
  H  H57  1  0.02909000  0.06806000  0.61873000  1.0
  H  H58  1  0.24841000  0.14549000  0.54041000  1.0
  H  H59  1  0.31135000  0.25897000  0.61495000  1.0
  H  H60  1  0.18126000  0.30377000  0.59040000  1.0
  H  H61  1  0.12767000  0.20121000  0.49518000  1.0
  H  H62  1  0.29150000  0.30527000  0.76023000  1.0
  H  H63  1  0.25231000  0.22284000  0.80906000  1.0
  H  H64  1  0.09900000  0.21138000  0.74692000  1.0
  H  H65  1  0.14529000  0.31408000  0.72812000  1.0
  H  H66  1  0.06616000  0.70547000  0.16978000  1.0
  H  H67  1  0.02960000  0.59987000  0.18628000  1.0
  H  H68  1  0.06428000  0.52155000  0.06286000  1.0
  H  H69  1  0.06781000  0.61854000  0.02897000  1.0
  H  H70  1  0.14517000  0.54013000  0.24813000  1.0
  H  H71  1  0.25875000  0.61449000  0.31106000  1.0
  H  H72  1  0.30352000  0.59012000  0.18101000  1.0
  H  H73  1  0.20091000  0.49492000  0.12747000  1.0
  H  H74  1  0.30535000  0.75983000  0.29114000  1.0
  H  H75  1  0.22304000  0.80888000  0.25215000  1.0
  H  H76  1  0.21115000  0.74672000  0.09877000  1.0
  H  H77  1  0.31388000  0.72788000  0.14491000  1.0
  H  H78  1  0.70526000  0.16990000  0.06607000  1.0
  H  H79  1  0.59962000  0.18634000  0.02964000  1.0
  H  H80  1  0.52151000  0.06278000  0.06454000  1.0
  H  H81  1  0.61863000  0.02916000  0.06809000  1.0
  H  H82  1  0.54018000  0.24847000  0.14538000  1.0
  H  H83  1  0.61478000  0.31133000  0.25885000  1.0
  H  H84  1  0.59019000  0.18120000  0.30358000  1.0
  H  H85  1  0.49501000  0.12760000  0.20097000  1.0
  H  H86  1  0.76007000  0.29159000  0.30522000  1.0
  H  H87  1  0.80898000  0.25249000  0.22288000  1.0
  H  H88  1  0.74691000  0.09921000  0.21134000  1.0
  H  H89  1  0.72815000  0.14534000  0.31403000  1.0
  C  C90  1  0.82695000  0.91592000  0.35507000  1.0
  C  C91  1  0.91562000  0.90316000  0.40443000  1.0
  C  C92  1  0.75129000  0.79861000  0.40414000  1.0
  C  C93  1  0.83668000  0.77053000  0.43121000  1.0
  C  C94  1  0.76027000  0.76019000  0.25350000  1.0
  C  C95  1  0.85728000  0.75674000  0.28644000  1.0
  C  C96  1  0.91600000  0.35510000  0.82700000  1.0
  C  C97  1  0.90339000  0.40457000  0.91563000  1.0
  C  C98  1  0.79887000  0.40444000  0.75145000  1.0
  C  C99  1  0.77080000  0.43144000  0.83680000  1.0
  C  C100  1  0.76013000  0.25372000  0.76040000  1.0
  C  C101  1  0.75688000  0.28663000  0.85745000  1.0
  C  C102  1  0.35513000  0.82681000  0.91592000  1.0
  C  C103  1  0.40448000  0.91547000  0.90318000  1.0
  C  C104  1  0.40419000  0.75114000  0.79868000  1.0
  C  C105  1  0.43121000  0.83656000  0.77064000  1.0
  C  C106  1  0.25348000  0.76007000  0.76016000  1.0
  C  C107  1  0.28636000  0.85709000  0.75675000  1.0
  C  C108  1  0.17309000  0.08409000  0.64500000  1.0
  C  C109  1  0.08445000  0.09686000  0.59561000  1.0
  C  C110  1  0.24878000  0.20140000  0.59593000  1.0
  C  C111  1  0.16340000  0.22950000  0.56886000  1.0
  C  C112  1  0.23977000  0.23983000  0.74657000  1.0
  C  C113  1  0.14276000  0.24329000  0.71361000  1.0
  C  C114  1  0.08403000  0.64492000  0.17299000  1.0
  C  C115  1  0.09662000  0.59544000  0.08435000  1.0
  C  C116  1  0.20117000  0.59562000  0.24854000  1.0
  C  C117  1  0.22923000  0.56859000  0.16317000  1.0
  C  C118  1  0.23988000  0.74632000  0.23954000  1.0
  C  C119  1  0.24312000  0.71338000  0.14250000  1.0
  C  C120  1  0.64478000  0.17312000  0.08406000  1.0
  C  C121  1  0.59545000  0.08447000  0.09683000  1.0
  C  C122  1  0.59574000  0.24880000  0.20128000  1.0
  C  C123  1  0.56869000  0.16339000  0.22934000  1.0
  C  C124  1  0.74645000  0.23990000  0.23982000  1.0
  C  C125  1  0.71357000  0.14288000  0.24324000  1.0
  I  I126  1  0.64337000  0.00583000  0.39477000  1.0
  I  I127  1  0.49434000  0.72292000  0.26883000  1.0
  I  I128  1  0.92509000  0.16204000  0.39827000  1.0
  I  I129  1  0.63417000  0.86936000  0.11332000  1.0
  I  I130  1  0.00587000  0.39490000  0.64351000  1.0
  I  I131  1  0.72265000  0.26885000  0.49450000  1.0
  I  I132  1  0.16175000  0.39828000  0.92520000  1.0
  I  I133  1  0.86937000  0.11342000  0.63417000  1.0
  I  I134  1  0.39478000  0.64329000  0.00590000  1.0
  I  I135  1  0.26904000  0.49460000  0.72309000  1.0
  I  I136  1  0.39828000  0.92510000  0.16175000  1.0
  I  I137  1  0.11301000  0.63393000  0.86907000  1.0
  I  I138  1  0.35654000  0.99409000  0.60520000  1.0
  I  I139  1  0.50558000  0.27712000  0.73113000  1.0
  I  I140  1  0.07496000  0.83796000  0.60175000  1.0
  I  I141  1  0.36571000  0.13056000  0.88668000  1.0
  I  I142  1  0.99432000  0.60523000  0.35657000  1.0
  I  I143  1  0.27735000  0.73119000  0.50550000  1.0
  I  I144  1  0.83830000  0.60175000  0.07481000  1.0
  I  I145  1  0.13069000  0.88658000  0.36585000  1.0
  I  I146  1  0.60515000  0.35666000  0.99402000  1.0
  I  I147  1  0.73105000  0.50547000  0.27692000  1.0
  I  I148  1  0.60162000  0.07482000  0.83820000  1.0
  I  I149  1  0.88698000  0.36608000  0.13090000  1.0
  N  N150  1  0.74866000  0.83048000  0.32507000  1.0
  N  N151  1  0.90084000  0.80473000  0.38594000  1.0
  N  N152  1  0.83053000  0.32524000  0.74877000  1.0
  N  N153  1  0.80497000  0.38614000  0.90094000  1.0
  N  N154  1  0.32511000  0.74854000  0.83052000  1.0
  N  N155  1  0.38590000  0.90065000  0.80475000  1.0
  N  N156  1  0.25138000  0.16955000  0.67500000  1.0
  N  N157  1  0.09922000  0.19529000  0.61410000  1.0
  N  N158  1  0.16952000  0.67480000  0.25121000  1.0
  N  N159  1  0.19505000  0.61388000  0.09902000  1.0
  N  N160  1  0.67481000  0.25142000  0.16945000  1.0
  N  N161  1  0.61403000  0.09929000  0.19525000  1.0
