# generated using pymatgen
data_CuH14(C3N4)2
_symmetry_space_group_name_H-M   'P 1'
_cell_length_a   6.82190000
_cell_length_b   11.92110000
_cell_length_c   13.29500000
_cell_angle_alpha   94.05710000
_cell_angle_beta   90.00000000
_cell_angle_gamma   90.00000000
_symmetry_Int_Tables_number   1
_chemical_formula_structural   CuH14(C3N4)2
_chemical_formula_sum   'Cu4 H56 C24 N32'
_cell_volume   1078.50044774
_cell_formula_units_Z   4
loop_
 _symmetry_equiv_pos_site_id
 _symmetry_equiv_pos_as_xyz
  1  'x, y, z'
loop_
 _atom_site_type_symbol
 _atom_site_label
 _atom_site_symmetry_multiplicity
 _atom_site_fract_x
 _atom_site_fract_y
 _atom_site_fract_z
 _atom_site_occupancy
  Cu  Cu0  1  0.84990000  0.02539000  0.09950000  1.0
  Cu  Cu1  1  0.34990000  0.97460000  0.40050000  1.0
  Cu  Cu2  1  0.15010000  0.97459000  0.90050000  1.0
  Cu  Cu3  1  0.65010000  0.02541000  0.59950000  1.0
  H  H4  1  0.69609000  0.24494000  0.21853000  1.0
  H  H5  1  0.19608000  0.75505000  0.28147000  1.0
  H  H6  1  0.30391000  0.75504000  0.78147000  1.0
  H  H7  1  0.80391000  0.24496000  0.71853000  1.0
  H  H8  1  0.84099000  0.25459000  0.00246000  1.0
  H  H9  1  0.34099000  0.74540000  0.49754000  1.0
  H  H10  1  0.15901000  0.74540000  0.99755000  1.0
  H  H11  1  0.65901000  0.25460000  0.50245000  1.0
  H  H12  1  0.08031000  0.39536000  0.07556000  1.0
  H  H13  1  0.58031000  0.60465000  0.42443000  1.0
  H  H14  1  0.91969000  0.60464000  0.92445000  1.0
  H  H15  1  0.41969000  0.39536000  0.57556000  1.0
  H  H16  1  0.97749000  0.38536000  0.19664000  1.0
  H  H17  1  0.47749000  0.61465000  0.30336000  1.0
  H  H18  1  0.02250000  0.61465000  0.80337000  1.0
  H  H19  1  0.52249000  0.38535000  0.69663000  1.0
  H  H20  1  0.76740000  0.47175000  0.01258000  1.0
  H  H21  1  0.26741000  0.52825000  0.48742000  1.0
  H  H22  1  0.23260000  0.52825000  0.98742000  1.0
  H  H23  1  0.73259000  0.47175000  0.51258000  1.0
  H  H24  1  0.84472000  0.55544000  0.12049000  1.0
  H  H25  1  0.34472000  0.44457000  0.37950000  1.0
  H  H26  1  0.15529000  0.44456000  0.87951000  1.0
  H  H27  1  0.65528000  0.55543000  0.62049000  1.0
  H  H28  1  0.48697000  0.51303000  0.12848000  1.0
  H  H29  1  0.98698000  0.48697000  0.37151000  1.0
  H  H30  1  0.51303000  0.48697000  0.87151000  1.0
  H  H31  1  0.01301000  0.51303000  0.62849000  1.0
  H  H32  1  0.61539000  0.45649000  0.22835000  1.0
  H  H33  1  0.11539000  0.54352000  0.27165000  1.0
  H  H34  1  0.38461000  0.54352000  0.77165000  1.0
  H  H35  1  0.88461000  0.45648000  0.72835000  1.0
  H  H36  1  0.38062000  0.31431000  0.15460000  1.0
  H  H37  1  0.88061000  0.68568000  0.34539000  1.0
  H  H38  1  0.61939000  0.68569000  0.84539000  1.0
  H  H39  1  0.11938000  0.31431000  0.65461000  1.0
  H  H40  1  0.48433000  0.32434000  0.03296000  1.0
  H  H41  1  0.98432000  0.67566000  0.46704000  1.0
  H  H42  1  0.51568000  0.67566000  0.96704000  1.0
  H  H43  1  0.01568000  0.32434000  0.53296000  1.0
  H  H44  1  0.53539000  0.12122000  0.03729000  1.0
  H  H45  1  0.03541000  0.87879000  0.46271000  1.0
  H  H46  1  0.46458000  0.87879000  0.96270000  1.0
  H  H47  1  0.96455000  0.12121000  0.53729000  1.0
  H  H48  1  0.51434000  0.09267000  0.15628000  1.0
  H  H49  1  0.01434000  0.90733000  0.34372000  1.0
  H  H50  1  0.48565000  0.90733000  0.84371000  1.0
  H  H51  1  0.98565000  0.09267000  0.65628000  1.0
  H  H52  1  0.05979000  0.18933000  0.17938000  1.0
  H  H53  1  0.55978000  0.81067000  0.32063000  1.0
  H  H54  1  0.94022000  0.81066000  0.82062000  1.0
  H  H55  1  0.44023000  0.18933000  0.67937000  1.0
  H  H56  1  0.11473000  0.16550000  0.05665000  1.0
  H  H57  1  0.61471000  0.83451000  0.44335000  1.0
  H  H58  1  0.88528000  0.83450000  0.94335000  1.0
  H  H59  1  0.38529000  0.16549000  0.55665000  1.0
  C  C60  1  0.66967000  0.24161000  0.13641000  1.0
  C  C61  1  0.16966000  0.75838000  0.36360000  1.0
  C  C62  1  0.33034000  0.75838000  0.86360000  1.0
  C  C63  1  0.83035000  0.24163000  0.63640000  1.0
  C  C64  1  0.86500000  0.26363000  0.08468000  1.0
  C  C65  1  0.36501000  0.73636000  0.41532000  1.0
  C  C66  1  0.13500000  0.73636000  0.91532000  1.0
  C  C67  1  0.63498000  0.26365000  0.58468000  1.0
  C  C68  1  0.94238000  0.38127000  0.11561000  1.0
  C  C69  1  0.44238000  0.61873000  0.38439000  1.0
  C  C70  1  0.05761000  0.61872000  0.88439000  1.0
  C  C71  1  0.55762000  0.38129000  0.61561000  1.0
  C  C72  1  0.79064000  0.47131000  0.09471000  1.0
  C  C73  1  0.29064000  0.52868000  0.40528000  1.0
  C  C74  1  0.20937000  0.52869000  0.90529000  1.0
  C  C75  1  0.70936000  0.47132000  0.59471000  1.0
  C  C76  1  0.59513000  0.44867000  0.14585000  1.0
  C  C77  1  0.09514000  0.55133000  0.35415000  1.0
  C  C78  1  0.40486000  0.55133000  0.85416000  1.0
  C  C79  1  0.90486000  0.44867000  0.64585000  1.0
  C  C80  1  0.51738000  0.33082000  0.11447000  1.0
  C  C81  1  0.01737000  0.66916000  0.38552000  1.0
  C  C82  1  0.48263000  0.66917000  0.88553000  1.0
  C  C83  1  0.98263000  0.33084000  0.61447000  1.0
  N  N84  1  0.60929000  0.12527000  0.10536000  1.0
  N  N85  1  0.10928000  0.87473000  0.39464000  1.0
  N  N86  1  0.39071000  0.87473000  0.89463000  1.0
  N  N87  1  0.89072000  0.12527000  0.60537000  1.0
  N  N88  1  0.00166000  0.17276000  0.10811000  1.0
  N  N89  1  0.50166000  0.82724000  0.39189000  1.0
  N  N90  1  0.99833000  0.82723000  0.89189000  1.0
  N  N91  1  0.49832000  0.17276000  0.60812000  1.0
  N  N92  1  0.09643000  0.93187000  0.09936000  1.0
  N  N93  1  0.59644000  0.06810000  0.40065000  1.0
  N  N94  1  0.90357000  0.06811000  0.90066000  1.0
  N  N95  1  0.40356000  0.93191000  0.59933000  1.0
  N  N96  1  0.21816000  0.95985000  0.16086000  1.0
  N  N97  1  0.71817000  0.04014000  0.33914000  1.0
  N  N98  1  0.78183000  0.04014000  0.83915000  1.0
  N  N99  1  0.28183000  0.95987000  0.66085000  1.0
  N  N100  1  0.34092000  0.98624000  0.22015000  1.0
  N  N101  1  0.84090000  0.01376000  0.27984000  1.0
  N  N102  1  0.65909000  0.01375000  0.77986000  1.0
  N  N103  1  0.15911000  0.98624000  0.72015000  1.0
  N  N104  1  0.69133000  0.88608000  0.06128000  1.0
  N  N105  1  0.19130000  0.11389000  0.43872000  1.0
  N  N106  1  0.30869000  0.11389000  0.93872000  1.0
  N  N107  1  0.80872000  0.88613000  0.56128000  1.0
  N  N108  1  0.68026000  0.81793000  0.12375000  1.0
  N  N109  1  0.18025000  0.18206000  0.37625000  1.0
  N  N110  1  0.31976000  0.18206000  0.87625000  1.0
  N  N111  1  0.81977000  0.81795000  0.62374000  1.0
  N  N112  1  0.66640000  0.75027000  0.18299000  1.0
  N  N113  1  0.16641000  0.24971000  0.31702000  1.0
  N  N114  1  0.33360000  0.24972000  0.81701000  1.0
  N  N115  1  0.83359000  0.75029000  0.68297000  1.0
