# generated using pymatgen
data_ZnH12C14N2O5
_symmetry_space_group_name_H-M   'P 1'
_cell_length_a   7.14525000
_cell_length_b   11.19540000
_cell_length_c   19.95160000
_cell_angle_alpha   90.00000000
_cell_angle_beta   90.00000000
_cell_angle_gamma   92.70600000
_symmetry_Int_Tables_number   1
_chemical_formula_structural   ZnH12C14N2O5
_chemical_formula_sum   'Zn4 H48 C56 N8 O20'
_cell_volume   1594.22728164
_cell_formula_units_Z   4
loop_
 _symmetry_equiv_pos_site_id
 _symmetry_equiv_pos_as_xyz
  1  'x, y, z'
loop_
 _atom_site_type_symbol
 _atom_site_label
 _atom_site_symmetry_multiplicity
 _atom_site_fract_x
 _atom_site_fract_y
 _atom_site_fract_z
 _atom_site_occupancy
  Zn  Zn0  1  0.22452000  0.59791000  0.84281000  1.0
  Zn  Zn1  1  0.77549000  0.90209000  0.34281000  1.0
  Zn  Zn2  1  0.77547000  0.40210000  0.15719000  1.0
  Zn  Zn3  1  0.22451000  0.09791000  0.65719000  1.0
  H  H4  1  0.00368000  0.60682000  0.70113000  1.0
  H  H5  1  0.99633000  0.89319000  0.20114000  1.0
  H  H6  1  0.99631000  0.39318000  0.29887000  1.0
  H  H7  1  0.00367000  0.10682000  0.79887000  1.0
  H  H8  1  0.68042000  0.65351000  0.68800000  1.0
  H  H9  1  0.31959000  0.84649000  0.18800000  1.0
  H  H10  1  0.31957000  0.34648000  0.31200000  1.0
  H  H11  1  0.68041000  0.15351000  0.81200000  1.0
  H  H12  1  0.69167000  0.50242000  0.71193000  1.0
  H  H13  1  0.30834000  0.99758000  0.21193000  1.0
  H  H14  1  0.30832000  0.49756000  0.28807000  1.0
  H  H15  1  0.69166000  0.00243000  0.78807000  1.0
  H  H16  1  0.15753000  0.80764000  0.93377000  1.0
  H  H17  1  0.84248000  0.69236000  0.43377000  1.0
  H  H18  1  0.84247000  0.19237000  0.06623000  1.0
  H  H19  1  0.15752000  0.30764000  0.56623000  1.0
  H  H20  1  0.13929000  0.84435000  0.05874000  1.0
  H  H21  1  0.86073000  0.65565000  0.55874000  1.0
  H  H22  1  0.86071000  0.15566000  0.94126000  1.0
  H  H23  1  0.13928000  0.34434000  0.44126000  1.0
  H  H24  1  0.18860000  0.67159000  0.13680000  1.0
  H  H25  1  0.81141000  0.82841000  0.63680000  1.0
  H  H26  1  0.81142000  0.32842000  0.86320000  1.0
  H  H27  1  0.18859000  0.17158000  0.36320000  1.0
  H  H28  1  0.25613000  0.47399000  0.08916000  1.0
  H  H29  1  0.74388000  0.02600000  0.58916000  1.0
  H  H30  1  0.74389000  0.52601000  0.91084000  1.0
  H  H31  1  0.25612000  0.97399000  0.41084000  1.0
  H  H32  1  0.31941000  0.31499000  0.04201000  1.0
  H  H33  1  0.68059000  0.18500000  0.54201000  1.0
  H  H34  1  0.68059000  0.68500000  0.95798000  1.0
  H  H35  1  0.31942000  0.81499000  0.45799000  1.0
  H  H36  1  0.36369000  0.12885000  0.97661000  1.0
  H  H37  1  0.63631000  0.37115000  0.47662000  1.0
  H  H38  1  0.63632000  0.87116000  0.02338000  1.0
  H  H39  1  0.36371000  0.62885000  0.52339000  1.0
  H  H40  1  0.35393000  0.13729000  0.84924000  1.0
  H  H41  1  0.64606000  0.36271000  0.34924000  1.0
  H  H42  1  0.64608000  0.86272000  0.15076000  1.0
  H  H43  1  0.35394000  0.63729000  0.65077000  1.0
  H  H44  1  0.30404000  0.33367000  0.79506000  1.0
  H  H45  1  0.69596000  0.16633000  0.29506000  1.0
  H  H46  1  0.69596000  0.66634000  0.20494000  1.0
  H  H47  1  0.30403000  0.83367000  0.70494000  1.0
  H  H48  1  0.96187000  0.44817000  0.77691000  1.0
  H  H49  1  0.03813000  0.05183000  0.27691000  1.0
  H  H50  1  0.03813000  0.55183000  0.22309000  1.0
  H  H51  1  0.96186000  0.94817000  0.72309000  1.0
  C  C52  1  0.92093000  0.61659000  0.74779000  1.0
  C  C53  1  0.07908000  0.88342000  0.24779000  1.0
  C  C54  1  0.07907000  0.38341000  0.25221000  1.0
  C  C55  1  0.92092000  0.11659000  0.75221000  1.0
  C  C56  1  0.97248000  0.74370000  0.77188000  1.0
  C  C57  1  0.02753000  0.75631000  0.27188000  1.0
  C  C58  1  0.02750000  0.25631000  0.22811000  1.0
  C  C59  1  0.97247000  0.24370000  0.72812000  1.0
  C  C60  1  0.71522000  0.59489000  0.72992000  1.0
  C  C61  1  0.28479000  0.90511000  0.22992000  1.0
  C  C62  1  0.28477000  0.40510000  0.27008000  1.0
  C  C63  1  0.71521000  0.09489000  0.77008000  1.0
  C  C64  1  0.57476000  0.61513000  0.78573000  1.0
  C  C65  1  0.42525000  0.88487000  0.28573000  1.0
  C  C66  1  0.42524000  0.38487000  0.21427000  1.0
  C  C67  1  0.57474000  0.11513000  0.71427000  1.0
  C  C68  1  0.18068000  0.73764000  0.97052000  1.0
  C  C69  1  0.81932000  0.76236000  0.47052000  1.0
  C  C70  1  0.81931000  0.26237000  0.02948000  1.0
  C  C71  1  0.18068000  0.23764000  0.52948000  1.0
  C  C72  1  0.17034000  0.75639000  0.03939000  1.0
  C  C73  1  0.82967000  0.74361000  0.53939000  1.0
  C  C74  1  0.82967000  0.24362000  0.96061000  1.0
  C  C75  1  0.17033000  0.25638000  0.46061000  1.0
  C  C76  1  0.19792000  0.66064000  0.08251000  1.0
  C  C77  1  0.80208000  0.83936000  0.58250000  1.0
  C  C78  1  0.80209000  0.33937000  0.91749000  1.0
  C  C79  1  0.19791000  0.16063000  0.41749000  1.0
  C  C80  1  0.23501000  0.54928000  0.05563000  1.0
  C  C81  1  0.76499000  0.95072000  0.55563000  1.0
  C  C82  1  0.76500000  0.45073000  0.94437000  1.0
  C  C83  1  0.23500000  0.04927000  0.44438000  1.0
  C  C84  1  0.24426000  0.53675000  0.98591000  1.0
  C  C85  1  0.75574000  0.96324000  0.48591000  1.0
  C  C86  1  0.75574000  0.46325000  0.01409000  1.0
  C  C87  1  0.24426000  0.03675000  0.51409000  1.0
  C  C88  1  0.28014000  0.42171000  0.95238000  1.0
  C  C89  1  0.71986000  0.07828000  0.45238000  1.0
  C  C90  1  0.71986000  0.57829000  0.04762000  1.0
  C  C91  1  0.28014000  0.92171000  0.54762000  1.0
  C  C92  1  0.31306000  0.31612000  0.98739000  1.0
  C  C93  1  0.68694000  0.18388000  0.48739000  1.0
  C  C94  1  0.68694000  0.68389000  0.01261000  1.0
  C  C95  1  0.31306000  0.81612000  0.51261000  1.0
  C  C96  1  0.33895000  0.21227000  0.95049000  1.0
  C  C97  1  0.66105000  0.28772000  0.45049000  1.0
  C  C98  1  0.66106000  0.78773000  0.04950000  1.0
  C  C99  1  0.33896000  0.71228000  0.54951000  1.0
  C  C100  1  0.33442000  0.21567000  0.88054000  1.0
  C  C101  1  0.66557000  0.28433000  0.38054000  1.0
  C  C102  1  0.66559000  0.78433000  0.11946000  1.0
  C  C103  1  0.33443000  0.71567000  0.61946000  1.0
  C  C104  1  0.30545000  0.32503000  0.84958000  1.0
  C  C105  1  0.69455000  0.17497000  0.34958000  1.0
  C  C106  1  0.69455000  0.67498000  0.15042000  1.0
  C  C107  1  0.30545000  0.82503000  0.65042000  1.0
  N  N108  1  0.21729000  0.63059000  0.94470000  1.0
  N  N109  1  0.78271000  0.86941000  0.44470000  1.0
  N  N110  1  0.78271000  0.36942000  0.05530000  1.0
  N  N111  1  0.21729000  0.13059000  0.55530000  1.0
  N  N112  1  0.27716000  0.42441000  0.88477000  1.0
  N  N113  1  0.72285000  0.07559000  0.38477000  1.0
  N  N114  1  0.72285000  0.57560000  0.11523000  1.0
  N  N115  1  0.27715000  0.92441000  0.61523000  1.0
  O  O116  1  0.98212000  0.53337000  0.79625000  1.0
  O  O117  1  0.01791000  0.96663000  0.29626000  1.0
  O  O118  1  0.01788000  0.46663000  0.20375000  1.0
  O  O119  1  0.98210000  0.03337000  0.70374000  1.0
  O  O120  1  0.09825000  0.75856000  0.81666000  1.0
  O  O121  1  0.90177000  0.74145000  0.31667000  1.0
  O  O122  1  0.90173000  0.24144000  0.18333000  1.0
  O  O123  1  0.09823000  0.25856000  0.68334000  1.0
  O  O124  1  0.89216000  0.82593000  0.74111000  1.0
  O  O125  1  0.10785000  0.67407000  0.24111000  1.0
  O  O126  1  0.10783000  0.17407000  0.25888000  1.0
  O  O127  1  0.89214000  0.32593000  0.75889000  1.0
  O  O128  1  0.40241000  0.59240000  0.76718000  1.0
  O  O129  1  0.59760000  0.90760000  0.26718000  1.0
  O  O130  1  0.59758000  0.40760000  0.23283000  1.0
  O  O131  1  0.40240000  0.09240000  0.73283000  1.0
  O  O132  1  0.62290000  0.64924000  0.84313000  1.0
  O  O133  1  0.37711000  0.85076000  0.34313000  1.0
  O  O134  1  0.37710000  0.35076000  0.15686000  1.0
  O  O135  1  0.62288000  0.14924000  0.65687000  1.0
