# generated using pymatgen
data_LaH4C5N3O5
_symmetry_space_group_name_H-M   'P 1'
_cell_length_a   7.14761000
_cell_length_b   10.07370000
_cell_length_c   11.63070000
_cell_angle_alpha   90.00070000
_cell_angle_beta   90.00020000
_cell_angle_gamma   75.01300000
_symmetry_Int_Tables_number   1
_chemical_formula_structural   LaH4C5N3O5
_chemical_formula_sum   'La4 H16 C20 N12 O20'
_cell_volume   808.95783210
_cell_formula_units_Z   4
loop_
 _symmetry_equiv_pos_site_id
 _symmetry_equiv_pos_as_xyz
  1  'x, y, z'
loop_
 _atom_site_type_symbol
 _atom_site_label
 _atom_site_symmetry_multiplicity
 _atom_site_fract_x
 _atom_site_fract_y
 _atom_site_fract_z
 _atom_site_occupancy
  La  La0  1  0.22535000  0.92800000  0.61914000  1.0
  La  La1  1  0.27465000  0.57201000  0.11914000  1.0
  La  La2  1  0.77465000  0.07200000  0.38086000  1.0
  La  La3  1  0.72535000  0.42799000  0.88086000  1.0
  H  H4  1  0.75148000  0.03051000  0.86371000  1.0
  H  H5  1  0.74852000  0.46949000  0.36371000  1.0
  H  H6  1  0.24853000  0.96949000  0.13629000  1.0
  H  H7  1  0.25148000  0.53051000  0.63629000  1.0
  H  H8  1  0.63043000  0.96565000  0.06168000  1.0
  H  H9  1  0.86956000  0.53435000  0.56169000  1.0
  H  H10  1  0.36956000  0.03435000  0.93831000  1.0
  H  H11  1  0.13043000  0.46565000  0.43832000  1.0
  H  H12  1  0.80128000  0.84807000  0.14586000  1.0
  H  H13  1  0.69871000  0.65193000  0.64586000  1.0
  H  H14  1  0.19871000  0.15194000  0.85414000  1.0
  H  H15  1  0.30129000  0.34807000  0.35414000  1.0
  H  H16  1  0.49438000  0.07420000  0.70669000  1.0
  H  H17  1  0.00563000  0.42580000  0.20669000  1.0
  H  H18  1  0.50562000  0.92580000  0.29330000  1.0
  H  H19  1  0.99437000  0.57420000  0.79331000  1.0
  C  C20  1  0.31457000  0.68667000  0.83691000  1.0
  C  C21  1  0.18544000  0.81332000  0.33691000  1.0
  C  C22  1  0.68544000  0.31333000  0.16310000  1.0
  C  C23  1  0.81456000  0.18667000  0.66309000  1.0
  C  C24  1  0.13225000  0.78245000  0.87733000  1.0
  C  C25  1  0.36776000  0.71755000  0.37733000  1.0
  C  C26  1  0.86776000  0.21755000  0.12267000  1.0
  C  C27  1  0.63224000  0.28245000  0.62267000  1.0
  C  C28  1  0.87235000  0.94190000  0.88084000  1.0
  C  C29  1  0.62765000  0.55810000  0.38084000  1.0
  C  C30  1  0.12766000  0.05809000  0.11916000  1.0
  C  C31  1  0.37235000  0.44191000  0.61916000  1.0
  C  C32  1  0.73232000  0.86382000  0.06082000  1.0
  C  C33  1  0.76767000  0.63618000  0.56082000  1.0
  C  C34  1  0.26767000  0.13619000  0.93918000  1.0
  C  C35  1  0.23233000  0.36382000  0.43918000  1.0
  C  C36  1  0.62880000  0.74907000  0.04058000  1.0
  C  C37  1  0.87120000  0.75093000  0.54057000  1.0
  C  C38  1  0.37120000  0.25093000  0.95942000  1.0
  C  C39  1  0.12879000  0.24907000  0.45942000  1.0
  N  N40  1  0.88040000  0.86184000  0.97517000  1.0
  N  N41  1  0.61959000  0.63815000  0.47517000  1.0
  N  N42  1  0.11960000  0.13816000  0.02483000  1.0
  N  N43  1  0.38040000  0.36184000  0.52484000  1.0
  N  N44  1  0.03212000  0.89474000  0.81795000  1.0
  N  N45  1  0.46787000  0.60526000  0.31794000  1.0
  N  N46  1  0.96788000  0.10525000  0.18206000  1.0
  N  N47  1  0.53213000  0.39475000  0.68206000  1.0
  N  N48  1  0.04536000  0.75977000  0.97397000  1.0
  N  N49  1  0.45463000  0.74023000  0.47397000  1.0
  N  N50  1  0.95464000  0.24023000  0.02604000  1.0
  N  N51  1  0.54537000  0.25977000  0.52603000  1.0
  O  O52  1  0.37907000  0.58024000  0.89967000  1.0
  O  O53  1  0.12094000  0.91976000  0.39966000  1.0
  O  O54  1  0.62094000  0.41977000  0.10034000  1.0
  O  O55  1  0.87906000  0.08023000  0.60034000  1.0
  O  O56  1  0.38842000  0.71392000  0.74452000  1.0
  O  O57  1  0.11157000  0.78607000  0.24452000  1.0
  O  O58  1  0.61158000  0.28607000  0.25549000  1.0
  O  O59  1  0.88842000  0.21393000  0.75548000  1.0
  O  O60  1  0.71645000  0.64911000  0.97896000  1.0
  O  O61  1  0.78357000  0.85088000  0.47895000  1.0
  O  O62  1  0.28356000  0.35089000  0.02104000  1.0
  O  O63  1  0.21644000  0.14911000  0.52104000  1.0
  O  O64  1  0.46637000  0.76504000  0.09009000  1.0
  O  O65  1  0.03362000  0.73496000  0.59010000  1.0
  O  O66  1  0.53362000  0.23496000  0.90990000  1.0
  O  O67  1  0.96638000  0.26504000  0.40990000  1.0
  O  O68  1  0.44925000  0.99198000  0.71654000  1.0
  O  O69  1  0.05075000  0.50803000  0.21652000  1.0
  O  O70  1  0.55076000  0.00802000  0.28346000  1.0
  O  O71  1  0.94925000  0.49197000  0.78348000  1.0
