# generated using pymatgen
data_Cu2H34C44N8O9
_symmetry_space_group_name_H-M   'P 1'
_cell_length_a   10.22440000
_cell_length_b   18.75090000
_cell_length_c   22.49030000
_cell_angle_alpha   82.93320000
_cell_angle_beta   89.99970000
_cell_angle_gamma   89.99970000
_symmetry_Int_Tables_number   1
_chemical_formula_structural   Cu2H34C44N8O9
_chemical_formula_sum   'Cu8 H136 C176 N32 O36'
_cell_volume   4279.01134516
_cell_formula_units_Z   4
loop_
 _symmetry_equiv_pos_site_id
 _symmetry_equiv_pos_as_xyz
  1  'x, y, z'
loop_
 _atom_site_type_symbol
 _atom_site_label
 _atom_site_symmetry_multiplicity
 _atom_site_fract_x
 _atom_site_fract_y
 _atom_site_fract_z
 _atom_site_occupancy
  Cu  Cu0  1  0.53099000  0.10273000  0.32037000  1.0
  Cu  Cu1  1  0.03102000  0.39728000  0.17962000  1.0
  Cu  Cu2  1  0.46900000  0.89726000  0.67963000  1.0
  Cu  Cu3  1  0.96898000  0.60272000  0.82038000  1.0
  Cu  Cu4  1  0.54111000  0.76859000  0.38616000  1.0
  Cu  Cu5  1  0.04111000  0.73138000  0.11383000  1.0
  Cu  Cu6  1  0.45889000  0.23141000  0.61384000  1.0
  Cu  Cu7  1  0.95889000  0.26862000  0.88617000  1.0
  H  H8  1  0.78620000  0.77899000  0.19954000  1.0
  H  H9  1  0.28621000  0.72101000  0.30046000  1.0
  H  H10  1  0.21380000  0.22100000  0.80046000  1.0
  H  H11  1  0.71379000  0.27899000  0.69954000  1.0
  H  H12  1  0.93431000  0.85042000  0.12692000  1.0
  H  H13  1  0.43430000  0.64958000  0.37308000  1.0
  H  H14  1  0.06570000  0.14958000  0.87308000  1.0
  H  H15  1  0.56570000  0.35042000  0.62692000  1.0
  H  H16  1  0.76794000  0.04531000  0.17679000  1.0
  H  H17  1  0.26795000  0.45468000  0.32321000  1.0
  H  H18  1  0.23206000  0.95469000  0.82321000  1.0
  H  H19  1  0.73205000  0.54532000  0.67679000  1.0
  H  H20  1  0.94139000  0.08749000  0.01867000  1.0
  H  H21  1  0.44137000  0.41251000  0.48134000  1.0
  H  H22  1  0.05861000  0.91251000  0.98133000  1.0
  H  H23  1  0.55863000  0.58748000  0.51866000  1.0
  H  H24  1  0.08138000  0.17177000  0.20931000  1.0
  H  H25  1  0.58142000  0.32823000  0.29069000  1.0
  H  H26  1  0.91862000  0.82823000  0.79069000  1.0
  H  H27  1  0.41858000  0.67178000  0.70931000  1.0
  H  H28  1  0.02991000  0.04354000  0.20672000  1.0
  H  H29  1  0.52993000  0.45645000  0.29328000  1.0
  H  H30  1  0.97009000  0.95646000  0.79328000  1.0
  H  H31  1  0.47008000  0.54355000  0.70672000  1.0
  H  H32  1  0.38042000  0.11741000  0.44305000  1.0
  H  H33  1  0.88042000  0.38259000  0.05695000  1.0
  H  H34  1  0.61957000  0.88259000  0.55695000  1.0
  H  H35  1  0.11958000  0.61741000  0.94304000  1.0
  H  H36  1  0.51054000  0.93457000  0.36671000  1.0
  H  H37  1  0.01054000  0.56543000  0.13329000  1.0
  H  H38  1  0.48946000  0.06543000  0.63329000  1.0
  H  H39  1  0.98946000  0.43457000  0.86671000  1.0
  H  H40  1  0.38290000  0.88971000  0.47385000  1.0
  H  H41  1  0.88289000  0.61029000  0.02615000  1.0
  H  H42  1  0.61710000  0.11029000  0.52615000  1.0
  H  H43  1  0.11711000  0.38971000  0.97385000  1.0
  H  H44  1  0.30211000  0.05548000  0.54592000  1.0
  H  H45  1  0.80211000  0.44452000  0.95408000  1.0
  H  H46  1  0.69789000  0.94452000  0.45408000  1.0
  H  H47  1  0.19789000  0.55548000  0.04592000  1.0
  H  H48  1  0.30726000  0.96017000  0.55910000  1.0
  H  H49  1  0.80726000  0.53983000  0.94090000  1.0
  H  H50  1  0.69274000  0.03983000  0.44090000  1.0
  H  H51  1  0.19274000  0.46017000  0.05910000  1.0
  H  H52  1  0.13854000  0.89131000  0.49814000  1.0
  H  H53  1  0.63854000  0.60869000  0.00186000  1.0
  H  H54  1  0.86146000  0.10869000  0.50186000  1.0
  H  H55  1  0.36146000  0.39131000  0.99814000  1.0
  H  H56  1  0.09842000  0.11332000  0.52620000  1.0
  H  H57  1  0.59842000  0.38668000  0.97380000  1.0
  H  H58  1  0.90158000  0.88668000  0.47380000  1.0
  H  H59  1  0.40158000  0.61332000  0.02619000  1.0
  H  H60  1  0.76376000  0.46894000  0.49799000  1.0
  H  H61  1  0.26376000  0.03107000  0.00201000  1.0
  H  H62  1  0.23624000  0.53107000  0.50201000  1.0
  H  H63  1  0.73624000  0.96894000  0.99799000  1.0
  H  H64  1  0.11056000  0.55749000  0.40788000  1.0
  H  H65  1  0.61056000  0.94251000  0.09212000  1.0
  H  H66  1  0.88944000  0.44252000  0.59212000  1.0
  H  H67  1  0.38944000  0.05749000  0.90789000  1.0
  H  H68  1  0.76009000  0.50199000  0.39097000  1.0
  H  H69  1  0.26008000  0.99801000  0.10903000  1.0
  H  H70  1  0.23992000  0.49801000  0.60903000  1.0
  H  H71  1  0.73991000  0.00199000  0.89098000  1.0
  H  H72  1  0.90656000  0.52187000  0.34956000  1.0
  H  H73  1  0.40656000  0.97813000  0.15044000  1.0
  H  H74  1  0.09345000  0.47813000  0.65044000  1.0
  H  H75  1  0.59344000  0.02187000  0.84956000  1.0
  H  H76  1  0.62307000  0.60627000  0.41917000  1.0
  H  H77  1  0.12308000  0.89372000  0.08083000  1.0
  H  H78  1  0.37693000  0.39373000  0.58083000  1.0
  H  H79  1  0.87692000  0.10628000  0.91917000  1.0
  H  H80  1  0.98525000  0.65677000  0.33253000  1.0
  H  H81  1  0.48526000  0.84324000  0.16747000  1.0
  H  H82  1  0.01475000  0.34323000  0.66747000  1.0
  H  H83  1  0.51473000  0.15676000  0.83253000  1.0
  H  H84  1  0.84083000  0.78147000  0.33526000  1.0
  H  H85  1  0.34084000  0.71854000  0.16474000  1.0
  H  H86  1  0.15917000  0.21853000  0.66473000  1.0
  H  H87  1  0.65916000  0.28147000  0.83527000  1.0
  H  H88  1  0.87382000  0.62707000  0.20963000  1.0
  H  H89  1  0.37383000  0.87293000  0.29037000  1.0
  H  H90  1  0.12617000  0.37293000  0.79037000  1.0
  H  H91  1  0.62617000  0.12707000  0.70963000  1.0
  H  H92  1  0.76214000  0.75304000  0.04876000  1.0
  H  H93  1  0.26214000  0.74696000  0.45125000  1.0
  H  H94  1  0.23786000  0.24696000  0.95124000  1.0
  H  H95  1  0.73786000  0.25304000  0.54875000  1.0
  H  H96  1  0.54008000  0.69082000  0.10525000  1.0
  H  H97  1  0.04009000  0.80919000  0.39475000  1.0
  H  H98  1  0.45992000  0.30918000  0.89475000  1.0
  H  H99  1  0.95991000  0.19081000  0.60525000  1.0
  H  H100  1  0.65517000  0.59902000  0.25655000  1.0
  H  H101  1  0.15517000  0.90098000  0.24345000  1.0
  H  H102  1  0.34483000  0.40098000  0.74345000  1.0
  H  H103  1  0.84483000  0.09902000  0.75655000  1.0
  H  H104  1  0.51182000  0.63286000  0.21964000  1.0
  H  H105  1  0.01182000  0.86714000  0.28036000  1.0
  H  H106  1  0.48818000  0.36714000  0.78036000  1.0
  H  H107  1  0.98818000  0.13286000  0.71964000  1.0
  H  H108  1  0.77821000  0.49516000  0.20633000  1.0
  H  H109  1  0.27822000  0.00483000  0.29367000  1.0
  H  H110  1  0.22179000  0.50483000  0.79367000  1.0
  H  H111  1  0.72179000  0.99516000  0.70633000  1.0
  H  H112  1  0.73900000  0.37637000  0.17354000  1.0
  H  H113  1  0.23900000  0.12363000  0.32646000  1.0
  H  H114  1  0.26100000  0.62363000  0.82646000  1.0
  H  H115  1  0.76100000  0.87637000  0.67354000  1.0
  H  H116  1  0.32920000  0.42645000  0.15065000  1.0
  H  H117  1  0.82920000  0.07355000  0.34935000  1.0
  H  H118  1  0.67080000  0.57355000  0.84935000  1.0
  H  H119  1  0.17080000  0.92645000  0.65065000  1.0
  H  H120  1  0.36844000  0.54649000  0.18117000  1.0
  H  H121  1  0.86845000  0.95351000  0.31883000  1.0
  H  H122  1  0.63155000  0.45351000  0.81883000  1.0
  H  H123  1  0.13155000  0.04649000  0.68117000  1.0
  H  H124  1  0.55026000  0.32182000  0.09163000  1.0
  H  H125  1  0.05025000  0.17818000  0.40837000  1.0
  H  H126  1  0.44974000  0.67818000  0.90837000  1.0
  H  H127  1  0.94975000  0.82182000  0.59163000  1.0
  H  H128  1  0.40009000  0.31328000  0.13104000  1.0
  H  H129  1  0.90009000  0.18672000  0.36896000  1.0
  H  H130  1  0.59991000  0.68672000  0.86896000  1.0
  H  H131  1  0.09991000  0.81328000  0.63104000  1.0
  H  H132  1  0.39505000  0.23130000  0.23311000  1.0
  H  H133  1  0.89506000  0.26870000  0.26689000  1.0
  H  H134  1  0.60495000  0.76870000  0.76689000  1.0
  H  H135  1  0.10494000  0.73130000  0.73311000  1.0
  H  H136  1  0.75706000  0.25517000  0.14040000  1.0
  H  H137  1  0.25706000  0.24483000  0.35961000  1.0
  H  H138  1  0.24294000  0.74483000  0.85960000  1.0
  H  H139  1  0.74294000  0.75517000  0.64039000  1.0
  H  H140  1  0.77225000  0.14002000  0.23088000  1.0
  H  H141  1  0.27225000  0.35998000  0.26912000  1.0
  H  H142  1  0.22775000  0.85998000  0.76912000  1.0
  H  H143  1  0.72775000  0.64002000  0.73088000  1.0
  C  C144  1  0.61451000  0.82382000  0.27365000  1.0
  C  C145  1  0.11451000  0.67619000  0.22635000  1.0
  C  C146  1  0.38549000  0.17618000  0.72635000  1.0
  C  C147  1  0.88549000  0.32381000  0.77365000  1.0
  C  C148  1  0.69324000  0.87117000  0.22847000  1.0
  C  C149  1  0.19324000  0.62883000  0.27153000  1.0
  C  C150  1  0.30676000  0.12883000  0.77153000  1.0
  C  C151  1  0.80676000  0.37117000  0.72847000  1.0
  C  C152  1  0.78178000  0.83731000  0.19373000  1.0
  C  C153  1  0.28178000  0.66269000  0.30627000  1.0
  C  C154  1  0.21822000  0.16269000  0.80627000  1.0
  C  C155  1  0.71822000  0.33731000  0.69373000  1.0
  C  C156  1  0.86650000  0.87679000  0.15428000  1.0
  C  C157  1  0.36650000  0.62321000  0.34572000  1.0
  C  C158  1  0.13350000  0.12321000  0.84572000  1.0
  C  C159  1  0.63350000  0.37679000  0.65429000  1.0
  C  C160  1  0.86322000  0.95163000  0.14914000  1.0
  C  C161  1  0.36321000  0.54837000  0.35086000  1.0
  C  C162  1  0.13679000  0.04837000  0.85086000  1.0
  C  C163  1  0.63679000  0.45163000  0.64914000  1.0
  C  C164  1  0.77340000  0.98690000  0.18221000  1.0
  C  C165  1  0.27341000  0.51310000  0.31778000  1.0
  C  C166  1  0.22660000  0.01310000  0.81779000  1.0
  C  C167  1  0.72660000  0.48690000  0.68222000  1.0
  C  C168  1  0.68866000  0.94666000  0.22209000  1.0
  C  C169  1  0.18866000  0.55334000  0.27791000  1.0
  C  C170  1  0.31134000  0.05334000  0.77791000  1.0
  C  C171  1  0.81134000  0.44666000  0.72210000  1.0
  C  C172  1  0.58871000  0.98599000  0.25502000  1.0
  C  C173  1  0.08870000  0.51400000  0.24498000  1.0
  C  C174  1  0.41129000  0.01401000  0.74497000  1.0
  C  C175  1  0.91130000  0.48600000  0.75502000  1.0
  C  C176  1  0.97931000  0.05863000  0.11242000  1.0
  C  C177  1  0.47930000  0.44136000  0.38758000  1.0
  C  C178  1  0.02069000  0.94137000  0.88758000  1.0
  C  C179  1  0.52070000  0.55864000  0.61242000  1.0
  C  C180  1  0.97152000  0.10650000  0.06036000  1.0
  C  C181  1  0.47147000  0.39350000  0.43964000  1.0
  C  C182  1  0.02849000  0.89350000  0.93964000  1.0
  C  C183  1  0.52853000  0.60650000  0.56036000  1.0
  C  C184  1  0.99881000  0.17949000  0.06190000  1.0
  C  C185  1  0.49873000  0.32051000  0.43809000  1.0
  C  C186  1  0.00120000  0.82051000  0.93810000  1.0
  C  C187  1  0.50126000  0.67949000  0.56190000  1.0
  C  C188  1  0.03610000  0.20374000  0.11593000  1.0
  C  C189  1  0.53610000  0.29625000  0.38408000  1.0
  C  C190  1  0.96390000  0.79626000  0.88407000  1.0
  C  C191  1  0.46390000  0.70374000  0.61592000  1.0
  C  C192  1  0.04947000  0.15380000  0.16735000  1.0
  C  C193  1  0.54946000  0.34619000  0.33266000  1.0
  C  C194  1  0.95053000  0.84620000  0.83265000  1.0
  C  C195  1  0.45054000  0.65381000  0.66735000  1.0
  C  C196  1  0.02148000  0.08139000  0.16614000  1.0
  C  C197  1  0.52145000  0.41860000  0.33386000  1.0
  C  C198  1  0.97852000  0.91861000  0.83386000  1.0
  C  C199  1  0.47855000  0.58140000  0.66614000  1.0
  C  C200  1  0.06065000  0.28149000  0.12274000  1.0
  C  C201  1  0.56070000  0.21852000  0.37727000  1.0
  C  C202  1  0.93935000  0.71851000  0.87726000  1.0
  C  C203  1  0.43930000  0.78148000  0.62273000  1.0
  C  C204  1  0.39430000  0.06205000  0.43474000  1.0
  C  C205  1  0.89430000  0.43795000  0.06526000  1.0
  C  C206  1  0.60570000  0.93795000  0.56526000  1.0
  C  C207  1  0.10570000  0.56205000  0.93474000  1.0
  C  C208  1  0.46099000  0.96567000  0.39738000  1.0
  C  C209  1  0.96099000  0.53433000  0.10262000  1.0
  C  C210  1  0.53901000  0.03433000  0.60262000  1.0
  C  C211  1  0.03901000  0.46567000  0.89738000  1.0
  C  C212  1  0.39713000  0.94284000  0.44993000  1.0
  C  C213  1  0.89713000  0.55716000  0.05007000  1.0
  C  C214  1  0.60287000  0.05715000  0.55007000  1.0
  C  C215  1  0.10287000  0.44284000  0.94994000  1.0
  C  C216  1  0.27737000  0.00609000  0.52692000  1.0
  C  C217  1  0.77737000  0.49391000  0.97308000  1.0
  C  C218  1  0.72263000  0.99391000  0.47308000  1.0
  C  C219  1  0.22263000  0.50609000  0.02692000  1.0
  C  C220  1  0.13355000  0.00283000  0.51344000  1.0
  C  C221  1  0.63355000  0.49717000  0.98656000  1.0
  C  C222  1  0.86645000  0.99717000  0.48656000  1.0
  C  C223  1  0.36645000  0.50283000  0.01344000  1.0
  C  C224  1  0.07779000  0.93905000  0.49893000  1.0
  C  C225  1  0.57779000  0.56095000  0.00107000  1.0
  C  C226  1  0.92221000  0.06095000  0.50107000  1.0
  C  C227  1  0.42221000  0.43905000  0.99893000  1.0
  C  C228  1  0.05492000  0.06366000  0.51446000  1.0
  C  C229  1  0.55492000  0.43634000  0.98554000  1.0
  C  C230  1  0.94508000  0.93634000  0.48554000  1.0
  C  C231  1  0.44508000  0.56366000  0.01446000  1.0
  C  C232  1  0.98213000  0.23008000  0.00538000  1.0
  C  C233  1  0.48212000  0.26990000  0.49461000  1.0
  C  C234  1  0.01787000  0.76992000  0.99462000  1.0
  C  C235  1  0.51788000  0.73010000  0.50539000  1.0
  C  C236  1  0.86749000  0.48277000  0.49867000  1.0
  C  C237  1  0.36748000  0.01723000  0.00132000  1.0
  C  C238  1  0.13252000  0.51723000  0.50132000  1.0
  C  C239  1  0.63251000  0.98277000  0.99867000  1.0
  C  C240  1  0.92833000  0.51531000  0.44643000  1.0
  C  C241  1  0.42833000  0.98469000  0.05357000  1.0
  C  C242  1  0.07167000  0.48469000  0.55357000  1.0
  C  C243  1  0.57167000  0.01531000  0.94643000  1.0
  C  C244  1  0.06162000  0.53235000  0.44826000  1.0
  C  C245  1  0.56162000  0.96765000  0.05174000  1.0
  C  C246  1  0.93838000  0.46765000  0.55174000  1.0
  C  C247  1  0.43838000  0.03235000  0.94826000  1.0
  C  C248  1  0.85114000  0.53323000  0.38923000  1.0
  C  C249  1  0.35114000  0.96677000  0.11077000  1.0
  C  C250  1  0.14886000  0.46677000  0.61077000  1.0
  C  C251  1  0.64886000  0.03323000  0.88923000  1.0
  C  C252  1  0.70163000  0.63801000  0.39714000  1.0
  C  C253  1  0.20164000  0.86198000  0.10286000  1.0
  C  C254  1  0.29837000  0.36199000  0.60286000  1.0
  C  C255  1  0.79836000  0.13802000  0.89714000  1.0
  C  C256  1  0.89013000  0.66522000  0.35153000  1.0
  C  C257  1  0.39014000  0.83479000  0.14847000  1.0
  C  C258  1  0.10987000  0.33478000  0.64846000  1.0
  C  C259  1  0.60986000  0.16521000  0.85153000  1.0
  C  C260  1  0.81837000  0.72677000  0.35360000  1.0
  C  C261  1  0.31838000  0.77324000  0.14641000  1.0
  C  C262  1  0.18163000  0.27323000  0.64640000  1.0
  C  C263  1  0.68162000  0.22677000  0.85360000  1.0
  C  C264  1  0.81556000  0.65408000  0.17330000  1.0
  C  C265  1  0.31558000  0.84592000  0.32670000  1.0
  C  C266  1  0.18444000  0.34592000  0.82670000  1.0
  C  C267  1  0.68442000  0.15408000  0.67330000  1.0
  C  C268  1  0.75240000  0.71704000  0.08996000  1.0
  C  C269  1  0.25241000  0.78296000  0.41004000  1.0
  C  C270  1  0.24760000  0.28296000  0.91004000  1.0
  C  C271  1  0.74759000  0.21704000  0.58996000  1.0
  C  C272  1  0.64241000  0.68679000  0.11748000  1.0
  C  C273  1  0.14242000  0.81320000  0.38252000  1.0
  C  C274  1  0.35759000  0.31321000  0.88252000  1.0
  C  C275  1  0.85758000  0.18680000  0.61748000  1.0
  C  C276  1  0.60248000  0.60333000  0.21367000  1.0
  C  C277  1  0.10249000  0.89667000  0.28633000  1.0
  C  C278  1  0.39752000  0.39667000  0.78633000  1.0
  C  C279  1  0.89751000  0.10333000  0.71367000  1.0
  C  C280  1  0.57639000  0.53002000  0.19467000  1.0
  C  C281  1  0.07639000  0.96998000  0.30533000  1.0
  C  C282  1  0.42361000  0.46998000  0.80533000  1.0
  C  C283  1  0.92361000  0.03002000  0.69467000  1.0
  C  C284  1  0.67968000  0.48089000  0.19307000  1.0
  C  C285  1  0.17969000  0.01911000  0.30693000  1.0
  C  C286  1  0.32032000  0.51911000  0.80693000  1.0
  C  C287  1  0.82032000  0.98089000  0.69307000  1.0
  C  C288  1  0.65718000  0.41348000  0.17509000  1.0
  C  C289  1  0.15718000  0.08652000  0.32491000  1.0
  C  C290  1  0.34282000  0.58652000  0.82491000  1.0
  C  C291  1  0.84282000  0.91348000  0.67509000  1.0
  C  C292  1  0.53109000  0.39325000  0.15900000  1.0
  C  C293  1  0.03109000  0.10675000  0.34100000  1.0
  C  C294  1  0.46891000  0.60675000  0.84100000  1.0
  C  C295  1  0.96891000  0.89325000  0.65900000  1.0
  C  C296  1  0.42817000  0.44175000  0.16184000  1.0
  C  C297  1  0.92817000  0.05825000  0.33816000  1.0
  C  C298  1  0.57183000  0.55825000  0.83816000  1.0
  C  C299  1  0.07183000  0.94175000  0.66184000  1.0
  C  C300  1  0.45069000  0.50986000  0.17902000  1.0
  C  C301  1  0.95070000  0.99014000  0.32098000  1.0
  C  C302  1  0.54931000  0.49015000  0.82098000  1.0
  C  C303  1  0.04931000  0.00986000  0.67902000  1.0
  C  C304  1  0.50560000  0.32186000  0.13609000  1.0
  C  C305  1  0.00560000  0.17814000  0.36391000  1.0
  C  C306  1  0.49441000  0.67814000  0.86391000  1.0
  C  C307  1  0.99440000  0.82186000  0.63609000  1.0
  C  C308  1  0.49478000  0.22062000  0.22027000  1.0
  C  C309  1  0.99479000  0.27938000  0.27973000  1.0
  C  C310  1  0.50522000  0.77938000  0.77973000  1.0
  C  C311  1  0.00522000  0.72062000  0.72027000  1.0
  C  C312  1  0.68424000  0.23207000  0.17218000  1.0
  C  C313  1  0.18424000  0.26793000  0.32782000  1.0
  C  C314  1  0.31575000  0.76793000  0.82782000  1.0
  C  C315  1  0.81575000  0.73207000  0.67218000  1.0
  C  C316  1  0.69145000  0.17579000  0.21744000  1.0
  C  C317  1  0.19145000  0.32421000  0.28256000  1.0
  C  C318  1  0.30855000  0.82421000  0.78256000  1.0
  C  C319  1  0.80855000  0.67579000  0.71744000  1.0
  N  N320  1  0.81437000  0.60957000  0.37888000  1.0
  N  N321  1  0.31437000  0.89043000  0.12112000  1.0
  N  N322  1  0.18563000  0.39043000  0.62112000  1.0
  N  N323  1  0.68563000  0.10958000  0.87888000  1.0
  N  N324  1  0.70114000  0.70915000  0.38220000  1.0
  N  N325  1  0.20115000  0.79085000  0.11780000  1.0
  N  N326  1  0.29886000  0.29085000  0.61780000  1.0
  N  N327  1  0.79885000  0.20915000  0.88220000  1.0
  N  N328  1  0.85976000  0.69612000  0.12521000  1.0
  N  N329  1  0.35977000  0.80388000  0.37479000  1.0
  N  N330  1  0.14024000  0.30388000  0.87479000  1.0
  N  N331  1  0.64023000  0.19612000  0.62521000  1.0
  N  N332  1  0.68411000  0.64768000  0.17009000  1.0
  N  N333  1  0.18412000  0.85232000  0.32991000  1.0
  N  N334  1  0.31589000  0.35232000  0.82991000  1.0
  N  N335  1  0.81587000  0.14769000  0.67009000  1.0
  N  N336  1  0.55904000  0.25961000  0.17445000  1.0
  N  N337  1  0.05904000  0.24039000  0.32555000  1.0
  N  N338  1  0.44096000  0.74039000  0.82555000  1.0
  N  N339  1  0.94096000  0.75961000  0.67445000  1.0
  N  N340  1  0.57264000  0.16919000  0.24689000  1.0
  N  N341  1  0.07264000  0.33081000  0.25311000  1.0
  N  N342  1  0.42736000  0.83081000  0.75311000  1.0
  N  N343  1  0.92736000  0.66919000  0.74689000  1.0
  N  N344  1  0.45858000  0.03995000  0.38848000  1.0
  N  N345  1  0.95858000  0.46006000  0.11152000  1.0
  N  N346  1  0.54142000  0.96005000  0.61152000  1.0
  N  N347  1  0.04142000  0.53994000  0.88848000  1.0
  N  N348  1  0.35623000  0.00420000  0.47279000  1.0
  N  N349  1  0.85623000  0.49580000  0.02721000  1.0
  N  N350  1  0.64377000  0.99580000  0.52721000  1.0
  N  N351  1  0.14377000  0.50420000  0.97279000  1.0
  O  O352  1  0.56349000  0.76744000  0.26042000  1.0
  O  O353  1  0.06348000  0.73256000  0.23959000  1.0
  O  O354  1  0.43651000  0.23256000  0.73958000  1.0
  O  O355  1  0.93652000  0.26744000  0.76042000  1.0
  O  O356  1  0.61176000  0.84499000  0.32684000  1.0
  O  O357  1  0.11177000  0.65502000  0.17316000  1.0
  O  O358  1  0.38825000  0.15501000  0.67316000  1.0
  O  O359  1  0.88824000  0.34498000  0.82684000  1.0
  O  O360  1  0.46949000  0.97672000  0.24591000  1.0
  O  O361  1  0.96947000  0.52327000  0.25409000  1.0
  O  O362  1  0.53051000  0.02328000  0.75409000  1.0
  O  O363  1  0.03053000  0.47673000  0.74591000  1.0
  O  O364  1  0.63878000  0.02881000  0.28970000  1.0
  O  O365  1  0.13879000  0.47117000  0.21032000  1.0
  O  O366  1  0.36121000  0.97119000  0.71030000  1.0
  O  O367  1  0.86121000  0.52883000  0.78968000  1.0
  O  O368  1  0.94942000  0.98710000  0.10809000  1.0
  O  O369  1  0.44942000  0.51290000  0.39190000  1.0
  O  O370  1  0.05058000  0.01290000  0.89191000  1.0
  O  O371  1  0.55058000  0.48710000  0.60809000  1.0
  O  O372  1  0.96193000  0.31117000  0.14652000  1.0
  O  O373  1  0.46196000  0.18886000  0.35349000  1.0
  O  O374  1  0.03807000  0.68884000  0.85348000  1.0
  O  O375  1  0.53804000  0.81114000  0.64651000  1.0
  O  O376  1  0.16911000  0.31071000  0.11132000  1.0
  O  O377  1  0.66914000  0.18928000  0.38869000  1.0
  O  O378  1  0.83090000  0.68929000  0.88868000  1.0
  O  O379  1  0.33086000  0.81071000  0.61131000  1.0
  O  O380  1  0.94204000  0.29301000  0.00610000  1.0
  O  O381  1  0.44199000  0.20697000  0.49389000  1.0
  O  O382  1  0.05797000  0.70699000  0.99390000  1.0
  O  O383  1  0.55800000  0.79303000  0.50611000  1.0
  O  O384  1  0.01151000  0.20175000  0.95727000  1.0
  O  O385  1  0.51164000  0.29821000  0.54272000  1.0
  O  O386  1  0.98849000  0.79825000  0.04273000  1.0
  O  O387  1  0.48836000  0.70179000  0.45728000  1.0
