# generated using pymatgen
data_Zn4C40Br16Cl4O13
_symmetry_space_group_name_H-M   'P 1'
_cell_length_a   24.04829770
_cell_length_b   24.04840000
_cell_length_c   24.04670000
_cell_angle_alpha   66.41590000
_cell_angle_beta   72.54370335
_cell_angle_gamma   107.45534150
_symmetry_Int_Tables_number   1
_chemical_formula_structural   Zn4C40Br16Cl4O13
_chemical_formula_sum   'Zn8 C80 Br32 Cl8 O26'
_cell_volume   10663.47658611
_cell_formula_units_Z   2
loop_
 _symmetry_equiv_pos_site_id
 _symmetry_equiv_pos_as_xyz
  1  'x, y, z'
loop_
 _atom_site_type_symbol
 _atom_site_label
 _atom_site_symmetry_multiplicity
 _atom_site_fract_x
 _atom_site_fract_y
 _atom_site_fract_z
 _atom_site_occupancy
  Zn  Zn0  1  0.05650000  0.09907000  0.45742000  1.0
  Zn  Zn1  1  0.05650000  0.95742000  0.48608000  1.0
  Zn  Zn2  1  0.94349000  0.95741000  0.59910000  1.0
  Zn  Zn3  1  0.94351000  0.98609000  0.45741000  1.0
  Zn  Zn4  1  0.94350000  0.40092000  0.04258000  1.0
  Zn  Zn5  1  0.05651000  0.54259000  0.90091000  1.0
  Zn  Zn6  1  0.94350000  0.54258000  0.01392000  1.0
  Zn  Zn7  1  0.05649000  0.51391000  0.04259000  1.0
  C  C8  1  0.18038000  0.09019000  0.40980000  1.0
  C  C9  1  0.99999000  0.86294000  0.63706000  1.0
  C  C10  1  0.99999000  0.09017000  0.59020000  1.0
  C  C11  1  0.81962000  0.90982000  0.59018000  1.0
  C  C12  1  0.00001000  0.13706000  0.36294000  1.0
  C  C13  1  0.00000000  0.90982000  0.40981000  1.0
  C  C14  1  0.00000000  0.40982000  0.90980000  1.0
  C  C15  1  0.00001000  0.63705000  0.86294000  1.0
  C  C16  1  0.81962000  0.40981000  0.09020000  1.0
  C  C17  1  0.99999000  0.59019000  0.09019000  1.0
  C  C18  1  0.99999000  0.36294000  0.13706000  1.0
  C  C19  1  0.18037000  0.59018000  0.90983000  1.0
  C  C20  1  0.00000000  0.19489000  0.30511000  1.0
  C  C21  1  0.00000000  0.30511000  0.19489000  1.0
  C  C22  1  0.95744000  0.18051000  0.27693000  1.0
  C  C23  1  0.04257000  0.31950000  0.22307000  1.0
  C  C24  1  0.95743000  0.23436000  0.22308000  1.0
  C  C25  1  0.04257000  0.26564000  0.27692000  1.0
  C  C26  1  0.00000000  0.80511000  0.69489000  1.0
  C  C27  1  0.00001000  0.69490000  0.80510000  1.0
  C  C28  1  0.95744000  0.77693000  0.76564000  1.0
  C  C29  1  0.04257000  0.72308000  0.73435000  1.0
  C  C30  1  0.95744000  0.72307000  0.81950000  1.0
  C  C31  1  0.04256000  0.77693000  0.68050000  1.0
  C  C32  1  0.00000000  0.37211000  0.87208000  1.0
  C  C33  1  0.95710000  0.29951000  0.90777000  1.0
  C  C34  1  0.95736000  0.26501000  0.87243000  1.0
  C  C35  1  0.99999000  0.30040000  0.80039000  1.0
  C  C36  1  0.04262000  0.37243000  0.76500000  1.0
  C  C37  1  0.04290000  0.40779000  0.79948000  1.0
  C  C38  1  0.99998000  0.26522000  0.76521000  1.0
  C  C39  1  0.99998000  0.23479000  0.73477000  1.0
  C  C40  1  0.99997000  0.19960000  0.69960000  1.0
  C  C41  1  0.95736000  0.12757000  0.73500000  1.0
  C  C42  1  0.95709000  0.09222000  0.70051000  1.0
  C  C43  1  0.99998000  0.12790000  0.62791000  1.0
  C  C44  1  0.04286000  0.20051000  0.59221000  1.0
  C  C45  1  0.04259000  0.23500000  0.62755000  1.0
  C  C46  1  0.00001000  0.62793000  0.12788000  1.0
  C  C47  1  0.04291000  0.63515000  0.15758000  1.0
  C  C48  1  0.04264000  0.67023000  0.19234000  1.0
  C  C49  1  0.00000000  0.69962000  0.19958000  1.0
  C  C50  1  0.95738000  0.69239000  0.17017000  1.0
  C  C51  1  0.95711000  0.65763000  0.13509000  1.0
  C  C52  1  0.00000000  0.73480000  0.23477000  1.0
  C  C53  1  0.99999000  0.76522000  0.26522000  1.0
  C  C54  1  0.99998000  0.80038000  0.30041000  1.0
  C  C55  1  0.04259000  0.80759000  0.32984000  1.0
  C  C56  1  0.04286000  0.84235000  0.36492000  1.0
  C  C57  1  0.99998000  0.87207000  0.37211000  1.0
  C  C58  1  0.95708000  0.86486000  0.34241000  1.0
  C  C59  1  0.95736000  0.82980000  0.30764000  1.0
  C  C60  1  0.74419000  0.37210000  0.12791000  1.0
  C  C61  1  0.70728000  0.29950000  0.15762000  1.0
  C  C62  1  0.63744000  0.26501000  0.19239000  1.0
  C  C63  1  0.60080000  0.30040000  0.19961000  1.0
  C  C64  1  0.63744000  0.37244000  0.17018000  1.0
  C  C65  1  0.70728000  0.40779000  0.13510000  1.0
  C  C66  1  0.53044000  0.26522000  0.23480000  1.0
  C  C67  1  0.46957000  0.23477000  0.26525000  1.0
  C  C68  1  0.39921000  0.19959000  0.30043000  1.0
  C  C69  1  0.36257000  0.12756000  0.32983000  1.0
  C  C70  1  0.29273000  0.09221000  0.36491000  1.0
  C  C71  1  0.25582000  0.12790000  0.37212000  1.0
  C  C72  1  0.29273000  0.20049000  0.34243000  1.0
  C  C73  1  0.36257000  0.23498000  0.30767000  1.0
  C  C74  1  0.25581000  0.62791000  0.87211000  1.0
  C  C75  1  0.29273000  0.65764000  0.79950000  1.0
  C  C76  1  0.36257000  0.69241000  0.76500000  1.0
  C  C77  1  0.39920000  0.69962000  0.80041000  1.0
  C  C78  1  0.36256000  0.67019000  0.87245000  1.0
  C  C79  1  0.29272000  0.63511000  0.90780000  1.0
  C  C80  1  0.46957000  0.73481000  0.76522000  1.0
  C  C81  1  0.53043000  0.76524000  0.73477000  1.0
  C  C82  1  0.60080000  0.80043000  0.69958000  1.0
  C  C83  1  0.63744000  0.82983000  0.62755000  1.0
  C  C84  1  0.70728000  0.86490000  0.59220000  1.0
  C  C85  1  0.74419000  0.87212000  0.62789000  1.0
  C  C86  1  0.70727000  0.84242000  0.70049000  1.0
  C  C87  1  0.63743000  0.80765000  0.73499000  1.0
  Br  Br88  1  0.89644000  0.24245000  0.00422000  1.0
  Br  Br89  1  0.10356000  0.50423000  0.74241000  1.0
  Br  Br90  1  0.09904000  0.41862000  0.66921000  1.0
  Br  Br91  1  0.90095000  0.16924000  0.91862000  1.0
  Br  Br92  1  0.90097000  0.08138000  0.83079000  1.0
  Br  Br93  1  0.09898000  0.33078000  0.58136000  1.0
  Br  Br94  1  0.10345000  0.25757000  0.49575000  1.0
  Br  Br95  1  0.89645000  0.99578000  0.75758000  1.0
  Br  Br96  1  0.10359000  0.59940000  0.15395000  1.0
  Br  Br97  1  0.89647000  0.65405000  0.09929000  1.0
  Br  Br98  1  0.90097000  0.73175000  0.18040000  1.0
  Br  Br99  1  0.09905000  0.68046000  0.23170000  1.0
  Br  Br100  1  0.09898000  0.76821000  0.31963000  1.0
  Br  Br101  1  0.90097000  0.81959000  0.26825000  1.0
  Br  Br102  1  0.89643000  0.90065000  0.34601000  1.0
  Br  Br103  1  0.10347000  0.84590000  0.40076000  1.0
  Br  Br104  1  0.74666000  0.24244000  0.15404000  1.0
  Br  Br105  1  0.74666000  0.50424000  0.09928000  1.0
  Br  Br106  1  0.58784000  0.41862000  0.18039000  1.0
  Br  Br107  1  0.58784000  0.16923000  0.23178000  1.0
  Br  Br108  1  0.41216000  0.08138000  0.31961000  1.0
  Br  Br109  1  0.41216000  0.33075000  0.26831000  1.0
  Br  Br110  1  0.25335000  0.25754000  0.34606000  1.0
  Br  Br111  1  0.25335000  0.99577000  0.40071000  1.0
  Br  Br112  1  0.25335000  0.65410000  0.74242000  1.0
  Br  Br113  1  0.25333000  0.59930000  0.00425000  1.0
  Br  Br114  1  0.41215000  0.68039000  0.91864000  1.0
  Br  Br115  1  0.41217000  0.73180000  0.66922000  1.0
  Br  Br116  1  0.58785000  0.81961000  0.58136000  1.0
  Br  Br117  1  0.58783000  0.76828000  0.83077000  1.0
  Br  Br118  1  0.74665000  0.84603000  0.75755000  1.0
  Br  Br119  1  0.74667000  0.90070000  0.49575000  1.0
  Cl  Cl120  1  0.90311000  0.09770000  0.30541000  1.0
  Cl  Cl121  1  0.09690000  0.40231000  0.19458000  1.0
  Cl  Cl122  1  0.90311000  0.20852000  0.19459000  1.0
  Cl  Cl123  1  0.09690000  0.29148000  0.30540000  1.0
  Cl  Cl124  1  0.90311000  0.80540000  0.79150000  1.0
  Cl  Cl125  1  0.09689000  0.69459000  0.70850000  1.0
  Cl  Cl126  1  0.90311000  0.69458000  0.90232000  1.0
  Cl  Cl127  1  0.09689000  0.80542000  0.59768000  1.0
  O  O128  1  0.00000000  0.00000000  0.50000000  1.0
  O  O129  1  0.15096000  0.12533000  0.41438000  1.0
  O  O130  1  0.03949000  0.88536000  0.57515000  1.0
  O  O131  1  0.96023000  0.02562000  0.62534000  1.0
  O  O132  1  0.15096000  0.02563000  0.43462000  1.0
  O  O133  1  0.03977000  0.12531000  0.52564000  1.0
  O  O134  1  0.96050000  0.88535000  0.65414000  1.0
  O  O135  1  0.84904000  0.91441000  0.62532000  1.0
  O  O136  1  0.96052000  0.07515000  0.38535000  1.0
  O  O137  1  0.84905000  0.93465000  0.52561000  1.0
  O  O138  1  0.03949000  0.15414000  0.38537000  1.0
  O  O139  1  0.03975000  0.91443000  0.43461000  1.0
  O  O140  1  0.96026000  0.93463000  0.41441000  1.0
  O  O141  1  0.00000000  0.50000000  1.00000000  1.0
  O  O142  1  0.96026000  0.37468000  0.97437000  1.0
  O  O143  1  0.03952000  0.61466000  0.84585000  1.0
  O  O144  1  0.84904000  0.47437000  0.06541000  1.0
  O  O145  1  0.03974000  0.47438000  0.87466000  1.0
  O  O146  1  0.84904000  0.37468000  0.08558000  1.0
  O  O147  1  0.96050000  0.61462000  0.92486000  1.0
  O  O148  1  0.96026000  0.58560000  0.06536000  1.0
  O  O149  1  0.03948000  0.42485000  0.11465000  1.0
  O  O150  1  0.03971000  0.56534000  0.08562000  1.0
  O  O151  1  0.96050000  0.34586000  0.11465000  1.0
  O  O152  1  0.15096000  0.58556000  0.87469000  1.0
  O  O153  1  0.15095000  0.56539000  0.97438000  1.0
