# generated using pymatgen
data_CuH9C11NCl2O5
_symmetry_space_group_name_H-M   'P 1'
_cell_length_a   9.27646000
_cell_length_b   10.87190000
_cell_length_c   10.88340000
_cell_angle_alpha   92.25290000
_cell_angle_beta   105.23400000
_cell_angle_gamma   112.28700000
_symmetry_Int_Tables_number   1
_chemical_formula_structural   CuH9C11NCl2O5
_chemical_formula_sum   'Cu2 H18 C22 N2 Cl4 O10'
_cell_volume   967.99235155
_cell_formula_units_Z   2
loop_
 _symmetry_equiv_pos_site_id
 _symmetry_equiv_pos_as_xyz
  1  'x, y, z'
loop_
 _atom_site_type_symbol
 _atom_site_label
 _atom_site_symmetry_multiplicity
 _atom_site_fract_x
 _atom_site_fract_y
 _atom_site_fract_z
 _atom_site_occupancy
  Cu  Cu0  1  0.84077000  0.94846000  0.96361000  1.0
  Cu  Cu1  1  0.15925000  0.05154000  0.03640000  1.0
  H  H2  1  0.90893000  0.57935000  0.79428000  1.0
  H  H3  1  0.09106000  0.42064000  0.20571000  1.0
  H  H4  1  0.16298000  0.20028000  0.66960000  1.0
  H  H5  1  0.83703000  0.79972000  0.33041000  1.0
  H  H6  1  0.57951000  0.70769000  0.77290000  1.0
  H  H7  1  0.42048000  0.29230000  0.22710000  1.0
  H  H8  1  0.32166000  0.87125000  0.81912000  1.0
  H  H9  1  0.67834000  0.12876000  0.18088000  1.0
  H  H10  1  0.14415000  0.71762000  0.75766000  1.0
  H  H11  1  0.85584000  0.28239000  0.24234000  1.0
  H  H12  1  0.21443000  0.82926000  0.64987000  1.0
  H  H13  1  0.78557000  0.17075000  0.35013000  1.0
  H  H14  1  0.38119000  0.56756000  0.61819000  1.0
  H  H15  1  0.61881000  0.43244000  0.38180000  1.0
  H  H16  1  0.24556000  0.63343000  0.52531000  1.0
  H  H17  1  0.75443000  0.36657000  0.47468000  1.0
  H  H18  1  0.18367000  0.52464000  0.63784000  1.0
  H  H19  1  0.81632000  0.47536000  0.36216000  1.0
  C  C20  1  0.00773000  0.23552000  0.99980000  1.0
  C  C21  1  0.99227000  0.76447000  0.00021000  1.0
  C  C22  1  0.00634000  0.37306000  0.99831000  1.0
  C  C23  1  0.99363000  0.62693000  0.00169000  1.0
  C  C24  1  0.95661000  0.41904000  0.88282000  1.0
  C  C25  1  0.04338000  0.58095000  0.11717000  1.0
  C  C26  1  0.94918000  0.54463000  0.88446000  1.0
  C  C27  1  0.05080000  0.45536000  0.11554000  1.0
  C  C28  1  0.00039000  0.00921000  0.23354000  1.0
  C  C29  1  0.99963000  0.99080000  0.76647000  1.0
  C  C30  1  0.00122000  0.00863000  0.37148000  1.0
  C  C31  1  0.99879000  0.99137000  0.62852000  1.0
  C  C32  1  0.09266000  0.12172000  0.46780000  1.0
  C  C33  1  0.90736000  0.87827000  0.53221000  1.0
  C  C34  1  0.09170000  0.11266000  0.59484000  1.0
  C  C35  1  0.90832000  0.88734000  0.40517000  1.0
  C  C36  1  0.51220000  0.76553000  0.79677000  1.0
  C  C37  1  0.48780000  0.23447000  0.20323000  1.0
  C  C38  1  0.25333000  0.78895000  0.73784000  1.0
  C  C39  1  0.74666000  0.21106000  0.26216000  1.0
  C  C40  1  0.28786000  0.60571000  0.62018000  1.0
  C  C41  1  0.71213000  0.39429000  0.37981000  1.0
  N  N42  1  0.35679000  0.72135000  0.72095000  1.0
  N  N43  1  0.64321000  0.27865000  0.27905000  1.0
  Cl  Cl44  1  0.90809000  0.32156000  0.73601000  1.0
  Cl  Cl45  1  0.09190000  0.67843000  0.26398000  1.0
  Cl  Cl46  1  0.20440000  0.27691000  0.43198000  1.0
  Cl  Cl47  1  0.79561000  0.72308000  0.56802000  1.0
  O  O48  1  0.86794000  0.13890000  0.96869000  1.0
  O  O49  1  0.13206000  0.86110000  0.03130000  1.0
  O  O50  1  0.14735000  0.23113000  0.03402000  1.0
  O  O51  1  0.85265000  0.76886000  0.96599000  1.0
  O  O52  1  0.86005000  0.96052000  0.15025000  1.0
  O  O53  1  0.13997000  0.03948000  0.84976000  1.0
  O  O54  1  0.13924000  0.05455000  0.21454000  1.0
  O  O55  1  0.86078000  0.94544000  0.78546000  1.0
  O  O56  1  0.57733000  0.86272000  0.88605000  1.0
  O  O57  1  0.42267000  0.13729000  0.11394000  1.0
