# generated using pymatgen
data_NiH12(CO2)4
_symmetry_space_group_name_H-M   'P 1'
_cell_length_a   7.39471000
_cell_length_b   7.63652000
_cell_length_c   14.17060000
_cell_angle_alpha   90.01540000
_cell_angle_beta   90.00860000
_cell_angle_gamma   81.25410000
_symmetry_Int_Tables_number   1
_chemical_formula_structural   NiH12(CO2)4
_chemical_formula_sum   'Ni4 H48 C16 O32'
_cell_volume   790.90708821
_cell_formula_units_Z   4
loop_
 _symmetry_equiv_pos_site_id
 _symmetry_equiv_pos_as_xyz
  1  'x, y, z'
loop_
 _atom_site_type_symbol
 _atom_site_label
 _atom_site_symmetry_multiplicity
 _atom_site_fract_x
 _atom_site_fract_y
 _atom_site_fract_z
 _atom_site_occupancy
  Ni  Ni0  1  0.92260000  0.81169000  0.35674000  1.0
  Ni  Ni1  1  0.07670000  0.68836000  0.85652000  1.0
  Ni  Ni2  1  0.07684000  0.18819000  0.64342000  1.0
  Ni  Ni3  1  0.92334000  0.31164000  0.14354000  1.0
  H  H4  1  0.26128000  0.26928000  0.30431000  1.0
  H  H5  1  0.73833000  0.23068000  0.80396000  1.0
  H  H6  1  0.73857000  0.73071000  0.69592000  1.0
  H  H7  1  0.26154000  0.76951000  0.19604000  1.0
  H  H8  1  0.44510000  0.38833000  0.29343000  1.0
  H  H9  1  0.55400000  0.11210000  0.79376000  1.0
  H  H10  1  0.55421000  0.61218000  0.70634000  1.0
  H  H11  1  0.44585000  0.88817000  0.20616000  1.0
  H  H12  1  0.35705000  0.18914000  0.47137000  1.0
  H  H13  1  0.64424000  0.31153000  0.97115000  1.0
  H  H14  1  0.64413000  0.81111000  0.52872000  1.0
  H  H15  1  0.35568000  0.68815000  0.02892000  1.0
  H  H16  1  0.55189000  0.29751000  0.45766000  1.0
  H  H17  1  0.44894000  0.20368000  0.95810000  1.0
  H  H18  1  0.44884000  0.70321000  0.54195000  1.0
  H  H19  1  0.55090000  0.79619000  0.04185000  1.0
  H  H20  1  0.72600000  0.58710000  0.43279000  1.0
  H  H21  1  0.27237000  0.91190000  0.93289000  1.0
  H  H22  1  0.27232000  0.41187000  0.56721000  1.0
  H  H23  1  0.72764000  0.08765000  0.06731000  1.0
  H  H24  1  0.61344000  0.73212000  0.36271000  1.0
  H  H25  1  0.38583000  0.76719000  0.86280000  1.0
  H  H26  1  0.38594000  0.26714000  0.63717000  1.0
  H  H27  1  0.61438000  0.23245000  0.13732000  1.0
  H  H28  1  0.11576000  0.03295000  0.28362000  1.0
  H  H29  1  0.88461000  0.46745000  0.78322000  1.0
  H  H30  1  0.88465000  0.96732000  0.71648000  1.0
  H  H31  1  0.11533000  0.53270000  0.21671000  1.0
  H  H32  1  0.24838000  0.94365000  0.36354000  1.0
  H  H33  1  0.75259000  0.55728000  0.86340000  1.0
  H  H34  1  0.75269000  0.05716000  0.63638000  1.0
  H  H35  1  0.24749000  0.44277000  0.13662000  1.0
  H  H36  1  0.81482000  0.72842000  0.18369000  1.0
  H  H37  1  0.18477000  0.77166000  0.68242000  1.0
  H  H38  1  0.18513000  0.27155000  0.81748000  1.0
  H  H39  1  0.81592000  0.22800000  0.31742000  1.0
  H  H40  1  0.80655000  0.93940000  0.19148000  1.0
  H  H41  1  0.19354000  0.56068000  0.69062000  1.0
  H  H42  1  0.19379000  0.06060000  0.80942000  1.0
  H  H43  1  0.80598000  0.43907000  0.30931000  1.0
  H  H44  1  0.95298000  0.87390000  0.54916000  1.0
  H  H45  1  0.04690000  0.62659000  0.05035000  1.0
  H  H46  1  0.04848000  0.12710000  0.44924000  1.0
  H  H47  1  0.95260000  0.37352000  0.94961000  1.0
  H  H48  1  0.07836000  0.69960000  0.50311000  1.0
  H  H49  1  0.92093000  0.79990000  0.00390000  1.0
  H  H50  1  0.92150000  0.29960000  0.49597000  1.0
  H  H51  1  0.07853000  0.20016000  0.99600000  1.0
  C  C52  1  0.23377000  0.50409000  0.38592000  1.0
  C  C53  1  0.76588000  0.99626000  0.88588000  1.0
  C  C54  1  0.76590000  0.49597000  0.61420000  1.0
  C  C55  1  0.23393000  0.00374000  0.11400000  1.0
  C  C56  1  0.35215000  0.34181000  0.34512000  1.0
  C  C57  1  0.64765000  0.15856000  0.84513000  1.0
  C  C58  1  0.64776000  0.65845000  0.65487000  1.0
  C  C59  1  0.35223000  0.84154000  0.15483000  1.0
  C  C60  1  0.45678000  0.22469000  0.42050000  1.0
  C  C61  1  0.54388000  0.27616000  0.92058000  1.0
  C  C62  1  0.54386000  0.77583000  0.57936000  1.0
  C  C63  1  0.45602000  0.72375000  0.07943000  1.0
  C  C64  1  0.56189000  0.05255000  0.38368000  1.0
  C  C65  1  0.43864000  0.44797000  0.88366000  1.0
  C  C66  1  0.43863000  0.94773000  0.61622000  1.0
  C  C67  1  0.56141000  0.55208000  0.11646000  1.0
  O  O68  1  0.12681000  0.59839000  0.32747000  1.0
  O  O69  1  0.87288000  0.90193000  0.82748000  1.0
  O  O70  1  0.87304000  0.40181000  0.67263000  1.0
  O  O71  1  0.12691000  0.09801000  0.17242000  1.0
  O  O72  1  0.24432000  0.54270000  0.47253000  1.0
  O  O73  1  0.75511000  0.95762000  0.97247000  1.0
  O  O74  1  0.75500000  0.45718000  0.52765000  1.0
  O  O75  1  0.24466000  0.04235000  0.02741000  1.0
  O  O76  1  0.73523000  0.04436000  0.37226000  1.0
  O  O77  1  0.26550000  0.45581000  0.87195000  1.0
  O  O78  1  0.26548000  0.95561000  0.62794000  1.0
  O  O79  1  0.73445000  0.54453000  0.12845000  1.0
  O  O80  1  0.47761000  0.92131000  0.36874000  1.0
  O  O81  1  0.52283000  0.57941000  0.86879000  1.0
  O  O82  1  0.52287000  0.07917000  0.63103000  1.0
  O  O83  1  0.47731000  0.42053000  0.13124000  1.0
  O  O84  1  0.72360000  0.63615000  0.36689000  1.0
  O  O85  1  0.27462000  0.86223000  0.86706000  1.0
  O  O86  1  0.27480000  0.36226000  0.63300000  1.0
  O  O87  1  0.72548000  0.13732000  0.13313000  1.0
  O  O88  1  0.11550000  0.98596000  0.35011000  1.0
  O  O89  1  0.88536000  0.51499000  0.84968000  1.0
  O  O90  1  0.88545000  0.01493000  0.65010000  1.0
  O  O91  1  0.11468000  0.48499000  0.15033000  1.0
  O  O92  1  0.87331000  0.82364000  0.21324000  1.0
  O  O93  1  0.12678000  0.67647000  0.71229000  1.0
  O  O94  1  0.12724000  0.17633000  0.78760000  1.0
  O  O95  1  0.87340000  0.32351000  0.28761000  1.0
  O  O96  1  0.95947000  0.78242000  0.49920000  1.0
  O  O97  1  0.03949000  0.71692000  0.99981000  1.0
  O  O98  1  0.04005000  0.21682000  0.50023000  1.0
  O  O99  1  0.96016000  0.28332000  0.00025000  1.0
