# generated using pymatgen
data_AgH9C6SN2O3
_symmetry_space_group_name_H-M   'P 1'
_cell_length_a   9.33893000
_cell_length_b   10.93600000
_cell_length_c   11.23510000
_cell_angle_alpha   61.76240000
_cell_angle_beta   67.96080000
_cell_angle_gamma   66.56190000
_symmetry_Int_Tables_number   1
_chemical_formula_structural   AgH9C6SN2O3
_chemical_formula_sum   'Ag4 H36 C24 S4 N8 O12'
_cell_volume   902.30884083
_cell_formula_units_Z   4
loop_
 _symmetry_equiv_pos_site_id
 _symmetry_equiv_pos_as_xyz
  1  'x, y, z'
loop_
 _atom_site_type_symbol
 _atom_site_label
 _atom_site_symmetry_multiplicity
 _atom_site_fract_x
 _atom_site_fract_y
 _atom_site_fract_z
 _atom_site_occupancy
  Ag  Ag0  1  0.53349000  0.22858000  0.26207000  1.0
  Ag  Ag1  1  0.46651000  0.77142000  0.73793000  1.0
  Ag  Ag2  1  0.77805000  0.95725000  0.01270000  1.0
  Ag  Ag3  1  0.22195000  0.04275000  0.98730000  1.0
  H  H4  1  0.74495000  0.93451000  0.70711000  1.0
  H  H5  1  0.25505000  0.06549000  0.29289000  1.0
  H  H6  1  0.16380000  0.71156000  0.00383000  1.0
  H  H7  1  0.83620000  0.28844000  0.99617000  1.0
  H  H8  1  0.05963000  0.81388000  0.61549000  1.0
  H  H9  1  0.94037000  0.18612000  0.38451000  1.0
  H  H10  1  0.10156000  0.77318000  0.46753000  1.0
  H  H11  1  0.89844000  0.22682000  0.53247000  1.0
  H  H12  1  0.97690000  0.68638000  0.62776000  1.0
  H  H13  1  0.02310000  0.31362000  0.37224000  1.0
  H  H14  1  0.46441000  0.11221000  0.71043000  1.0
  H  H15  1  0.53559000  0.88779000  0.28957000  1.0
  H  H16  1  0.38902000  0.18465000  0.56187000  1.0
  H  H17  1  0.61098000  0.81535000  0.43813000  1.0
  H  H18  1  0.40761000  0.38245000  0.59896000  1.0
  H  H19  1  0.59239000  0.61754000  0.40104000  1.0
  H  H20  1  0.55319000  0.36865000  0.44523000  1.0
  H  H21  1  0.44681000  0.63135000  0.55477000  1.0
  H  H22  1  0.61189000  0.29896000  0.60432000  1.0
  H  H23  1  0.38811000  0.70104000  0.39568000  1.0
  H  H24  1  0.17694000  0.47915000  0.82840000  1.0
  H  H25  1  0.82306000  0.52085000  0.17160000  1.0
  H  H26  1  0.22203000  0.64683000  0.75942000  1.0
  H  H27  1  0.77797000  0.35317000  0.24058000  1.0
  H  H28  1  0.03527000  0.62630000  0.87636000  1.0
  H  H29  1  0.96473000  0.37370000  0.12364000  1.0
  H  H30  1  0.27180000  0.69589000  0.19548000  1.0
  H  H31  1  0.72820000  0.30411000  0.80452000  1.0
  H  H32  1  0.42506000  0.53853000  0.25378000  1.0
  H  H33  1  0.57494000  0.46147000  0.74622000  1.0
  H  H34  1  0.19555000  0.55409000  0.45461000  1.0
  H  H35  1  0.80445000  0.44591000  0.54539000  1.0
  H  H36  1  0.20896000  0.40677000  0.42072000  1.0
  H  H37  1  0.79104000  0.59323000  0.57928000  1.0
  H  H38  1  0.06057000  0.57349000  0.36607000  1.0
  H  H39  1  0.93943000  0.42651000  0.63393000  1.0
  C  C40  1  0.63482000  0.07344000  0.53561000  1.0
  C  C41  1  0.36518000  0.92656000  0.46439000  1.0
  C  C42  1  0.86870000  0.90690000  0.51348000  1.0
  C  C43  1  0.13130000  0.09310000  0.48652000  1.0
  C  C44  1  0.82254000  0.98130000  0.38848000  1.0
  C  C45  1  0.17746000  0.01870000  0.61153000  1.0
  C  C46  1  0.00980000  0.78811000  0.55847000  1.0
  C  C47  1  0.99020000  0.21189000  0.44153000  1.0
  C  C48  1  0.49271000  0.16791000  0.59715000  1.0
  C  C49  1  0.50729000  0.83208000  0.40285000  1.0
  C  C50  1  0.51850000  0.31335000  0.55845000  1.0
  C  C51  1  0.48150000  0.68665000  0.44155000  1.0
  C  C52  1  0.30128000  0.52601000  0.13888000  1.0
  C  C53  1  0.69872000  0.47399000  0.86112000  1.0
  C  C54  1  0.23665000  0.51691000  0.97050000  1.0
  C  C55  1  0.76335000  0.48309000  0.02950000  1.0
  C  C56  1  0.33263000  0.38498000  0.03790000  1.0
  C  C57  1  0.66737000  0.61502000  0.96210000  1.0
  C  C58  1  0.16307000  0.56976000  0.85269000  1.0
  C  C59  1  0.83693000  0.43024000  0.14731000  1.0
  C  C60  1  0.30241000  0.57783000  0.23897000  1.0
  C  C61  1  0.69759000  0.42217000  0.76103000  1.0
  C  C62  1  0.18461000  0.52465000  0.37833000  1.0
  C  C63  1  0.81539000  0.47535000  0.62167000  1.0
  S  S64  1  0.92399000  0.95920000  0.22927000  1.0
  S  S65  1  0.07601000  0.04081000  0.77073000  1.0
  S  S66  1  0.39078000  0.22072000  0.01809000  1.0
  S  S67  1  0.60922000  0.77928000  0.98191000  1.0
  N  N68  1  0.67662000  0.08364000  0.40404000  1.0
  N  N69  1  0.32338000  0.91636000  0.59596000  1.0
  N  N70  1  0.74872000  0.96772000  0.60284000  1.0
  N  N71  1  0.25128000  0.03228000  0.39716000  1.0
  N  N72  1  0.37153000  0.39192000  0.14172000  1.0
  N  N73  1  0.62847000  0.60807000  0.85828000  1.0
  N  N74  1  0.21915000  0.60281000  0.03678000  1.0
  N  N75  1  0.78085000  0.39718000  0.96322000  1.0
  O  O76  1  0.86156000  0.85763000  0.22394000  1.0
  O  O77  1  0.13844000  0.14237000  0.77606000  1.0
  O  O78  1  0.88531000  0.10407000  0.12075000  1.0
  O  O79  1  0.11469000  0.89593000  0.87925000  1.0
  O  O80  1  0.09465000  0.90295000  0.23208000  1.0
  O  O81  1  0.90535000  0.09705000  0.76792000  1.0
  O  O82  1  0.54317000  0.14269000  0.06285000  1.0
  O  O83  1  0.45683000  0.85731000  0.93715000  1.0
  O  O84  1  0.26101000  0.14904000  0.11596000  1.0
  O  O85  1  0.73899000  0.85096000  0.88404000  1.0
  O  O86  1  0.39934000  0.25358000  0.87442000  1.0
  O  O87  1  0.60066000  0.74642000  0.12558000  1.0
