# generated using pymatgen
data_Pr2H16C28N4O17
_symmetry_space_group_name_H-M   'P 1'
_cell_length_a   10.53400000
_cell_length_b   12.19280000
_cell_length_c   12.68900000
_cell_angle_alpha   109.83900000
_cell_angle_beta   100.69000000
_cell_angle_gamma   90.67770000
_symmetry_Int_Tables_number   1
_chemical_formula_structural   Pr2H16C28N4O17
_chemical_formula_sum   'Pr4 H32 C56 N8 O34'
_cell_volume   1501.49182644
_cell_formula_units_Z   2
loop_
 _symmetry_equiv_pos_site_id
 _symmetry_equiv_pos_as_xyz
  1  'x, y, z'
loop_
 _atom_site_type_symbol
 _atom_site_label
 _atom_site_symmetry_multiplicity
 _atom_site_fract_x
 _atom_site_fract_y
 _atom_site_fract_z
 _atom_site_occupancy
  Pr  Pr0  1  0.99051000  0.32373000  0.89096000  1.0
  Pr  Pr1  1  0.00949000  0.67627000  0.10904000  1.0
  Pr  Pr2  1  0.14412000  0.05956000  0.64478000  1.0
  Pr  Pr3  1  0.85588000  0.94044000  0.35522000  1.0
  H  H4  1  0.65757000  0.22711000  0.89149000  1.0
  H  H5  1  0.34243000  0.77289000  0.10852000  1.0
  H  H6  1  0.86464000  0.86482000  0.87328000  1.0
  H  H7  1  0.13536000  0.13518000  0.12671000  1.0
  H  H8  1  0.62602000  0.86926000  0.87855000  1.0
  H  H9  1  0.37397000  0.13074000  0.12145000  1.0
  H  H10  1  0.52099000  0.05524000  0.89002000  1.0
  H  H11  1  0.47901000  0.94476000  0.10998000  1.0
  H  H12  1  0.30116000  0.88766000  0.74843000  1.0
  H  H13  1  0.69884000  0.11234000  0.25157000  1.0
  H  H14  1  0.21222000  0.96123000  0.82852000  1.0
  H  H15  1  0.78778000  0.03877000  0.17148000  1.0
  H  H16  1  0.21217000  0.51405000  0.79970000  1.0
  H  H17  1  0.78783000  0.48595000  0.20029000  1.0
  H  H18  1  0.54085000  0.31672000  0.83982000  1.0
  H  H19  1  0.45915000  0.68328000  0.16018000  1.0
  H  H20  1  0.59746000  0.68960000  0.92799000  1.0
  H  H21  1  0.40254000  0.31040000  0.07201000  1.0
  H  H22  1  0.63882000  0.29355000  0.66957000  1.0
  H  H23  1  0.36118000  0.70645000  0.33042000  1.0
  H  H24  1  0.40542000  0.25980000  0.56034000  1.0
  H  H25  1  0.59458000  0.74020000  0.43966000  1.0
  H  H26  1  0.52059000  0.96058000  0.30875000  1.0
  H  H27  1  0.47941000  0.03942000  0.69125000  1.0
  H  H28  1  0.34734000  0.09065000  0.37623000  1.0
  H  H29  1  0.65266000  0.90935000  0.62377000  1.0
  H  H30  1  0.22041000  0.39351000  0.57595000  1.0
  H  H31  1  0.77959000  0.60649000  0.42405000  1.0
  H  H32  1  0.13089000  0.58265000  0.34174000  1.0
  H  H33  1  0.86911000  0.41735000  0.65826000  1.0
  H  H34  1  0.99766000  0.21797000  0.23593000  1.0
  H  H35  1  0.00233000  0.78203000  0.76406000  1.0
  C  C36  1  0.69742000  0.14351000  0.88414000  1.0
  C  C37  1  0.30258000  0.85649000  0.11586000  1.0
  C  C38  1  0.87833000  0.04006000  0.87073000  1.0
  C  C39  1  0.12166000  0.95994000  0.12927000  1.0
  C  C40  1  0.81227000  0.94123000  0.87299000  1.0
  C  C41  1  0.18773000  0.05877000  0.12701000  1.0
  C  C42  1  0.68152000  0.94488000  0.87806000  1.0
  C  C43  1  0.31848000  0.05512000  0.12194000  1.0
  C  C44  1  0.62289000  0.04834000  0.88470000  1.0
  C  C45  1  0.37710000  0.95166000  0.11530000  1.0
  C  C46  1  0.28433000  0.29151000  0.77568000  1.0
  C  C47  1  0.71567000  0.70848000  0.22432000  1.0
  C  C48  1  0.83605000  0.16253000  0.60446000  1.0
  C  C49  1  0.16395000  0.83747000  0.39554000  1.0
  C  C50  1  0.69684000  0.14566000  0.54381000  1.0
  C  C51  1  0.30316000  0.85434000  0.45619000  1.0
  C  C52  1  0.31614000  0.50981000  0.82347000  1.0
  C  C53  1  0.68387000  0.49019000  0.17653000  1.0
  C  C54  1  0.36823000  0.40384000  0.81744000  1.0
  C  C55  1  0.63178000  0.59616000  0.18256000  1.0
  C  C56  1  0.50249000  0.40083000  0.84827000  1.0
  C  C57  1  0.49751000  0.59917000  0.15173000  1.0
  C  C58  1  0.58580000  0.50270000  0.89073000  1.0
  C  C59  1  0.41420000  0.49730000  0.10927000  1.0
  C  C60  1  0.40135000  0.60984000  0.85970000  1.0
  C  C61  1  0.59865000  0.39015000  0.14030000  1.0
  C  C62  1  0.72906000  0.49942000  0.93263000  1.0
  C  C63  1  0.27094000  0.50058000  0.06737000  1.0
  C  C64  1  0.53432000  0.60918000  0.89612000  1.0
  C  C65  1  0.46569000  0.39082000  0.10388000  1.0
  C  C66  1  0.60686000  0.22187000  0.58871000  1.0
  C  C67  1  0.39314000  0.77813000  0.41129000  1.0
  C  C68  1  0.47920000  0.20333000  0.52811000  1.0
  C  C69  1  0.52080000  0.79667000  0.47189000  1.0
  C  C70  1  0.54185000  0.03611000  0.38751000  1.0
  C  C71  1  0.45815000  0.96389000  0.61248000  1.0
  C  C72  1  0.44622000  0.10879000  0.42568000  1.0
  C  C73  1  0.55378000  0.89121000  0.57432000  1.0
  C  C74  1  0.08812000  0.18416000  0.43592000  1.0
  C  C75  1  0.91187000  0.81584000  0.56408000  1.0
  C  C76  1  0.10451000  0.29449000  0.40952000  1.0
  C  C77  1  0.89549000  0.70551000  0.59048000  1.0
  C  C78  1  0.17439000  0.39456000  0.49214000  1.0
  C  C79  1  0.82561000  0.60544000  0.50787000  1.0
  C  C80  1  0.06346000  0.39820000  0.27457000  1.0
  C  C81  1  0.93653000  0.60181000  0.72543000  1.0
  C  C82  1  0.12376000  0.50155000  0.35935000  1.0
  C  C83  1  0.87624000  0.49845000  0.64065000  1.0
  C  C84  1  0.05046000  0.29649000  0.30094000  1.0
  C  C85  1  0.94954000  0.70351000  0.69906000  1.0
  C  C86  1  0.18010000  0.49641000  0.46592000  1.0
  C  C87  1  0.81989000  0.50359000  0.53409000  1.0
  C  C88  1  0.01812000  0.03952000  0.86271000  1.0
  C  C89  1  0.98187000  0.96048000  0.13729000  1.0
  C  C90  1  0.01976000  0.39172000  0.15312000  1.0
  C  C91  1  0.98024000  0.60828000  0.84688000  1.0
  N  N92  1  0.82224000  0.13980000  0.87510000  1.0
  N  N93  1  0.17776000  0.86020000  0.12490000  1.0
  N  N94  1  0.66524000  0.05426000  0.44496000  1.0
  N  N95  1  0.33476000  0.94574000  0.55504000  1.0
  N  N96  1  0.34932000  0.71912000  0.85447000  1.0
  N  N97  1  0.65068000  0.28088000  0.14553000  1.0
  N  N98  1  0.25248000  0.60153000  0.55314000  1.0
  N  N99  1  0.74752000  0.39847000  0.44687000  1.0
  O  O100  1  0.16059000  0.29238000  0.76220000  1.0
  O  O101  1  0.83941000  0.70762000  0.23780000  1.0
  O  O102  1  0.34028000  0.19693000  0.75070000  1.0
  O  O103  1  0.65972000  0.80307000  0.24929000  1.0
  O  O104  1  0.91170000  0.08633000  0.56033000  1.0
  O  O105  1  0.08830000  0.91368000  0.43967000  1.0
  O  O106  1  0.87020000  0.24978000  0.69476000  1.0
  O  O107  1  0.12980000  0.75022000  0.30524000  1.0
  O  O108  1  0.23068000  0.71985000  0.82485000  1.0
  O  O109  1  0.76932000  0.28015000  0.17516000  1.0
  O  O110  1  0.79208000  0.59689000  0.99156000  1.0
  O  O111  1  0.20792000  0.40311000  0.00844000  1.0
  O  O112  1  0.77476000  0.39964000  0.90655000  1.0
  O  O113  1  0.22524000  0.60036000  0.09345000  1.0
  O  O114  1  0.42752000  0.80531000  0.87815000  1.0
  O  O115  1  0.57249000  0.19469000  0.12186000  1.0
  O  O116  1  0.06225000  0.12131000  0.83035000  1.0
  O  O117  1  0.93775000  0.87869000  0.16964000  1.0
  O  O118  1  0.16524000  0.17557000  0.52232000  1.0
  O  O119  1  0.83476000  0.82443000  0.47768000  1.0
  O  O120  1  0.99877000  0.10836000  0.36969000  1.0
  O  O121  1  0.00123000  0.89164000  0.63031000  1.0
  O  O122  1  0.35134000  0.58762000  0.61644000  1.0
  O  O123  1  0.64866000  0.41237000  0.38357000  1.0
  O  O124  1  0.21171000  0.69805000  0.55858000  1.0
  O  O125  1  0.78830000  0.30195000  0.44143000  1.0
  O  O126  1  0.08443000  0.96312000  0.88441000  1.0
  O  O127  1  0.91556000  0.03688000  0.11559000  1.0
  O  O128  1  0.27195000  0.96597000  0.77599000  1.0
  O  O129  1  0.72805000  0.03403000  0.22401000  1.0
  O  O130  1  0.01047000  0.29192000  0.07571000  1.0
  O  O131  1  0.98953000  0.70808000  0.92429000  1.0
  O  O132  1  0.99739000  0.48554000  0.13093000  1.0
  O  O133  1  0.00262000  0.51446000  0.86908000  1.0
