# generated using pymatgen
data_AgH5C4N4O3
_symmetry_space_group_name_H-M   'P 1'
_cell_length_a   3.71546000
_cell_length_b   12.63971210
_cell_length_c   15.28820000
_cell_angle_alpha   90.00034218
_cell_angle_beta   90.00020000
_cell_angle_gamma   97.97142076
_symmetry_Int_Tables_number   1
_chemical_formula_structural   AgH5C4N4O3
_chemical_formula_sum   'Ag4 H20 C16 N16 O12'
_cell_volume   711.03223957
_cell_formula_units_Z   4
loop_
 _symmetry_equiv_pos_site_id
 _symmetry_equiv_pos_as_xyz
  1  'x, y, z'
loop_
 _atom_site_type_symbol
 _atom_site_label
 _atom_site_symmetry_multiplicity
 _atom_site_fract_x
 _atom_site_fract_y
 _atom_site_fract_z
 _atom_site_occupancy
  Ag  Ag0  1  0.93276000  0.50897000  0.38273000  1.0
  Ag  Ag1  1  0.06723000  0.49103000  0.88274000  1.0
  Ag  Ag2  1  0.01325000  0.99821000  0.49066000  1.0
  Ag  Ag3  1  0.98676000  0.00179000  0.99066000  1.0
  H  H4  1  0.61931000  0.39243000  0.54017000  1.0
  H  H5  1  0.38070000  0.60758000  0.04018000  1.0
  H  H6  1  0.29299000  0.21295000  0.58374000  1.0
  H  H7  1  0.70702000  0.78706000  0.08375000  1.0
  H  H8  1  0.51758000  0.09176000  0.33926000  1.0
  H  H9  1  0.48239000  0.90824000  0.83927000  1.0
  H  H10  1  0.25151000  0.61923000  0.53988000  1.0
  H  H11  1  0.74852000  0.38077000  0.03988000  1.0
  H  H12  1  0.64470000  0.78835000  0.58441000  1.0
  H  H13  1  0.35533000  0.21165000  0.08441000  1.0
  H  H14  1  0.56997000  0.90769000  0.33216000  1.0
  H  H15  1  0.43002000  0.09231000  0.83215000  1.0
  H  H16  1  0.06937000  0.33979000  0.26600000  1.0
  H  H17  1  0.93062000  0.66020000  0.76600000  1.0
  H  H18  1  0.90172000  0.20541000  0.24102000  1.0
  H  H19  1  0.09827000  0.79459000  0.74102000  1.0
  H  H20  1  0.96062000  0.67498000  0.25041000  1.0
  H  H21  1  0.03937000  0.32501000  0.75041000  1.0
  H  H22  1  0.16345000  0.80691000  0.23117000  1.0
  H  H23  1  0.83655000  0.19309000  0.73117000  1.0
  C  C24  1  0.60088000  0.32484000  0.49536000  1.0
  C  C25  1  0.39912000  0.67517000  0.99537000  1.0
  C  C26  1  0.41890000  0.22655000  0.51992000  1.0
  C  C27  1  0.58109000  0.77345000  0.01993000  1.0
  C  C28  1  0.54585000  0.15817000  0.38503000  1.0
  C  C29  1  0.45413000  0.84183000  0.88503000  1.0
  C  C30  1  0.74051000  0.25853000  0.35951000  1.0
  C  C31  1  0.25948000  0.74147000  0.85952000  1.0
  C  C32  1  0.31941000  0.68413000  0.49345000  1.0
  C  C33  1  0.68059000  0.31587000  0.99345000  1.0
  C  C34  1  0.53638000  0.77668000  0.51865000  1.0
  C  C35  1  0.46364000  0.22331000  0.01865000  1.0
  C  C36  1  0.49265000  0.84420000  0.37927000  1.0
  C  C37  1  0.50735000  0.15580000  0.87927000  1.0
  C  C38  1  0.26324000  0.74984000  0.35279000  1.0
  C  C39  1  0.73676000  0.25016000  0.85279000  1.0
  N  N40  1  0.75380000  0.34261000  0.41557000  1.0
  N  N41  1  0.24620000  0.65739000  0.91557000  1.0
  N  N42  1  0.38490000  0.14370000  0.46259000  1.0
  N  N43  1  0.61508000  0.85630000  0.96259000  1.0
  N  N44  1  0.90390000  0.27012000  0.28134000  1.0
  N  N45  1  0.09608000  0.72988000  0.78135000  1.0
  N  N46  1  0.97215000  0.99432000  0.69231000  1.0
  N  N47  1  0.02784000  0.00567000  0.19231000  1.0
  N  N48  1  0.46846000  0.50105000  0.18708000  1.0
  N  N49  1  0.53154000  0.49895000  0.68708000  1.0
  N  N50  1  0.62765000  0.85623000  0.45965000  1.0
  N  N51  1  0.37236000  0.14377000  0.95965000  1.0
  N  N52  1  0.12809000  0.74171000  0.27169000  1.0
  N  N53  1  0.87192000  0.25829000  0.77169000  1.0
  N  N54  1  0.18794000  0.66857000  0.41118000  1.0
  N  N55  1  0.81207000  0.33143000  0.91118000  1.0
  O  O56  1  0.87579000  0.07170000  0.64872000  1.0
  O  O57  1  0.12422000  0.92830000  0.14872000  1.0
  O  O58  1  0.07323000  0.91510000  0.65241000  1.0
  O  O59  1  0.92679000  0.08490000  0.15241000  1.0
  O  O60  1  0.96751000  0.99645000  0.77476000  1.0
  O  O61  1  0.03247000  0.00355000  0.27476000  1.0
  O  O62  1  0.42434000  0.46409000  0.26567000  1.0
  O  O63  1  0.57564000  0.53591000  0.76567000  1.0
  O  O64  1  0.68356000  0.58589000  0.17373000  1.0
  O  O65  1  0.31646000  0.41411000  0.67372000  1.0
  O  O66  1  0.29668000  0.45142000  0.12551000  1.0
  O  O67  1  0.70333000  0.54858000  0.62552000  1.0
