# generated using pymatgen
data_CuSiH12C24Br4(N2F3)2
_symmetry_space_group_name_H-M   'P 1'
_cell_length_a   8.02862000
_cell_length_b   13.74400000
_cell_length_c   13.74380000
_cell_angle_alpha   89.84260000
_cell_angle_beta   88.75290000
_cell_angle_gamma   88.76110000
_symmetry_Int_Tables_number   1
_chemical_formula_structural   CuSiH12C24Br4(N2F3)2
_chemical_formula_sum   'Cu1 Si1 H12 C24 Br4 N4 F6'
_cell_volume   1515.84686943
_cell_formula_units_Z   1
loop_
 _symmetry_equiv_pos_site_id
 _symmetry_equiv_pos_as_xyz
  1  'x, y, z'
loop_
 _atom_site_type_symbol
 _atom_site_label
 _atom_site_symmetry_multiplicity
 _atom_site_fract_x
 _atom_site_fract_y
 _atom_site_fract_z
 _atom_site_occupancy
  Cu  Cu0  1  0.50005000  0.50001000  0.49998000  1.0
  Si  Si1  1  0.00000000  0.50001000  0.49999000  1.0
  H  H2  1  0.24503000  0.34615000  0.50019000  1.0
  H  H3  1  0.23763000  0.16547000  0.50022000  1.0
  H  H4  1  0.76486000  0.34231000  0.50001000  1.0
  H  H5  1  0.23517000  0.65767000  0.50000000  1.0
  H  H6  1  0.75501000  0.65388000  0.49978000  1.0
  H  H7  1  0.76237000  0.83455000  0.49972000  1.0
  H  H8  1  0.24500000  0.50012000  0.34614000  1.0
  H  H9  1  0.23767000  0.50022000  0.16546000  1.0
  H  H10  1  0.76483000  0.49997000  0.34232000  1.0
  H  H11  1  0.23518000  0.49999000  0.65770000  1.0
  H  H12  1  0.75501000  0.49997000  0.65383000  1.0
  H  H13  1  0.76239000  0.49990000  0.83452000  1.0
  C  C14  1  0.35989000  0.30257000  0.50015000  1.0
  C  C15  1  0.35671000  0.20187000  0.50013000  1.0
  C  C16  1  0.50666000  0.14669000  0.49999000  1.0
  C  C17  1  0.65594000  0.19928000  0.49984000  1.0
  C  C18  1  0.65088000  0.30062000  0.49998000  1.0
  C  C19  1  0.50434000  0.04421000  0.49999000  1.0
  C  C20  1  0.49566000  0.95580000  0.49999000  1.0
  C  C21  1  0.49335000  0.85332000  0.49998000  1.0
  C  C22  1  0.34407000  0.80072000  0.50014000  1.0
  C  C23  1  0.34915000  0.69938000  0.50001000  1.0
  C  C24  1  0.64013000  0.69745000  0.49982000  1.0
  C  C25  1  0.64332000  0.79815000  0.49982000  1.0
  C  C26  1  0.35989000  0.50011000  0.30257000  1.0
  C  C27  1  0.35671000  0.50013000  0.20186000  1.0
  C  C28  1  0.50668000  0.50001000  0.14668000  1.0
  C  C29  1  0.65596000  0.49985000  0.19926000  1.0
  C  C30  1  0.65088000  0.49997000  0.30062000  1.0
  C  C31  1  0.50438000  0.50002000  0.04421000  1.0
  C  C32  1  0.49569000  0.50003000  0.95579000  1.0
  C  C33  1  0.49337000  0.50003000  0.85332000  1.0
  C  C34  1  0.34409000  0.50015000  0.80074000  1.0
  C  C35  1  0.34915000  0.50002000  0.69938000  1.0
  C  C36  1  0.64013000  0.49995000  0.69741000  1.0
  C  C37  1  0.64333000  0.49995000  0.79813000  1.0
  Br  Br38  1  0.86503000  0.13323000  0.49935000  1.0
  Br  Br39  1  0.13498000  0.86676000  0.50065000  1.0
  Br  Br40  1  0.86505000  0.49938000  0.13321000  1.0
  Br  Br41  1  0.13500000  0.50058000  0.86681000  1.0
  N  N42  1  0.50479000  0.35078000  0.50011000  1.0
  N  N43  1  0.49525000  0.64923000  0.49988000  1.0
  N  N44  1  0.50476000  0.50007000  0.35078000  1.0
  N  N45  1  0.49525000  0.49994000  0.64922000  1.0
  F  F46  1  0.21675000  0.50139000  0.50142000  1.0
  F  F47  1  0.78325000  0.49864000  0.49855000  1.0
  F  F48  1  0.99991000  0.41201000  0.58791000  1.0
  F  F49  1  0.00009000  0.58801000  0.41206000  1.0
  F  F50  1  0.00899000  0.41230000  0.41218000  1.0
  F  F51  1  0.99101000  0.58772000  0.58780000  1.0
