# generated using pymatgen
data_YbH9(CO)6
_symmetry_space_group_name_H-M   'P 1'
_cell_length_a   8.12870000
_cell_length_b   8.12869000
_cell_length_c   8.26086000
_cell_angle_alpha   90.00000000
_cell_angle_beta   89.99990000
_cell_angle_gamma   119.08600000
_symmetry_Int_Tables_number   1
_chemical_formula_structural   YbH9(CO)6
_chemical_formula_sum   'Yb2 H18 C12 O12'
_cell_volume   477.00639476
_cell_formula_units_Z   2
loop_
 _symmetry_equiv_pos_site_id
 _symmetry_equiv_pos_as_xyz
  1  'x, y, z'
loop_
 _atom_site_type_symbol
 _atom_site_label
 _atom_site_symmetry_multiplicity
 _atom_site_fract_x
 _atom_site_fract_y
 _atom_site_fract_z
 _atom_site_occupancy
  Yb  Yb0  1  0.05789000  0.05788000  0.23038000  1.0
  Yb  Yb1  1  0.94212000  0.94212000  0.73038000  1.0
  H  H2  1  0.34240000  0.34240000  0.72041000  1.0
  H  H3  1  0.65759000  0.65759000  0.22042000  1.0
  H  H4  1  0.53904000  0.41445000  0.85352000  1.0
  H  H5  1  0.46096000  0.58555000  0.35353000  1.0
  H  H6  1  0.41445000  0.53904000  0.85352000  1.0
  H  H7  1  0.58555000  0.46096000  0.35353000  1.0
  H  H8  1  0.02116000  0.46986000  0.15539000  1.0
  H  H9  1  0.97883000  0.53013000  0.65539000  1.0
  H  H10  1  0.46987000  0.02116000  0.15539000  1.0
  H  H11  1  0.53013000  0.97883000  0.65539000  1.0
  H  H12  1  0.09574000  0.50115000  0.94775000  1.0
  H  H13  1  0.90424000  0.49884000  0.44775000  1.0
  H  H14  1  0.50116000  0.09575000  0.94775000  1.0
  H  H15  1  0.49885000  0.90424000  0.44775000  1.0
  H  H16  1  0.85451000  0.37808000  0.99216000  1.0
  H  H17  1  0.14548000  0.62193000  0.49217000  1.0
  H  H18  1  0.37808000  0.85451000  0.99216000  1.0
  H  H19  1  0.62193000  0.14548000  0.49217000  1.0
  C  C20  1  0.27404000  0.27404000  0.97325000  1.0
  C  C21  1  0.72597000  0.72596000  0.47326000  1.0
  C  C22  1  0.39706000  0.39706000  0.84066000  1.0
  C  C23  1  0.60294000  0.60294000  0.34066000  1.0
  C  C24  1  0.98043000  0.67626000  0.01916000  1.0
  C  C25  1  0.01957000  0.32374000  0.51917000  1.0
  C  C26  1  0.67626000  0.98043000  0.01916000  1.0
  C  C27  1  0.32374000  0.01957000  0.51916000  1.0
  C  C28  1  0.98903000  0.49572000  0.03250000  1.0
  C  C29  1  0.01096000  0.50428000  0.53250000  1.0
  C  C30  1  0.49572000  0.98903000  0.03250000  1.0
  C  C31  1  0.50428000  0.01096000  0.53250000  1.0
  O  O32  1  0.11937000  0.11937000  0.94293000  1.0
  O  O33  1  0.88064000  0.88064000  0.44292000  1.0
  O  O34  1  0.01478000  0.77971000  0.14420000  1.0
  O  O35  1  0.98523000  0.22029000  0.64419000  1.0
  O  O36  1  0.77972000  0.01479000  0.14420000  1.0
  O  O37  1  0.22029000  0.98523000  0.64419000  1.0
  O  O38  1  0.93856000  0.71572000  0.88126000  1.0
  O  O39  1  0.06144000  0.28429000  0.38125000  1.0
  O  O40  1  0.71572000  0.93856000  0.88126000  1.0
  O  O41  1  0.28429000  0.06144000  0.38125000  1.0
  O  O42  1  0.31776000  0.31776000  0.12021000  1.0
  O  O43  1  0.68225000  0.68225000  0.62020000  1.0
