# generated using pymatgen
data_CdH15C18(NO)5
_symmetry_space_group_name_H-M   'P 1'
_cell_length_a   10.25890000
_cell_length_b   11.58500000
_cell_length_c   19.89830000
_cell_angle_alpha   90.00000000
_cell_angle_beta   97.46110000
_cell_angle_gamma   89.99990000
_symmetry_Int_Tables_number   1
_chemical_formula_structural   CdH15C18(NO)5
_chemical_formula_sum   'Cd4 H60 C72 N20 O20'
_cell_volume   2344.87713543
_cell_formula_units_Z   4
loop_
 _symmetry_equiv_pos_site_id
 _symmetry_equiv_pos_as_xyz
  1  'x, y, z'
loop_
 _atom_site_type_symbol
 _atom_site_label
 _atom_site_symmetry_multiplicity
 _atom_site_fract_x
 _atom_site_fract_y
 _atom_site_fract_z
 _atom_site_occupancy
  Cd  Cd0  1  0.01573000  0.14906000  0.90880000  1.0
  Cd  Cd1  1  0.98427000  0.64906000  0.59120000  1.0
  Cd  Cd2  1  0.98427000  0.85094000  0.09120000  1.0
  Cd  Cd3  1  0.01573000  0.35094000  0.40880000  1.0
  H  H4  1  0.94050000  0.11804000  0.03985000  1.0
  H  H5  1  0.05950000  0.61804000  0.46015000  1.0
  H  H6  1  0.05950000  0.88196000  0.96015000  1.0
  H  H7  1  0.94050000  0.38196000  0.53985000  1.0
  H  H8  1  0.08859000  0.09511000  0.04987000  1.0
  H  H9  1  0.91141000  0.59511000  0.45013000  1.0
  H  H10  1  0.91141000  0.90489000  0.95013000  1.0
  H  H11  1  0.08859000  0.40489000  0.54987000  1.0
  H  H12  1  0.72654000  0.83984000  0.88174000  1.0
  H  H13  1  0.27346000  0.33984000  0.61826000  1.0
  H  H14  1  0.27346000  0.16016000  0.11826000  1.0
  H  H15  1  0.72654000  0.66016000  0.38174000  1.0
  H  H16  1  0.52818000  0.71341000  0.87704000  1.0
  H  H17  1  0.47182000  0.21341000  0.62297000  1.0
  H  H18  1  0.47182000  0.28659000  0.12296000  1.0
  H  H19  1  0.52818000  0.78659000  0.37704000  1.0
  H  H20  1  0.31307000  0.79956000  0.89526000  1.0
  H  H21  1  0.68693000  0.29956000  0.60474000  1.0
  H  H22  1  0.68693000  0.20044000  0.10474000  1.0
  H  H23  1  0.31307000  0.70044000  0.39526000  1.0
  H  H24  1  0.49348000  0.13484000  0.92006000  1.0
  H  H25  1  0.50652000  0.63484000  0.57994000  1.0
  H  H26  1  0.50652000  0.86516000  0.07994000  1.0
  H  H27  1  0.49348000  0.36516000  0.42006000  1.0
  H  H28  1  0.86317000  0.55050000  0.73872000  1.0
  H  H29  1  0.13683000  0.05050000  0.76128000  1.0
  H  H30  1  0.13683000  0.44950000  0.26128000  1.0
  H  H31  1  0.86317000  0.94950000  0.23872000  1.0
  H  H32  1  0.14357000  0.80992000  0.71894000  1.0
  H  H33  1  0.85643000  0.30992000  0.78106000  1.0
  H  H34  1  0.85643000  0.19008000  0.28106000  1.0
  H  H35  1  0.14357000  0.69008000  0.21894000  1.0
  H  H36  1  0.08571000  0.81193000  0.85172000  1.0
  H  H37  1  0.91429000  0.31193000  0.64828000  1.0
  H  H38  1  0.91429000  0.18807000  0.14828000  1.0
  H  H39  1  0.08571000  0.68807000  0.35172000  1.0
  H  H40  1  0.91782000  0.70157000  0.91129000  1.0
  H  H41  1  0.08218000  0.20157000  0.58871000  1.0
  H  H42  1  0.08218000  0.29843000  0.08871000  1.0
  H  H43  1  0.91782000  0.79843000  0.41129000  1.0
  H  H44  1  0.80950000  0.59971000  0.86331000  1.0
  H  H45  1  0.19050000  0.09971000  0.63669000  1.0
  H  H46  1  0.19050000  0.40029000  0.13669000  1.0
  H  H47  1  0.80950000  0.90029000  0.36331000  1.0
  H  H48  1  0.28878000  0.28990000  0.99041000  1.0
  H  H49  1  0.71122000  0.78990000  0.50960000  1.0
  H  H50  1  0.71122000  0.71009000  0.00960000  1.0
  H  H51  1  0.28878000  0.21010000  0.49041000  1.0
  H  H52  1  0.43551000  0.44462000  0.04732000  1.0
  H  H53  1  0.56449000  0.94463000  0.45268000  1.0
  H  H54  1  0.56449000  0.55538000  0.95268000  1.0
  H  H55  1  0.43551000  0.05537000  0.54732000  1.0
  H  H56  1  0.36983000  0.65101000  0.03917000  1.0
  H  H57  1  0.63017000  0.15101000  0.46083000  1.0
  H  H58  1  0.63017000  0.34899000  0.96083000  1.0
  H  H59  1  0.36983000  0.84899000  0.53917000  1.0
  H  H60  1  0.16357000  0.71270000  0.97168000  1.0
  H  H61  1  0.83643000  0.21271000  0.52832000  1.0
  H  H62  1  0.83643000  0.28730000  0.02832000  1.0
  H  H63  1  0.16357000  0.78729000  0.47168000  1.0
  C  C64  1  0.74380000  0.06901000  0.90623000  1.0
  C  C65  1  0.25620000  0.56901000  0.59377000  1.0
  C  C66  1  0.25620000  0.93099000  0.09377000  1.0
  C  C67  1  0.74380000  0.43099000  0.40623000  1.0
  C  C68  1  0.62307000  0.99456000  0.90265000  1.0
  C  C69  1  0.37693000  0.49456000  0.59735000  1.0
  C  C70  1  0.37693000  0.00544000  0.09735000  1.0
  C  C71  1  0.62307000  0.50544000  0.40265000  1.0
  C  C72  1  0.63184000  0.87574000  0.89009000  1.0
  C  C73  1  0.36816000  0.37574000  0.60991000  1.0
  C  C74  1  0.36816000  0.12426000  0.10991000  1.0
  C  C75  1  0.63184000  0.62426000  0.39009000  1.0
  C  C76  1  0.52103000  0.80551000  0.88735000  1.0
  C  C77  1  0.47897000  0.30551000  0.61265000  1.0
  C  C78  1  0.47897000  0.19449000  0.11265000  1.0
  C  C79  1  0.52103000  0.69449000  0.38735000  1.0
  C  C80  1  0.40040000  0.85341000  0.89710000  1.0
  C  C81  1  0.59960000  0.35341000  0.60290000  1.0
  C  C82  1  0.59960000  0.14659000  0.10290000  1.0
  C  C83  1  0.40040000  0.64659000  0.39710000  1.0
  C  C84  1  0.38961000  0.97229000  0.90860000  1.0
  C  C85  1  0.61039000  0.47229000  0.59140000  1.0
  C  C86  1  0.61039000  0.02771000  0.09140000  1.0
  C  C87  1  0.38961000  0.52771000  0.40860000  1.0
  C  C88  1  0.50127000  0.04249000  0.91129000  1.0
  C  C89  1  0.49873000  0.54249000  0.58871000  1.0
  C  C90  1  0.49873000  0.95751000  0.08871000  1.0
  C  C91  1  0.50127000  0.45751000  0.41129000  1.0
  C  C92  1  0.25752000  0.02300000  0.91518000  1.0
  C  C93  1  0.74248000  0.52300000  0.58482000  1.0
  C  C94  1  0.74248000  0.97700000  0.08482000  1.0
  C  C95  1  0.25752000  0.47700000  0.41518000  1.0
  C  C96  1  0.93199000  0.62108000  0.75026000  1.0
  C  C97  1  0.06801000  0.12108000  0.74974000  1.0
  C  C98  1  0.06801000  0.37892000  0.24974000  1.0
  C  C99  1  0.93199000  0.87892000  0.25026000  1.0
  C  C100  1  0.07758000  0.75574000  0.74334000  1.0
  C  C101  1  0.92242000  0.25574000  0.75666000  1.0
  C  C102  1  0.92242000  0.24426000  0.25666000  1.0
  C  C103  1  0.07758000  0.74426000  0.24334000  1.0
  C  C104  1  0.05072000  0.75669000  0.80904000  1.0
  C  C105  1  0.94928000  0.25669000  0.69096000  1.0
  C  C106  1  0.94928000  0.24331000  0.19096000  1.0
  C  C107  1  0.05072000  0.74331000  0.30904000  1.0
  C  C108  1  0.91100000  0.63042000  0.87441000  1.0
  C  C109  1  0.08900000  0.13042000  0.62559000  1.0
  C  C110  1  0.08900000  0.36958000  0.12559000  1.0
  C  C111  1  0.91100000  0.86958000  0.37441000  1.0
  C  C112  1  0.14289000  0.41658000  0.95004000  1.0
  C  C113  1  0.85711000  0.91658000  0.54996000  1.0
  C  C114  1  0.85711000  0.58342000  0.04996000  1.0
  C  C115  1  0.14289000  0.08342000  0.45004000  1.0
  C  C116  1  0.26168000  0.38089000  0.98740000  1.0
  C  C117  1  0.73831000  0.88089000  0.51260000  1.0
  C  C118  1  0.73831000  0.61911000  0.01260000  1.0
  C  C119  1  0.26169000  0.11911000  0.48740000  1.0
  C  C120  1  0.34178000  0.46765000  0.01811000  1.0
  C  C121  1  0.65822000  0.96765000  0.48189000  1.0
  C  C122  1  0.65822000  0.53235000  0.98189000  1.0
  C  C123  1  0.34178000  0.03235000  0.51811000  1.0
  C  C124  1  0.30651000  0.58579000  0.01235000  1.0
  C  C125  1  0.69349000  0.08579000  0.48765000  1.0
  C  C126  1  0.69349000  0.41421000  0.98765000  1.0
  C  C127  1  0.30651000  0.91421000  0.51235000  1.0
  C  C128  1  0.19055000  0.62201000  0.97447000  1.0
  C  C129  1  0.80945000  0.12201000  0.52553000  1.0
  C  C130  1  0.80945000  0.37799000  0.02553000  1.0
  C  C131  1  0.19055000  0.87799000  0.47447000  1.0
  C  C132  1  0.10968000  0.53485000  0.94326000  1.0
  C  C133  1  0.89032000  0.03485000  0.55674000  1.0
  C  C134  1  0.89032000  0.46515000  0.05674000  1.0
  C  C135  1  0.10968000  0.96515000  0.44326000  1.0
  N  N136  1  0.00272000  0.67141000  0.70739000  1.0
  N  N137  1  0.99728000  0.17141000  0.79261000  1.0
  N  N138  1  0.99728000  0.32859000  0.29261000  1.0
  N  N139  1  0.00272000  0.82859000  0.20739000  1.0
  N  N140  1  0.95775000  0.67079000  0.81275000  1.0
  N  N141  1  0.04225000  0.17079000  0.68725000  1.0
  N  N142  1  0.04225000  0.32921000  0.18725000  1.0
  N  N143  1  0.95775000  0.82921000  0.31275000  1.0
  N  N144  1  0.98910000  0.53428000  0.90399000  1.0
  N  N145  1  0.01090000  0.03428000  0.59601000  1.0
  N  N146  1  0.01090000  0.46572000  0.09601000  1.0
  N  N147  1  0.98910000  0.96572000  0.40399000  1.0
  N  N148  1  0.95043000  0.42504000  0.88744000  1.0
  N  N149  1  0.04957000  0.92504000  0.61256000  1.0
  N  N150  1  0.04957000  0.57496000  0.11256000  1.0
  N  N151  1  0.95043000  0.07496000  0.38744000  1.0
  N  N152  1  0.04075000  0.35441000  0.91518000  1.0
  N  N153  1  0.95925000  0.85441000  0.58482000  1.0
  N  N154  1  0.95925000  0.64559000  0.08482000  1.0
  N  N155  1  0.04075000  0.14559000  0.41518000  1.0
  O  O156  1  0.85417000  0.01361000  0.90548000  1.0
  O  O157  1  0.14583000  0.51361000  0.59452000  1.0
  O  O158  1  0.14583000  0.98639000  0.09452000  1.0
  O  O159  1  0.85417000  0.48639000  0.40548000  1.0
  O  O160  1  0.73761000  0.17669000  0.90929000  1.0
  O  O161  1  0.26239000  0.67669000  0.59071000  1.0
  O  O162  1  0.26239000  0.82331000  0.09071000  1.0
  O  O163  1  0.73761000  0.32331000  0.40929000  1.0
  O  O164  1  0.15828000  0.95532000  0.91171000  1.0
  O  O165  1  0.84172000  0.45532000  0.58829000  1.0
  O  O166  1  0.84172000  0.04468000  0.08829000  1.0
  O  O167  1  0.15828000  0.54468000  0.41171000  1.0
  O  O168  1  0.24679000  0.13206000  0.92102000  1.0
  O  O169  1  0.75321000  0.63206000  0.57898000  1.0
  O  O170  1  0.75321000  0.86794000  0.07898000  1.0
  O  O171  1  0.24679000  0.36794000  0.42102000  1.0
  O  O172  1  0.02278000  0.15234000  0.02702000  1.0
  O  O173  1  0.97722000  0.65234000  0.47298000  1.0
  O  O174  1  0.97722000  0.84766000  0.97298000  1.0
  O  O175  1  0.02278000  0.34766000  0.52702000  1.0
