# generated using pymatgen
data_Zn2H10C14N3O7
_symmetry_space_group_name_H-M   'P 1'
_cell_length_a   8.04131000
_cell_length_b   8.54051000
_cell_length_c   12.21860000
_cell_angle_alpha   101.46500000
_cell_angle_beta   94.91280000
_cell_angle_gamma   95.28500000
_symmetry_Int_Tables_number   1
_chemical_formula_structural   Zn2H10C14N3O7
_chemical_formula_sum   'Zn4 H20 C28 N6 O14'
_cell_volume   814.23664518
_cell_formula_units_Z   2
loop_
 _symmetry_equiv_pos_site_id
 _symmetry_equiv_pos_as_xyz
  1  'x, y, z'
loop_
 _atom_site_type_symbol
 _atom_site_label
 _atom_site_symmetry_multiplicity
 _atom_site_fract_x
 _atom_site_fract_y
 _atom_site_fract_z
 _atom_site_occupancy
  Zn  Zn0  1  0.81751000  0.91578000  0.89654000  1.0
  Zn  Zn1  1  0.18248000  0.08420000  0.10347000  1.0
  Zn  Zn2  1  0.36419000  0.50818000  0.78216000  1.0
  Zn  Zn3  1  0.63579000  0.49182000  0.21784000  1.0
  H  H4  1  0.57404000  0.72170000  0.48621000  1.0
  H  H5  1  0.42599000  0.27832000  0.51380000  1.0
  H  H6  1  0.82550000  0.31879000  0.83740000  1.0
  H  H7  1  0.17448000  0.68120000  0.16261000  1.0
  H  H8  1  0.18256000  0.99874000  0.67470000  1.0
  H  H9  1  0.81743000  0.00126000  0.32529000  1.0
  H  H10  1  0.58095000  0.17718000  0.00687000  1.0
  H  H11  1  0.41905000  0.82282000  0.99313000  1.0
  H  H12  1  0.98117000  0.34119000  0.26086000  1.0
  H  H13  1  0.01881000  0.65881000  0.73914000  1.0
  H  H14  1  0.55873000  0.63289000  0.64819000  1.0
  H  H15  1  0.44128000  0.36711000  0.35181000  1.0
  H  H16  1  0.36932000  0.56342000  0.58860000  1.0
  H  H17  1  0.63068000  0.43659000  0.41141000  1.0
  H  H18  1  0.10313000  0.24692000  0.90575000  1.0
  H  H19  1  0.89684000  0.75306000  0.09426000  1.0
  H  H20  1  0.42355000  0.79643000  0.32200000  1.0
  H  H21  1  0.57647000  0.20359000  0.67801000  1.0
  H  H22  1  0.06449000  0.73742000  0.54265000  1.0
  H  H23  1  0.93551000  0.26258000  0.45733000  1.0
  C  C24  1  0.58440000  0.95771000  0.59297000  1.0
  C  C25  1  0.41565000  0.04233000  0.40704000  1.0
  C  C26  1  0.53977000  0.84321000  0.49276000  1.0
  C  C27  1  0.46027000  0.15682000  0.50723000  1.0
  C  C28  1  0.67447000  0.91091000  0.69113000  1.0
  C  C29  1  0.32554000  0.08910000  0.30888000  1.0
  C  C30  1  0.84591000  0.54195000  0.96037000  1.0
  C  C31  1  0.15407000  0.45803000  0.03963000  1.0
  C  C32  1  0.90231000  0.39770000  0.90842000  1.0
  C  C33  1  0.09766000  0.60229000  0.09158000  1.0
  C  C34  1  0.68217000  0.58693000  0.91662000  1.0
  C  C35  1  0.31782000  0.41305000  0.08338000  1.0
  C  C36  1  0.06326000  0.14461000  0.57366000  1.0
  C  C37  1  0.93675000  0.85540000  0.42632000  1.0
  C  C38  1  0.10127000  0.99740000  0.59842000  1.0
  C  C39  1  0.89874000  0.00258000  0.40156000  1.0
  C  C40  1  0.13976000  0.30064000  0.64678000  1.0
  C  C41  1  0.86025000  0.69935000  0.35321000  1.0
  C  C42  1  0.70012000  0.18659000  0.05786000  1.0
  C  C43  1  0.29987000  0.81341000  0.94215000  1.0
  C  C44  1  0.90419000  0.27058000  0.18705000  1.0
  C  C45  1  0.09580000  0.72942000  0.81296000  1.0
  C  C46  1  0.05613000  0.35628000  0.94792000  1.0
  C  C47  1  0.94385000  0.64371000  0.05208000  1.0
  C  C48  1  0.45590000  0.88466000  0.40028000  1.0
  C  C49  1  0.54415000  0.11535000  0.59973000  1.0
  C  C50  1  0.03842000  0.85367000  0.52519000  1.0
  C  C51  1  0.96160000  0.14634000  0.47479000  1.0
  N  N52  1  0.81857000  0.08966000  0.03583000  1.0
  N  N53  1  0.18142000  0.91033000  0.96418000  1.0
  N  N54  1  0.94977000  0.14358000  0.11867000  1.0
  N  N55  1  0.05021000  0.85641000  0.88134000  1.0
  N  N56  1  0.74845000  0.30098000  0.15189000  1.0
  N  N57  1  0.25154000  0.69902000  0.84812000  1.0
  O  O58  1  0.46241000  0.54276000  0.63845000  1.0
  O  O59  1  0.53758000  0.45725000  0.36156000  1.0
  O  O60  1  0.71668000  0.02088000  0.78096000  1.0
  O  O61  1  0.28332000  0.97911000  0.21906000  1.0
  O  O62  1  0.70703000  0.76717000  0.68657000  1.0
  O  O63  1  0.29299000  0.23283000  0.31343000  1.0
  O  O64  1  0.66030000  0.73514000  0.92417000  1.0
  O  O65  1  0.33967000  0.26484000  0.07582000  1.0
  O  O66  1  0.56845000  0.47206000  0.87310000  1.0
  O  O67  1  0.43153000  0.52793000  0.12689000  1.0
  O  O68  1  0.24195000  0.29161000  0.73359000  1.0
  O  O69  1  0.75805000  0.70838000  0.26640000  1.0
  O  O70  1  0.11174000  0.43235000  0.62151000  1.0
  O  O71  1  0.88828000  0.56765000  0.37848000  1.0
