# generated using pymatgen
data_Eu2Cu3H30C24(NO4)6
_symmetry_space_group_name_H-M   'P 1'
_cell_length_a   13.35664431
_cell_length_b   13.35720000
_cell_length_c   14.54660000
_cell_angle_alpha   89.99890000
_cell_angle_beta   89.99990000
_cell_angle_gamma   60.00187150
_symmetry_Int_Tables_number   1
_chemical_formula_structural   Eu2Cu3H30C24(NO4)6
_chemical_formula_sum   'Eu4 Cu6 H60 C48 N12 O48'
_cell_volume   2247.56938567
_cell_formula_units_Z   2
loop_
 _symmetry_equiv_pos_site_id
 _symmetry_equiv_pos_as_xyz
  1  'x, y, z'
loop_
 _atom_site_type_symbol
 _atom_site_label
 _atom_site_symmetry_multiplicity
 _atom_site_fract_x
 _atom_site_fract_y
 _atom_site_fract_z
 _atom_site_occupancy
  Eu  Eu0  1  0.66666667  0.66666667  0.83175000  1.0
  Eu  Eu1  1  0.33333333  0.33333333  0.66825000  1.0
  Eu  Eu2  1  0.66666667  0.66666667  0.33175000  1.0
  Eu  Eu3  1  0.33333333  0.33333333  0.16825000  1.0
  Cu  Cu4  1  0.50000000  1.00000000  0.00000000  1.0
  Cu  Cu5  1  0.00000000  0.50000000  0.00000000  1.0
  Cu  Cu6  1  0.50000000  0.50000000  0.00000000  1.0
  Cu  Cu7  1  0.50000000  1.00000000  0.50000000  1.0
  Cu  Cu8  1  0.50000000  0.50000000  0.50000000  1.0
  Cu  Cu9  1  0.00000000  0.50000000  0.50000000  1.0
  H  H10  1  0.64010000  0.03798000  0.08273000  1.0
  H  H11  1  0.03797000  0.32194000  0.08273000  1.0
  H  H12  1  0.32191000  0.64010000  0.08273000  1.0
  H  H13  1  0.67808000  0.96202000  0.41727000  1.0
  H  H14  1  0.64009000  0.32192000  0.58274000  1.0
  H  H15  1  0.03801000  0.64009000  0.58273000  1.0
  H  H16  1  0.35990000  0.96202000  0.91727000  1.0
  H  H17  1  0.96203000  0.67806000  0.91727000  1.0
  H  H18  1  0.67809000  0.35990000  0.91727000  1.0
  H  H19  1  0.32191000  0.03799000  0.58273000  1.0
  H  H20  1  0.35990000  0.67809000  0.41726000  1.0
  H  H21  1  0.96199000  0.35991000  0.41727000  1.0
  H  H22  1  0.83256000  0.86207000  0.02627000  1.0
  H  H23  1  0.86206000  0.30539000  0.02628000  1.0
  H  H24  1  0.30538000  0.83255000  0.02627000  1.0
  H  H25  1  0.69464000  0.13793000  0.47373000  1.0
  H  H26  1  0.83256000  0.30537000  0.52628000  1.0
  H  H27  1  0.86208000  0.83256000  0.52627000  1.0
  H  H28  1  0.16744000  0.13793000  0.97373000  1.0
  H  H29  1  0.13794000  0.69461000  0.97372000  1.0
  H  H30  1  0.69462000  0.16745000  0.97373000  1.0
  H  H31  1  0.30536000  0.86207000  0.52627000  1.0
  H  H32  1  0.16744000  0.69463000  0.47372000  1.0
  H  H33  1  0.13792000  0.16744000  0.47373000  1.0
  H  H34  1  0.74178000  0.97247000  0.94732000  1.0
  H  H35  1  0.97247000  0.28575000  0.94733000  1.0
  H  H36  1  0.28575000  0.74178000  0.94732000  1.0
  H  H37  1  0.71426000  0.02752000  0.55268000  1.0
  H  H38  1  0.74178000  0.28575000  0.44732000  1.0
  H  H39  1  0.97249000  0.74177000  0.44732000  1.0
  H  H40  1  0.25822000  0.02753000  0.05268000  1.0
  H  H41  1  0.02753000  0.71425000  0.05267000  1.0
  H  H42  1  0.71425000  0.25822000  0.05268000  1.0
  H  H43  1  0.28574000  0.97247000  0.44732000  1.0
  H  H44  1  0.25823000  0.71424000  0.55268000  1.0
  H  H45  1  0.02752000  0.25822000  0.55269000  1.0
  H  H46  1  0.68879000  0.91738000  0.20381000  1.0
  H  H47  1  0.91737000  0.39383000  0.20381000  1.0
  H  H48  1  0.39383000  0.68878000  0.20381000  1.0
  H  H49  1  0.60617000  0.08262000  0.29619000  1.0
  H  H50  1  0.68879000  0.39383000  0.70382000  1.0
  H  H51  1  0.91740000  0.68877000  0.70381000  1.0
  H  H52  1  0.31121000  0.08262000  0.79619000  1.0
  H  H53  1  0.08263000  0.60617000  0.79619000  1.0
  H  H54  1  0.60617000  0.31122000  0.79619000  1.0
  H  H55  1  0.39383000  0.91738000  0.70381000  1.0
  H  H56  1  0.31121000  0.60617000  0.29618000  1.0
  H  H57  1  0.08260000  0.31123000  0.29619000  1.0
  H  H58  1  0.74125000  0.79685000  0.13133000  1.0
  H  H59  1  0.79684000  0.46190000  0.13135000  1.0
  H  H60  1  0.46190000  0.74125000  0.13133000  1.0
  H  H61  1  0.53810000  0.20315000  0.36867000  1.0
  H  H62  1  0.74126000  0.46190000  0.63133000  1.0
  H  H63  1  0.79685000  0.74124000  0.63132000  1.0
  H  H64  1  0.25875000  0.20315000  0.86867000  1.0
  H  H65  1  0.20316000  0.53810000  0.86865000  1.0
  H  H66  1  0.53810000  0.25875000  0.86867000  1.0
  H  H67  1  0.46190000  0.79685000  0.63133000  1.0
  H  H68  1  0.25874000  0.53811000  0.36867000  1.0
  H  H69  1  0.20316000  0.25875000  0.36868000  1.0
  C  C70  1  0.73666000  0.81688000  0.93253000  1.0
  C  C71  1  0.81689000  0.44645000  0.93252000  1.0
  C  C72  1  0.44646000  0.73666000  0.93252000  1.0
  C  C73  1  0.55355000  0.18311000  0.56747000  1.0
  C  C74  1  0.73666000  0.44645000  0.43253000  1.0
  C  C75  1  0.81688000  0.73667000  0.43252000  1.0
  C  C76  1  0.26334000  0.18312000  0.06747000  1.0
  C  C77  1  0.18311000  0.55355000  0.06748000  1.0
  C  C78  1  0.55354000  0.26334000  0.06748000  1.0
  C  C79  1  0.44645000  0.81689000  0.43253000  1.0
  C  C80  1  0.26334000  0.55355000  0.56747000  1.0
  C  C81  1  0.18312000  0.26333000  0.56748000  1.0
  C  C82  1  0.74673000  0.90487000  0.99331000  1.0
  C  C83  1  0.90490000  0.34839000  0.99333000  1.0
  C  C84  1  0.34840000  0.74672000  0.99330000  1.0
  C  C85  1  0.65161000  0.09512000  0.50670000  1.0
  C  C86  1  0.74672000  0.34840000  0.49331000  1.0
  C  C87  1  0.90486000  0.74673000  0.49328000  1.0
  C  C88  1  0.25327000  0.09513000  0.00669000  1.0
  C  C89  1  0.09510000  0.65161000  0.00667000  1.0
  C  C90  1  0.65160000  0.25328000  0.00670000  1.0
  C  C91  1  0.34839000  0.90488000  0.49330000  1.0
  C  C92  1  0.25328000  0.65160000  0.50669000  1.0
  C  C93  1  0.09514000  0.25327000  0.50672000  1.0
  C  C94  1  0.66801000  0.88470000  0.14153000  1.0
  C  C95  1  0.88471000  0.44725000  0.14153000  1.0
  C  C96  1  0.44728000  0.66800000  0.14153000  1.0
  C  C97  1  0.55272000  0.11529000  0.35847000  1.0
  C  C98  1  0.66801000  0.44728000  0.64153000  1.0
  C  C99  1  0.88472000  0.66797000  0.64153000  1.0
  C  C100  1  0.33199000  0.11529000  0.85847000  1.0
  C  C101  1  0.11529000  0.55275000  0.85847000  1.0
  C  C102  1  0.55272000  0.33200000  0.85847000  1.0
  C  C103  1  0.44728000  0.88471000  0.64153000  1.0
  C  C104  1  0.33199000  0.55272000  0.35847000  1.0
  C  C105  1  0.11528000  0.33203000  0.35847000  1.0
  C  C106  1  0.56162000  0.87419000  0.16061000  1.0
  C  C107  1  0.87419000  0.56416000  0.16061000  1.0
  C  C108  1  0.56418000  0.56162000  0.16061000  1.0
  C  C109  1  0.43581000  0.12581000  0.33939000  1.0
  C  C110  1  0.56164000  0.56418000  0.66061000  1.0
  C  C111  1  0.87419000  0.56160000  0.66061000  1.0
  C  C112  1  0.43838000  0.12581000  0.83939000  1.0
  C  C113  1  0.12581000  0.43584000  0.83939000  1.0
  C  C114  1  0.43582000  0.43838000  0.83939000  1.0
  C  C115  1  0.56419000  0.87418000  0.66061000  1.0
  C  C116  1  0.43837000  0.43581000  0.33939000  1.0
  C  C117  1  0.12581000  0.43840000  0.33939000  1.0
  N  N118  1  0.65310000  0.95824000  0.06111000  1.0
  N  N119  1  0.95824000  0.38865000  0.06113000  1.0
  N  N120  1  0.38865000  0.65309000  0.06111000  1.0
  N  N121  1  0.61135000  0.04175000  0.43889000  1.0
  N  N122  1  0.65310000  0.38865000  0.56112000  1.0
  N  N123  1  0.95827000  0.65307000  0.56109000  1.0
  N  N124  1  0.34690000  0.04176000  0.93889000  1.0
  N  N125  1  0.04176000  0.61135000  0.93887000  1.0
  N  N126  1  0.61135000  0.34691000  0.93889000  1.0
  N  N127  1  0.38865000  0.95825000  0.56111000  1.0
  N  N128  1  0.34690000  0.61136000  0.43888000  1.0
  N  N129  1  0.04173000  0.34693000  0.43891000  1.0
  O  O130  1  0.64476000  0.81011000  0.94055000  1.0
  O  O131  1  0.81012000  0.54513000  0.94054000  1.0
  O  O132  1  0.54513000  0.64476000  0.94054000  1.0
  O  O133  1  0.45487000  0.18988000  0.55945000  1.0
  O  O134  1  0.64476000  0.54512000  0.44055000  1.0
  O  O135  1  0.81010000  0.64477000  0.44055000  1.0
  O  O136  1  0.35525000  0.18988000  0.05945000  1.0
  O  O137  1  0.18988000  0.45487000  0.05946000  1.0
  O  O138  1  0.45487000  0.35524000  0.05946000  1.0
  O  O139  1  0.54513000  0.81012000  0.44055000  1.0
  O  O140  1  0.35524000  0.45488000  0.55945000  1.0
  O  O141  1  0.18990000  0.35523000  0.55945000  1.0
  O  O142  1  0.81655000  0.75645000  0.87642000  1.0
  O  O143  1  0.75644000  0.42702000  0.87642000  1.0
  O  O144  1  0.42699000  0.81656000  0.87642000  1.0
  O  O145  1  0.57300000  0.24354000  0.62358000  1.0
  O  O146  1  0.81655000  0.42699000  0.37643000  1.0
  O  O147  1  0.75646000  0.81656000  0.37643000  1.0
  O  O148  1  0.18345000  0.24355000  0.12358000  1.0
  O  O149  1  0.24356000  0.57298000  0.12358000  1.0
  O  O150  1  0.57301000  0.18345000  0.12358000  1.0
  O  O151  1  0.42700000  0.75646000  0.37642000  1.0
  O  O152  1  0.18345000  0.57301000  0.62357000  1.0
  O  O153  1  0.24354000  0.18344000  0.62357000  1.0
  O  O154  1  0.47565000  0.92229000  0.10570000  1.0
  O  O155  1  0.92227000  0.60206000  0.10570000  1.0
  O  O156  1  0.60206000  0.47567000  0.10569000  1.0
  O  O157  1  0.39793000  0.07773000  0.39431000  1.0
  O  O158  1  0.47567000  0.60206000  0.60569000  1.0
  O  O159  1  0.92228000  0.47565000  0.60570000  1.0
  O  O160  1  0.52435000  0.07771000  0.89430000  1.0
  O  O161  1  0.07773000  0.39794000  0.89430000  1.0
  O  O162  1  0.39794000  0.52433000  0.89431000  1.0
  O  O163  1  0.60207000  0.92227000  0.60569000  1.0
  O  O164  1  0.52433000  0.39795000  0.39431000  1.0
  O  O165  1  0.07772000  0.52435000  0.39430000  1.0
  O  O166  1  0.56255000  0.81665000  0.22977000  1.0
  O  O167  1  0.81667000  0.62080000  0.22977000  1.0
  O  O168  1  0.62078000  0.56255000  0.22977000  1.0
  O  O169  1  0.37920000  0.18335000  0.27024000  1.0
  O  O170  1  0.56256000  0.62079000  0.72976000  1.0
  O  O171  1  0.81664000  0.56258000  0.72977000  1.0
  O  O172  1  0.43745000  0.18335000  0.77023000  1.0
  O  O173  1  0.18332000  0.37921000  0.77023000  1.0
  O  O174  1  0.37922000  0.43745000  0.77023000  1.0
  O  O175  1  0.62080000  0.81665000  0.72976000  1.0
  O  O176  1  0.43744000  0.37921000  0.27024000  1.0
  O  O177  1  0.18336000  0.43742000  0.27023000  1.0
