# generated using pymatgen
data_Tl2H8Au2C28Cl20O
_symmetry_space_group_name_H-M   'P 1'
_cell_length_a   9.05178000
_cell_length_b   11.29220000
_cell_length_c   21.24650000
_cell_angle_alpha   96.69090000
_cell_angle_beta   92.55360000
_cell_angle_gamma   98.68220000
_symmetry_Int_Tables_number   1
_chemical_formula_structural   Tl2H8Au2C28Cl20O
_chemical_formula_sum   'Tl4 H16 Au4 C56 Cl40 O2'
_cell_volume   2127.91797229
_cell_formula_units_Z   2
loop_
 _symmetry_equiv_pos_site_id
 _symmetry_equiv_pos_as_xyz
  1  'x, y, z'
loop_
 _atom_site_type_symbol
 _atom_site_label
 _atom_site_symmetry_multiplicity
 _atom_site_fract_x
 _atom_site_fract_y
 _atom_site_fract_z
 _atom_site_occupancy
  Tl  Tl0  1  0.69953000  0.63891000  0.30251000  1.0
  Tl  Tl1  1  0.30047000  0.36110000  0.69748000  1.0
  Tl  Tl2  1  0.63586000  0.14909000  0.25401000  1.0
  Tl  Tl3  1  0.36414000  0.85091000  0.74599000  1.0
  H  H4  1  0.53466000  0.06973000  0.06731000  1.0
  H  H5  1  0.46535000  0.93028000  0.93269000  1.0
  H  H6  1  0.61049000  0.93759000  0.08382000  1.0
  H  H7  1  0.38952000  0.06242000  0.91619000  1.0
  H  H8  1  0.73844000  0.13112000  0.00212000  1.0
  H  H9  1  0.26157000  0.86889000  0.99788000  1.0
  H  H10  1  0.72525000  0.97177000  0.98496000  1.0
  H  H11  1  0.27476000  0.02824000  0.01504000  1.0
  H  H12  1  0.92173000  0.96559000  0.06611000  1.0
  H  H13  1  0.07827000  0.03441000  0.93389000  1.0
  H  H14  1  0.99153000  0.10182000  0.03540000  1.0
  H  H15  1  0.00848000  0.89818000  0.96460000  1.0
  H  H16  1  0.93898000  0.10146000  0.16298000  1.0
  H  H17  1  0.06103000  0.89855000  0.83702000  1.0
  H  H18  1  0.90740000  0.22524000  0.12150000  1.0
  H  H19  1  0.09261000  0.77477000  0.87850000  1.0
  Au  Au20  1  0.51501000  0.40023000  0.26504000  1.0
  Au  Au21  1  0.48499000  0.59977000  0.73496000  1.0
  Au  Au22  1  0.66211000  0.89225000  0.28350000  1.0
  Au  Au23  1  0.33788000  0.10776000  0.71650000  1.0
  C  C24  1  0.53341000  0.38727000  0.16795000  1.0
  C  C25  1  0.46659000  0.61272000  0.83205000  1.0
  C  C26  1  0.40724000  0.35793000  0.12480000  1.0
  C  C27  1  0.59276000  0.64206000  0.87520000  1.0
  C  C28  1  0.41828000  0.34100000  0.05865000  1.0
  C  C29  1  0.58171000  0.65900000  0.94136000  1.0
  C  C30  1  0.56046000  0.35791000  0.03371000  1.0
  C  C31  1  0.43954000  0.64208000  0.96629000  1.0
  C  C32  1  0.68950000  0.38960000  0.07522000  1.0
  C  C33  1  0.31049000  0.61039000  0.92478000  1.0
  C  C34  1  0.67294000  0.40081000  0.14105000  1.0
  C  C35  1  0.32706000  0.59918000  0.85895000  1.0
  C  C36  1  0.50285000  0.39526000  0.36187000  1.0
  C  C37  1  0.49715000  0.60475000  0.63813000  1.0
  C  C38  1  0.62592000  0.37775000  0.40033000  1.0
  C  C39  1  0.37408000  0.62225000  0.59967000  1.0
  C  C40  1  0.61384000  0.34774000  0.46245000  1.0
  C  C41  1  0.38616000  0.65226000  0.53755000  1.0
  C  C42  1  0.47234000  0.33554000  0.48776000  1.0
  C  C43  1  0.52767000  0.66446000  0.51224000  1.0
  C  C44  1  0.34785000  0.36062000  0.45266000  1.0
  C  C45  1  0.65216000  0.63938000  0.54734000  1.0
  C  C46  1  0.36602000  0.39213000  0.39101000  1.0
  C  C47  1  0.63399000  0.60787000  0.60899000  1.0
  C  C48  1  0.87058000  0.91564000  0.24681000  1.0
  C  C49  1  0.12941000  0.08436000  0.75319000  1.0
  C  C50  1  0.98818000  0.00607000  0.27306000  1.0
  C  C51  1  0.01182000  0.99394000  0.72694000  1.0
  C  C52  1  0.12882000  0.02361000  0.24698000  1.0
  C  C53  1  0.87118000  0.97638000  0.75302000  1.0
  C  C54  1  0.15518000  0.94740000  0.19287000  1.0
  C  C55  1  0.84481000  0.05260000  0.80713000  1.0
  C  C56  1  0.04123000  0.85428000  0.16573000  1.0
  C  C57  1  0.95876000  0.14572000  0.83426000  1.0
  C  C58  1  0.90183000  0.84155000  0.19285000  1.0
  C  C59  1  0.09816000  0.15846000  0.80715000  1.0
  C  C60  1  0.45216000  0.86786000  0.31846000  1.0
  C  C61  1  0.54783000  0.13214000  0.68154000  1.0
  C  C62  1  0.33825000  0.77497000  0.29158000  1.0
  C  C63  1  0.66174000  0.22503000  0.70841000  1.0
  C  C64  1  0.19587000  0.75574000  0.31573000  1.0
  C  C65  1  0.80412000  0.24426000  0.68426000  1.0
  C  C66  1  0.16407000  0.83196000  0.36878000  1.0
  C  C67  1  0.83593000  0.16804000  0.63122000  1.0
  C  C68  1  0.27395000  0.92770000  0.39647000  1.0
  C  C69  1  0.72604000  0.07229000  0.60353000  1.0
  C  C70  1  0.41517000  0.94297000  0.37095000  1.0
  C  C71  1  0.58483000  0.05703000  0.62905000  1.0
  C  C72  1  0.63846000  0.03298000  0.07567000  1.0
  C  C73  1  0.36154000  0.96703000  0.92433000  1.0
  C  C74  1  0.74639000  0.04766000  0.02311000  1.0
  C  C75  1  0.25362000  0.95235000  0.97689000  1.0
  C  C76  1  0.89867000  0.05625000  0.05938000  1.0
  C  C77  1  0.10134000  0.94375000  0.94062000  1.0
  C  C78  1  0.87674000  0.12761000  0.12263000  1.0
  C  C79  1  0.12327000  0.87240000  0.87738000  1.0
  Cl  Cl80  1  0.23076000  0.34088000  0.15405000  1.0
  Cl  Cl81  1  0.76923000  0.65911000  0.84595000  1.0
  Cl  Cl82  1  0.26107000  0.30115000  0.00784000  1.0
  Cl  Cl83  1  0.73893000  0.69885000  0.99217000  1.0
  Cl  Cl84  1  0.57670000  0.33839000  0.95312000  1.0
  Cl  Cl85  1  0.42329000  0.66160000  0.04688000  1.0
  Cl  Cl86  1  0.86358000  0.41237000  0.04539000  1.0
  Cl  Cl87  1  0.13641000  0.58762000  0.95461000  1.0
  Cl  Cl88  1  0.83542000  0.42891000  0.19102000  1.0
  Cl  Cl89  1  0.16459000  0.57109000  0.80898000  1.0
  Cl  Cl90  1  0.80301000  0.39013000  0.37044000  1.0
  Cl  Cl91  1  0.19699000  0.60987000  0.62956000  1.0
  Cl  Cl92  1  0.76621000  0.31882000  0.50551000  1.0
  Cl  Cl93  1  0.23379000  0.68118000  0.49449000  1.0
  Cl  Cl94  1  0.45269000  0.28425000  0.56034000  1.0
  Cl  Cl95  1  0.54731000  0.71575000  0.43966000  1.0
  Cl  Cl96  1  0.17641000  0.35009000  0.48463000  1.0
  Cl  Cl97  1  0.82360000  0.64991000  0.51537000  1.0
  Cl  Cl98  1  0.21451000  0.42899000  0.34936000  1.0
  Cl  Cl99  1  0.78549000  0.57101000  0.65064000  1.0
  Cl  Cl100  1  0.95944000  0.10297000  0.33934000  1.0
  Cl  Cl101  1  0.04056000  0.89703000  0.66066000  1.0
  Cl  Cl102  1  0.26532000  0.13931000  0.27983000  1.0
  Cl  Cl103  1  0.73469000  0.86068000  0.72017000  1.0
  Cl  Cl104  1  0.32415000  0.96847000  0.15882000  1.0
  Cl  Cl105  1  0.67584000  0.03153000  0.84117000  1.0
  Cl  Cl106  1  0.07360000  0.75921000  0.10048000  1.0
  Cl  Cl107  1  0.92639000  0.24078000  0.89952000  1.0
  Cl  Cl108  1  0.76227000  0.72752000  0.15763000  1.0
  Cl  Cl109  1  0.23771000  0.27249000  0.84237000  1.0
  Cl  Cl110  1  0.37319000  0.67785000  0.22626000  1.0
  Cl  Cl111  1  0.62680000  0.32215000  0.77374000  1.0
  Cl  Cl112  1  0.06105000  0.64084000  0.27998000  1.0
  Cl  Cl113  1  0.93895000  0.35916000  0.72002000  1.0
  Cl  Cl114  1  0.99354000  0.80778000  0.40123000  1.0
  Cl  Cl115  1  0.00646000  0.19221000  0.59877000  1.0
  Cl  Cl116  1  0.23443000  0.02219000  0.46037000  1.0
  Cl  Cl117  1  0.76556000  0.97780000  0.53963000  1.0
  Cl  Cl118  1  0.54926000  0.06025000  0.40633000  1.0
  Cl  Cl119  1  0.45073000  0.93975000  0.59367000  1.0
  O  O120  1  0.71734000  0.10213000  0.13242000  1.0
  O  O121  1  0.28267000  0.89788000  0.86758000  1.0
