# generated using pymatgen
data_RbH14C6IN4O
_symmetry_space_group_name_H-M   'P 1'
_cell_length_a   6.91431000
_cell_length_b   9.60246000
_cell_length_c   10.19040000
_cell_angle_alpha   65.99370000
_cell_angle_beta   70.16900000
_cell_angle_gamma   68.90540000
_symmetry_Int_Tables_number   1
_chemical_formula_structural   RbH14C6IN4O
_chemical_formula_sum   'Rb2 H28 C12 I2 N8 O2'
_cell_volume   561.69163089
_cell_formula_units_Z   2
loop_
 _symmetry_equiv_pos_site_id
 _symmetry_equiv_pos_as_xyz
  1  'x, y, z'
loop_
 _atom_site_type_symbol
 _atom_site_label
 _atom_site_symmetry_multiplicity
 _atom_site_fract_x
 _atom_site_fract_y
 _atom_site_fract_z
 _atom_site_occupancy
  Rb  Rb0  1  0.52677000  0.16019000  0.78634000  1.0
  Rb  Rb1  1  0.47323000  0.83981000  0.21366000  1.0
  H  H2  1  0.78666000  0.77806000  0.88026000  1.0
  H  H3  1  0.44458000  0.22191000  0.11974000  1.0
  H  H4  1  0.21334000  0.22194000  0.11974000  1.0
  H  H5  1  0.55542000  0.77809000  0.88026000  1.0
  H  H6  1  0.13280000  0.47919000  0.91332000  1.0
  H  H7  1  0.52522000  0.52073000  0.08661000  1.0
  H  H8  1  0.86720000  0.52081000  0.08668000  1.0
  H  H9  1  0.47478000  0.47927000  0.91339000  1.0
  H  H10  1  0.05838000  0.53601000  0.74313000  1.0
  H  H11  1  0.33717000  0.46399000  0.25673000  1.0
  H  H12  1  0.94162000  0.46399000  0.25687000  1.0
  H  H13  1  0.66283000  0.53600000  0.74327000  1.0
  H  H14  1  0.00016000  0.80865000  0.58677000  1.0
  H  H15  1  0.39536000  0.19118000  0.41323000  1.0
  H  H16  1  0.99984000  0.19136000  0.41323000  1.0
  H  H17  1  0.60464000  0.80882000  0.58677000  1.0
  H  H18  1  0.03000000  0.95365000  0.64323000  1.0
  H  H19  1  0.62670000  0.04630000  0.35673000  1.0
  H  H20  1  0.97000000  0.04635000  0.35677000  1.0
  H  H21  1  0.37330000  0.95370000  0.64327000  1.0
  H  H22  1  0.56551000  0.61606000  0.51515000  1.0
  H  H23  1  0.69617000  0.38402000  0.48485000  1.0
  H  H24  1  0.43449000  0.38394000  0.48485000  1.0
  H  H25  1  0.30383000  0.61598000  0.51515000  1.0
  H  H26  1  0.16653000  0.67811000  0.98910000  1.0
  H  H27  1  0.83347000  0.32189000  0.01090000  1.0
  H  H28  1  0.12605000  0.87843000  0.86978000  1.0
  H  H29  1  0.87395000  0.12157000  0.13022000  1.0
  C  C30  1  0.14846000  0.55961000  0.79898000  1.0
  C  C31  1  0.50672000  0.44035000  0.20096000  1.0
  C  C32  1  0.85154000  0.44039000  0.20102000  1.0
  C  C33  1  0.49327000  0.55965000  0.79904000  1.0
  C  C34  1  0.09033000  0.83071000  0.64368000  1.0
  C  C35  1  0.56449000  0.16923000  0.35630000  1.0
  C  C36  1  0.90967000  0.16930000  0.35632000  1.0
  C  C37  1  0.43551000  0.83077000  0.64370000  1.0
  C  C38  1  0.39589000  0.63736000  0.57132000  1.0
  C  C39  1  0.60410000  0.36264000  0.42868000  1.0
  C  C40  1  0.18632000  0.75450000  0.87321000  1.0
  C  C41  1  0.81368000  0.24550000  0.12679000  1.0
  I  I42  1  0.03176000  0.25222000  0.68432000  1.0
  I  I43  1  0.96823000  0.74778000  0.31567000  1.0
  N  N44  1  0.37480000  0.52711000  0.72372000  1.0
  N  N45  1  0.62520000  0.47289000  0.27628000  1.0
  N  N46  1  0.06123000  0.72477000  0.79953000  1.0
  N  N47  1  0.58519000  0.27518000  0.20046000  1.0
  N  N48  1  0.93877000  0.27523000  0.20047000  1.0
  N  N49  1  0.41481000  0.72482000  0.79954000  1.0
  N  N50  1  0.31555000  0.80393000  0.56530000  1.0
  N  N51  1  0.68445000  0.19607000  0.43470000  1.0
  O  O52  1  0.63062000  0.81715000  0.92201000  1.0
  O  O53  1  0.36938000  0.18285000  0.07799000  1.0
