# generated using pymatgen
data_CuH9C11NO6
_symmetry_space_group_name_H-M   'P 1'
_cell_length_a   7.34504000
_cell_length_b   7.51970108
_cell_length_c   12.12590000
_cell_angle_alpha   104.51219355
_cell_angle_beta   90.61460000
_cell_angle_gamma   119.05975146
_symmetry_Int_Tables_number   1
_chemical_formula_structural   CuH9C11NO6
_chemical_formula_sum   'Cu2 H18 C22 N2 O12'
_cell_volume   559.76926349
_cell_formula_units_Z   2
loop_
 _symmetry_equiv_pos_site_id
 _symmetry_equiv_pos_as_xyz
  1  'x, y, z'
loop_
 _atom_site_type_symbol
 _atom_site_label
 _atom_site_symmetry_multiplicity
 _atom_site_fract_x
 _atom_site_fract_y
 _atom_site_fract_z
 _atom_site_occupancy
  Cu  Cu0  1  0.88455000  0.55529000  0.83519000  1.0
  Cu  Cu1  1  0.11545000  0.44469000  0.16481000  1.0
  H  H2  1  0.18891000  0.46425000  0.88514000  1.0
  H  H3  1  0.81111000  0.53575000  0.11486000  1.0
  H  H4  1  0.02771000  0.23371000  0.81240000  1.0
  H  H5  1  0.97228000  0.76629000  0.18760000  1.0
  H  H6  1  0.18661000  0.91168000  0.96670000  1.0
  H  H7  1  0.81339000  0.08828000  0.03329000  1.0
  H  H8  1  0.16408000  0.72148000  0.01132000  1.0
  H  H9  1  0.83593000  0.27849000  0.98868000  1.0
  H  H10  1  0.07463000  0.89517000  0.53652000  1.0
  H  H11  1  0.92538000  0.10485000  0.46348000  1.0
  H  H12  1  0.20143000  0.99215000  0.36121000  1.0
  H  H13  1  0.79858000  0.00786000  0.63879000  1.0
  H  H14  1  0.47908000  0.23146000  0.26910000  1.0
  H  H15  1  0.52093000  0.76854000  0.73090000  1.0
  H  H16  1  0.82283000  0.51780000  0.38580000  1.0
  H  H17  1  0.17716000  0.48226000  0.61420000  1.0
  H  H18  1  0.89277000  0.56872000  0.59668000  1.0
  H  H19  1  0.10722000  0.43135000  0.40333000  1.0
  C  C20  1  0.08573000  0.92028000  0.76068000  1.0
  C  C21  1  0.91427000  0.07972000  0.23932000  1.0
  C  C22  1  0.26175000  0.05894000  0.70518000  1.0
  C  C23  1  0.73825000  0.94106000  0.29482000  1.0
  C  C24  1  0.22597000  0.02259000  0.58758000  1.0
  C  C25  1  0.77404000  0.97743000  0.41242000  1.0
  C  C26  1  0.38475000  0.14938000  0.53235000  1.0
  C  C27  1  0.61525000  0.85063000  0.46765000  1.0
  C  C28  1  0.35242000  0.11950000  0.41213000  1.0
  C  C29  1  0.64759000  0.88051000  0.58787000  1.0
  C  C30  1  0.50687000  0.25220000  0.36110000  1.0
  C  C31  1  0.49313000  0.74781000  0.63890000  1.0
  C  C32  1  0.70233000  0.41639000  0.42859000  1.0
  C  C33  1  0.29767000  0.58364000  0.57141000  1.0
  C  C34  1  0.74140000  0.44583000  0.54519000  1.0
  C  C35  1  0.25859000  0.55420000  0.45482000  1.0
  C  C36  1  0.58362000  0.31563000  0.60088000  1.0
  C  C37  1  0.41638000  0.68438000  0.39913000  1.0
  C  C38  1  0.46277000  0.22033000  0.76701000  1.0
  C  C39  1  0.53723000  0.77965000  0.23299000  1.0
  C  C40  1  0.51711000  0.25453000  0.89359000  1.0
  C  C41  1  0.48289000  0.74543000  0.10640000  1.0
  N  N42  1  0.61779000  0.34482000  0.71727000  1.0
  N  N43  1  0.38221000  0.65518000  0.28273000  1.0
  O  O44  1  0.38556000  0.15067000  0.94886000  1.0
  O  O45  1  0.61446000  0.84929000  0.05113000  1.0
  O  O46  1  0.71283000  0.39712000  0.93853000  1.0
  O  O47  1  0.28716000  0.60284000  0.06148000  1.0
  O  O48  1  0.95603000  0.97222000  0.79869000  1.0
  O  O49  1  0.04397000  0.02777000  0.20131000  1.0
  O  O50  1  0.07840000  0.74274000  0.75352000  1.0
  O  O51  1  0.92158000  0.25726000  0.24648000  1.0
  O  O52  1  0.08730000  0.38537000  0.81353000  1.0
  O  O53  1  0.91270000  0.61463000  0.18647000  1.0
  O  O54  1  0.08215000  0.77520000  0.97941000  1.0
  O  O55  1  0.91785000  0.22477000  0.02058000  1.0
