# generated using pymatgen
data_MnH12C17(N3O2)2
_symmetry_space_group_name_H-M   'P 1'
_cell_length_a   7.47925000
_cell_length_b   9.93325000
_cell_length_c   11.79450000
_cell_angle_alpha   93.26170000
_cell_angle_beta   91.40300000
_cell_angle_gamma   95.09370000
_symmetry_Int_Tables_number   1
_chemical_formula_structural   MnH12C17(N3O2)2
_chemical_formula_sum   'Mn2 H24 C34 N12 O8'
_cell_volume   870.99309804
_cell_formula_units_Z   2
loop_
 _symmetry_equiv_pos_site_id
 _symmetry_equiv_pos_as_xyz
  1  'x, y, z'
loop_
 _atom_site_type_symbol
 _atom_site_label
 _atom_site_symmetry_multiplicity
 _atom_site_fract_x
 _atom_site_fract_y
 _atom_site_fract_z
 _atom_site_occupancy
  Mn  Mn0  1  0.48419000  0.23469000  0.37542000  1.0
  Mn  Mn1  1  0.51582000  0.76531000  0.62458000  1.0
  H  H2  1  0.25237000  0.86374000  0.97459000  1.0
  H  H3  1  0.74763000  0.13626000  0.02542000  1.0
  H  H4  1  0.25688000  0.61327000  0.26083000  1.0
  H  H5  1  0.74311000  0.38673000  0.73917000  1.0
  H  H6  1  0.77965000  0.60763000  0.04837000  1.0
  H  H7  1  0.22035000  0.39237000  0.95163000  1.0
  H  H8  1  0.65529000  0.65348000  0.87292000  1.0
  H  H9  1  0.34471000  0.34652000  0.12708000  1.0
  H  H10  1  0.85363000  0.99531000  0.70417000  1.0
  H  H11  1  0.14636000  0.00471000  0.29584000  1.0
  H  H12  1  0.56727000  0.91071000  0.00364000  1.0
  H  H13  1  0.43272000  0.08929000  0.99636000  1.0
  H  H14  1  0.80296000  0.86360000  0.32509000  1.0
  H  H15  1  0.19705000  0.13640000  0.67491000  1.0
  H  H16  1  0.62519000  0.47144000  0.18203000  1.0
  H  H17  1  0.37481000  0.52855000  0.81797000  1.0
  H  H18  1  0.91808000  0.26401000  0.41488000  1.0
  H  H19  1  0.08192000  0.73598000  0.58513000  1.0
  H  H20  1  0.08343000  0.96929000  0.85879000  1.0
  H  H21  1  0.91656000  0.03072000  0.14121000  1.0
  H  H22  1  0.49466000  0.73652000  0.32127000  1.0
  H  H23  1  0.50534000  0.26348000  0.67873000  1.0
  H  H24  1  0.14113000  0.43621000  0.32973000  1.0
  H  H25  1  0.85887000  0.56379000  0.67027000  1.0
  C  C26  1  0.18381000  0.78958000  0.02691000  1.0
  C  C27  1  0.81619000  0.21042000  0.97309000  1.0
  C  C28  1  0.27551000  0.74450000  0.12098000  1.0
  C  C29  1  0.72448000  0.25551000  0.87903000  1.0
  C  C30  1  0.18687000  0.64814000  0.18749000  1.0
  C  C31  1  0.81312000  0.35186000  0.81251000  1.0
  C  C32  1  0.00846000  0.59722000  0.16131000  1.0
  C  C33  1  0.99153000  0.40278000  0.83869000  1.0
  C  C34  1  0.91893000  0.64481000  0.06809000  1.0
  C  C35  1  0.08107000  0.35519000  0.93191000  1.0
  C  C36  1  0.00491000  0.74141000  0.00065000  1.0
  C  C37  1  0.99510000  0.25859000  0.99935000  1.0
  C  C38  1  0.90596000  0.79056000  0.90585000  1.0
  C  C39  1  0.09404000  0.20945000  0.09414000  1.0
  C  C40  1  0.74301000  0.74150000  0.85378000  1.0
  C  C41  1  0.25699000  0.25850000  0.14622000  1.0
  C  C42  1  0.84070000  0.91691000  0.76441000  1.0
  C  C43  1  0.15930000  0.08310000  0.23560000  1.0
  C  C44  1  0.45856000  0.80081000  0.14982000  1.0
  C  C45  1  0.54143000  0.19920000  0.85019000  1.0
  C  C46  1  0.58070000  0.88040000  0.08997000  1.0
  C  C47  1  0.41929000  0.11961000  0.91004000  1.0
  C  C48  1  0.71008000  0.85619000  0.25247000  1.0
  C  C49  1  0.28991000  0.14382000  0.74753000  1.0
  C  C50  1  0.91710000  0.49565000  0.22926000  1.0
  C  C51  1  0.08290000  0.50434000  0.77073000  1.0
  C  C52  1  0.73940000  0.44256000  0.23029000  1.0
  C  C53  1  0.26060000  0.55743000  0.76970000  1.0
  C  C54  1  0.88508000  0.33470000  0.35251000  1.0
  C  C55  1  0.11492000  0.66529000  0.64749000  1.0
  C  C56  1  0.55870000  0.47478000  0.54827000  1.0
  C  C57  1  0.44129000  0.52521000  0.45172000  1.0
  C  C58  1  0.39917000  0.00155000  0.51430000  1.0
  C  C59  1  0.60088000  0.99845000  0.48571000  1.0
  N  N60  1  0.96382000  0.90251000  0.84716000  1.0
  N  N61  1  0.03617000  0.09749000  0.15285000  1.0
  N  N62  1  0.70386000  0.82023000  0.76547000  1.0
  N  N63  1  0.29614000  0.17978000  0.23453000  1.0
  N  N64  1  0.73528000  0.91481000  0.15464000  1.0
  N  N65  1  0.26471000  0.08519000  0.84536000  1.0
  N  N66  1  0.54600000  0.78638000  0.25301000  1.0
  N  N67  1  0.45401000  0.21362000  0.74699000  1.0
  N  N68  1  0.72118000  0.34249000  0.30666000  1.0
  N  N69  1  0.27882000  0.65750000  0.69334000  1.0
  N  N70  1  0.00496000  0.42573000  0.30886000  1.0
  N  N71  1  0.99504000  0.57427000  0.69114000  1.0
  O  O72  1  0.56688000  0.34859000  0.55126000  1.0
  O  O73  1  0.43311000  0.65142000  0.44873000  1.0
  O  O74  1  0.63758000  0.56539000  0.61730000  1.0
  O  O75  1  0.36242000  0.43462000  0.38269000  1.0
  O  O76  1  0.31727000  0.09681000  0.47619000  1.0
  O  O77  1  0.68277000  0.90319000  0.52380000  1.0
  O  O78  1  0.33218000  0.90960000  0.57461000  1.0
  O  O79  1  0.66787000  0.09042000  0.42539000  1.0
