# generated using pymatgen
data_CuH24C24S2(N3O4)2
_symmetry_space_group_name_H-M   'P 1'
_cell_length_a   5.63067000
_cell_length_b   7.12249000
_cell_length_c   15.52010000
_cell_angle_alpha   102.64000000
_cell_angle_beta   98.94510000
_cell_angle_gamma   92.73710000
_symmetry_Int_Tables_number   1
_chemical_formula_structural   CuH24C24S2(N3O4)2
_chemical_formula_sum   'Cu1 H24 C24 S2 N6 O8'
_cell_volume   597.78951413
_cell_formula_units_Z   1
loop_
 _symmetry_equiv_pos_site_id
 _symmetry_equiv_pos_as_xyz
  1  'x, y, z'
loop_
 _atom_site_type_symbol
 _atom_site_label
 _atom_site_symmetry_multiplicity
 _atom_site_fract_x
 _atom_site_fract_y
 _atom_site_fract_z
 _atom_site_occupancy
  Cu  Cu0  1  0.50000000  0.50000000  0.00000000  1.0
  H  H1  1  0.01638000  0.29272000  0.69162000  1.0
  H  H2  1  0.98362000  0.70727000  0.30838000  1.0
  H  H3  1  0.29890000  0.62024000  0.77722000  1.0
  H  H4  1  0.70110000  0.37977000  0.22277000  1.0
  H  H5  1  0.58457000  0.76773000  0.92013000  1.0
  H  H6  1  0.41543000  0.23226000  0.07986000  1.0
  H  H7  1  0.30385000  0.46246000  0.61752000  1.0
  H  H8  1  0.69614000  0.53754000  0.38248000  1.0
  H  H9  1  0.83401000  0.65947000  0.94966000  1.0
  H  H10  1  0.16599000  0.34053000  0.05034000  1.0
  H  H11  1  0.23334000  0.76407000  0.95941000  1.0
  H  H12  1  0.76666000  0.23594000  0.04059000  1.0
  H  H13  1  0.19802000  0.75793000  0.05640000  1.0
  H  H14  1  0.80198000  0.24207000  0.94360000  1.0
  H  H15  1  0.00790000  0.44029000  0.85116000  1.0
  H  H16  1  0.99209000  0.55970000  0.14884000  1.0
  H  H17  1  0.50094000  0.03621000  0.41604000  1.0
  H  H18  1  0.49906000  0.96380000  0.58396000  1.0
  H  H19  1  0.21615000  0.17702000  0.28071000  1.0
  H  H20  1  0.78385000  0.82297000  0.71929000  1.0
  H  H21  1  0.50067000  0.90200000  0.25287000  1.0
  H  H22  1  0.49934000  0.09800000  0.74713000  1.0
  H  H23  1  0.21912000  0.30338000  0.44491000  1.0
  H  H24  1  0.78088000  0.69662000  0.55509000  1.0
  C  C25  1  0.65576000  0.54524000  0.82410000  1.0
  C  C26  1  0.34423000  0.45475000  0.17590000  1.0
  C  C27  1  0.66524000  0.37619000  0.64432000  1.0
  C  C28  1  0.33476000  0.62381000  0.35567000  1.0
  C  C29  1  0.45559000  0.54893000  0.75832000  1.0
  C  C30  1  0.54440000  0.45107000  0.24168000  1.0
  C  C31  1  0.86148000  0.36636000  0.71093000  1.0
  C  C32  1  0.13853000  0.63364000  0.28907000  1.0
  C  C33  1  0.85570000  0.44898000  0.79993000  1.0
  C  C34  1  0.14427000  0.55102000  0.20006000  1.0
  C  C35  1  0.45943000  0.46305000  0.66917000  1.0
  C  C36  1  0.54057000  0.53695000  0.33083000  1.0
  C  C37  1  0.85529000  0.18527000  0.43863000  1.0
  C  C38  1  0.14473000  0.81473000  0.56137000  1.0
  C  C39  1  0.65414000  0.06838000  0.38527000  1.0
  C  C40  1  0.34585000  0.93161000  0.61473000  1.0
  C  C41  1  0.85600000  0.03711000  0.25776000  1.0
  C  C42  1  0.14400000  0.96287000  0.74224000  1.0
  C  C43  1  0.06089000  0.21948000  0.40169000  1.0
  C  C44  1  0.93911000  0.78051000  0.59831000  1.0
  C  C45  1  0.05981000  0.14816000  0.31060000  1.0
  C  C46  1  0.94021000  0.85182000  0.68940000  1.0
  C  C47  1  0.65450000  0.99373000  0.29492000  1.0
  C  C48  1  0.34552000  0.00627000  0.70507000  1.0
  S  S49  1  0.84516000  0.95270000  0.14076000  1.0
  S  S50  1  0.15485000  0.04730000  0.85924000  1.0
  N  N51  1  0.65955000  0.63755000  0.91540000  1.0
  N  N52  1  0.34045000  0.36245000  0.08460000  1.0
  N  N53  1  0.65903000  0.29893000  0.55249000  1.0
  N  N54  1  0.34097000  0.70106000  0.44751000  1.0
  N  N55  1  0.86476000  0.27231000  0.52998000  1.0
  N  N56  1  0.13525000  0.72769000  0.47002000  1.0
  O  O57  1  0.21321000  0.66994000  0.99827000  1.0
  O  O58  1  0.78679000  0.33007000  0.00173000  1.0
  O  O59  1  0.71882000  0.75884000  0.11626000  1.0
  O  O60  1  0.28117000  0.24116000  0.88373000  1.0
  O  O61  1  0.09604000  0.95850000  0.12487000  1.0
  O  O62  1  0.90397000  0.04151000  0.87513000  1.0
  O  O63  1  0.70334000  0.09029000  0.09926000  1.0
  O  O64  1  0.29666000  0.90972000  0.90075000  1.0
