# generated using pymatgen
data_LaH10C7NO9
_symmetry_space_group_name_H-M   'P 1'
_cell_length_a   7.27648000
_cell_length_b   9.88559000
_cell_length_c   15.96350000
_cell_angle_alpha   103.59200000
_cell_angle_beta   90.00000000
_cell_angle_gamma   90.00000000
_symmetry_Int_Tables_number   1
_chemical_formula_structural   LaH10C7NO9
_chemical_formula_sum   'La4 H40 C28 N4 O36'
_cell_volume   1116.13199040
_cell_formula_units_Z   4
loop_
 _symmetry_equiv_pos_site_id
 _symmetry_equiv_pos_as_xyz
  1  'x, y, z'
loop_
 _atom_site_type_symbol
 _atom_site_label
 _atom_site_symmetry_multiplicity
 _atom_site_fract_x
 _atom_site_fract_y
 _atom_site_fract_z
 _atom_site_occupancy
  La  La0  1  0.86205000  0.99049000  0.24024000  1.0
  La  La1  1  0.36204000  0.50950000  0.25976000  1.0
  La  La2  1  0.13797000  0.00949000  0.75976000  1.0
  La  La3  1  0.63795000  0.49049000  0.74025000  1.0
  H  H4  1  0.32453000  0.95251000  0.22213000  1.0
  H  H5  1  0.82452000  0.54748000  0.27787000  1.0
  H  H6  1  0.67547000  0.04749000  0.77788000  1.0
  H  H7  1  0.17546000  0.45252000  0.72213000  1.0
  H  H8  1  0.19833000  0.83919000  0.16606000  1.0
  H  H9  1  0.69833000  0.66082000  0.33393000  1.0
  H  H10  1  0.80169000  0.16081000  0.83395000  1.0
  H  H11  1  0.30167000  0.33920000  0.66606000  1.0
  H  H12  1  0.08845000  0.18382000  0.40644000  1.0
  H  H13  1  0.58844000  0.31618000  0.09356000  1.0
  H  H14  1  0.91156000  0.81617000  0.59356000  1.0
  H  H15  1  0.41156000  0.68382000  0.90644000  1.0
  H  H16  1  0.12172000  0.22371000  0.31352000  1.0
  H  H17  1  0.62172000  0.27629000  0.18649000  1.0
  H  H18  1  0.87827000  0.77629000  0.68649000  1.0
  H  H19  1  0.37827000  0.72370000  0.81351000  1.0
  H  H20  1  0.50519000  0.84884000  0.29507000  1.0
  H  H21  1  0.00520000  0.65116000  0.20493000  1.0
  H  H22  1  0.49482000  0.15116000  0.70493000  1.0
  H  H23  1  0.99480000  0.34884000  0.79507000  1.0
  H  H24  1  0.52126000  0.80000000  0.19625000  1.0
  H  H25  1  0.02126000  0.69999000  0.30375000  1.0
  H  H26  1  0.47874000  0.20000000  0.80375000  1.0
  H  H27  1  0.97874000  0.30001000  0.69625000  1.0
  H  H28  1  0.70454000  0.99591000  0.04707000  1.0
  H  H29  1  0.20454000  0.50410000  0.45294000  1.0
  H  H30  1  0.29546000  0.00410000  0.95293000  1.0
  H  H31  1  0.79545000  0.49592000  0.54707000  1.0
  H  H32  1  0.57034000  0.88246000  0.06654000  1.0
  H  H33  1  0.07034000  0.61755000  0.43347000  1.0
  H  H34  1  0.42966000  0.11755000  0.93347000  1.0
  H  H35  1  0.92965000  0.38247000  0.56653000  1.0
  H  H36  1  0.74667000  0.00237000  0.59526000  1.0
  H  H37  1  0.24667000  0.49763000  0.90475000  1.0
  H  H38  1  0.25334000  0.99764000  0.40475000  1.0
  H  H39  1  0.75333000  0.50238000  0.09526000  1.0
  H  H40  1  0.48750000  0.34340000  0.51278000  1.0
  H  H41  1  0.98750000  0.15659000  0.98722000  1.0
  H  H42  1  0.51249000  0.65660000  0.48722000  1.0
  H  H43  1  0.01250000  0.84341000  0.01278000  1.0
  C  C44  1  0.75854000  0.00220000  0.46009000  1.0
  C  C45  1  0.25853000  0.49779000  0.03991000  1.0
  C  C46  1  0.24147000  0.99779000  0.53991000  1.0
  C  C47  1  0.74147000  0.50221000  0.96009000  1.0
  C  C48  1  0.70958000  0.05630000  0.54554000  1.0
  C  C49  1  0.20957000  0.44370000  0.95446000  1.0
  C  C50  1  0.29042000  0.94371000  0.45446000  1.0
  C  C51  1  0.79042000  0.55631000  0.04554000  1.0
  C  C52  1  0.61633000  0.18565000  0.56805000  1.0
  C  C53  1  0.11632000  0.31435000  0.93194000  1.0
  C  C54  1  0.38369000  0.81436000  0.43195000  1.0
  C  C55  1  0.88368000  0.68565000  0.06805000  1.0
  C  C56  1  0.56676000  0.24732000  0.49989000  1.0
  C  C57  1  0.06676000  0.25268000  0.00011000  1.0
  C  C58  1  0.43324000  0.75268000  0.50010000  1.0
  C  C59  1  0.93323000  0.74732000  0.99989000  1.0
  C  C60  1  0.62032000  0.18530000  0.41656000  1.0
  C  C61  1  0.12032000  0.31469000  0.08344000  1.0
  C  C62  1  0.37969000  0.81469000  0.58343000  1.0
  C  C63  1  0.87968000  0.68530000  0.91656000  1.0
  C  C64  1  0.86682000  0.86849000  0.43059000  1.0
  C  C65  1  0.36681000  0.63151000  0.06941000  1.0
  C  C66  1  0.13319000  0.13152000  0.56941000  1.0
  C  C67  1  0.63319000  0.36849000  0.93059000  1.0
  C  C68  1  0.57590000  0.25072000  0.34271000  1.0
  C  C69  1  0.07590000  0.24927000  0.15730000  1.0
  C  C70  1  0.42411000  0.74928000  0.65729000  1.0
  C  C71  1  0.92412000  0.75072000  0.84270000  1.0
  N  N72  1  0.71773000  0.06617000  0.39639000  1.0
  N  N73  1  0.21773000  0.43382000  0.10362000  1.0
  N  N74  1  0.28227000  0.93383000  0.60361000  1.0
  N  N75  1  0.78227000  0.56617000  0.89638000  1.0
  O  O76  1  0.19970000  0.93675000  0.19717000  1.0
  O  O77  1  0.69970000  0.56326000  0.30282000  1.0
  O  O78  1  0.80030000  0.06325000  0.80284000  1.0
  O  O79  1  0.30029000  0.43675000  0.69716000  1.0
  O  O80  1  0.07671000  0.15196000  0.34307000  1.0
  O  O81  1  0.57670000  0.34803000  0.15693000  1.0
  O  O82  1  0.92330000  0.84803000  0.65693000  1.0
  O  O83  1  0.42331000  0.65196000  0.84307000  1.0
  O  O84  1  0.55029000  0.88409000  0.24385000  1.0
  O  O85  1  0.05029000  0.61591000  0.25615000  1.0
  O  O86  1  0.44972000  0.11591000  0.75615000  1.0
  O  O87  1  0.94971000  0.38410000  0.74385000  1.0
  O  O88  1  0.64739000  0.96311000  0.09371000  1.0
  O  O89  1  0.14739000  0.53690000  0.40630000  1.0
  O  O90  1  0.35261000  0.03691000  0.90629000  1.0
  O  O91  1  0.85259000  0.46311000  0.59371000  1.0
  O  O92  1  0.91869000  0.84364000  0.35107000  1.0
  O  O93  1  0.41869000  0.65636000  0.14893000  1.0
  O  O94  1  0.08131000  0.15637000  0.64893000  1.0
  O  O95  1  0.58131000  0.34364000  0.85108000  1.0
  O  O96  1  0.90069000  0.78853000  0.47960000  1.0
  O  O97  1  0.40069000  0.71146000  0.02040000  1.0
  O  O98  1  0.09932000  0.21147000  0.52040000  1.0
  O  O99  1  0.59930000  0.28853000  0.97960000  1.0
  O  O100  1  0.65588000  0.19807000  0.27101000  1.0
  O  O101  1  0.15585000  0.30193000  0.22899000  1.0
  O  O102  1  0.34414000  0.80190000  0.72898000  1.0
  O  O103  1  0.84412000  0.69807000  0.77101000  1.0
  O  O104  1  0.46502000  0.35204000  0.35542000  1.0
  O  O105  1  0.96500000  0.14795000  0.14458000  1.0
  O  O106  1  0.53501000  0.64796000  0.64456000  1.0
  O  O107  1  0.03500000  0.85202000  0.85541000  1.0
  O  O108  1  0.57536000  0.24692000  0.64820000  1.0
  O  O109  1  0.07536000  0.25308000  0.85180000  1.0
  O  O110  1  0.42463000  0.75309000  0.35180000  1.0
  O  O111  1  0.92463000  0.74692000  0.14820000  1.0
