# generated using pymatgen
data_Cu2H18C10NO6
_symmetry_space_group_name_H-M   'P 1'
_cell_length_a   7.51231000
_cell_length_b   10.21830000
_cell_length_c   11.07801759
_cell_angle_alpha   62.86756047
_cell_angle_beta   87.55505064
_cell_angle_gamma   68.81060000
_symmetry_Int_Tables_number   1
_chemical_formula_structural   Cu2H18C10NO6
_chemical_formula_sum   'Cu4 H36 C20 N2 O12'
_cell_volume   697.94369218
_cell_formula_units_Z   2
loop_
 _symmetry_equiv_pos_site_id
 _symmetry_equiv_pos_as_xyz
  1  'x, y, z'
loop_
 _atom_site_type_symbol
 _atom_site_label
 _atom_site_symmetry_multiplicity
 _atom_site_fract_x
 _atom_site_fract_y
 _atom_site_fract_z
 _atom_site_occupancy
  Cu  Cu0  1  0.90318000  0.68969000  0.79673000  1.0
  Cu  Cu1  1  0.09683000  0.31030000  0.20328000  1.0
  Cu  Cu2  1  0.75238000  0.46551000  0.97723000  1.0
  Cu  Cu3  1  0.24766000  0.53449000  0.02277000  1.0
  H  H4  1  0.32282000  0.92367000  0.94210000  1.0
  H  H5  1  0.67721000  0.07635000  0.05790000  1.0
  H  H6  1  0.20121000  0.91011000  0.82017000  1.0
  H  H7  1  0.79877000  0.08990000  0.17985000  1.0
  H  H8  1  0.18256000  0.19223000  0.73504000  1.0
  H  H9  1  0.81745000  0.80775000  0.26498000  1.0
  H  H10  1  0.43846000  0.12167000  0.75353000  1.0
  H  H11  1  0.56153000  0.87834000  0.24648000  1.0
  H  H12  1  0.30845000  0.11507000  0.62805000  1.0
  H  H13  1  0.69155000  0.88496000  0.37195000  1.0
  H  H14  1  0.61210000  0.56664000  0.52227000  1.0
  H  H15  1  0.38791000  0.43338000  0.47769000  1.0
  H  H16  1  0.86177000  0.48436000  0.52561000  1.0
  H  H17  1  0.13824000  0.51563000  0.47438000  1.0
  H  H18  1  0.71511000  0.28982000  0.55214000  1.0
  H  H19  1  0.28486000  0.71018000  0.44785000  1.0
  H  H20  1  0.61983000  0.29633000  0.70025000  1.0
  H  H21  1  0.38012000  0.70370000  0.29973000  1.0
  H  H22  1  0.87233000  0.21237000  0.70395000  1.0
  H  H23  1  0.12763000  0.78765000  0.29605000  1.0
  H  H24  1  0.66925000  0.02625000  0.53475000  1.0
  H  H25  1  0.33074000  0.97376000  0.46524000  1.0
  H  H26  1  0.25218000  0.76910000  0.68002000  1.0
  H  H27  1  0.74782000  0.23091000  0.31997000  1.0
  H  H28  1  0.42825000  0.39099000  0.83304000  1.0
  H  H29  1  0.57174000  0.60900000  0.16696000  1.0
  H  H30  1  0.21691000  0.35277000  0.81805000  1.0
  H  H31  1  0.78307000  0.64721000  0.18198000  1.0
  H  H32  1  0.25637000  0.51589000  0.68069000  1.0
  H  H33  1  0.74361000  0.48410000  0.31932000  1.0
  H  H34  1  0.01294000  0.83272000  0.05079000  1.0
  H  H35  1  0.98707000  0.16729000  0.94922000  1.0
  H  H36  1  0.89000000  0.96185000  0.87903000  1.0
  H  H37  1  0.11000000  0.03812000  0.12098000  1.0
  H  H38  1  0.77736000  0.84784000  0.00751000  1.0
  H  H39  1  0.22267000  0.15211000  0.99250000  1.0
  C  C40  1  0.50679000  0.79921000  0.84791000  1.0
  C  C41  1  0.49323000  0.20079000  0.15209000  1.0
  C  C42  1  0.32540000  0.93486000  0.83826000  1.0
  C  C43  1  0.67459000  0.06517000  0.16173000  1.0
  C  C44  1  0.31319000  0.09994000  0.73273000  1.0
  C  C45  1  0.68681000  0.90007000  0.26727000  1.0
  C  C46  1  0.77607000  0.51067000  0.70176000  1.0
  C  C47  1  0.22393000  0.48933000  0.29822000  1.0
  C  C48  1  0.74673000  0.47133000  0.58917000  1.0
  C  C49  1  0.25326000  0.52867000  0.41081000  1.0
  C  C50  1  0.73738000  0.30856000  0.63940000  1.0
  C  C51  1  0.26259000  0.69146000  0.36059000  1.0
  C  C52  1  0.81710000  0.01523000  0.51795000  1.0
  C  C53  1  0.18289000  0.98476000  0.48205000  1.0
  C  C54  1  0.14079000  0.87353000  0.59845000  1.0
  C  C55  1  0.85920000  0.12647000  0.40154000  1.0
  C  C56  1  0.27308000  0.44640000  0.79344000  1.0
  C  C57  1  0.72691000  0.55359000  0.20657000  1.0
  C  C58  1  0.91653000  0.84564000  0.97028000  1.0
  C  C59  1  0.08350000  0.15433000  0.02974000  1.0
  N  N60  1  0.95795000  0.88951000  0.61598000  1.0
  N  N61  1  0.04205000  0.11048000  0.38402000  1.0
  O  O62  1  0.63787000  0.83588000  0.78067000  1.0
  O  O63  1  0.36214000  0.16411000  0.21933000  1.0
  O  O64  1  0.51534000  0.65769000  0.92521000  1.0
  O  O65  1  0.48467000  0.34229000  0.07481000  1.0
  O  O66  1  0.72764000  0.43595000  0.81741000  1.0
  O  O67  1  0.27240000  0.56406000  0.18258000  1.0
  O  O68  1  0.84447000  0.61754000  0.67010000  1.0
  O  O69  1  0.15553000  0.38248000  0.32987000  1.0
  O  O70  1  0.17609000  0.54787000  0.84927000  1.0
  O  O71  1  0.82392000  0.45212000  0.15074000  1.0
  O  O72  1  0.00413000  0.71908000  0.93998000  1.0
  O  O73  1  0.99591000  0.28092000  0.06002000  1.0
