# generated using pymatgen
data_ZnH44C56(NO3)4
_symmetry_space_group_name_H-M   'P 1'
_cell_length_a   11.75660000
_cell_length_b   11.94790000
_cell_length_c   24.80540000
_cell_angle_alpha   90.52430000
_cell_angle_beta   90.00020000
_cell_angle_gamma   119.47100000
_symmetry_Int_Tables_number   1
_chemical_formula_structural   ZnH44C56(NO3)4
_chemical_formula_sum   'Zn2 H88 C112 N8 O24'
_cell_volume   3033.30879920
_cell_formula_units_Z   2
loop_
 _symmetry_equiv_pos_site_id
 _symmetry_equiv_pos_as_xyz
  1  'x, y, z'
loop_
 _atom_site_type_symbol
 _atom_site_label
 _atom_site_symmetry_multiplicity
 _atom_site_fract_x
 _atom_site_fract_y
 _atom_site_fract_z
 _atom_site_occupancy
  Zn  Zn0  1  0.50000000  0.50000000  0.00000000  1.0
  Zn  Zn1  1  0.00000000  0.50000000  0.50000000  1.0
  H  H2  1  0.33908000  0.69243000  0.15591000  1.0
  H  H3  1  0.64666000  0.30758000  0.34409000  1.0
  H  H4  1  0.66092000  0.30757000  0.84409000  1.0
  H  H5  1  0.35334000  0.69242000  0.65591000  1.0
  H  H6  1  0.13845000  0.18799000  0.13598000  1.0
  H  H7  1  0.95046000  0.81201000  0.36401000  1.0
  H  H8  1  0.86155000  0.81201000  0.86401000  1.0
  H  H9  1  0.04955000  0.18799000  0.63599000  1.0
  H  H10  1  0.17449000  0.03002000  0.06832000  1.0
  H  H11  1  0.14447000  0.96999000  0.43168000  1.0
  H  H12  1  0.82550000  0.96998000  0.93168000  1.0
  H  H13  1  0.85553000  0.03002000  0.56832000  1.0
  H  H14  1  0.47504000  0.09984000  0.89583000  1.0
  H  H15  1  0.37519000  0.90016000  0.60417000  1.0
  H  H16  1  0.52496000  0.90016000  0.10417000  1.0
  H  H17  1  0.62481000  0.09984000  0.39583000  1.0
  H  H18  1  0.06624000  0.45371000  0.11698000  1.0
  H  H19  1  0.61253000  0.54629000  0.38302000  1.0
  H  H20  1  0.93376000  0.54629000  0.88302000  1.0
  H  H21  1  0.38747000  0.45371000  0.61698000  1.0
  H  H22  1  0.35434000  0.41714000  0.21093000  1.0
  H  H23  1  0.93720000  0.58286000  0.28907000  1.0
  H  H24  1  0.64566000  0.58286000  0.78907000  1.0
  H  H25  1  0.06280000  0.41714000  0.71093000  1.0
  H  H26  1  0.93500000  0.42203000  0.19930000  1.0
  H  H27  1  0.51298000  0.57797000  0.30070000  1.0
  H  H28  1  0.06500000  0.57797000  0.80070000  1.0
  H  H29  1  0.48702000  0.42203000  0.69930000  1.0
  H  H30  1  0.22683000  0.38894000  0.29331000  1.0
  H  H31  1  0.83788000  0.61105000  0.20668000  1.0
  H  H32  1  0.77317000  0.61105000  0.70669000  1.0
  H  H33  1  0.16212000  0.38895000  0.79332000  1.0
  H  H34  1  0.07043000  0.30579000  0.34679000  1.0
  H  H35  1  0.76464000  0.69421000  0.15321000  1.0
  H  H36  1  0.92957000  0.69420000  0.65321000  1.0
  H  H37  1  0.23536000  0.30579000  0.84679000  1.0
  H  H38  1  0.93848000  0.32496000  0.37047000  1.0
  H  H39  1  0.61352000  0.67505000  0.12952000  1.0
  H  H40  1  0.06152000  0.67504000  0.62953000  1.0
  H  H41  1  0.38648000  0.32495000  0.87047000  1.0
  H  H42  1  0.31488000  0.78488000  0.33569000  1.0
  H  H43  1  0.52999000  0.21512000  0.16431000  1.0
  H  H44  1  0.68512000  0.21511000  0.66431000  1.0
  H  H45  1  0.47001000  0.78488000  0.83569000  1.0
  H  H46  1  0.36196000  0.70001000  0.38251000  1.0
  H  H47  1  0.66194000  0.29999000  0.11749000  1.0
  H  H48  1  0.63804000  0.29998000  0.61749000  1.0
  H  H49  1  0.33806000  0.70001000  0.88251000  1.0
  H  H50  1  0.23878000  0.74071000  0.40100000  1.0
  H  H51  1  0.49807000  0.25929000  0.09900000  1.0
  H  H52  1  0.76121000  0.25928000  0.59900000  1.0
  H  H53  1  0.50193000  0.74071000  0.90100000  1.0
  H  H54  1  0.38908000  0.99253000  0.04849000  1.0
  H  H55  1  0.39655000  0.00746000  0.45151000  1.0
  H  H56  1  0.61092000  0.00747000  0.95151000  1.0
  H  H57  1  0.60345000  0.99253000  0.54850000  1.0
  H  H58  1  0.20582000  0.02869000  0.90473000  1.0
  H  H59  1  0.17714000  0.97132000  0.59527000  1.0
  H  H60  1  0.79418000  0.97132000  0.09527000  1.0
  H  H61  1  0.82286000  0.02868000  0.40473000  1.0
  H  H62  1  0.28883000  0.75952000  0.03309000  1.0
  H  H63  1  0.52931000  0.24047000  0.46691000  1.0
  H  H64  1  0.71117000  0.24048000  0.96691000  1.0
  H  H65  1  0.47069000  0.75952000  0.53309000  1.0
  H  H66  1  0.10457000  0.79261000  0.88819000  1.0
  H  H67  1  0.31196000  0.20739000  0.61181000  1.0
  H  H68  1  0.89543000  0.20739000  0.11182000  1.0
  H  H69  1  0.68804000  0.79261000  0.38819000  1.0
  H  H70  1  0.11419000  0.54367000  0.01986000  1.0
  H  H71  1  0.57053000  0.45632000  0.48013000  1.0
  H  H72  1  0.88581000  0.45633000  0.98014000  1.0
  H  H73  1  0.42948000  0.54367000  0.51987000  1.0
  H  H74  1  0.26194000  0.58624000  0.98461000  1.0
  H  H75  1  0.67570000  0.41375000  0.51539000  1.0
  H  H76  1  0.73806000  0.41376000  0.01539000  1.0
  H  H77  1  0.32431000  0.58625000  0.48461000  1.0
  H  H78  1  0.04591000  0.14904000  0.99997000  1.0
  H  H79  1  0.89687000  0.85096000  0.50003000  1.0
  H  H80  1  0.95409000  0.85096000  0.00003000  1.0
  H  H81  1  0.10313000  0.14904000  0.49997000  1.0
  H  H82  1  0.11966000  0.21035000  0.93557000  1.0
  H  H83  1  0.90930000  0.78964000  0.56443000  1.0
  H  H84  1  0.88034000  0.78965000  0.06443000  1.0
  H  H85  1  0.09070000  0.21036000  0.43557000  1.0
  H  H86  1  0.95306000  0.17066000  0.94714000  1.0
  H  H87  1  0.78239000  0.82933000  0.55285000  1.0
  H  H88  1  0.04694000  0.82934000  0.05286000  1.0
  H  H89  1  0.21760000  0.17066000  0.44715000  1.0
  C  C90  1  0.39394000  0.69436000  0.12041000  1.0
  C  C91  1  0.69958000  0.30565000  0.37959000  1.0
  C  C92  1  0.60607000  0.30564000  0.87958000  1.0
  C  C93  1  0.30042000  0.69436000  0.62041000  1.0
  C  C94  1  0.38047000  0.58191000  0.09218000  1.0
  C  C95  1  0.79856000  0.41809000  0.40781000  1.0
  C  C96  1  0.61953000  0.41809000  0.90782000  1.0
  C  C97  1  0.20144000  0.58191000  0.59219000  1.0
  C  C98  1  0.29928000  0.45454000  0.10892000  1.0
  C  C99  1  0.84475000  0.54546000  0.39108000  1.0
  C  C100  1  0.70072000  0.54546000  0.89108000  1.0
  C  C101  1  0.15526000  0.45454000  0.60892000  1.0
  C  C102  1  0.29061000  0.34410000  0.08430000  1.0
  C  C103  1  0.94651000  0.65590000  0.41570000  1.0
  C  C104  1  0.70939000  0.65590000  0.91570000  1.0
  C  C105  1  0.05349000  0.34410000  0.58430000  1.0
  C  C106  1  0.20454000  0.21404000  0.10198000  1.0
  C  C107  1  0.99049000  0.78596000  0.39802000  1.0
  C  C108  1  0.79546000  0.78596000  0.89802000  1.0
  C  C109  1  0.00951000  0.21404000  0.60198000  1.0
  C  C110  1  0.22247000  0.13409000  0.06755000  1.0
  C  C111  1  0.08837000  0.86592000  0.43245000  1.0
  C  C112  1  0.77753000  0.86591000  0.93245000  1.0
  C  C113  1  0.91163000  0.13409000  0.56755000  1.0
  C  C114  1  0.32070000  0.21482000  0.02896000  1.0
  C  C115  1  0.10587000  0.78518000  0.47104000  1.0
  C  C116  1  0.67930000  0.78518000  0.97104000  1.0
  C  C117  1  0.89412000  0.21482000  0.52896000  1.0
  C  C118  1  0.36726000  0.16947000  0.98646000  1.0
  C  C119  1  0.19779000  0.83054000  0.51354000  1.0
  C  C120  1  0.63274000  0.83054000  0.01354000  1.0
  C  C121  1  0.80220000  0.16947000  0.48646000  1.0
  C  C122  1  0.46658000  0.24785000  0.95021000  1.0
  C  C123  1  0.21873000  0.75215000  0.54979000  1.0
  C  C124  1  0.53342000  0.75215000  0.04979000  1.0
  C  C125  1  0.78127000  0.24785000  0.45021000  1.0
  C  C126  1  0.51162000  0.20051000  0.90575000  1.0
  C  C127  1  0.31111000  0.79949000  0.59425000  1.0
  C  C128  1  0.48838000  0.79950000  0.09425000  1.0
  C  C129  1  0.68889000  0.20051000  0.40575000  1.0
  C  C130  1  0.21903000  0.43556000  0.15810000  1.0
  C  C131  1  0.78348000  0.56444000  0.34190000  1.0
  C  C132  1  0.78096000  0.56444000  0.84190000  1.0
  C  C133  1  0.21653000  0.43556000  0.65810000  1.0
  C  C134  1  0.10120000  0.43819000  0.15535000  1.0
  C  C135  1  0.66301000  0.56181000  0.34465000  1.0
  C  C136  1  0.89880000  0.56181000  0.84465000  1.0
  C  C137  1  0.33699000  0.43819000  0.65535000  1.0
  C  C138  1  0.26136000  0.41637000  0.20815000  1.0
  C  C139  1  0.84499000  0.58363000  0.29185000  1.0
  C  C140  1  0.73864000  0.58363000  0.79185000  1.0
  C  C141  1  0.15501000  0.41637000  0.70815000  1.0
  C  C142  1  0.02684000  0.42042000  0.20136000  1.0
  C  C143  1  0.60642000  0.57958000  0.29864000  1.0
  C  C144  1  0.97316000  0.57958000  0.79865000  1.0
  C  C145  1  0.39358000  0.42042000  0.70136000  1.0
  C  C146  1  0.18860000  0.39992000  0.25488000  1.0
  C  C147  1  0.78867000  0.60007000  0.24512000  1.0
  C  C148  1  0.81141000  0.60008000  0.74512000  1.0
  C  C149  1  0.21133000  0.39992000  0.75488000  1.0
  C  C150  1  0.07028000  0.40101000  0.25116000  1.0
  C  C151  1  0.66928000  0.59899000  0.24883000  1.0
  C  C152  1  0.92971000  0.59899000  0.74884000  1.0
  C  C153  1  0.33072000  0.40101000  0.75117000  1.0
  C  C154  1  0.02772000  0.36999000  0.34626000  1.0
  C  C155  1  0.65772000  0.63001000  0.15374000  1.0
  C  C156  1  0.97229000  0.63001000  0.65374000  1.0
  C  C157  1  0.34228000  0.36999000  0.84626000  1.0
  C  C158  1  0.12327000  0.49375000  0.37497000  1.0
  C  C159  1  0.62952000  0.50625000  0.12503000  1.0
  C  C160  1  0.87673000  0.50625000  0.62504000  1.0
  C  C161  1  0.37048000  0.49375000  0.87497000  1.0
  C  C162  1  0.28151000  0.71330000  0.36766000  1.0
  C  C163  1  0.56820000  0.28670000  0.13235000  1.0
  C  C164  1  0.71849000  0.28669000  0.63234000  1.0
  C  C165  1  0.43180000  0.71330000  0.86765000  1.0
  C  C166  1  0.30508000  0.02783000  0.97788000  1.0
  C  C167  1  0.27726000  0.97218000  0.52212000  1.0
  C  C168  1  0.69492000  0.97217000  0.02212000  1.0
  C  C169  1  0.72274000  0.02782000  0.47789000  1.0
  C  C170  1  0.32597000  0.94937000  0.01340000  1.0
  C  C171  1  0.37659000  0.05062000  0.48660000  1.0
  C  C172  1  0.67403000  0.05063000  0.98660000  1.0
  C  C173  1  0.62341000  0.94937000  0.51341000  1.0
  C  C174  1  0.22428000  0.96940000  0.93269000  1.0
  C  C175  1  0.25489000  0.03061000  0.56731000  1.0
  C  C176  1  0.77572000  0.03061000  0.06731000  1.0
  C  C177  1  0.74511000  0.96939000  0.43269000  1.0
  C  C178  1  0.26987000  0.81693000  0.00447000  1.0
  C  C179  1  0.45294000  0.18307000  0.49552000  1.0
  C  C180  1  0.73013000  0.18308000  0.99553000  1.0
  C  C181  1  0.54706000  0.81692000  0.50448000  1.0
  C  C182  1  0.16773000  0.83805000  0.92303000  1.0
  C  C183  1  0.32969000  0.16196000  0.57697000  1.0
  C  C184  1  0.83226000  0.16195000  0.07698000  1.0
  C  C185  1  0.67031000  0.83805000  0.42303000  1.0
  C  C186  1  0.19138000  0.76149000  0.95885000  1.0
  C  C187  1  0.42989000  0.23851000  0.54115000  1.0
  C  C188  1  0.80862000  0.23851000  0.04115000  1.0
  C  C189  1  0.57011000  0.76149000  0.45885000  1.0
  C  C190  1  0.15670000  0.55192000  0.97951000  1.0
  C  C191  1  0.60478000  0.44807000  0.52049000  1.0
  C  C192  1  0.84330000  0.44808000  0.02049000  1.0
  C  C193  1  0.39522000  0.55192000  0.47951000  1.0
  C  C194  1  0.09676000  0.42096000  0.95223000  1.0
  C  C195  1  0.67581000  0.57904000  0.54777000  1.0
  C  C196  1  0.90324000  0.57905000  0.04777000  1.0
  C  C197  1  0.32419000  0.42096000  0.45223000  1.0
  C  C198  1  0.04979000  0.20745000  0.96566000  1.0
  C  C199  1  0.84233000  0.79255000  0.53434000  1.0
  C  C200  1  0.95021000  0.79255000  0.03434000  1.0
  C  C201  1  0.15767000  0.20745000  0.46566000  1.0
  N  N202  1  0.46492000  0.61970000  0.04911000  1.0
  N  N203  1  0.84522000  0.38030000  0.45089000  1.0
  N  N204  1  0.53508000  0.38030000  0.95089000  1.0
  N  N205  1  0.15478000  0.61970000  0.54911000  1.0
  N  N206  1  0.35997000  0.34170000  0.04010000  1.0
  N  N207  1  0.01827000  0.65830000  0.45990000  1.0
  N  N208  1  0.64004000  0.65830000  0.95990000  1.0
  N  N209  1  0.98173000  0.34170000  0.54010000  1.0
  O  O210  1  0.98882000  0.38387000  0.29389000  1.0
  O  O211  1  0.60494000  0.61612000  0.20611000  1.0
  O  O212  1  0.01118000  0.61611000  0.70611000  1.0
  O  O213  1  0.39506000  0.38388000  0.79389000  1.0
  O  O214  1  0.14347000  0.49712000  0.42364000  1.0
  O  O215  1  0.64635000  0.50288000  0.07636000  1.0
  O  O216  1  0.85652000  0.50287000  0.57636000  1.0
  O  O217  1  0.35365000  0.49712000  0.92364000  1.0
  O  O218  1  0.18276000  0.59482000  0.34237000  1.0
  O  O219  1  0.58794000  0.40518000  0.15763000  1.0
  O  O220  1  0.81724000  0.40518000  0.65763000  1.0
  O  O221  1  0.41206000  0.59482000  0.84237000  1.0
  O  O222  1  0.13343000  0.63365000  0.94542000  1.0
  O  O223  1  0.49978000  0.36634000  0.55457000  1.0
  O  O224  1  0.86657000  0.36635000  0.05458000  1.0
  O  O225  1  0.50022000  0.63366000  0.44543000  1.0
  O  O226  1  0.05828000  0.39698000  0.90561000  1.0
  O  O227  1  0.66130000  0.60301000  0.59439000  1.0
  O  O228  1  0.94171000  0.60302000  0.09440000  1.0
  O  O229  1  0.33870000  0.39698000  0.40561000  1.0
  O  O230  1  0.09419000  0.33480000  0.98746000  1.0
  O  O231  1  0.75940000  0.66520000  0.51253000  1.0
  O  O232  1  0.90581000  0.66520000  0.01254000  1.0
  O  O233  1  0.24061000  0.33480000  0.48746000  1.0
