# generated using pymatgen
data_ZnH18C22(NO)4
_symmetry_space_group_name_H-M   'P 1'
_cell_length_a   10.20850000
_cell_length_b   10.32141841
_cell_length_c   11.41450000
_cell_angle_alpha   82.61206639
_cell_angle_beta   75.43540000
_cell_angle_gamma   60.44315157
_symmetry_Int_Tables_number   1
_chemical_formula_structural   ZnH18C22(NO)4
_chemical_formula_sum   'Zn2 H36 C44 N8 O8'
_cell_volume   1012.55648515
_cell_formula_units_Z   2
loop_
 _symmetry_equiv_pos_site_id
 _symmetry_equiv_pos_as_xyz
  1  'x, y, z'
loop_
 _atom_site_type_symbol
 _atom_site_label
 _atom_site_symmetry_multiplicity
 _atom_site_fract_x
 _atom_site_fract_y
 _atom_site_fract_z
 _atom_site_occupancy
  Zn  Zn0  1  0.47653000  0.12787000  0.19007000  1.0
  Zn  Zn1  1  0.52348000  0.87213000  0.80993000  1.0
  H  H2  1  0.60050000  0.66083000  0.13349000  1.0
  H  H3  1  0.39951000  0.33916000  0.86651000  1.0
  H  H4  1  0.74530000  0.38573000  0.09978000  1.0
  H  H5  1  0.25470000  0.61427000  0.90022000  1.0
  H  H6  1  0.01974000  0.24133000  0.11457000  1.0
  H  H7  1  0.98026000  0.75867000  0.88543000  1.0
  H  H8  1  0.00949000  0.64332000  0.19033000  1.0
  H  H9  1  0.99052000  0.35668000  0.80967000  1.0
  H  H10  1  0.70928000  0.96052000  0.94279000  1.0
  H  H11  1  0.29072000  0.03948000  0.05721000  1.0
  H  H12  1  0.52948000  0.39918000  0.05989000  1.0
  H  H13  1  0.47052000  0.60082000  0.94011000  1.0
  H  H14  1  0.74544000  0.35454000  0.84229000  1.0
  H  H15  1  0.25457000  0.64545000  0.15771000  1.0
  H  H16  1  0.87408000  0.95573000  0.74493000  1.0
  H  H17  1  0.12592000  0.04427000  0.25507000  1.0
  H  H18  1  0.99595000  0.01238000  0.78527000  1.0
  H  H19  1  0.00404000  0.98763000  0.21473000  1.0
  H  H20  1  0.05596000  0.18794000  0.68188000  1.0
  H  H21  1  0.94404000  0.81206000  0.31812000  1.0
  H  H22  1  0.05754000  0.35114000  0.50034000  1.0
  H  H23  1  0.94246000  0.64887000  0.49965000  1.0
  H  H24  1  0.88239000  0.40018000  0.36255000  1.0
  H  H25  1  0.11760000  0.59983000  0.63745000  1.0
  H  H26  1  0.71085000  0.28824000  0.40527000  1.0
  H  H27  1  0.28914000  0.71177000  0.59473000  1.0
  H  H28  1  0.74598000  0.98463000  0.58841000  1.0
  H  H29  1  0.25402000  0.01537000  0.41159000  1.0
  H  H30  1  0.60802000  0.12973000  0.68966000  1.0
  H  H31  1  0.39199000  0.87026000  0.31034000  1.0
  H  H32  1  0.69855000  0.98921000  0.37734000  1.0
  H  H33  1  0.30146000  0.01078000  0.62266000  1.0
  H  H34  1  0.28390000  0.39332000  0.39098000  1.0
  H  H35  1  0.71610000  0.60668000  0.60902000  1.0
  H  H36  1  0.39002000  0.36550000  0.60117000  1.0
  H  H37  1  0.60998000  0.63450000  0.39883000  1.0
  C  C38  1  0.71426000  0.83520000  0.18164000  1.0
  C  C39  1  0.28574000  0.16480000  0.81836000  1.0
  C  C40  1  0.79554000  0.66957000  0.16487000  1.0
  C  C41  1  0.20446000  0.33043000  0.83513000  1.0
  C  C42  1  0.72075000  0.59614000  0.14055000  1.0
  C  C43  1  0.27925000  0.40386000  0.85945000  1.0
  C  C44  1  0.80176000  0.44248000  0.12202000  1.0
  C  C45  1  0.19824000  0.55752000  0.87799000  1.0
  C  C46  1  0.95630000  0.36104000  0.12965000  1.0
  C  C47  1  0.04370000  0.63896000  0.87035000  1.0
  C  C48  1  0.03129000  0.43277000  0.15672000  1.0
  C  C49  1  0.96871000  0.56723000  0.84328000  1.0
  C  C50  1  0.95051000  0.58701000  0.17219000  1.0
  C  C51  1  0.04949000  0.41299000  0.82781000  1.0
  C  C52  1  0.19430000  0.34889000  0.17305000  1.0
  C  C53  1  0.80571000  0.65111000  0.82694000  1.0
  C  C54  1  0.68939000  0.07322000  0.94845000  1.0
  C  C55  1  0.31062000  0.92678000  0.05155000  1.0
  C  C56  1  0.60106000  0.30144000  0.00338000  1.0
  C  C57  1  0.39894000  0.69856000  0.99662000  1.0
  C  C58  1  0.70619000  0.28015000  0.89546000  1.0
  C  C59  1  0.29382000  0.71985000  0.10454000  1.0
  C  C60  1  0.88563000  0.05272000  0.75877000  1.0
  C  C61  1  0.11437000  0.94728000  0.24123000  1.0
  C  C62  1  0.88214000  0.14803000  0.64653000  1.0
  C  C63  1  0.11786000  0.85197000  0.35347000  1.0
  C  C64  1  0.98034000  0.21097000  0.62031000  1.0
  C  C65  1  0.01967000  0.78903000  0.37969000  1.0
  C  C66  1  0.98091000  0.30224000  0.51897000  1.0
  C  C67  1  0.01909000  0.69776000  0.48102000  1.0
  C  C68  1  0.88290000  0.32995000  0.44234000  1.0
  C  C69  1  0.11709000  0.67006000  0.55765000  1.0
  C  C70  1  0.78575000  0.26626000  0.46692000  1.0
  C  C71  1  0.21424000  0.73374000  0.53308000  1.0
  C  C72  1  0.78312000  0.17585000  0.56892000  1.0
  C  C73  1  0.21688000  0.82415000  0.43108000  1.0
  C  C74  1  0.67770000  0.10663000  0.59660000  1.0
  C  C75  1  0.32229000  0.89337000  0.40340000  1.0
  C  C76  1  0.59838000  0.09377000  0.41035000  1.0
  C  C77  1  0.40162000  0.90622000  0.58965000  1.0
  C  C78  1  0.38351000  0.30427000  0.42146000  1.0
  C  C79  1  0.61649000  0.69573000  0.57855000  1.0
  C  C80  1  0.43561000  0.29272000  0.52419000  1.0
  C  C81  1  0.56438000  0.70728000  0.47581000  1.0
  N  N82  1  0.59218000  0.17200000  0.03532000  1.0
  N  N83  1  0.40782000  0.82800000  0.96468000  1.0
  N  N84  1  0.76022000  0.13494000  0.86202000  1.0
  N  N85  1  0.23979000  0.86506000  0.13798000  1.0
  N  N86  1  0.57118000  0.15873000  0.51576000  1.0
  N  N87  1  0.42882000  0.84127000  0.48425000  1.0
  N  N88  1  0.48623000  0.17911000  0.35122000  1.0
  N  N89  1  0.51377000  0.82089000  0.64878000  1.0
  O  O90  1  0.78848000  0.89781000  0.19447000  1.0
  O  O91  1  0.21152000  0.10219000  0.80553000  1.0
  O  O92  1  0.56791000  0.90506000  0.18128000  1.0
  O  O93  1  0.43209000  0.09494000  0.81873000  1.0
  O  O94  1  0.25569000  0.20424000  0.18016000  1.0
  O  O95  1  0.74431000  0.79576000  0.81984000  1.0
  O  O96  1  0.26404000  0.41769000  0.18188000  1.0
  O  O97  1  0.73597000  0.58230000  0.81812000  1.0
