# generated using pymatgen
data_B2H24Pb(C7N4)4
_symmetry_space_group_name_H-M   'P 1'
_cell_length_a   12.96430000
_cell_length_b   15.86080000
_cell_length_c   18.10970000
_cell_angle_alpha   90.00000000
_cell_angle_beta   100.31200000
_cell_angle_gamma   89.99990000
_symmetry_Int_Tables_number   1
_chemical_formula_structural   B2H24Pb(C7N4)4
_chemical_formula_sum   'B8 H96 Pb4 C112 N64'
_cell_volume   3663.64372429
_cell_formula_units_Z   4
loop_
 _symmetry_equiv_pos_site_id
 _symmetry_equiv_pos_as_xyz
  1  'x, y, z'
loop_
 _atom_site_type_symbol
 _atom_site_label
 _atom_site_symmetry_multiplicity
 _atom_site_fract_x
 _atom_site_fract_y
 _atom_site_fract_z
 _atom_site_occupancy
  B  B0  1  0.69312000  0.86777000  0.53771000  1.0
  B  B1  1  0.19312000  0.63223000  0.03771000  1.0
  B  B2  1  0.30688000  0.13224000  0.46229000  1.0
  B  B3  1  0.80688000  0.36777000  0.96229000  1.0
  B  B4  1  0.66854000  0.86140000  0.97906000  1.0
  B  B5  1  0.16854000  0.63860000  0.47906000  1.0
  B  B6  1  0.33145000  0.13860000  0.02094000  1.0
  B  B7  1  0.83146000  0.36140000  0.52094000  1.0
  H  H8  1  0.63465000  0.81012000  0.54817000  1.0
  H  H9  1  0.13465000  0.68988000  0.04816000  1.0
  H  H10  1  0.36535000  0.18988000  0.45184000  1.0
  H  H11  1  0.86535000  0.31012000  0.95184000  1.0
  H  H12  1  0.70542000  0.87201000  0.47298000  1.0
  H  H13  1  0.20542000  0.62799000  0.97298000  1.0
  H  H14  1  0.29458000  0.12799000  0.52702000  1.0
  H  H15  1  0.79458000  0.37201000  0.02702000  1.0
  H  H16  1  0.73163000  0.81051000  0.96324000  1.0
  H  H17  1  0.23163000  0.68949000  0.46324000  1.0
  H  H18  1  0.26836000  0.18949000  0.03676000  1.0
  H  H19  1  0.76837000  0.31051000  0.53676000  1.0
  H  H20  1  0.66314000  0.86131000  0.04508000  1.0
  H  H21  1  0.16314000  0.63869000  0.54508000  1.0
  H  H22  1  0.33685000  0.13869000  0.95492000  1.0
  H  H23  1  0.83686000  0.36131000  0.45492000  1.0
  H  H24  1  0.12085000  0.85401000  0.76093000  1.0
  H  H25  1  0.62085000  0.64599000  0.26093000  1.0
  H  H26  1  0.87915000  0.14599000  0.23907000  1.0
  H  H27  1  0.37915000  0.35401000  0.73907000  1.0
  H  H28  1  0.06576000  0.84219000  0.97950000  1.0
  H  H29  1  0.56577000  0.65781000  0.47950000  1.0
  H  H30  1  0.93424000  0.15780000  0.02050000  1.0
  H  H31  1  0.43424000  0.34219000  0.52050000  1.0
  H  H32  1  0.87058000  0.83860000  0.93010000  1.0
  H  H33  1  0.37058000  0.66141000  0.43011000  1.0
  H  H34  1  0.12942000  0.16140000  0.06990000  1.0
  H  H35  1  0.62942000  0.33859000  0.56990000  1.0
  H  H36  1  0.90111000  0.83473000  0.50712000  1.0
  H  H37  1  0.40111000  0.66527000  0.00712000  1.0
  H  H38  1  0.09889000  0.16527000  0.49288000  1.0
  H  H39  1  0.59889000  0.33473000  0.99288000  1.0
  H  H40  1  0.05513000  0.81578000  0.63269000  1.0
  H  H41  1  0.55513000  0.68422000  0.13269000  1.0
  H  H42  1  0.94487000  0.18422000  0.36731000  1.0
  H  H43  1  0.44487000  0.31578000  0.86731000  1.0
  H  H44  1  0.66277000  0.03274000  0.46865000  1.0
  H  H45  1  0.16277000  0.46726000  0.96865000  1.0
  H  H46  1  0.33723000  0.96726000  0.53135000  1.0
  H  H47  1  0.83723000  0.53274000  0.03135000  1.0
  H  H48  1  0.56107000  0.14763000  0.54539000  1.0
  H  H49  1  0.06107000  0.35237000  0.04539000  1.0
  H  H50  1  0.43893000  0.85237000  0.45461000  1.0
  H  H51  1  0.93893000  0.64763000  0.95461000  1.0
  H  H52  1  0.42996000  0.17073000  0.62782000  1.0
  H  H53  1  0.92996000  0.32927000  0.12782000  1.0
  H  H54  1  0.57004000  0.82927000  0.37218000  1.0
  H  H55  1  0.07004000  0.67073000  0.87218000  1.0
  H  H56  1  0.38527000  0.13728000  0.84716000  1.0
  H  H57  1  0.88527000  0.36272000  0.34716000  1.0
  H  H58  1  0.61473000  0.86272000  0.15284000  1.0
  H  H59  1  0.11473000  0.63728000  0.65284000  1.0
  H  H60  1  0.50180000  0.00731000  0.85829000  1.0
  H  H61  1  0.00181000  0.49269000  0.35829000  1.0
  H  H62  1  0.49819000  0.99269000  0.14171000  1.0
  H  H63  1  0.99819000  0.50731000  0.64171000  1.0
  H  H64  1  0.24324000  0.76123000  0.76859000  1.0
  H  H65  1  0.74324000  0.73877000  0.26859000  1.0
  H  H66  1  0.75676000  0.23877000  0.23141000  1.0
  H  H67  1  0.25676000  0.26123000  0.73141000  1.0
  H  H68  1  0.28031000  0.79348000  0.54793000  1.0
  H  H69  1  0.78031000  0.70653000  0.04793000  1.0
  H  H70  1  0.71969000  0.20653000  0.45207000  1.0
  H  H71  1  0.21969000  0.29347000  0.95207000  1.0
  H  H72  1  0.47218000  0.83073000  0.59247000  1.0
  H  H73  1  0.97218000  0.66927000  0.09247000  1.0
  H  H74  1  0.52782000  0.16927000  0.40753000  1.0
  H  H75  1  0.02782000  0.33073000  0.90753000  1.0
  H  H76  1  0.46335000  0.83500000  0.01717000  1.0
  H  H77  1  0.96335000  0.66500000  0.51716000  1.0
  H  H78  1  0.53665000  0.16500000  0.98283000  1.0
  H  H79  1  0.03665000  0.33500000  0.48284000  1.0
  H  H80  1  0.30533000  0.80368000  0.89650000  1.0
  H  H81  1  0.80533000  0.69632000  0.39650000  1.0
  H  H82  1  0.69467000  0.19632000  0.10350000  1.0
  H  H83  1  0.19467000  0.30368000  0.60350000  1.0
  H  H84  1  0.69007000  0.02406000  0.05468000  1.0
  H  H85  1  0.19007000  0.47594000  0.55468000  1.0
  H  H86  1  0.30992000  0.97594000  0.94532000  1.0
  H  H87  1  0.80993000  0.52406000  0.44532000  1.0
  H  H88  1  0.74875000  0.15417000  0.97116000  1.0
  H  H89  1  0.24875000  0.34583000  0.47116000  1.0
  H  H90  1  0.25125000  0.84583000  0.02884000  1.0
  H  H91  1  0.75125000  0.65417000  0.52884000  1.0
  H  H92  1  0.79134000  0.21549000  0.85892000  1.0
  H  H93  1  0.29135000  0.28451000  0.35892000  1.0
  H  H94  1  0.20866000  0.78451000  0.14108000  1.0
  H  H95  1  0.70866000  0.71549000  0.64108000  1.0
  H  H96  1  0.85273000  0.18050000  0.64408000  1.0
  H  H97  1  0.35273000  0.31950000  0.14408000  1.0
  H  H98  1  0.14727000  0.81950000  0.35592000  1.0
  H  H99  1  0.64727000  0.68050000  0.85592000  1.0
  H  H100  1  0.81714000  0.02313000  0.65390000  1.0
  H  H101  1  0.31714000  0.47687000  0.15390000  1.0
  H  H102  1  0.18286000  0.97687000  0.34610000  1.0
  H  H103  1  0.68286000  0.52313000  0.84610000  1.0
  Pb  Pb104  1  0.67118000  0.88009000  0.75888000  1.0
  Pb  Pb105  1  0.17118000  0.61991000  0.25888000  1.0
  Pb  Pb106  1  0.32881000  0.11991000  0.24112000  1.0
  Pb  Pb107  1  0.82882000  0.38009000  0.74112000  1.0
  C  C108  1  0.95710000  0.84290000  0.77085000  1.0
  C  C109  1  0.45709000  0.65710000  0.27085000  1.0
  C  C110  1  0.04290000  0.15710000  0.22915000  1.0
  C  C111  1  0.54291000  0.34290000  0.72915000  1.0
  C  C112  1  0.06550000  0.84853000  0.79947000  1.0
  C  C113  1  0.56550000  0.65147000  0.29947000  1.0
  C  C114  1  0.93450000  0.15147000  0.20053000  1.0
  C  C115  1  0.43450000  0.34853000  0.70053000  1.0
  C  C116  1  0.03490000  0.84297000  0.91932000  1.0
  C  C117  1  0.53490000  0.65703000  0.41932000  1.0
  C  C118  1  0.96510000  0.15703000  0.08068000  1.0
  C  C119  1  0.46510000  0.34297000  0.58068000  1.0
  C  C120  1  0.92732000  0.84011000  0.89222000  1.0
  C  C121  1  0.42732000  0.65989000  0.39222000  1.0
  C  C122  1  0.07268000  0.15989000  0.10778000  1.0
  C  C123  1  0.57268000  0.34011000  0.60778000  1.0
  C  C124  1  0.89613000  0.83893000  0.56616000  1.0
  C  C125  1  0.39613000  0.66107000  0.06616000  1.0
  C  C126  1  0.10387000  0.16107000  0.43384000  1.0
  C  C127  1  0.60387000  0.33894000  0.93384000  1.0
  C  C128  1  0.97262000  0.83033000  0.63007000  1.0
  C  C129  1  0.47262000  0.66967000  0.13007000  1.0
  C  C130  1  0.02738000  0.16967000  0.36993000  1.0
  C  C131  1  0.52738000  0.33033000  0.86993000  1.0
  C  C132  1  0.91765000  0.84197000  0.69022000  1.0
  C  C133  1  0.41765000  0.65803000  0.19021000  1.0
  C  C134  1  0.08235000  0.15803000  0.30978000  1.0
  C  C135  1  0.58235000  0.34198000  0.80979000  1.0
  C  C136  1  0.63434000  0.02629000  0.52116000  1.0
  C  C137  1  0.13435000  0.47371000  0.02116000  1.0
  C  C138  1  0.36566000  0.97371000  0.47884000  1.0
  C  C139  1  0.86565000  0.52629000  0.97884000  1.0
  C  C140  1  0.58276000  0.08300000  0.56029000  1.0
  C  C141  1  0.08276000  0.41700000  0.06029000  1.0
  C  C142  1  0.41724000  0.91700000  0.43971000  1.0
  C  C143  1  0.91724000  0.58300000  0.93971000  1.0
  C  C144  1  0.56433000  0.03728000  0.62373000  1.0
  C  C145  1  0.06433000  0.46272000  0.12373000  1.0
  C  C146  1  0.43567000  0.96272000  0.37627000  1.0
  C  C147  1  0.93567000  0.53728000  0.87627000  1.0
  C  C148  1  0.51404000  0.06409000  0.68577000  1.0
  C  C149  1  0.01404000  0.43591000  0.18577000  1.0
  C  C150  1  0.48596000  0.93591000  0.31423000  1.0
  C  C151  1  0.98596000  0.56409000  0.81423000  1.0
  C  C152  1  0.44761000  0.13505000  0.68013000  1.0
  C  C153  1  0.94761000  0.36495000  0.18012000  1.0
  C  C154  1  0.55239000  0.86495000  0.31987000  1.0
  C  C155  1  0.05239000  0.63505000  0.81987000  1.0
  C  C156  1  0.42173000  0.11573000  0.80058000  1.0
  C  C157  1  0.92173000  0.38427000  0.30058000  1.0
  C  C158  1  0.57827000  0.88427000  0.19942000  1.0
  C  C159  1  0.07827000  0.61572000  0.69942000  1.0
  C  C160  1  0.48592000  0.04451000  0.80672000  1.0
  C  C161  1  0.98592000  0.45549000  0.30672000  1.0
  C  C162  1  0.51408000  0.95549000  0.19328000  1.0
  C  C163  1  0.01408000  0.54451000  0.69328000  1.0
  C  C164  1  0.39863000  0.80477000  0.75478000  1.0
  C  C165  1  0.89863000  0.69523000  0.25478000  1.0
  C  C166  1  0.60136000  0.19523000  0.24522000  1.0
  C  C167  1  0.10137000  0.30477000  0.74522000  1.0
  C  C168  1  0.29374000  0.78033000  0.72930000  1.0
  C  C169  1  0.79374000  0.71967000  0.22930000  1.0
  C  C170  1  0.70626000  0.21967000  0.27069000  1.0
  C  C171  1  0.20626000  0.28033000  0.77070000  1.0
  C  C172  1  0.31440000  0.79627000  0.60753000  1.0
  C  C173  1  0.81440000  0.70373000  0.10753000  1.0
  C  C174  1  0.68560000  0.20373000  0.39247000  1.0
  C  C175  1  0.18560000  0.29627000  0.89247000  1.0
  C  C176  1  0.41971000  0.81673000  0.63179000  1.0
  C  C177  1  0.91971000  0.68327000  0.13179000  1.0
  C  C178  1  0.58029000  0.18327000  0.36820000  1.0
  C  C179  1  0.08029000  0.31673000  0.86821000  1.0
  C  C180  1  0.46670000  0.82937000  0.95797000  1.0
  C  C181  1  0.96670000  0.67063000  0.45798000  1.0
  C  C182  1  0.53330000  0.17063000  0.04203000  1.0
  C  C183  1  0.03330000  0.32937000  0.54203000  1.0
  C  C184  1  0.38845000  0.81261000  0.89662000  1.0
  C  C185  1  0.88845000  0.68738000  0.39662000  1.0
  C  C186  1  0.61154000  0.18738000  0.10338000  1.0
  C  C187  1  0.11155000  0.31261000  0.60338000  1.0
  C  C188  1  0.44102000  0.81414000  0.83453000  1.0
  C  C189  1  0.94103000  0.68585000  0.33453000  1.0
  C  C190  1  0.55897000  0.18585000  0.16547000  1.0
  C  C191  1  0.05897000  0.31414000  0.66547000  1.0
  C  C192  1  0.70707000  0.02361000  0.99822000  1.0
  C  C193  1  0.20708000  0.47639000  0.49822000  1.0
  C  C194  1  0.29292000  0.97638000  0.00178000  1.0
  C  C195  1  0.79292000  0.52361000  0.50178000  1.0
  C  C196  1  0.73704000  0.08854000  0.95514000  1.0
  C  C197  1  0.23704000  0.41147000  0.45514000  1.0
  C  C198  1  0.26296000  0.91147000  0.04486000  1.0
  C  C199  1  0.76296000  0.58853000  0.54486000  1.0
  C  C200  1  0.74885000  0.04927000  0.88701000  1.0
  C  C201  1  0.24886000  0.45073000  0.38701000  1.0
  C  C202  1  0.25114000  0.95073000  0.11299000  1.0
  C  C203  1  0.75114000  0.54927000  0.61299000  1.0
  C  C204  1  0.77848000  0.08500000  0.81974000  1.0
  C  C205  1  0.27848000  0.41500000  0.31974000  1.0
  C  C206  1  0.22152000  0.91500000  0.18026000  1.0
  C  C207  1  0.72152000  0.58500000  0.68026000  1.0
  C  C208  1  0.79782000  0.17176000  0.81344000  1.0
  C  C209  1  0.29782000  0.32824000  0.31344000  1.0
  C  C210  1  0.20218000  0.82824000  0.18656000  1.0
  C  C211  1  0.70218000  0.67176000  0.68657000  1.0
  C  C212  1  0.83161000  0.15245000  0.69436000  1.0
  C  C213  1  0.33161000  0.34755000  0.19436000  1.0
  C  C214  1  0.16838000  0.84755000  0.30564000  1.0
  C  C215  1  0.66839000  0.65245000  0.80564000  1.0
  C  C216  1  0.81233000  0.06641000  0.70002000  1.0
  C  C217  1  0.31233000  0.43359000  0.20002000  1.0
  C  C218  1  0.18766000  0.93359000  0.29998000  1.0
  C  C219  1  0.68767000  0.56641000  0.79998000  1.0
  N  N220  1  0.88824000  0.83950000  0.81854000  1.0
  N  N221  1  0.38824000  0.66050000  0.31854000  1.0
  N  N222  1  0.11176000  0.16050000  0.18146000  1.0
  N  N223  1  0.61176000  0.33950000  0.68146000  1.0
  N  N224  1  0.10469000  0.84779000  0.87273000  1.0
  N  N225  1  0.60469000  0.65221000  0.37273000  1.0
  N  N226  1  0.89531000  0.15221000  0.12727000  1.0
  N  N227  1  0.39531000  0.34779000  0.62727000  1.0
  N  N228  1  0.81467000  0.85549000  0.66342000  1.0
  N  N229  1  0.31467000  0.64451000  0.16342000  1.0
  N  N230  1  0.18533000  0.14451000  0.33658000  1.0
  N  N231  1  0.68533000  0.35549000  0.83658000  1.0
  N  N232  1  0.80262000  0.85419000  0.58789000  1.0
  N  N233  1  0.30262000  0.64581000  0.08789000  1.0
  N  N234  1  0.19738000  0.14581000  0.41211000  1.0
  N  N235  1  0.69738000  0.35419000  0.91211000  1.0
  N  N236  1  0.60245000  0.95802000  0.62202000  1.0
  N  N237  1  0.10245000  0.54198000  0.12202000  1.0
  N  N238  1  0.39755000  0.04198000  0.37798000  1.0
  N  N239  1  0.89755000  0.45802000  0.87798000  1.0
  N  N240  1  0.64488000  0.95200000  0.55941000  1.0
  N  N241  1  0.14488000  0.54800000  0.05941000  1.0
  N  N242  1  0.35512000  0.04800000  0.44059000  1.0
  N  N243  1  0.85512000  0.45200000  0.94059000  1.0
  N  N244  1  0.53183000  0.01886000  0.75004000  1.0
  N  N245  1  0.03183000  0.48114000  0.25004000  1.0
  N  N246  1  0.46817000  0.98114000  0.24996000  1.0
  N  N247  1  0.96817000  0.51886000  0.74996000  1.0
  N  N248  1  0.40219000  0.16071000  0.73672000  1.0
  N  N249  1  0.90219000  0.33929000  0.23672000  1.0
  N  N250  1  0.59781000  0.83929000  0.26328000  1.0
  N  N251  1  0.09781000  0.66071000  0.76328000  1.0
  N  N252  1  0.46148000  0.82196000  0.70475000  1.0
  N  N253  1  0.96149000  0.67804000  0.20476000  1.0
  N  N254  1  0.53851000  0.17804000  0.29524000  1.0
  N  N255  1  0.03851000  0.32196000  0.79525000  1.0
  N  N256  1  0.25120000  0.77751000  0.65652000  1.0
  N  N257  1  0.75120000  0.72248000  0.15652000  1.0
  N  N258  1  0.74880000  0.22249000  0.34348000  1.0
  N  N259  1  0.24880000  0.27751000  0.84348000  1.0
  N  N260  1  0.54429000  0.83010000  0.85789000  1.0
  N  N261  1  0.04429000  0.66990000  0.35789000  1.0
  N  N262  1  0.45571000  0.16990000  0.14211000  1.0
  N  N263  1  0.95571000  0.33010000  0.64211000  1.0
  N  N264  1  0.55880000  0.83961000  0.93308000  1.0
  N  N265  1  0.05880000  0.66039000  0.43308000  1.0
  N  N266  1  0.44119000  0.16039000  0.06692000  1.0
  N  N267  1  0.94120000  0.33961000  0.56692000  1.0
  N  N268  1  0.72708000  0.96606000  0.88975000  1.0
  N  N269  1  0.22708000  0.53394000  0.38975000  1.0
  N  N270  1  0.27292000  0.03394000  0.11025000  1.0
  N  N271  1  0.77292000  0.46606000  0.61025000  1.0
  N  N272  1  0.70117000  0.95121000  0.95737000  1.0
  N  N273  1  0.20117000  0.54879000  0.45737000  1.0
  N  N274  1  0.29882000  0.04879000  0.04262000  1.0
  N  N275  1  0.79883000  0.45121000  0.54263000  1.0
  N  N276  1  0.78540000  0.03307000  0.76166000  1.0
  N  N277  1  0.28540000  0.46693000  0.26166000  1.0
  N  N278  1  0.21460000  0.96693000  0.23834000  1.0
  N  N279  1  0.71460000  0.53307000  0.73834000  1.0
  N  N280  1  0.82328000  0.20462000  0.75133000  1.0
  N  N281  1  0.32328000  0.29539000  0.25133000  1.0
  N  N282  1  0.17672000  0.79539000  0.24868000  1.0
  N  N283  1  0.67672000  0.70461000  0.74867000  1.0
