# generated using pymatgen
data_CdH12C18(NO2)2
_symmetry_space_group_name_H-M   'P 1'
_cell_length_a   8.61548000
_cell_length_b   13.10730000
_cell_length_c   14.86880000
_cell_angle_alpha   89.99970000
_cell_angle_beta   84.10170000
_cell_angle_gamma   89.99960000
_symmetry_Int_Tables_number   1
_chemical_formula_structural   CdH12C18(NO2)2
_chemical_formula_sum   'Cd4 H48 C72 N8 O16'
_cell_volume   1670.18014844
_cell_formula_units_Z   4
loop_
 _symmetry_equiv_pos_site_id
 _symmetry_equiv_pos_as_xyz
  1  'x, y, z'
loop_
 _atom_site_type_symbol
 _atom_site_label
 _atom_site_symmetry_multiplicity
 _atom_site_fract_x
 _atom_site_fract_y
 _atom_site_fract_z
 _atom_site_occupancy
  Cd  Cd0  1  0.27209000  0.17723000  0.21208000  1.0
  Cd  Cd1  1  0.72791000  0.67723000  0.28792000  1.0
  Cd  Cd2  1  0.72791000  0.82277000  0.78792000  1.0
  Cd  Cd3  1  0.27209000  0.32277000  0.71208000  1.0
  H  H4  1  0.44587000  0.20678000  0.90261000  1.0
  H  H5  1  0.55413000  0.70678000  0.59739000  1.0
  H  H6  1  0.55413000  0.79322000  0.09739000  1.0
  H  H7  1  0.44587000  0.29322000  0.40261000  1.0
  H  H8  1  0.64184000  0.25478000  0.77426000  1.0
  H  H9  1  0.35816000  0.75478000  0.72574000  1.0
  H  H10  1  0.35816000  0.74522000  0.22574000  1.0
  H  H11  1  0.64184000  0.24522000  0.27426000  1.0
  H  H12  1  0.92536000  0.23071000  0.79008000  1.0
  H  H13  1  0.07464000  0.73071000  0.70992000  1.0
  H  H14  1  0.07464000  0.76929000  0.20992000  1.0
  H  H15  1  0.92536000  0.26929000  0.29008000  1.0
  H  H16  1  0.00919000  0.16229000  0.93271000  1.0
  H  H17  1  0.99081000  0.66229000  0.56729000  1.0
  H  H18  1  0.99081000  0.83770000  0.06729000  1.0
  H  H19  1  0.00919000  0.33771000  0.43270000  1.0
  H  H20  1  0.01301000  0.22419000  0.08743000  1.0
  H  H21  1  0.98699000  0.72419000  0.41257000  1.0
  H  H22  1  0.98699000  0.77581000  0.91257000  1.0
  H  H23  1  0.01301000  0.27581000  0.58743000  1.0
  H  H24  1  0.02391000  0.00598000  0.28867000  1.0
  H  H25  1  0.97609000  0.50599000  0.21133000  1.0
  H  H26  1  0.97609000  0.99402000  0.71133000  1.0
  H  H27  1  0.02390000  0.49401000  0.78867000  1.0
  H  H28  1  0.68966000  0.97160000  0.09464000  1.0
  H  H29  1  0.31035000  0.47160000  0.40536000  1.0
  H  H30  1  0.31034000  0.02840000  0.90536000  1.0
  H  H31  1  0.68966000  0.52840000  0.59464000  1.0
  H  H32  1  0.41510000  0.95947000  0.25299000  1.0
  H  H33  1  0.58489000  0.45947000  0.24702000  1.0
  H  H34  1  0.58489000  0.04054000  0.74702000  1.0
  H  H35  1  0.41511000  0.54053000  0.75298000  1.0
  H  H36  1  0.42636000  0.83449000  0.37850000  1.0
  H  H37  1  0.57365000  0.33449000  0.12151000  1.0
  H  H38  1  0.57364000  0.16551000  0.62151000  1.0
  H  H39  1  0.42636000  0.66551000  0.87849000  1.0
  H  H40  1  0.31119000  0.88397000  0.53507000  1.0
  H  H41  1  0.68881000  0.38397000  0.96494000  1.0
  H  H42  1  0.68881000  0.11604000  0.46494000  1.0
  H  H43  1  0.31119000  0.61603000  0.03506000  1.0
  H  H44  1  0.18974000  0.05867000  0.55814000  1.0
  H  H45  1  0.81027000  0.55867000  0.94186000  1.0
  H  H46  1  0.81026000  0.94134000  0.44186000  1.0
  H  H47  1  0.18974000  0.44133000  0.05814000  1.0
  H  H48  1  0.18380000  0.17292000  0.42350000  1.0
  H  H49  1  0.81619000  0.67291000  0.07650000  1.0
  H  H50  1  0.81619000  0.82709000  0.57650000  1.0
  H  H51  1  0.18381000  0.32709000  0.92350000  1.0
  C  C52  1  0.49031000  0.15195000  0.06761000  1.0
  C  C53  1  0.50969000  0.65195000  0.43239000  1.0
  C  C54  1  0.50969000  0.84804000  0.93239000  1.0
  C  C55  1  0.49031000  0.34804000  0.56761000  1.0
  C  C56  1  0.61600000  0.16152000  0.99039000  1.0
  C  C57  1  0.38400000  0.66153000  0.50961000  1.0
  C  C58  1  0.38400000  0.83847000  0.00961000  1.0
  C  C59  1  0.61600000  0.33847000  0.49039000  1.0
  C  C60  1  0.57000000  0.19791000  0.90848000  1.0
  C  C61  1  0.43000000  0.69791000  0.59152000  1.0
  C  C62  1  0.43000000  0.80209000  0.09152000  1.0
  C  C63  1  0.57000000  0.30209000  0.40848000  1.0
  C  C64  1  0.67977000  0.22395000  0.83659000  1.0
  C  C65  1  0.32022000  0.72395000  0.66341000  1.0
  C  C66  1  0.32023000  0.77605000  0.16341000  1.0
  C  C67  1  0.67977000  0.27605000  0.33658000  1.0
  C  C68  1  0.83829000  0.21173000  0.84594000  1.0
  C  C69  1  0.16171000  0.71173000  0.65406000  1.0
  C  C70  1  0.16171000  0.78827000  0.15406000  1.0
  C  C71  1  0.83829000  0.28827000  0.34594000  1.0
  C  C72  1  0.88538000  0.17388000  0.92654000  1.0
  C  C73  1  0.11462000  0.67388000  0.57345000  1.0
  C  C74  1  0.11462000  0.82612000  0.07346000  1.0
  C  C75  1  0.88537000  0.32612000  0.42654000  1.0
  C  C76  1  0.77638000  0.14827000  0.99978000  1.0
  C  C77  1  0.22362000  0.64828000  0.50022000  1.0
  C  C78  1  0.22362000  0.85172000  0.00022000  1.0
  C  C79  1  0.77638000  0.35172000  0.49978000  1.0
  C  C80  1  0.83614000  0.10655000  0.08202000  1.0
  C  C81  1  0.16386000  0.60656000  0.41797000  1.0
  C  C82  1  0.16386000  0.89344000  0.91798000  1.0
  C  C83  1  0.83614000  0.39344000  0.58202000  1.0
  C  C84  1  0.96197000  0.15427000  0.11719000  1.0
  C  C85  1  0.03803000  0.65427000  0.38281000  1.0
  C  C86  1  0.03803000  0.84573000  0.88281000  1.0
  C  C87  1  0.96197000  0.34573000  0.61719000  1.0
  C  C88  1  0.96881000  0.03364000  0.23055000  1.0
  C  C89  1  0.03120000  0.53364000  0.26945000  1.0
  C  C90  1  0.03119000  0.96636000  0.76945000  1.0
  C  C91  1  0.96880000  0.46635000  0.73055000  1.0
  C  C92  1  0.84598000  0.97924000  0.19905000  1.0
  C  C93  1  0.15403000  0.47924000  0.30095000  1.0
  C  C94  1  0.15403000  0.02076000  0.80095000  1.0
  C  C95  1  0.84597000  0.52076000  0.69904000  1.0
  C  C96  1  0.77999000  0.01573000  0.12333000  1.0
  C  C97  1  0.22002000  0.51574000  0.37667000  1.0
  C  C98  1  0.22002000  0.98427000  0.87667000  1.0
  C  C99  1  0.77998000  0.48426000  0.62333000  1.0
  C  C100  1  0.80145000  0.87820000  0.24129000  1.0
  C  C101  1  0.19855000  0.37820000  0.25871000  1.0
  C  C102  1  0.19855000  0.12180000  0.75871000  1.0
  C  C103  1  0.80145000  0.62180000  0.74129000  1.0
  C  C104  1  0.36587000  0.97796000  0.32160000  1.0
  C  C105  1  0.63413000  0.47795000  0.17841000  1.0
  C  C106  1  0.63413000  0.02205000  0.67841000  1.0
  C  C107  1  0.36587000  0.52204000  0.82159000  1.0
  C  C108  1  0.37285000  0.90895000  0.39214000  1.0
  C  C109  1  0.62715000  0.40894000  0.10786000  1.0
  C  C110  1  0.62714000  0.09106000  0.60786000  1.0
  C  C111  1  0.37285000  0.59106000  0.89214000  1.0
  C  C112  1  0.30760000  0.93666000  0.47850000  1.0
  C  C113  1  0.69241000  0.43666000  0.02150000  1.0
  C  C114  1  0.69240000  0.06334000  0.52150000  1.0
  C  C115  1  0.30760000  0.56334000  0.97850000  1.0
  C  C116  1  0.23867000  0.03267000  0.49150000  1.0
  C  C117  1  0.76133000  0.53267000  0.00850000  1.0
  C  C118  1  0.76133000  0.96734000  0.50850000  1.0
  C  C119  1  0.23867000  0.46734000  0.99150000  1.0
  C  C120  1  0.23573000  0.09698000  0.41718000  1.0
  C  C121  1  0.76426000  0.59698000  0.08282000  1.0
  C  C122  1  0.76426000  0.90303000  0.58282000  1.0
  C  C123  1  0.23574000  0.40302000  0.91718000  1.0
  N  N124  1  0.29763000  0.07007000  0.33361000  1.0
  N  N125  1  0.70237000  0.57007000  0.16639000  1.0
  N  N126  1  0.70237000  0.92993000  0.66639000  1.0
  N  N127  1  0.29763000  0.42993000  0.83361000  1.0
  N  N128  1  0.02740000  0.11808000  0.18912000  1.0
  N  N129  1  0.97261000  0.61808000  0.31088000  1.0
  N  N130  1  0.97260000  0.88192000  0.81088000  1.0
  N  N131  1  0.02740000  0.38191000  0.68912000  1.0
  O  O132  1  0.52703000  0.17043000  0.14797000  1.0
  O  O133  1  0.47297000  0.67043000  0.35203000  1.0
  O  O134  1  0.47297000  0.82957000  0.85204000  1.0
  O  O135  1  0.52703000  0.32957000  0.64796000  1.0
  O  O136  1  0.35082000  0.13432000  0.05201000  1.0
  O  O137  1  0.64918000  0.63432000  0.44799000  1.0
  O  O138  1  0.64918000  0.86568000  0.94799000  1.0
  O  O139  1  0.35082000  0.36568000  0.55201000  1.0
  O  O140  1  0.72914000  0.81605000  0.19368000  1.0
  O  O141  1  0.27087000  0.31605000  0.30633000  1.0
  O  O142  1  0.27086000  0.18395000  0.80633000  1.0
  O  O143  1  0.72914000  0.68395000  0.69367000  1.0
  O  O144  1  0.84192000  0.85612000  0.31847000  1.0
  O  O145  1  0.15808000  0.35612000  0.18153000  1.0
  O  O146  1  0.15808000  0.14388000  0.68153000  1.0
  O  O147  1  0.84192000  0.64387000  0.81847000  1.0
