# generated using pymatgen
data_CdCoH14C8(NO5)2
_symmetry_space_group_name_H-M   'P 1'
_cell_length_a   7.71746000
_cell_length_b   8.23799000
_cell_length_c   11.00150000
_cell_angle_alpha   90.00040000
_cell_angle_beta   90.00170000
_cell_angle_gamma   68.43800000
_symmetry_Int_Tables_number   1
_chemical_formula_structural   CdCoH14C8(NO5)2
_chemical_formula_sum   'Cd2 Co2 H28 C16 N4 O20'
_cell_volume   650.48912424
_cell_formula_units_Z   2
loop_
 _symmetry_equiv_pos_site_id
 _symmetry_equiv_pos_as_xyz
  1  'x, y, z'
loop_
 _atom_site_type_symbol
 _atom_site_label
 _atom_site_symmetry_multiplicity
 _atom_site_fract_x
 _atom_site_fract_y
 _atom_site_fract_z
 _atom_site_occupancy
  Cd  Cd0  1  0.50000000  0.50000000  0.50000000  1.0
  Cd  Cd1  1  0.00000000  0.50000000  0.00000000  1.0
  Co  Co2  1  0.00000000  0.50000000  0.50000000  1.0
  Co  Co3  1  0.50000000  0.50000000  0.00000000  1.0
  H  H4  1  0.37232000  0.77672000  0.64224000  1.0
  H  H5  1  0.87233000  0.77671000  0.85775000  1.0
  H  H6  1  0.62768000  0.22328000  0.35776000  1.0
  H  H7  1  0.12768000  0.22330000  0.14225000  1.0
  H  H8  1  0.25134000  0.66575000  0.69019000  1.0
  H  H9  1  0.75134000  0.66575000  0.80979000  1.0
  H  H10  1  0.74865000  0.33426000  0.30981000  1.0
  H  H11  1  0.24867000  0.33426000  0.19021000  1.0
  H  H12  1  0.07969000  0.78416000  0.49042000  1.0
  H  H13  1  0.57972000  0.78416000  0.00957000  1.0
  H  H14  1  0.92031000  0.21584000  0.50958000  1.0
  H  H15  1  0.42028000  0.21584000  0.99043000  1.0
  H  H16  1  0.74789000  0.00575000  0.54582000  1.0
  H  H17  1  0.24790000  0.00576000  0.95417000  1.0
  H  H18  1  0.25211000  0.99425000  0.45418000  1.0
  H  H19  1  0.75210000  0.99424000  0.04583000  1.0
  H  H20  1  0.89364000  0.85785000  0.65294000  1.0
  H  H21  1  0.39364000  0.85784000  0.84705000  1.0
  H  H22  1  0.10636000  0.14214000  0.34706000  1.0
  H  H23  1  0.60637000  0.14216000  0.15295000  1.0
  H  H24  1  0.96583000  0.89597000  0.30472000  1.0
  H  H25  1  0.46584000  0.89600000  0.19527000  1.0
  H  H26  1  0.03417000  0.10403000  0.69528000  1.0
  H  H27  1  0.53417000  0.10399000  0.80473000  1.0
  H  H28  1  0.74394000  0.90105000  0.34723000  1.0
  H  H29  1  0.24395000  0.90103000  0.15276000  1.0
  H  H30  1  0.25606000  0.09896000  0.65276000  1.0
  H  H31  1  0.75606000  0.09897000  0.84724000  1.0
  C  C32  1  0.67297000  0.78540000  0.58440000  1.0
  C  C33  1  0.17295000  0.78539000  0.91561000  1.0
  C  C34  1  0.32702000  0.21460000  0.41560000  1.0
  C  C35  1  0.82705000  0.21461000  0.08439000  1.0
  C  C36  1  0.81959000  0.86618000  0.56635000  1.0
  C  C37  1  0.31958000  0.86618000  0.93364000  1.0
  C  C38  1  0.18041000  0.13382000  0.43365000  1.0
  C  C39  1  0.68043000  0.13382000  0.06636000  1.0
  C  C40  1  0.89303000  0.81870000  0.34775000  1.0
  C  C41  1  0.39306000  0.81869000  0.15226000  1.0
  C  C42  1  0.10697000  0.18130000  0.65225000  1.0
  C  C43  1  0.60695000  0.18130000  0.84774000  1.0
  C  C44  1  0.91430000  0.66321000  0.26604000  1.0
  C  C45  1  0.41439000  0.66318000  0.23398000  1.0
  C  C46  1  0.08570000  0.33679000  0.73396000  1.0
  C  C47  1  0.58561000  0.33681000  0.76602000  1.0
  N  N48  1  0.95566000  0.76989000  0.47361000  1.0
  N  N49  1  0.45568000  0.76988000  0.02638000  1.0
  N  N50  1  0.04434000  0.23011000  0.52639000  1.0
  N  N51  1  0.54432000  0.23012000  0.97362000  1.0
  O  O52  1  0.71241000  0.63148000  0.53878000  1.0
  O  O53  1  0.21242000  0.63149000  0.96128000  1.0
  O  O54  1  0.28758000  0.36853000  0.46122000  1.0
  O  O55  1  0.78759000  0.36851000  0.03872000  1.0
  O  O56  1  0.52677000  0.86762000  0.64286000  1.0
  O  O57  1  0.02675000  0.86763000  0.85713000  1.0
  O  O58  1  0.47323000  0.13238000  0.35714000  1.0
  O  O59  1  0.97325000  0.13237000  0.14288000  1.0
  O  O60  1  0.95431000  0.51195000  0.31310000  1.0
  O  O61  1  0.45444000  0.51193000  0.18689000  1.0
  O  O62  1  0.04568000  0.48805000  0.68690000  1.0
  O  O63  1  0.54555000  0.48806000  0.81310000  1.0
  O  O64  1  0.88738000  0.69728000  0.15360000  1.0
  O  O65  1  0.38744000  0.69729000  0.34642000  1.0
  O  O66  1  0.11262000  0.30272000  0.84640000  1.0
  O  O67  1  0.61255000  0.30271000  0.65358000  1.0
  O  O68  1  0.28203000  0.71873000  0.61806000  1.0
  O  O69  1  0.78203000  0.71871000  0.88192000  1.0
  O  O70  1  0.71797000  0.28128000  0.38194000  1.0
  O  O71  1  0.21797000  0.28129000  0.11808000  1.0
