# generated using pymatgen
data_CdH10C17SN3ClO4
_symmetry_space_group_name_H-M   'P 1'
_cell_length_a   7.27592000
_cell_length_b   10.71630000
_cell_length_c   21.72390000
_cell_angle_alpha   89.99970000
_cell_angle_beta   90.71720000
_cell_angle_gamma   89.99960000
_symmetry_Int_Tables_number   1
_chemical_formula_structural   CdH10C17SN3ClO4
_chemical_formula_sum   'Cd4 H40 C68 S4 N12 Cl4 O16'
_cell_volume   1693.70023612
_cell_formula_units_Z   4
loop_
 _symmetry_equiv_pos_site_id
 _symmetry_equiv_pos_as_xyz
  1  'x, y, z'
loop_
 _atom_site_type_symbol
 _atom_site_label
 _atom_site_symmetry_multiplicity
 _atom_site_fract_x
 _atom_site_fract_y
 _atom_site_fract_z
 _atom_site_occupancy
  Cd  Cd0  1  0.97856000  0.34668000  0.69337000  1.0
  Cd  Cd1  1  0.52143000  0.84669000  0.30663000  1.0
  Cd  Cd2  1  0.02143000  0.65332000  0.30663000  1.0
  Cd  Cd3  1  0.47856000  0.15331000  0.69337000  1.0
  H  H4  1  0.95993000  0.26964000  0.91623000  1.0
  H  H5  1  0.54010000  0.76962000  0.08377000  1.0
  H  H6  1  0.04007000  0.73037000  0.08377000  1.0
  H  H7  1  0.45992000  0.23036000  0.91623000  1.0
  H  H8  1  0.65872000  0.94649000  0.98723000  1.0
  H  H9  1  0.84133000  0.44647000  0.01278000  1.0
  H  H10  1  0.34131000  0.05351000  0.01277000  1.0
  H  H11  1  0.15871000  0.55352000  0.98723000  1.0
  H  H12  1  0.77638000  0.49251000  0.80888000  1.0
  H  H13  1  0.72363000  0.99252000  0.19112000  1.0
  H  H14  1  0.22364000  0.50749000  0.19112000  1.0
  H  H15  1  0.27637000  0.00749000  0.80888000  1.0
  H  H16  1  0.71136000  0.70932000  0.84521000  1.0
  H  H17  1  0.78865000  0.20932000  0.15479000  1.0
  H  H18  1  0.28865000  0.29069000  0.15479000  1.0
  H  H19  1  0.21135000  0.79068000  0.84521000  1.0
  H  H20  1  0.80406000  0.89130000  0.77749000  1.0
  H  H21  1  0.69593000  0.39130000  0.22251000  1.0
  H  H22  1  0.19593000  0.10871000  0.22251000  1.0
  H  H23  1  0.30406000  0.60870000  0.77749000  1.0
  H  H24  1  0.95244000  0.96666000  0.68337000  1.0
  H  H25  1  0.54754000  0.46666000  0.31664000  1.0
  H  H26  1  0.04754000  0.03335000  0.31663000  1.0
  H  H27  1  0.45245000  0.53334000  0.68337000  1.0
  H  H28  1  0.09902000  0.92082000  0.58410000  1.0
  H  H29  1  0.40096000  0.42082000  0.41590000  1.0
  H  H30  1  0.90097000  0.07917000  0.41590000  1.0
  H  H31  1  0.59902000  0.57917000  0.58410000  1.0
  H  H32  1  0.20298000  0.76189000  0.50574000  1.0
  H  H33  1  0.29700000  0.26189000  0.49425000  1.0
  H  H34  1  0.79701000  0.23812000  0.49425000  1.0
  H  H35  1  0.70297000  0.73811000  0.50574000  1.0
  H  H36  1  0.26672000  0.54051000  0.48040000  1.0
  H  H37  1  0.23327000  0.04052000  0.51960000  1.0
  H  H38  1  0.73328000  0.45949000  0.51959000  1.0
  H  H39  1  0.76670000  0.95948000  0.48040000  1.0
  H  H40  1  0.18354000  0.37342000  0.55893000  1.0
  H  H41  1  0.31648000  0.87343000  0.44107000  1.0
  H  H42  1  0.81648000  0.62658000  0.44107000  1.0
  H  H43  1  0.68350000  0.12657000  0.55892000  1.0
  C  C44  1  0.82405000  0.17313000  0.79699000  1.0
  C  C45  1  0.67594000  0.67313000  0.20301000  1.0
  C  C46  1  0.17595000  0.82687000  0.20301000  1.0
  C  C47  1  0.32404000  0.32686000  0.79699000  1.0
  C  C48  1  0.80298000  0.13405000  0.86247000  1.0
  C  C49  1  0.69703000  0.63403000  0.13754000  1.0
  C  C50  1  0.19702000  0.86596000  0.13753000  1.0
  C  C51  1  0.30297000  0.36595000  0.86247000  1.0
  C  C52  1  0.87431000  0.18666000  0.91540000  1.0
  C  C53  1  0.62572000  0.68664000  0.08460000  1.0
  C  C54  1  0.12569000  0.81335000  0.08459000  1.0
  C  C55  1  0.37431000  0.31334000  0.91540000  1.0
  C  C56  1  0.82317000  0.11684000  0.96804000  1.0
  C  C57  1  0.67688000  0.61683000  0.03196000  1.0
  C  C58  1  0.17684000  0.88317000  0.03196000  1.0
  C  C59  1  0.32317000  0.38317000  0.96804000  1.0
  C  C60  1  0.71388000  0.01394000  0.95511000  1.0
  C  C61  1  0.78616000  0.51392000  0.04490000  1.0
  C  C62  1  0.28613000  0.98607000  0.04489000  1.0
  C  C63  1  0.21389000  0.48607000  0.95511000  1.0
  C  C64  1  0.81467000  0.57335000  0.78126000  1.0
  C  C65  1  0.68533000  0.07335000  0.21874000  1.0
  C  C66  1  0.18534000  0.42666000  0.21874000  1.0
  C  C67  1  0.31467000  0.92665000  0.78126000  1.0
  C  C68  1  0.77958000  0.69564000  0.80147000  1.0
  C  C69  1  0.72042000  0.19565000  0.19853000  1.0
  C  C70  1  0.22043000  0.30436000  0.19853000  1.0
  C  C71  1  0.27957000  0.80436000  0.80147000  1.0
  C  C72  1  0.83032000  0.79455000  0.76476000  1.0
  C  C73  1  0.66968000  0.29456000  0.23524000  1.0
  C  C74  1  0.16968000  0.20545000  0.23524000  1.0
  C  C75  1  0.33032000  0.70545000  0.76476000  1.0
  C  C76  1  0.91657000  0.77147000  0.70811000  1.0
  C  C77  1  0.58341000  0.27147000  0.29189000  1.0
  C  C78  1  0.08341000  0.22853000  0.29189000  1.0
  C  C79  1  0.41658000  0.72853000  0.70811000  1.0
  C  C80  1  0.97417000  0.87053000  0.66863000  1.0
  C  C81  1  0.52580000  0.37053000  0.33137000  1.0
  C  C82  1  0.02582000  0.12948000  0.33137000  1.0
  C  C83  1  0.47418000  0.62948000  0.66863000  1.0
  C  C84  1  0.05495000  0.84475000  0.61373000  1.0
  C  C85  1  0.44501000  0.34475000  0.38627000  1.0
  C  C86  1  0.94502000  0.15525000  0.38627000  1.0
  C  C87  1  0.55495000  0.65525000  0.61373000  1.0
  C  C88  1  0.08524000  0.71894000  0.59445000  1.0
  C  C89  1  0.41474000  0.21894000  0.40555000  1.0
  C  C90  1  0.91475000  0.28106000  0.40555000  1.0
  C  C91  1  0.58523000  0.78106000  0.59445000  1.0
  C  C92  1  0.16730000  0.68810000  0.53795000  1.0
  C  C93  1  0.33268000  0.18810000  0.46205000  1.0
  C  C94  1  0.83268000  0.31191000  0.46205000  1.0
  C  C95  1  0.66730000  0.81189000  0.53795000  1.0
  C  C96  1  0.20338000  0.56490000  0.52394000  1.0
  C  C97  1  0.29661000  0.06490000  0.47606000  1.0
  C  C98  1  0.79662000  0.43511000  0.47606000  1.0
  C  C99  1  0.70337000  0.93510000  0.52394000  1.0
  C  C100  1  0.15599000  0.47224000  0.56664000  1.0
  C  C101  1  0.34400000  0.97225000  0.43336000  1.0
  C  C102  1  0.84400000  0.52776000  0.43336000  1.0
  C  C103  1  0.65597000  0.02775000  0.56664000  1.0
  C  C104  1  0.03635000  0.61839000  0.63384000  1.0
  C  C105  1  0.46365000  0.11839000  0.36616000  1.0
  C  C106  1  0.96365000  0.38161000  0.36615000  1.0
  C  C107  1  0.53634000  0.88160000  0.63384000  1.0
  C  C108  1  0.94764000  0.64513000  0.69152000  1.0
  C  C109  1  0.55237000  0.14513000  0.30848000  1.0
  C  C110  1  0.05236000  0.35487000  0.30848000  1.0
  C  C111  1  0.44763000  0.85487000  0.69152000  1.0
  S  S112  1  0.67336000  0.00239000  0.87856000  1.0
  S  S113  1  0.82667000  0.50238000  0.12145000  1.0
  S  S114  1  0.32665000  0.99761000  0.12144000  1.0
  S  S115  1  0.17335000  0.49761000  0.87856000  1.0
  N  N116  1  0.07322000  0.49824000  0.61924000  1.0
  N  N117  1  0.42678000  0.99824000  0.38076000  1.0
  N  N118  1  0.92678000  0.50176000  0.38076000  1.0
  N  N119  1  0.57320000  0.00175000  0.61924000  1.0
  N  N120  1  0.89714000  0.54917000  0.72822000  1.0
  N  N121  1  0.60285000  0.04918000  0.27178000  1.0
  N  N122  1  0.10286000  0.45083000  0.27178000  1.0
  N  N123  1  0.39715000  0.95083000  0.72822000  1.0
  N  N124  1  0.88013000  0.14618000  0.02999000  1.0
  N  N125  1  0.61992000  0.64616000  0.97002000  1.0
  N  N126  1  0.11989000  0.85382000  0.97001000  1.0
  N  N127  1  0.38013000  0.35382000  0.02999000  1.0
  Cl  Cl128  1  0.15389000  0.17604000  0.63428000  1.0
  Cl  Cl129  1  0.34610000  0.67604000  0.36572000  1.0
  Cl  Cl130  1  0.84611000  0.82397000  0.36572000  1.0
  Cl  Cl131  1  0.65388000  0.32395000  0.63428000  1.0
  O  O132  1  0.76209000  0.10018000  0.75578000  1.0
  O  O133  1  0.73789000  0.60018000  0.24422000  1.0
  O  O134  1  0.23791000  0.89982000  0.24421000  1.0
  O  O135  1  0.26208000  0.39981000  0.75579000  1.0
  O  O136  1  0.90549000  0.27716000  0.78873000  1.0
  O  O137  1  0.59451000  0.77715000  0.21127000  1.0
  O  O138  1  0.09451000  0.72285000  0.21127000  1.0
  O  O139  1  0.40547000  0.22283000  0.78873000  1.0
  O  O140  1  0.83868000  0.07190000  0.07165000  1.0
  O  O141  1  0.66136000  0.57187000  0.92835000  1.0
  O  O142  1  0.16133000  0.92811000  0.92835000  1.0
  O  O143  1  0.33869000  0.42811000  0.07165000  1.0
  O  O144  1  0.96966000  0.24422000  0.03889000  1.0
  O  O145  1  0.53041000  0.74420000  0.96111000  1.0
  O  O146  1  0.03037000  0.75579000  0.96110000  1.0
  O  O147  1  0.46965000  0.25578000  0.03890000  1.0
