# generated using pymatgen
data_GdH24C26Cl3O11
_symmetry_space_group_name_H-M   'P 1'
_cell_length_a   8.92297000
_cell_length_b   9.94645000
_cell_length_c   17.76130000
_cell_angle_alpha   76.64900000
_cell_angle_beta   76.25170000
_cell_angle_gamma   69.61180000
_symmetry_Int_Tables_number   1
_chemical_formula_structural   GdH24C26Cl3O11
_chemical_formula_sum   'Gd2 H48 C52 Cl6 O22'
_cell_volume   1416.14227064
_cell_formula_units_Z   2
loop_
 _symmetry_equiv_pos_site_id
 _symmetry_equiv_pos_as_xyz
  1  'x, y, z'
loop_
 _atom_site_type_symbol
 _atom_site_label
 _atom_site_symmetry_multiplicity
 _atom_site_fract_x
 _atom_site_fract_y
 _atom_site_fract_z
 _atom_site_occupancy
  Gd  Gd0  1  0.26373000  0.51712000  0.49806000  1.0
  Gd  Gd1  1  0.73627000  0.48288000  0.50194000  1.0
  H  H2  1  0.46137000  0.49059000  0.21921000  1.0
  H  H3  1  0.53863000  0.50941000  0.78079000  1.0
  H  H4  1  0.36374000  0.35345000  0.25269000  1.0
  H  H5  1  0.63625000  0.64655000  0.74731000  1.0
  H  H6  1  0.44443000  0.35027000  0.12628000  1.0
  H  H7  1  0.55557000  0.64973000  0.87372000  1.0
  H  H8  1  0.44228000  0.33424000  0.99091000  1.0
  H  H9  1  0.55772000  0.66577000  0.00909000  1.0
  H  H10  1  0.01843000  0.71419000  0.98294000  1.0
  H  H11  1  0.98156000  0.28581000  0.01706000  1.0
  H  H12  1  0.01875000  0.73016000  0.12019000  1.0
  H  H13  1  0.98125000  0.26984000  0.87981000  1.0
  H  H14  1  0.49820000  0.90932000  0.43650000  1.0
  H  H15  1  0.50180000  0.09068000  0.56350000  1.0
  H  H16  1  0.59765000  0.82727000  0.35238000  1.0
  H  H17  1  0.40235000  0.17273000  0.64762000  1.0
  H  H18  1  0.51849000  0.76281000  0.26381000  1.0
  H  H19  1  0.48151000  0.23719000  0.73619000  1.0
  H  H20  1  0.48248000  0.77092000  0.12937000  1.0
  H  H21  1  0.51752000  0.22907000  0.87063000  1.0
  H  H22  1  0.15205000  0.20675000  0.12837000  1.0
  H  H23  1  0.84795000  0.79325000  0.87163000  1.0
  H  H24  1  0.19068000  0.19942000  0.26375000  1.0
  H  H25  1  0.80932000  0.80058000  0.73625000  1.0
  H  H26  1  0.00233000  0.10116000  0.52171000  1.0
  H  H27  1  0.99767000  0.89884000  0.47829000  1.0
  H  H28  1  0.15862000  0.07503000  0.43739000  1.0
  H  H29  1  0.84139000  0.92496000  0.56261000  1.0
  H  H30  1  0.97430000  0.15840000  0.63046000  1.0
  H  H31  1  0.02570000  0.84161000  0.36954000  1.0
  H  H32  1  0.94378000  0.14226000  0.77247000  1.0
  H  H33  1  0.05621000  0.85775000  0.22752000  1.0
  H  H34  1  0.40770000  0.81041000  0.77375000  1.0
  H  H35  1  0.59229000  0.18960000  0.22625000  1.0
  H  H36  1  0.44247000  0.82755000  0.62793000  1.0
  H  H37  1  0.55752000  0.17245000  0.37207000  1.0
  H  H38  1  0.27755000  0.40779000  0.71777000  1.0
  H  H39  1  0.72246000  0.59220000  0.28223000  1.0
  H  H40  1  0.06333000  0.45617000  0.75022000  1.0
  H  H41  1  0.93667000  0.54383000  0.24979000  1.0
  H  H42  1  0.02963000  0.69303000  0.65807000  1.0
  H  H43  1  0.97037000  0.30696000  0.34193000  1.0
  H  H44  1  0.17158000  0.67475000  0.71864000  1.0
  H  H45  1  0.82843000  0.32525000  0.28136000  1.0
  H  H46  1  0.37390000  0.61446000  0.61699000  1.0
  H  H47  1  0.62610000  0.38554000  0.38301000  1.0
  H  H48  1  0.03216000  0.41993000  0.63873000  1.0
  H  H49  1  0.96784000  0.58007000  0.36127000  1.0
  C  C50  1  0.30952000  0.49790000  0.33319000  1.0
  C  C51  1  0.69048000  0.50210000  0.66682000  1.0
  C  C52  1  0.34631000  0.47028000  0.24930000  1.0
  C  C53  1  0.65369000  0.52972000  0.75070000  1.0
  C  C54  1  0.22958000  0.54114000  0.13278000  1.0
  C  C55  1  0.77042000  0.45886000  0.86722000  1.0
  C  C56  1  0.34947000  0.43026000  0.09630000  1.0
  C  C57  1  0.65053000  0.56975000  0.90370000  1.0
  C  C58  1  0.34891000  0.42076000  0.01904000  1.0
  C  C59  1  0.65108000  0.57925000  0.98096000  1.0
  C  C60  1  0.23003000  0.52265000  0.97888000  1.0
  C  C61  1  0.76997000  0.47735000  0.02112000  1.0
  C  C62  1  0.11022000  0.63399000  0.01484000  1.0
  C  C63  1  0.88978000  0.36601000  0.98516000  1.0
  C  C64  1  0.11029000  0.64297000  0.09173000  1.0
  C  C65  1  0.88971000  0.35703000  0.90827000  1.0
  C  C66  1  0.40376000  0.74938000  0.42437000  1.0
  C  C67  1  0.59624000  0.25061000  0.57563000  1.0
  C  C68  1  0.47776000  0.87012000  0.38805000  1.0
  C  C69  1  0.52223000  0.12988000  0.61195000  1.0
  C  C70  1  0.35838000  0.98243000  0.27225000  1.0
  C  C71  1  0.64162000  0.01757000  0.72775000  1.0
  C  C72  1  0.43898000  0.86105000  0.23475000  1.0
  C  C73  1  0.56102000  0.13895000  0.76525000  1.0
  C  C74  1  0.41788000  0.86487000  0.15879000  1.0
  C  C75  1  0.58213000  0.13512000  0.84121000  1.0
  C  C76  1  0.31542000  0.98916000  0.12060000  1.0
  C  C77  1  0.68458000  0.01084000  0.87940000  1.0
  C  C78  1  0.23275000  0.11015000  0.15810000  1.0
  C  C79  1  0.76726000  0.88985000  0.84190000  1.0
  C  C80  1  0.25481000  0.10637000  0.23351000  1.0
  C  C81  1  0.74519000  0.89363000  0.76648000  1.0
  C  C82  1  0.13096000  0.25717000  0.48927000  1.0
  C  C83  1  0.86904000  0.74282000  0.51073000  1.0
  C  C84  1  0.12674000  0.10294000  0.49680000  1.0
  C  C85  1  0.87326000  0.89706000  0.50320000  1.0
  C  C86  1  0.21176000  0.99283000  0.61971000  1.0
  C  C87  1  0.78824000  0.00717000  0.38029000  1.0
  C  C88  1  0.07152000  0.08180000  0.66013000  1.0
  C  C89  1  0.92848000  0.91821000  0.33987000  1.0
  C  C90  1  0.05286000  0.07248000  0.74130000  1.0
  C  C91  1  0.94714000  0.92753000  0.25870000  1.0
  C  C92  1  0.17363000  0.97413000  0.78153000  1.0
  C  C93  1  0.82636000  0.02588000  0.21847000  1.0
  C  C94  1  0.31361000  0.88487000  0.74138000  1.0
  C  C95  1  0.68638000  0.11514000  0.25862000  1.0
  C  C96  1  0.33290000  0.89408000  0.66059000  1.0
  C  C97  1  0.66709000  0.10593000  0.33941000  1.0
  C  C98  1  0.15916000  0.46993000  0.70001000  1.0
  C  C99  1  0.84084000  0.53007000  0.30000000  1.0
  C  C100  1  0.14929000  0.62847000  0.67327000  1.0
  C  C101  1  0.85071000  0.37153000  0.32673000  1.0
  Cl  Cl102  1  0.23204000  0.51397000  0.88173000  1.0
  Cl  Cl103  1  0.76795000  0.48604000  0.11827000  1.0
  Cl  Cl104  1  0.29134000  0.99422000  0.02594000  1.0
  Cl  Cl105  1  0.70866000  0.00577000  0.97406000  1.0
  Cl  Cl106  1  0.15099000  0.96061000  0.88254000  1.0
  Cl  Cl107  1  0.84900000  0.03940000  0.11746000  1.0
  O  O108  1  0.16631000  0.55227000  0.36768000  1.0
  O  O109  1  0.83369000  0.44773000  0.63232000  1.0
  O  O110  1  0.49360000  0.63167000  0.46012000  1.0
  O  O111  1  0.50640000  0.36833000  0.53987000  1.0
  O  O112  1  0.14853000  0.41015000  0.63573000  1.0
  O  O113  1  0.85147000  0.58985000  0.36427000  1.0
  O  O114  1  0.26001000  0.76178000  0.42165000  1.0
  O  O115  1  0.73998000  0.23822000  0.57835000  1.0
  O  O116  1  0.25832000  0.28017000  0.49453000  1.0
  O  O117  1  0.74169000  0.71982000  0.50547000  1.0
  O  O118  1  0.26510000  0.64151000  0.60233000  1.0
  O  O119  1  0.73490000  0.35849000  0.39767000  1.0
  O  O120  1  0.42995000  0.45811000  0.36929000  1.0
  O  O121  1  0.57005000  0.54189000  0.63071000  1.0
  O  O122  1  0.37336000  0.99184000  0.34570000  1.0
  O  O123  1  0.62664000  0.00816000  0.65430000  1.0
  O  O124  1  0.00120000  0.35760000  0.47485000  1.0
  O  O125  1  0.99881000  0.64240000  0.52516000  1.0
  O  O126  1  0.24262000  0.99561000  0.53994000  1.0
  O  O127  1  0.75738000  0.00438000  0.46006000  1.0
  O  O128  1  0.21644000  0.55862000  0.20908000  1.0
  O  O129  1  0.78356000  0.44138000  0.79093000  1.0
