# generated using pymatgen
data_CoH50C40(NO2)2
_symmetry_space_group_name_H-M   'P 1'
_cell_length_a   8.39630000
_cell_length_b   11.10950000
_cell_length_c   11.58000000
_cell_angle_alpha   104.51900000
_cell_angle_beta   97.97970000
_cell_angle_gamma   96.13480000
_symmetry_Int_Tables_number   1
_chemical_formula_structural   CoH50C40(NO2)2
_chemical_formula_sum   'Co1 H50 C40 N2 O4'
_cell_volume   1024.17744919
_cell_formula_units_Z   1
loop_
 _symmetry_equiv_pos_site_id
 _symmetry_equiv_pos_as_xyz
  1  'x, y, z'
loop_
 _atom_site_type_symbol
 _atom_site_label
 _atom_site_symmetry_multiplicity
 _atom_site_fract_x
 _atom_site_fract_y
 _atom_site_fract_z
 _atom_site_occupancy
  Co  Co0  1  0.00000000  0.50000000  0.00000000  1.0
  H  H1  1  0.65929000  0.42823000  0.98397000  1.0
  H  H2  1  0.34071000  0.57177000  0.01604000  1.0
  H  H3  1  0.47692000  0.23755000  0.98565000  1.0
  H  H4  1  0.52308000  0.76246000  0.01436000  1.0
  H  H5  1  0.90790000  0.06435000  0.04697000  1.0
  H  H6  1  0.09210000  0.93565000  0.95302000  1.0
  H  H7  1  0.07222000  0.26736000  0.04582000  1.0
  H  H8  1  0.92778000  0.73264000  0.95418000  1.0
  H  H9  1  0.65355000  0.93905000  0.02336000  1.0
  H  H10  1  0.34646000  0.06095000  0.97664000  1.0
  H  H11  1  0.01097000  0.21798000  0.48442000  1.0
  H  H12  1  0.98903000  0.78202000  0.51558000  1.0
  H  H13  1  0.68153000  0.45634000  0.64390000  1.0
  H  H14  1  0.31847000  0.54366000  0.35610000  1.0
  H  H15  1  0.16206000  0.07576000  0.52429000  1.0
  H  H16  1  0.83794000  0.92424000  0.47571000  1.0
  H  H17  1  0.37376000  0.11521000  0.58112000  1.0
  H  H18  1  0.62624000  0.88479000  0.41888000  1.0
  H  H19  1  0.27388000  0.21187000  0.50276000  1.0
  H  H20  1  0.72613000  0.78814000  0.49724000  1.0
  H  H21  1  0.20018000  0.20078000  0.86332000  1.0
  H  H22  1  0.79982000  0.79922000  0.13668000  1.0
  H  H23  1  0.32530000  0.10154000  0.78164000  1.0
  H  H24  1  0.67470000  0.89846000  0.21835000  1.0
  H  H25  1  0.11029000  0.07259000  0.73646000  1.0
  H  H26  1  0.88972000  0.92741000  0.26354000  1.0
  H  H27  1  0.38536000  0.40307000  0.68537000  1.0
  H  H28  1  0.61464000  0.59693000  0.31463000  1.0
  H  H29  1  0.49158000  0.29741000  0.74717000  1.0
  H  H30  1  0.50841000  0.70259000  0.25282000  1.0
  H  H31  1  0.36761000  0.39267000  0.83350000  1.0
  H  H32  1  0.63239000  0.60734000  0.16650000  1.0
  H  H33  1  0.89790000  0.45648000  0.37921000  1.0
  H  H34  1  0.10210000  0.54352000  0.62079000  1.0
  H  H35  1  0.78339000  0.34297000  0.24948000  1.0
  H  H36  1  0.21661000  0.65703000  0.75051000  1.0
  H  H37  1  0.95601000  0.30524000  0.33333333  1.0
  H  H38  1  0.04399000  0.69477000  0.66666667  1.0
  H  H39  1  0.78121000  0.11293000  0.36446000  1.0
  H  H40  1  0.21880000  0.88707000  0.63554000  1.0
  H  H41  1  0.61248000  0.14797000  0.27445000  1.0
  H  H42  1  0.38752000  0.85202000  0.72555000  1.0
  H  H43  1  0.59800000  0.13233000  0.42232000  1.0
  H  H44  1  0.40201000  0.86767000  0.57768000  1.0
  H  H45  1  0.50479000  0.34752000  0.47238000  1.0
  H  H46  1  0.49522000  0.65247000  0.52762000  1.0
  H  H47  1  0.52659000  0.35969000  0.32500000  1.0
  H  H48  1  0.47341000  0.64031000  0.67500000  1.0
  H  H49  1  0.62728000  0.48025000  0.45434000  1.0
  H  H50  1  0.37272000  0.51975000  0.54566000  1.0
  C  C51  1  0.70713000  0.34489000  0.99804000  1.0
  C  C52  1  0.29287000  0.65511000  0.00197000  1.0
  C  C53  1  0.60773000  0.23752000  0.99850000  1.0
  C  C54  1  0.39227000  0.76249000  0.00150000  1.0
  C  C55  1  0.67677000  0.13100000  0.01315000  1.0
  C  C56  1  0.32323000  0.86900000  0.98685000  1.0
  C  C57  1  0.84762000  0.14259000  0.03167000  1.0
  C  C58  1  0.15238000  0.85740000  0.96833000  1.0
  C  C59  1  0.94000000  0.25354000  0.03131000  1.0
  C  C60  1  0.06000000  0.74646000  0.96869000  1.0
  C  C61  1  0.58213000  0.01246000  0.00954000  1.0
  C  C62  1  0.41787000  0.98753000  0.99046000  1.0
  C  C63  1  0.88411000  0.42933000  0.76443000  1.0
  C  C64  1  0.11588000  0.57067000  0.23557000  1.0
  C  C65  1  0.02715000  0.37160000  0.77855000  1.0
  C  C66  1  0.97284000  0.62840000  0.22145000  1.0
  C  C67  1  0.07538000  0.29375000  0.67601000  1.0
  C  C68  1  0.92462000  0.70625000  0.32399000  1.0
  C  C69  1  0.97624000  0.27684000  0.56445000  1.0
  C  C70  1  0.02375000  0.72316000  0.43555000  1.0
  C  C71  1  0.83415000  0.33294000  0.54859000  1.0
  C  C72  1  0.16585000  0.66706000  0.45141000  1.0
  C  C73  1  0.78878000  0.40971000  0.64985000  1.0
  C  C74  1  0.21121000  0.59028000  0.35015000  1.0
  C  C75  1  0.23029000  0.23378000  0.68889000  1.0
  C  C76  1  0.76971000  0.76622000  0.31111000  1.0
  C  C77  1  0.26043000  0.15475000  0.56681000  1.0
  C  C78  1  0.73957000  0.84526000  0.43319000  1.0
  C  C79  1  0.21574000  0.14696000  0.77320000  1.0
  C  C80  1  0.78426000  0.85305000  0.22679000  1.0
  C  C81  1  0.37783000  0.33800000  0.74248000  1.0
  C  C82  1  0.62217000  0.66200000  0.25752000  1.0
  C  C83  1  0.73894000  0.30907000  0.42052000  1.0
  C  C84  1  0.26106000  0.69092000  0.57947000  1.0
  C  C85  1  0.85108000  0.35606000  0.34116000  1.0
  C  C86  1  0.14892000  0.64394000  0.65883000  1.0
  C  C87  1  0.67945000  0.16722000  0.36741000  1.0
  C  C88  1  0.32055000  0.83278000  0.63259000  1.0
  C  C89  1  0.59093000  0.37825000  0.41854000  1.0
  C  C90  1  0.40907000  0.62175000  0.58145000  1.0
  N  N91  1  0.87023000  0.35213000  0.01266000  1.0
  N  N92  1  0.12977000  0.64787000  0.98734000  1.0
  O  O93  1  0.10896000  0.39740000  0.89155000  1.0
  O  O94  1  0.89103000  0.60260000  0.10845000  1.0
  O  O95  1  0.84848000  0.50278000  0.86490000  1.0
  O  O96  1  0.15151000  0.49722000  0.13510000  1.0
