# generated using pymatgen
data_Cu2H15C15Br2(NO)3
_symmetry_space_group_name_H-M   'P 1'
_cell_length_a   7.01105000
_cell_length_b   11.15160000
_cell_length_c   11.30820000
_cell_angle_alpha   86.06310000
_cell_angle_beta   77.39930000
_cell_angle_gamma   77.63190000
_symmetry_Int_Tables_number   1
_chemical_formula_structural   Cu2H15C15Br2(NO)3
_chemical_formula_sum   'Cu4 H30 C30 Br4 N6 O6'
_cell_volume   842.58226064
_cell_formula_units_Z   2
loop_
 _symmetry_equiv_pos_site_id
 _symmetry_equiv_pos_as_xyz
  1  'x, y, z'
loop_
 _atom_site_type_symbol
 _atom_site_label
 _atom_site_symmetry_multiplicity
 _atom_site_fract_x
 _atom_site_fract_y
 _atom_site_fract_z
 _atom_site_occupancy
  Cu  Cu0  1  0.60900000  0.13877000  0.98452000  1.0
  Cu  Cu1  1  0.39101000  0.86123000  0.01548000  1.0
  Cu  Cu2  1  0.19344000  0.23679000  0.22413000  1.0
  Cu  Cu3  1  0.80656000  0.76321000  0.77586000  1.0
  H  H4  1  0.88657000  0.28414000  0.97242000  1.0
  H  H5  1  0.11345000  0.71586000  0.02758000  1.0
  H  H6  1  0.51132000  0.44592000  0.29903000  1.0
  H  H7  1  0.48869000  0.55409000  0.70097000  1.0
  H  H8  1  0.66572000  0.67642000  0.98452000  1.0
  H  H9  1  0.33430000  0.32359000  0.01548000  1.0
  H  H10  1  0.92127000  0.57073000  0.58293000  1.0
  H  H11  1  0.07874000  0.42927000  0.41707000  1.0
  H  H12  1  0.14434000  0.59274000  0.61962000  1.0
  H  H13  1  0.85566000  0.40726000  0.38038000  1.0
  H  H14  1  0.04768000  0.34921000  0.60188000  1.0
  H  H15  1  0.95231000  0.65079000  0.39812000  1.0
  H  H16  1  0.24878000  0.37716000  0.66167000  1.0
  H  H17  1  0.75123000  0.62283000  0.33832000  1.0
  H  H18  1  0.85624000  0.95903000  0.17302000  1.0
  H  H19  1  0.14373000  0.04096000  0.82699000  1.0
  H  H20  1  0.59456000  0.98328000  0.23524000  1.0
  H  H21  1  0.40540000  0.01674000  0.76477000  1.0
  H  H22  1  0.63893000  0.06737000  0.41283000  1.0
  H  H23  1  0.36106000  0.93263000  0.58717000  1.0
  H  H24  1  0.90440000  0.04495000  0.35464000  1.0
  H  H25  1  0.09559000  0.95504000  0.64536000  1.0
  H  H26  1  0.09423000  0.85761000  0.27541000  1.0
  H  H27  1  0.90577000  0.14238000  0.72459000  1.0
  H  H28  1  0.26805000  0.95237000  0.27757000  1.0
  H  H29  1  0.73195000  0.04762000  0.72243000  1.0
  H  H30  1  0.42417000  0.81667000  0.42315000  1.0
  H  H31  1  0.57583000  0.18334000  0.57685000  1.0
  H  H32  1  0.18437000  0.77329000  0.46363000  1.0
  H  H33  1  0.81564000  0.22671000  0.53637000  1.0
  C  C34  1  0.78575000  0.48163000  0.96386000  1.0
  C  C35  1  0.21425000  0.51837000  0.03614000  1.0
  C  C36  1  0.79672000  0.36522000  0.02028000  1.0
  C  C37  1  0.20330000  0.63478000  0.97972000  1.0
  C  C38  1  0.69599000  0.35303000  0.14006000  1.0
  C  C39  1  0.30403000  0.64698000  0.85994000  1.0
  C  C40  1  0.58908000  0.45633000  0.20570000  1.0
  C  C41  1  0.41093000  0.54367000  0.79429000  1.0
  C  C42  1  0.57590000  0.57329000  0.14876000  1.0
  C  C43  1  0.42410000  0.42671000  0.85124000  1.0
  C  C44  1  0.67388000  0.58554000  0.02803000  1.0
  C  C45  1  0.32613000  0.41446000  0.97197000  1.0
  C  C46  1  0.89067000  0.48968000  0.83784000  1.0
  C  C47  1  0.10933000  0.51032000  0.16215000  1.0
  C  C48  1  0.01986000  0.54471000  0.64779000  1.0
  C  C49  1  0.98014000  0.45529000  0.35221000  1.0
  C  C50  1  0.08829000  0.40549000  0.66445000  1.0
  C  C51  1  0.91171000  0.59451000  0.33554000  1.0
  C  C52  1  0.70678000  0.22857000  0.19309000  1.0
  C  C53  1  0.29322000  0.77143000  0.80691000  1.0
  C  C54  1  0.72586000  0.02569000  0.21827000  1.0
  C  C55  1  0.27411000  0.97431000  0.78174000  1.0
  C  C56  1  0.75632000  0.07775000  0.33372000  1.0
  C  C57  1  0.24366000  0.92225000  0.66629000  1.0
  C  C58  1  0.45385000  0.67995000  0.21648000  1.0
  C  C59  1  0.54616000  0.32005000  0.78351000  1.0
  C  C60  1  0.24970000  0.85701000  0.28007000  1.0
  C  C61  1  0.75030000  0.14299000  0.71992000  1.0
  C  C62  1  0.30985000  0.78318000  0.38921000  1.0
  C  C63  1  0.69015000  0.21682000  0.61079000  1.0
  Br  Br64  1  0.23108000  0.15389000  0.42140000  1.0
  Br  Br65  1  0.76891000  0.84610000  0.57859000  1.0
  Br  Br66  1  0.23479000  0.10306000  0.06207000  1.0
  Br  Br67  1  0.76521000  0.89694000  0.93793000  1.0
  N  N68  1  0.90399000  0.58670000  0.76879000  1.0
  N  N69  1  0.09602000  0.41330000  0.23120000  1.0
  N  N70  1  0.69274000  0.13439000  0.13704000  1.0
  N  N71  1  0.30726000  0.86562000  0.86296000  1.0
  N  N72  1  0.38225000  0.78800000  0.17495000  1.0
  N  N73  1  0.61776000  0.21200000  0.82505000  1.0
  O  O74  1  0.98286000  0.37961000  0.78683000  1.0
  O  O75  1  0.01714000  0.62039000  0.21317000  1.0
  O  O76  1  0.73863000  0.21061000  0.30643000  1.0
  O  O77  1  0.26137000  0.78939000  0.69358000  1.0
  O  O78  1  0.40370000  0.66141000  0.33893000  1.0
  O  O79  1  0.59631000  0.33859000  0.66106000  1.0
