# generated using pymatgen
data_CuNiH15C12(NO3)3
_symmetry_space_group_name_H-M   'P 1'
_cell_length_a   9.00403000
_cell_length_b   9.24241000
_cell_length_c   10.96010000
_cell_angle_alpha   79.16700000
_cell_angle_beta   66.93230000
_cell_angle_gamma   84.02720000
_symmetry_Int_Tables_number   1
_chemical_formula_structural   CuNiH15C12(NO3)3
_chemical_formula_sum   'Cu2 Ni2 H30 C24 N6 O18'
_cell_volume   823.73810866
_cell_formula_units_Z   2
loop_
 _symmetry_equiv_pos_site_id
 _symmetry_equiv_pos_as_xyz
  1  'x, y, z'
loop_
 _atom_site_type_symbol
 _atom_site_label
 _atom_site_symmetry_multiplicity
 _atom_site_fract_x
 _atom_site_fract_y
 _atom_site_fract_z
 _atom_site_occupancy
  Cu  Cu0  1  0.50370000  0.07605000  0.64452000  1.0
  Cu  Cu1  1  0.49620000  0.92435000  0.35474000  1.0
  Ni  Ni2  1  0.62637000  0.49926000  0.76452000  1.0
  Ni  Ni3  1  0.37287000  0.50100000  0.23655000  1.0
  H  H4  1  0.33714000  0.26457000  0.78815000  1.0
  H  H5  1  0.66421000  0.73837000  0.20880000  1.0
  H  H6  1  0.23937000  0.24141000  0.69520000  1.0
  H  H7  1  0.76187000  0.76124000  0.30192000  1.0
  H  H8  1  0.52871000  0.39540000  0.59907000  1.0
  H  H9  1  0.47380000  0.60448000  0.39992000  1.0
  H  H10  1  0.39396000  0.52246000  0.66690000  1.0
  H  H11  1  0.60705000  0.47679000  0.33140000  1.0
  H  H12  1  0.83139000  0.45836000  0.88630000  1.0
  H  H13  1  0.16807000  0.54121000  0.11425000  1.0
  H  H14  1  0.69698000  0.57592000  0.95644000  1.0
  H  H15  1  0.30336000  0.42537000  0.04328000  1.0
  H  H16  1  0.52324000  0.33969000  0.01109000  1.0
  H  H17  1  0.47786000  0.66287000  0.98800000  1.0
  H  H18  1  0.52668000  0.26061000  0.88893000  1.0
  H  H19  1  0.47597000  0.73853000  0.11097000  1.0
  H  H20  1  0.33295000  0.96426000  0.97297000  1.0
  H  H21  1  0.66565000  0.03922000  0.02601000  1.0
  H  H22  1  0.20220000  0.84888000  0.95117000  1.0
  H  H23  1  0.79509000  0.15532000  0.04867000  1.0
  H  H24  1  0.10164000  0.04623000  0.82585000  1.0
  H  H25  1  0.89716000  0.95836000  0.17304000  1.0
  H  H26  1  0.11616000  0.13076000  0.95361000  1.0
  H  H27  1  0.88406000  0.87446000  0.04429000  1.0
  H  H28  1  0.01023000  0.27250000  0.23294000  1.0
  H  H29  1  0.99140000  0.72440000  0.76718000  1.0
  H  H30  1  0.23891000  0.08856000  0.16821000  1.0
  H  H31  1  0.76206000  0.90732000  0.83370000  1.0
  H  H32  1  0.93434000  0.75315000  0.45669000  1.0
  H  H33  1  0.06413000  0.24417000  0.54510000  1.0
  C  C34  1  0.64378000  0.79554000  0.63093000  1.0
  C  C35  1  0.35438000  0.20411000  0.37113000  1.0
  C  C36  1  0.49381000  0.78914000  0.76050000  1.0
  C  C37  1  0.50323000  0.21211000  0.24093000  1.0
  C  C38  1  0.28172000  0.94317000  0.90177000  1.0
  C  C39  1  0.71651000  0.06033000  0.09742000  1.0
  C  C40  1  0.18623000  0.07956000  0.86416000  1.0
  C  C41  1  0.81325000  0.92450000  0.13429000  1.0
  C  C42  1  0.72366000  0.24836000  0.40589000  1.0
  C  C43  1  0.27732000  0.74979000  0.59310000  1.0
  C  C44  1  0.84325000  0.12007000  0.38217000  1.0
  C  C45  1  0.15726000  0.87757000  0.61792000  1.0
  C  C46  1  0.99429000  0.15783000  0.28081000  1.0
  C  C47  1  0.00669000  0.83920000  0.71972000  1.0
  C  C48  1  0.12141000  0.05601000  0.24413000  1.0
  C  C49  1  0.87915000  0.94048000  0.75732000  1.0
  C  C50  1  0.09795000  0.90884000  0.30707000  1.0
  C  C51  1  0.90174000  0.08773000  0.69461000  1.0
  C  C52  1  0.94951000  0.86729000  0.40773000  1.0
  C  C53  1  0.04969000  0.12983000  0.59354000  1.0
  C  C54  1  0.82006000  0.97116000  0.45088000  1.0
  C  C55  1  0.17971000  0.02671000  0.54991000  1.0
  C  C56  1  0.23544000  0.79877000  0.26472000  1.0
  C  C57  1  0.76491000  0.19836000  0.73716000  1.0
  N  N58  1  0.41233000  0.91281000  0.77989000  1.0
  N  N59  1  0.58548000  0.08935000  0.21965000  1.0
  N  N60  1  0.67587000  0.93132000  0.55876000  1.0
  N  N61  1  0.32351000  0.06776000  0.44210000  1.0
  N  N62  1  0.29613000  0.18559000  0.75551000  1.0
  N  N63  1  0.70444000  0.81715000  0.24221000  1.0
  O  O64  1  0.72408000  0.67563000  0.60911000  1.0
  O  O65  1  0.27404000  0.32351000  0.39445000  1.0
  O  O66  1  0.46461000  0.66558000  0.84114000  1.0
  O  O67  1  0.53078000  0.33676000  0.16139000  1.0
  O  O68  1  0.59074000  0.24319000  0.51227000  1.0
  O  O69  1  0.41081000  0.75646000  0.48719000  1.0
  O  O70  1  0.75566000  0.36376000  0.32013000  1.0
  O  O71  1  0.24523000  0.63333000  0.67758000  1.0
  O  O72  1  0.37539000  0.85080000  0.19474000  1.0
  O  O73  1  0.62454000  0.14690000  0.80800000  1.0
  O  O74  1  0.20436000  0.66170000  0.29853000  1.0
  O  O75  1  0.79682000  0.33496000  0.70269000  1.0
  O  O76  1  0.47874000  0.44533000  0.67886000  1.0
  O  O77  1  0.52329000  0.55505000  0.31977000  1.0
  O  O78  1  0.77120000  0.54785000  0.86837000  1.0
  O  O79  1  0.22875000  0.45184000  0.13163000  1.0
  O  O80  1  0.48352000  0.35235000  0.93634000  1.0
  O  O81  1  0.51985000  0.64903000  0.06151000  1.0
