# generated using pymatgen
data_AlH8C16IBrO5
_symmetry_space_group_name_H-M   'P 1'
_cell_length_a   6.62985000
_cell_length_b   21.14200000
_cell_length_c   21.88690000
_cell_angle_alpha   90.02630000
_cell_angle_beta   90.01700000
_cell_angle_gamma   96.27570000
_symmetry_Int_Tables_number   1
_chemical_formula_structural   AlH8C16IBrO5
_chemical_formula_sum   'Al4 H32 C64 I4 Br4 O20'
_cell_volume   3049.46443567
_cell_formula_units_Z   4
loop_
 _symmetry_equiv_pos_site_id
 _symmetry_equiv_pos_as_xyz
  1  'x, y, z'
loop_
 _atom_site_type_symbol
 _atom_site_label
 _atom_site_symmetry_multiplicity
 _atom_site_fract_x
 _atom_site_fract_y
 _atom_site_fract_z
 _atom_site_occupancy
  Al  Al0  1  0.01940000  0.31405000  0.50172000  1.0
  Al  Al1  1  0.97350000  0.68683000  0.00161000  1.0
  Al  Al2  1  0.51987000  0.31399000  0.50181000  1.0
  Al  Al3  1  0.47306000  0.68700000  0.00146000  1.0
  H  H4  1  0.53428000  0.18797000  0.64790000  1.0
  H  H5  1  0.45964000  0.81189000  0.14840000  1.0
  H  H6  1  0.96333000  0.85270000  0.91408000  1.0
  H  H7  1  0.02855000  0.14723000  0.41595000  1.0
  H  H8  1  0.59042000  0.83482000  0.87668000  1.0
  H  H9  1  0.40143000  0.16483000  0.37836000  1.0
  H  H10  1  0.43507000  0.02793000  0.77767000  1.0
  H  H11  1  0.55742000  0.97095000  0.27999000  1.0
  H  H12  1  0.87625000  0.05149000  0.65814000  1.0
  H  H13  1  0.11622000  0.94903000  0.15973000  1.0
  H  H14  1  0.97496000  0.94553000  0.84369000  1.0
  H  H15  1  0.01648000  0.05362000  0.34639000  1.0
  H  H16  1  0.90850000  0.14998000  0.59581000  1.0
  H  H17  1  0.08440000  0.85146000  0.09601000  1.0
  H  H18  1  0.50425000  0.09131000  0.71190000  1.0
  H  H19  1  0.48904000  0.90763000  0.21379000  1.0
  H  H20  1  0.60276000  0.92656000  0.80436000  1.0
  H  H21  1  0.38876000  0.07246000  0.30663000  1.0
  H  H22  1  0.32771000  0.67515000  0.69538000  1.0
  H  H23  1  0.64559000  0.32600000  0.19594000  1.0
  H  H24  1  0.40107000  0.62913000  0.59925000  1.0
  H  H25  1  0.57792000  0.37256000  0.09993000  1.0
  H  H26  1  0.23145000  0.41252000  0.68366000  1.0
  H  H27  1  0.76494000  0.58859000  0.18403000  1.0
  H  H28  1  0.09373000  0.49246000  0.94542000  1.0
  H  H29  1  0.90706000  0.50731000  0.44521000  1.0
  H  H30  1  0.17648000  0.39712000  0.88967000  1.0
  H  H31  1  0.83085000  0.60367000  0.38994000  1.0
  H  H32  1  0.78353000  0.35220000  0.57222000  1.0
  H  H33  1  0.21006000  0.64951000  0.07234000  1.0
  H  H34  1  0.27847000  0.33427000  0.42490000  1.0
  H  H35  1  0.71431000  0.66558000  0.92491000  1.0
  C  C36  1  0.72969000  0.21957000  0.43992000  1.0
  C  C37  1  0.26291000  0.78078000  0.93895000  1.0
  C  C38  1  0.80374000  0.39022000  0.41735000  1.0
  C  C39  1  0.18770000  0.61012000  0.91752000  1.0
  C  C40  1  0.30596000  0.40848000  0.56637000  1.0
  C  C41  1  0.68715000  0.59298000  0.06683000  1.0
  C  C42  1  0.23842000  0.23299000  0.57886000  1.0
  C  C43  1  0.75513000  0.76825000  0.07843000  1.0
  C  C44  1  0.22210000  0.17556000  0.61863000  1.0
  C  C45  1  0.77130000  0.82520000  0.11887000  1.0
  C  C46  1  0.38969000  0.15821000  0.65135000  1.0
  C  C47  1  0.60388000  0.84182000  0.15210000  1.0
  C  C48  1  0.37135000  0.10370000  0.68722000  1.0
  C  C49  1  0.62192000  0.89581000  0.18875000  1.0
  C  C50  1  0.18534000  0.06415000  0.69104000  1.0
  C  C51  1  0.80746000  0.93557000  0.19287000  1.0
  C  C52  1  0.02013000  0.08166000  0.65695000  1.0
  C  C53  1  0.97262000  0.91873000  0.15831000  1.0
  C  C54  1  0.03749000  0.13671000  0.62185000  1.0
  C  C55  1  0.95553000  0.86420000  0.12242000  1.0
  C  C56  1  0.10866000  0.92052000  0.84967000  1.0
  C  C57  1  0.88291000  0.07877000  0.35206000  1.0
  C  C58  1  0.10214000  0.86924000  0.88950000  1.0
  C  C59  1  0.88971000  0.13047000  0.39145000  1.0
  C  C60  1  0.45682000  0.85960000  0.86896000  1.0
  C  C61  1  0.53505000  0.14000000  0.37075000  1.0
  C  C62  1  0.46278000  0.91076000  0.82882000  1.0
  C  C63  1  0.52888000  0.08845000  0.33099000  1.0
  C  C64  1  0.28757000  0.94114000  0.81743000  1.0
  C  C65  1  0.70403000  0.05797000  0.31983000  1.0
  C  C66  1  0.16501000  0.00730000  0.73044000  1.0
  C  C67  1  0.82728000  0.99205000  0.23280000  1.0
  C  C68  1  0.29791000  0.99427000  0.77431000  1.0
  C  C69  1  0.69424000  0.00478000  0.27673000  1.0
  C  C70  1  0.27541000  0.83793000  0.89892000  1.0
  C  C71  1  0.71667000  0.16198000  0.40048000  1.0
  C  C72  1  0.37495000  0.58124000  0.61813000  1.0
  C  C73  1  0.60786000  0.42041000  0.11876000  1.0
  C  C74  1  0.32090000  0.46729000  0.60521000  1.0
  C  C75  1  0.67105000  0.53421000  0.10569000  1.0
  C  C76  1  0.14178000  0.49680000  0.89786000  1.0
  C  C77  1  0.85628000  0.50339000  0.39787000  1.0
  C  C78  1  0.18674000  0.44273000  0.86612000  1.0
  C  C79  1  0.81500000  0.55800000  0.36640000  1.0
  C  C80  1  0.26003000  0.44810000  0.80679000  1.0
  C  C81  1  0.73920000  0.55327000  0.30732000  1.0
  C  C82  1  0.26408000  0.50624000  0.77360000  1.0
  C  C83  1  0.72798000  0.49495000  0.27403000  1.0
  C  C84  1  0.23048000  0.56257000  0.80861000  1.0
  C  C85  1  0.75780000  0.43816000  0.30887000  1.0
  C  C86  1  0.29806000  0.51221000  0.70801000  1.0
  C  C87  1  0.69136000  0.48918000  0.20854000  1.0
  C  C88  1  0.33621000  0.57394000  0.68141000  1.0
  C  C89  1  0.64693000  0.42757000  0.18206000  1.0
  C  C90  1  0.31193000  0.62861000  0.71729000  1.0
  C  C91  1  0.66651000  0.37255000  0.21787000  1.0
  C  C92  1  0.24931000  0.62258000  0.77651000  1.0
  C  C93  1  0.73202000  0.37809000  0.27685000  1.0
  C  C94  1  0.28089000  0.46020000  0.66726000  1.0
  C  C95  1  0.71198000  0.54111000  0.16771000  1.0
  C  C96  1  0.37120000  0.52861000  0.58061000  1.0
  C  C97  1  0.61695000  0.47301000  0.08112000  1.0
  C  C98  1  0.17943000  0.55665000  0.87161000  1.0
  C  C99  1  0.81259000  0.44373000  0.37160000  1.0
  I  I100  1  0.41667000  0.54147000  0.48608000  1.0
  I  I101  1  0.57620000  0.46001000  0.98645000  1.0
  I  I102  1  0.40111000  0.36681000  0.77913000  1.0
  I  I103  1  0.60733000  0.63643000  0.28017000  1.0
  Br  Br104  1  0.16809000  0.69783000  0.81233000  1.0
  Br  Br105  1  0.80882000  0.30195000  0.31206000  1.0
  Br  Br106  1  0.93081000  0.94715000  0.71473000  1.0
  Br  Br107  1  0.06097000  0.05253000  0.21741000  1.0
  O  O108  1  0.62634000  0.36618000  0.43255000  1.0
  O  O109  1  0.36510000  0.63467000  0.93224000  1.0
  O  O110  1  0.90702000  0.24712000  0.45033000  1.0
  O  O111  1  0.08580000  0.75318000  0.94955000  1.0
  O  O112  1  0.07304000  0.24972000  0.55806000  1.0
  O  O113  1  0.92050000  0.75180000  0.05735000  1.0
  O  O114  1  0.96998000  0.37837000  0.44144000  1.0
  O  O115  1  0.02185000  0.62147000  0.94215000  1.0
  O  O116  1  0.12841000  0.38072000  0.55769000  1.0
  O  O117  1  0.86460000  0.62094000  0.05849000  1.0
  O  O118  1  0.56506000  0.23821000  0.45918000  1.0
  O  O119  1  0.42783000  0.76254000  0.95846000  1.0
  O  O120  1  0.77196000  0.32155000  0.53906000  1.0
  O  O121  1  0.22134000  0.67976000  0.03887000  1.0
  O  O122  1  0.47168000  0.39085000  0.54710000  1.0
  O  O123  1  0.52158000  0.61037000  0.04711000  1.0
  O  O124  1  0.41460000  0.26119000  0.56802000  1.0
  O  O125  1  0.57896000  0.74011000  0.06742000  1.0
  O  O126  1  0.26947000  0.31264000  0.46407000  1.0
  O  O127  1  0.72332000  0.68782000  0.96379000  1.0
