# generated using pymatgen
data_H7AuC7SCl
_symmetry_space_group_name_H-M   'P 1'
_cell_length_a   6.14552000
_cell_length_b   9.06911000
_cell_length_c   14.54670000
_cell_angle_alpha   92.85940000
_cell_angle_beta   92.18590000
_cell_angle_gamma   99.84160000
_symmetry_Int_Tables_number   1
_chemical_formula_structural   H7AuC7SCl
_chemical_formula_sum   'H28 Au4 C28 S4 Cl4'
_cell_volume   796.92831401
_cell_formula_units_Z   4
loop_
 _symmetry_equiv_pos_site_id
 _symmetry_equiv_pos_as_xyz
  1  'x, y, z'
loop_
 _atom_site_type_symbol
 _atom_site_label
 _atom_site_symmetry_multiplicity
 _atom_site_fract_x
 _atom_site_fract_y
 _atom_site_fract_z
 _atom_site_occupancy
  H  H0  1  0.29771000  0.90460000  0.29971000  1.0
  H  H1  1  0.70231000  0.09542000  0.70029000  1.0
  H  H2  1  0.16772000  0.14332000  0.27071000  1.0
  H  H3  1  0.83231000  0.85671000  0.72929000  1.0
  H  H4  1  0.81521000  0.19410000  0.33441000  1.0
  H  H5  1  0.18481000  0.80592000  0.66560000  1.0
  H  H6  1  0.59776000  0.00832000  0.42911000  1.0
  H  H7  1  0.40225000  0.99170000  0.57089000  1.0
  H  H8  1  0.72209000  0.76925000  0.45879000  1.0
  H  H9  1  0.27790000  0.23076000  0.54119000  1.0
  H  H10  1  0.00506000  0.34583000  0.45036000  1.0
  H  H11  1  0.99493000  0.65417000  0.54963000  1.0
  H  H12  1  0.20928000  0.44362000  0.53402000  1.0
  H  H13  1  0.79071000  0.55639000  0.46597000  1.0
  H  H14  1  0.22257000  0.08969000  0.81911000  1.0
  H  H15  1  0.77742000  0.91029000  0.18089000  1.0
  H  H16  1  0.37994000  0.85837000  0.83597000  1.0
  H  H17  1  0.62007000  0.14161000  0.16406000  1.0
  H  H18  1  0.76370000  0.87412000  0.90416000  1.0
  H  H19  1  0.23631000  0.12588000  0.09586000  1.0
  H  H20  1  0.98710000  0.12347000  0.95304000  1.0
  H  H21  1  0.01290000  0.87653000  0.04699000  1.0
  H  H22  1  0.83594000  0.35523000  0.93194000  1.0
  H  H23  1  0.16404000  0.64476000  0.06806000  1.0
  H  H24  1  0.56514000  0.37421000  0.05800000  1.0
  H  H25  1  0.43482000  0.62574000  0.94200000  1.0
  H  H26  1  0.30837000  0.44019000  0.06310000  1.0
  H  H27  1  0.69155000  0.55978000  0.93690000  1.0
  Au  Au28  1  0.94663000  0.49888000  0.72857000  1.0
  Au  Au29  1  0.05338000  0.50113000  0.27143000  1.0
  Au  Au30  1  0.45254000  0.51180000  0.73222000  1.0
  Au  Au31  1  0.54747000  0.48820000  0.26777000  1.0
  C  C32  1  0.01771000  0.82196000  0.38036000  1.0
  C  C33  1  0.98229000  0.17804000  0.61964000  1.0
  C  C34  1  0.14370000  0.92721000  0.32772000  1.0
  C  C35  1  0.85630000  0.07280000  0.67228000  1.0
  C  C36  1  0.07054000  0.06109000  0.31145000  1.0
  C  C37  1  0.92948000  0.93893000  0.68856000  1.0
  C  C38  1  0.87411000  0.09010000  0.34776000  1.0
  C  C39  1  0.12592000  0.90993000  0.65224000  1.0
  C  C40  1  0.75060000  0.98488000  0.40055000  1.0
  C  C41  1  0.24942000  0.01513000  0.59945000  1.0
  C  C42  1  0.82034000  0.84942000  0.41703000  1.0
  C  C43  1  0.17966000  0.15059000  0.58296000  1.0
  C  C44  1  0.96500000  0.57386000  0.48960000  1.0
  C  C45  1  0.03497000  0.42614000  0.51039000  1.0
  C  C46  1  0.51821000  0.23603000  0.87517000  1.0
  C  C47  1  0.48180000  0.76396000  0.12482000  1.0
  C  C48  1  0.39081000  0.09649000  0.84778000  1.0
  C  C49  1  0.60920000  0.90349000  0.15223000  1.0
  C  C50  1  0.48033000  0.96650000  0.85751000  1.0
  C  C51  1  0.51967000  0.03348000  0.14250000  1.0
  C  C52  1  0.69397000  0.97586000  0.89623000  1.0
  C  C53  1  0.30603000  0.02413000  0.10379000  1.0
  C  C54  1  0.82006000  0.11572000  0.92296000  1.0
  C  C55  1  0.17993000  0.88428000  0.07705000  1.0
  C  C56  1  0.73471000  0.24710000  0.91164000  1.0
  C  C57  1  0.26529000  0.75290000  0.08837000  1.0
  C  C58  1  0.51675000  0.52886000  0.95232000  1.0
  C  C59  1  0.48326000  0.47113000  0.04766000  1.0
  S  S60  1  0.13533000  0.65886000  0.40054000  1.0
  S  S61  1  0.86467000  0.34115000  0.59945000  1.0
  S  S62  1  0.37741000  0.39117000  0.86476000  1.0
  S  S63  1  0.62259000  0.60881000  0.13524000  1.0
  Cl  Cl64  1  0.02233000  0.65724000  0.86010000  1.0
  Cl  Cl65  1  0.97765000  0.34275000  0.13991000  1.0
  Cl  Cl66  1  0.50248000  0.65155000  0.60477000  1.0
  Cl  Cl67  1  0.49752000  0.34846000  0.39523000  1.0
