# generated using pymatgen
data_CdSiH30C29N2O5
_symmetry_space_group_name_H-M   'P 1'
_cell_length_a   5.77546000
_cell_length_b   21.18620000
_cell_length_c   24.88500000
_cell_angle_alpha   90.00020000
_cell_angle_beta   89.99940000
_cell_angle_gamma   89.99990000
_symmetry_Int_Tables_number   1
_chemical_formula_structural   CdSiH30C29N2O5
_chemical_formula_sum   'Cd4 Si4 H120 C116 N8 O20'
_cell_volume   3044.92986028
_cell_formula_units_Z   4
loop_
 _symmetry_equiv_pos_site_id
 _symmetry_equiv_pos_as_xyz
  1  'x, y, z'
loop_
 _atom_site_type_symbol
 _atom_site_label
 _atom_site_symmetry_multiplicity
 _atom_site_fract_x
 _atom_site_fract_y
 _atom_site_fract_z
 _atom_site_occupancy
  Cd  Cd0  1  0.09335000  0.29595000  0.60082000  1.0
  Cd  Cd1  1  0.90665000  0.79595000  0.89918000  1.0
  Cd  Cd2  1  0.90665000  0.20405000  0.10082000  1.0
  Cd  Cd3  1  0.09334000  0.70404000  0.39918000  1.0
  Si  Si4  1  0.54616000  0.98640000  0.38033000  1.0
  Si  Si5  1  0.45379000  0.48640000  0.11967000  1.0
  Si  Si6  1  0.45385000  0.51360000  0.88033000  1.0
  Si  Si7  1  0.54617000  0.01360000  0.61967000  1.0
  H  H8  1  0.55206000  0.33205000  0.61858000  1.0
  H  H9  1  0.44795000  0.83205000  0.88142000  1.0
  H  H10  1  0.44795000  0.16795000  0.11858000  1.0
  H  H11  1  0.55205000  0.66795000  0.38142000  1.0
  H  H12  1  0.56841000  0.27722000  0.57586000  1.0
  H  H13  1  0.43158000  0.77722000  0.92414000  1.0
  H  H14  1  0.43160000  0.22278000  0.07586000  1.0
  H  H15  1  0.56839000  0.72278000  0.42414000  1.0
  H  H16  1  0.46239000  0.20771000  0.45317000  1.0
  H  H17  1  0.53756000  0.70770000  0.04683000  1.0
  H  H18  1  0.53765000  0.29229000  0.95318000  1.0
  H  H19  1  0.46242000  0.79230000  0.54683000  1.0
  H  H20  1  0.35108000  0.11768000  0.39517000  1.0
  H  H21  1  0.64884000  0.61768000  0.10483000  1.0
  H  H22  1  0.64895000  0.38231000  0.89517000  1.0
  H  H23  1  0.35112000  0.88232000  0.60483000  1.0
  H  H24  1  0.95710000  0.01657000  0.44812000  1.0
  H  H25  1  0.04282000  0.51656000  0.05188000  1.0
  H  H26  1  0.04292000  0.48343000  0.94812000  1.0
  H  H27  1  0.95715000  0.98343000  0.55189000  1.0
  H  H28  1  0.07703000  0.10974000  0.50199000  1.0
  H  H29  1  0.92290000  0.60974000  0.99801000  1.0
  H  H30  1  0.92301000  0.39026000  0.00200000  1.0
  H  H31  1  0.07706000  0.89026000  0.49801000  1.0
  H  H32  1  0.93478000  0.95557000  0.34063000  1.0
  H  H33  1  0.06520000  0.45557000  0.15937000  1.0
  H  H34  1  0.06524000  0.54442000  0.84062000  1.0
  H  H35  1  0.93478000  0.04443000  0.65937000  1.0
  H  H36  1  0.72815000  0.89388000  0.33670000  1.0
  H  H37  1  0.27184000  0.39388000  0.16330000  1.0
  H  H38  1  0.27187000  0.60612000  0.83670000  1.0
  H  H39  1  0.72815000  0.10612000  0.66329000  1.0
  H  H40  1  0.86422000  0.91045000  0.39852000  1.0
  H  H41  1  0.13573000  0.41044000  0.10148000  1.0
  H  H42  1  0.13578000  0.58955000  0.89852000  1.0
  H  H43  1  0.86422000  0.08955000  0.60147000  1.0
  H  H44  1  0.46351000  0.92782000  0.46269000  1.0
  H  H45  1  0.53648000  0.42782000  0.03731000  1.0
  H  H46  1  0.53648000  0.57218000  0.96269000  1.0
  H  H47  1  0.46352000  0.07218000  0.53731000  1.0
  H  H48  1  0.28535000  0.89770000  0.41036000  1.0
  H  H49  1  0.71464000  0.39770000  0.08964000  1.0
  H  H50  1  0.71466000  0.60230000  0.91036000  1.0
  H  H51  1  0.28536000  0.10230000  0.58963000  1.0
  H  H52  1  0.21312000  0.96980000  0.44274000  1.0
  H  H53  1  0.78683000  0.46980000  0.05725000  1.0
  H  H54  1  0.78687000  0.53020000  0.94274000  1.0
  H  H55  1  0.21314000  0.03020000  0.55725000  1.0
  H  H56  1  0.69699000  0.98651000  0.26898000  1.0
  H  H57  1  0.30297000  0.48651000  0.23103000  1.0
  H  H58  1  0.30304000  0.51349000  0.76897000  1.0
  H  H59  1  0.69699000  0.01350000  0.73102000  1.0
  H  H60  1  0.55999000  0.03720000  0.18478000  1.0
  H  H61  1  0.44002000  0.53720000  0.31522000  1.0
  H  H62  1  0.44005000  0.46279000  0.68478000  1.0
  H  H63  1  0.55999000  0.96281000  0.81522000  1.0
  H  H64  1  0.95164000  0.10325000  0.26597000  1.0
  H  H65  1  0.04834000  0.60324000  0.23402000  1.0
  H  H66  1  0.04841000  0.39674000  0.76598000  1.0
  H  H67  1  0.95166000  0.89675000  0.73403000  1.0
  H  H68  1  0.08784000  0.05503000  0.35084000  1.0
  H  H69  1  0.91210000  0.55502000  0.14916000  1.0
  H  H70  1  0.91217000  0.44497000  0.85084000  1.0
  H  H71  1  0.08786000  0.94498000  0.64916000  1.0
  H  H72  1  0.42064000  0.32732000  0.49717000  1.0
  H  H73  1  0.57935000  0.82733000  0.00283000  1.0
  H  H74  1  0.57933000  0.17267000  0.99718000  1.0
  H  H75  1  0.42064000  0.67268000  0.50282000  1.0
  H  H76  1  0.41002000  0.38777000  0.41179000  1.0
  H  H77  1  0.58998000  0.88777000  0.08821000  1.0
  H  H78  1  0.59002000  0.11223000  0.91179000  1.0
  H  H79  1  0.40998000  0.61223000  0.58820000  1.0
  H  H80  1  0.74588000  0.46158000  0.46040000  1.0
  H  H81  1  0.25410000  0.96157000  0.03960000  1.0
  H  H82  1  0.25415000  0.03843000  0.96041000  1.0
  H  H83  1  0.74587000  0.53842000  0.53960000  1.0
  H  H84  1  0.78883000  0.40049000  0.54613000  1.0
  H  H85  1  0.21118000  0.90049000  0.95387000  1.0
  H  H86  1  0.21119000  0.09951000  0.04613000  1.0
  H  H87  1  0.78879000  0.59951000  0.45387000  1.0
  H  H88  1  0.20115000  0.50518000  0.37885000  1.0
  H  H89  1  0.79886000  0.00518000  0.12115000  1.0
  H  H90  1  0.79889000  0.99482000  0.87885000  1.0
  H  H91  1  0.20117000  0.49482000  0.62115000  1.0
  H  H92  1  0.89790000  0.49716000  0.37953000  1.0
  H  H93  1  0.10211000  0.99715000  0.12047000  1.0
  H  H94  1  0.10214000  0.00285000  0.87953000  1.0
  H  H95  1  0.89791000  0.50284000  0.62047000  1.0
  H  H96  1  0.06437000  0.46504000  0.29235000  1.0
  H  H97  1  0.93562000  0.96504000  0.20765000  1.0
  H  H98  1  0.93561000  0.03496000  0.79235000  1.0
  H  H99  1  0.06440000  0.53496000  0.70765000  1.0
  H  H100  1  0.24051000  0.40754000  0.32341000  1.0
  H  H101  1  0.75948000  0.90754000  0.17659000  1.0
  H  H102  1  0.75948000  0.09246000  0.82341000  1.0
  H  H103  1  0.24053000  0.59247000  0.67659000  1.0
  H  H104  1  0.70848000  0.40909000  0.32208000  1.0
  H  H105  1  0.29152000  0.90908000  0.17793000  1.0
  H  H106  1  0.29152000  0.09092000  0.82208000  1.0
  H  H107  1  0.70849000  0.59092000  0.67792000  1.0
  H  H108  1  0.87857000  0.35146000  0.35553000  1.0
  H  H109  1  0.12143000  0.85146000  0.14447000  1.0
  H  H110  1  0.12141000  0.14855000  0.85553000  1.0
  H  H111  1  0.87856000  0.64854000  0.64446000  1.0
  H  H112  1  0.61146000  0.31517000  0.15200000  1.0
  H  H113  1  0.38850000  0.81517000  0.34801000  1.0
  H  H114  1  0.38852000  0.18483000  0.65200000  1.0
  H  H115  1  0.61148000  0.68482000  0.84800000  1.0
  H  H116  1  0.57372000  0.38154000  0.23464000  1.0
  H  H117  1  0.42626000  0.88154000  0.26537000  1.0
  H  H118  1  0.42628000  0.11846000  0.73464000  1.0
  H  H119  1  0.57374000  0.61846000  0.76535000  1.0
  H  H120  1  0.21746000  0.30035000  0.28963000  1.0
  H  H121  1  0.78252000  0.80035000  0.21037000  1.0
  H  H122  1  0.78252000  0.19965000  0.78963000  1.0
  H  H123  1  0.21748000  0.69965000  0.71036000  1.0
  H  H124  1  0.23418000  0.24033000  0.20373000  1.0
  H  H125  1  0.76582000  0.74033000  0.29627000  1.0
  H  H126  1  0.76582000  0.25966000  0.70373000  1.0
  H  H127  1  0.23419000  0.75967000  0.79627000  1.0
  C  C128  1  0.83642000  0.21739000  0.51841000  1.0
  C  C129  1  0.16354000  0.71739000  0.98159000  1.0
  C  C130  1  0.16362000  0.28260000  0.01841000  1.0
  C  C131  1  0.83643000  0.78261000  0.48159000  1.0
  C  C132  1  0.77635000  0.16413000  0.48122000  1.0
  C  C133  1  0.22358000  0.66413000  0.01878000  1.0
  C  C134  1  0.22369000  0.33587000  0.98123000  1.0
  C  C135  1  0.77638000  0.83587000  0.51878000  1.0
  C  C136  1  0.57245000  0.16600000  0.45068000  1.0
  C  C137  1  0.42748000  0.66600000  0.04932000  1.0
  C  C138  1  0.42760000  0.33400000  0.95069000  1.0
  C  C139  1  0.57248000  0.83400000  0.54932000  1.0
  C  C140  1  0.51001000  0.11473000  0.41872000  1.0
  C  C141  1  0.48989000  0.61473000  0.08128000  1.0
  C  C142  1  0.49000000  0.38528000  0.91873000  1.0
  C  C143  1  0.51007000  0.88528000  0.58128000  1.0
  C  C144  1  0.64547000  0.05947000  0.41727000  1.0
  C  C145  1  0.35446000  0.55947000  0.08273000  1.0
  C  C146  1  0.35456000  0.44053000  0.91727000  1.0
  C  C147  1  0.64551000  0.94054000  0.58273000  1.0
  C  C148  1  0.84990000  0.05884000  0.44785000  1.0
  C  C149  1  0.15003000  0.55883000  0.05215000  1.0
  C  C150  1  0.15013000  0.44115000  0.94785000  1.0
  C  C151  1  0.84994000  0.94117000  0.55216000  1.0
  C  C152  1  0.91723000  0.11046000  0.47880000  1.0
  C  C153  1  0.08270000  0.61045000  0.02120000  1.0
  C  C154  1  0.08281000  0.38954000  0.97880000  1.0
  C  C155  1  0.91727000  0.88955000  0.52121000  1.0
  C  C156  1  0.79245000  0.93253000  0.36220000  1.0
  C  C157  1  0.20753000  0.43252000  0.13780000  1.0
  C  C158  1  0.20756000  0.56747000  0.86220000  1.0
  C  C159  1  0.79245000  0.06747000  0.63780000  1.0
  C  C160  1  0.35692000  0.94111000  0.42780000  1.0
  C  C161  1  0.64304000  0.44111000  0.07220000  1.0
  C  C162  1  0.64308000  0.55889000  0.92780000  1.0
  C  C163  1  0.35693000  0.05889000  0.57220000  1.0
  C  C164  1  0.40370000  0.01604000  0.31676000  1.0
  C  C165  1  0.59627000  0.51603000  0.18325000  1.0
  C  C166  1  0.59633000  0.48397000  0.81675000  1.0
  C  C167  1  0.40370000  0.98397000  0.68324000  1.0
  C  C168  1  0.53153000  0.01130000  0.26879000  1.0
  C  C169  1  0.46842000  0.51129000  0.23121000  1.0
  C  C170  1  0.46849000  0.48870000  0.76878000  1.0
  C  C171  1  0.53154000  0.98871000  0.73121000  1.0
  C  C172  1  0.45617000  0.03920000  0.22128000  1.0
  C  C173  1  0.54381000  0.53920000  0.27872000  1.0
  C  C174  1  0.54387000  0.46080000  0.72128000  1.0
  C  C175  1  0.45617000  0.96081000  0.77872000  1.0
  C  C176  1  0.24692000  0.07261000  0.21997000  1.0
  C  C177  1  0.75306000  0.57261000  0.28003000  1.0
  C  C178  1  0.75311000  0.42738000  0.71997000  1.0
  C  C179  1  0.24694000  0.92739000  0.78003000  1.0
  C  C180  1  0.11454000  0.07722000  0.26707000  1.0
  C  C181  1  0.88544000  0.57721000  0.23292000  1.0
  C  C182  1  0.88549000  0.42278000  0.76708000  1.0
  C  C183  1  0.11456000  0.92279000  0.73292000  1.0
  C  C184  1  0.19282000  0.04950000  0.31467000  1.0
  C  C185  1  0.80713000  0.54949000  0.18533000  1.0
  C  C186  1  0.80720000  0.45050000  0.81466000  1.0
  C  C187  1  0.19284000  0.95050000  0.68533000  1.0
  C  C188  1  0.17649000  0.10492000  0.16870000  1.0
  C  C189  1  0.82350000  0.60492000  0.33129000  1.0
  C  C190  1  0.82355000  0.39507000  0.66871000  1.0
  C  C191  1  0.17651000  0.89508000  0.83130000  1.0
  C  C192  1  0.27506000  0.35848000  0.48812000  1.0
  C  C193  1  0.72495000  0.85847000  0.01188000  1.0
  C  C194  1  0.72495000  0.14152000  0.98812000  1.0
  C  C195  1  0.27504000  0.64153000  0.51188000  1.0
  C  C196  1  0.26660000  0.39210000  0.44010000  1.0
  C  C197  1  0.73340000  0.89210000  0.05990000  1.0
  C  C198  1  0.73341000  0.10790000  0.94011000  1.0
  C  C199  1  0.26659000  0.60790000  0.55989000  1.0
  C  C200  1  0.07615000  0.43100000  0.42888000  1.0
  C  C201  1  0.92385000  0.93100000  0.07112000  1.0
  C  C202  1  0.92387000  0.06900000  0.92888000  1.0
  C  C203  1  0.07614000  0.56900000  0.57112000  1.0
  C  C204  1  0.89961000  0.43281000  0.46727000  1.0
  C  C205  1  0.10039000  0.93281000  0.03273000  1.0
  C  C206  1  0.10044000  0.06719000  0.96728000  1.0
  C  C207  1  0.89957000  0.56718000  0.53272000  1.0
  C  C208  1  0.92059000  0.39873000  0.51471000  1.0
  C  C209  1  0.07942000  0.89872000  0.98528000  1.0
  C  C210  1  0.07940000  0.10128000  0.01472000  1.0
  C  C211  1  0.92058000  0.60128000  0.48529000  1.0
  C  C212  1  0.06016000  0.47009000  0.37863000  1.0
  C  C213  1  0.93984000  0.97008000  0.12137000  1.0
  C  C214  1  0.93986000  0.02992000  0.87863000  1.0
  C  C215  1  0.06018000  0.52991000  0.62137000  1.0
  C  C216  1  0.07262000  0.43198000  0.32633000  1.0
  C  C217  1  0.92738000  0.93198000  0.17367000  1.0
  C  C218  1  0.92738000  0.06802000  0.82633000  1.0
  C  C219  1  0.07264000  0.56803000  0.67367000  1.0
  C  C220  1  0.87513000  0.38390000  0.32088000  1.0
  C  C221  1  0.12485000  0.88390000  0.17913000  1.0
  C  C222  1  0.12485000  0.11610000  0.82087000  1.0
  C  C223  1  0.87515000  0.61610000  0.67912000  1.0
  C  C224  1  0.74390000  0.31434000  0.18322000  1.0
  C  C225  1  0.25607000  0.81433000  0.31679000  1.0
  C  C226  1  0.25608000  0.18566000  0.68321000  1.0
  C  C227  1  0.74393000  0.68566000  0.81678000  1.0
  C  C228  1  0.72230000  0.35034000  0.22972000  1.0
  C  C229  1  0.27769000  0.85034000  0.27029000  1.0
  C  C230  1  0.27768000  0.14966000  0.72972000  1.0
  C  C231  1  0.72232000  0.64966000  0.77028000  1.0
  C  C232  1  0.89149000  0.34624000  0.26982000  1.0
  C  C233  1  0.10851000  0.84624000  0.23018000  1.0
  C  C234  1  0.10852000  0.15376000  0.76982000  1.0
  C  C235  1  0.89150000  0.65376000  0.73018000  1.0
  C  C236  1  0.07963000  0.30595000  0.26004000  1.0
  C  C237  1  0.92034000  0.80596000  0.23997000  1.0
  C  C238  1  0.92037000  0.19405000  0.76003000  1.0
  C  C239  1  0.07966000  0.69405000  0.73996000  1.0
  C  C240  1  0.08989000  0.27198000  0.21232000  1.0
  C  C241  1  0.91009000  0.77198000  0.28768000  1.0
  C  C242  1  0.91010000  0.22802000  0.71232000  1.0
  C  C243  1  0.08989000  0.72803000  0.78767000  1.0
  N  N244  1  0.10589000  0.36239000  0.52530000  1.0
  N  N245  1  0.89411000  0.86239000  0.97470000  1.0
  N  N246  1  0.89412000  0.13761000  0.02531000  1.0
  N  N247  1  0.10585000  0.63761000  0.47469000  1.0
  N  N248  1  0.92423000  0.27566000  0.17449000  1.0
  N  N249  1  0.07574000  0.77566000  0.32551000  1.0
  N  N250  1  0.07574000  0.22434000  0.67448000  1.0
  N  N251  1  0.92426000  0.72434000  0.82551000  1.0
  O  O252  1  0.69884000  0.26419000  0.52091000  1.0
  O  O253  1  0.30111000  0.76418000  0.97909000  1.0
  O  O254  1  0.30117000  0.23581000  0.02092000  1.0
  O  O255  1  0.69884000  0.73582000  0.47909000  1.0
  O  O256  1  0.02102000  0.21178000  0.54648000  1.0
  O  O257  1  0.97892000  0.71178000  0.95352000  1.0
  O  O258  1  0.97899000  0.28822000  0.04648000  1.0
  O  O259  1  0.02104000  0.78822000  0.45352000  1.0
  O  O260  1  0.31595000  0.10204000  0.12918000  1.0
  O  O261  1  0.68406000  0.60205000  0.37081000  1.0
  O  O262  1  0.68408000  0.39794000  0.62918000  1.0
  O  O263  1  0.31598000  0.89796000  0.87082000  1.0
  O  O264  1  0.98278000  0.13412000  0.16837000  1.0
  O  O265  1  0.01725000  0.63410000  0.33162000  1.0
  O  O266  1  0.01729000  0.36589000  0.66837000  1.0
  O  O267  1  0.98280000  0.86589000  0.83164000  1.0
  O  O268  1  0.48803000  0.28899000  0.61044000  1.0
  O  O269  1  0.51197000  0.78899000  0.88956000  1.0
  O  O270  1  0.51197000  0.21101000  0.11044000  1.0
  O  O271  1  0.48802000  0.71101000  0.38956000  1.0
