# generated using pymatgen
data_CuH4C6BrN
_symmetry_space_group_name_H-M   'P 1'
_cell_length_a   3.86107000
_cell_length_b   8.70322000
_cell_length_c   9.32582000
_cell_angle_alpha   67.54540000
_cell_angle_beta   87.95170000
_cell_angle_gamma   78.94610000
_symmetry_Int_Tables_number   1
_chemical_formula_structural   CuH4C6BrN
_chemical_formula_sum   'Cu2 H8 C12 Br2 N2'
_cell_volume   284.00635767
_cell_formula_units_Z   2
loop_
 _symmetry_equiv_pos_site_id
 _symmetry_equiv_pos_as_xyz
  1  'x, y, z'
loop_
 _atom_site_type_symbol
 _atom_site_label
 _atom_site_symmetry_multiplicity
 _atom_site_fract_x
 _atom_site_fract_y
 _atom_site_fract_z
 _atom_site_occupancy
  Cu  Cu0  1  0.68939000  0.44606000  0.16271000  1.0
  Cu  Cu1  1  0.31057000  0.55392000  0.83730000  1.0
  H  H2  1  0.05324000  0.20697000  0.38900000  1.0
  H  H3  1  0.94677000  0.79304000  0.61100000  1.0
  H  H4  1  0.32646000  0.98752000  0.63968000  1.0
  H  H5  1  0.67354000  0.01248000  0.36032000  1.0
  H  H6  1  0.17736000  0.02278000  0.88753000  1.0
  H  H7  1  0.82266000  0.97723000  0.11247000  1.0
  H  H8  1  0.73961000  0.27365000  0.88799000  1.0
  H  H9  1  0.26039000  0.72636000  0.11201000  1.0
  C  C10  1  0.73707000  0.36361000  0.49536000  1.0
  C  C11  1  0.26292000  0.63639000  0.50464000  1.0
  C  C12  1  0.98401000  0.21844000  0.49937000  1.0
  C  C13  1  0.01601000  0.78155000  0.50065000  1.0
  C  C14  1  0.13490000  0.09808000  0.63773000  1.0
  C  C15  1  0.86511000  0.90192000  0.36226000  1.0
  C  C16  1  0.04837000  0.11768000  0.77952000  1.0
  C  C17  1  0.95165000  0.88233000  0.22048000  1.0
  C  C18  1  0.80857000  0.25626000  0.78010000  1.0
  C  C19  1  0.19144000  0.74375000  0.21990000  1.0
  C  C20  1  0.64465000  0.38215000  0.63976000  1.0
  C  C21  1  0.35534000  0.61785000  0.36025000  1.0
  Br  Br22  1  0.27041000  0.29884000  0.09949000  1.0
  Br  Br23  1  0.72961000  0.70113000  0.90051000  1.0
  N  N24  1  0.59331000  0.48193000  0.35627000  1.0
  N  N25  1  0.40668000  0.51808000  0.64372000  1.0
