# generated using pymatgen
data_ZnH22C32(N2O)4
_symmetry_space_group_name_H-M   'P 1'
_cell_length_a   9.22571000
_cell_length_b   13.81270000
_cell_length_c   13.92508465
_cell_angle_alpha   89.99976749
_cell_angle_beta   70.65535185
_cell_angle_gamma   89.99980000
_symmetry_Int_Tables_number   1
_chemical_formula_structural   ZnH22C32(N2O)4
_chemical_formula_sum   'Zn2 H44 C64 N16 O8'
_cell_volume   1674.31809014
_cell_formula_units_Z   2
loop_
 _symmetry_equiv_pos_site_id
 _symmetry_equiv_pos_as_xyz
  1  'x, y, z'
loop_
 _atom_site_type_symbol
 _atom_site_label
 _atom_site_symmetry_multiplicity
 _atom_site_fract_x
 _atom_site_fract_y
 _atom_site_fract_z
 _atom_site_occupancy
  Zn  Zn0  1  0.50000000  0.50000000  0.00000000  1.0
  Zn  Zn1  1  0.00000000  0.00000000  0.00000000  1.0
  H  H2  1  0.18806000  0.61188000  0.02643000  1.0
  H  H3  1  0.31195000  0.11187000  0.97357000  1.0
  H  H4  1  0.81195000  0.38812000  0.97357000  1.0
  H  H5  1  0.68805000  0.88813000  0.02643000  1.0
  H  H6  1  0.07779000  0.73290000  0.93494000  1.0
  H  H7  1  0.42222000  0.23288000  0.06507000  1.0
  H  H8  1  0.92221000  0.26710000  0.06506000  1.0
  H  H9  1  0.57778000  0.76712000  0.93494000  1.0
  H  H10  1  0.23335000  0.78289000  0.75914000  1.0
  H  H11  1  0.26666000  0.28288000  0.24087000  1.0
  H  H12  1  0.76666000  0.21711000  0.24086000  1.0
  H  H13  1  0.73333000  0.71712000  0.75914000  1.0
  H  H14  1  0.58426000  0.58532000  0.77669000  1.0
  H  H15  1  0.91573000  0.08533000  0.22331000  1.0
  H  H16  1  0.41574000  0.41467000  0.22331000  1.0
  H  H17  1  0.08427000  0.91467000  0.77669000  1.0
  H  H18  1  0.39212000  0.88957000  0.49398000  1.0
  H  H19  1  0.10788000  0.38957000  0.50602000  1.0
  H  H20  1  0.60788000  0.11043000  0.50602000  1.0
  H  H21  1  0.89212000  0.61043000  0.49398000  1.0
  H  H22  1  0.39649000  0.00271000  0.37832000  1.0
  H  H23  1  0.10350000  0.50271000  0.62168000  1.0
  H  H24  1  0.60351000  0.99729000  0.62168000  1.0
  H  H25  1  0.89649000  0.49729000  0.37832000  1.0
  H  H26  1  0.50315000  0.08933000  0.21503000  1.0
  H  H27  1  0.99687000  0.58933000  0.78496000  1.0
  H  H28  1  0.49686000  0.91067000  0.78497000  1.0
  H  H29  1  0.00313000  0.41067000  0.21504000  1.0
  H  H30  1  0.77985000  0.75821000  0.37444000  1.0
  H  H31  1  0.72015000  0.25821000  0.62556000  1.0
  H  H32  1  0.22015000  0.24179000  0.62556000  1.0
  H  H33  1  0.27985000  0.74179000  0.37444000  1.0
  H  H34  1  0.03005000  0.71594000  0.24257000  1.0
  H  H35  1  0.46996000  0.21595000  0.75743000  1.0
  H  H36  1  0.96996000  0.28406000  0.75743000  1.0
  H  H37  1  0.53004000  0.78405000  0.24257000  1.0
  H  H38  1  0.12606000  0.81793000  0.08313000  1.0
  H  H39  1  0.37394000  0.31793000  0.91687000  1.0
  H  H40  1  0.87395000  0.18207000  0.91687000  1.0
  H  H41  1  0.62605000  0.68207000  0.08313000  1.0
  H  H42  1  0.36039000  0.78541000  0.61213000  1.0
  H  H43  1  0.13961000  0.28541000  0.38787000  1.0
  H  H44  1  0.63961000  0.21459000  0.38787000  1.0
  H  H45  1  0.86039000  0.71459000  0.61213000  1.0
  C  C46  1  0.25144000  0.63457000  0.94881000  1.0
  C  C47  1  0.24855000  0.13456000  0.05120000  1.0
  C  C48  1  0.74856000  0.36543000  0.05119000  1.0
  C  C49  1  0.75145000  0.86544000  0.94880000  1.0
  C  C50  1  0.19049000  0.70119000  0.89746000  1.0
  C  C51  1  0.30952000  0.20118000  0.10254000  1.0
  C  C52  1  0.80951000  0.29881000  0.10254000  1.0
  C  C53  1  0.69048000  0.79882000  0.89746000  1.0
  C  C54  1  0.27734000  0.72852000  0.79894000  1.0
  C  C55  1  0.22266000  0.22851000  0.20107000  1.0
  C  C56  1  0.72266000  0.27148000  0.20106000  1.0
  C  C57  1  0.77734000  0.77149000  0.79893000  1.0
  C  C58  1  0.42156000  0.68597000  0.75294000  1.0
  C  C59  1  0.07845000  0.18597000  0.24706000  1.0
  C  C60  1  0.57844000  0.31403000  0.24706000  1.0
  C  C61  1  0.92156000  0.81403000  0.75294000  1.0
  C  C62  1  0.47232000  0.61917000  0.81051000  1.0
  C  C63  1  0.02767000  0.11917000  0.18950000  1.0
  C  C64  1  0.52768000  0.38083000  0.18949000  1.0
  C  C65  1  0.97234000  0.88083000  0.81050000  1.0
  C  C66  1  0.53101000  0.71057000  0.64984000  1.0
  C  C67  1  0.96899000  0.21056000  0.35016000  1.0
  C  C68  1  0.46899000  0.28943000  0.35016000  1.0
  C  C69  1  0.03101000  0.78943000  0.64984000  1.0
  C  C70  1  0.50999000  0.86380000  0.45526000  1.0
  C  C71  1  0.99001000  0.36380000  0.54474000  1.0
  C  C72  1  0.49001000  0.13620000  0.54474000  1.0
  C  C73  1  0.00999000  0.63620000  0.45526000  1.0
  C  C74  1  0.58714000  0.90668000  0.35730000  1.0
  C  C75  1  0.91286000  0.40669000  0.64270000  1.0
  C  C76  1  0.41286000  0.09331000  0.64270000  1.0
  C  C77  1  0.08714000  0.59331000  0.35730000  1.0
  C  C78  1  0.50948000  0.98180000  0.32629000  1.0
  C  C79  1  0.99051000  0.48181000  0.67371000  1.0
  C  C80  1  0.49052000  0.01819000  0.67371000  1.0
  C  C81  1  0.00949000  0.51819000  0.32629000  1.0
  C  C82  1  0.56864000  0.03131000  0.23439000  1.0
  C  C83  1  0.93136000  0.53131000  0.76561000  1.0
  C  C84  1  0.43137000  0.96869000  0.76561000  1.0
  C  C85  1  0.06863000  0.46869000  0.23439000  1.0
  C  C86  1  0.71499000  0.00864000  0.16476000  1.0
  C  C87  1  0.78501000  0.50865000  0.83524000  1.0
  C  C88  1  0.28501000  0.99135000  0.83524000  1.0
  C  C89  1  0.21499000  0.49135000  0.16476000  1.0
  C  C90  1  0.79525000  0.92781000  0.19325000  1.0
  C  C91  1  0.70475000  0.42781000  0.80675000  1.0
  C  C92  1  0.20476000  0.07219000  0.80675000  1.0
  C  C93  1  0.29525000  0.57219000  0.19325000  1.0
  C  C94  1  0.73427000  0.87760000  0.28778000  1.0
  C  C95  1  0.76573000  0.37761000  0.71222000  1.0
  C  C96  1  0.26573000  0.12240000  0.71222000  1.0
  C  C97  1  0.23426000  0.62240000  0.28778000  1.0
  C  C98  1  0.82311000  0.79923000  0.30387000  1.0
  C  C99  1  0.67689000  0.29924000  0.69613000  1.0
  C  C100  1  0.17689000  0.20076000  0.69613000  1.0
  C  C101  1  0.32311000  0.70076000  0.30387000  1.0
  C  C102  1  0.96193000  0.77620000  0.23089000  1.0
  C  C103  1  0.53806000  0.27621000  0.76911000  1.0
  C  C104  1  0.03806000  0.22380000  0.76912000  1.0
  C  C105  1  0.46194000  0.72380000  0.23088000  1.0
  C  C106  1  0.01526000  0.83155000  0.14161000  1.0
  C  C107  1  0.48474000  0.33156000  0.85839000  1.0
  C  C108  1  0.98474000  0.16845000  0.85839000  1.0
  C  C109  1  0.51526000  0.66844000  0.14161000  1.0
  N  N110  1  0.93316000  0.90420000  0.12381000  1.0
  N  N111  1  0.56684000  0.40421000  0.87619000  1.0
  N  N112  1  0.06684000  0.09580000  0.87620000  1.0
  N  N113  1  0.43316000  0.59579000  0.12381000  1.0
  N  N114  1  0.39138000  0.59495000  0.90638000  1.0
  N  N115  1  0.10862000  0.09494000  0.09362000  1.0
  N  N116  1  0.60862000  0.40505000  0.09362000  1.0
  N  N117  1  0.89139000  0.90506000  0.90638000  1.0
  N  N118  1  0.57098000  0.79912000  0.49851000  1.0
  N  N119  1  0.92901000  0.29912000  0.50150000  1.0
  N  N120  1  0.42902000  0.20088000  0.50149000  1.0
  N  N121  1  0.07098000  0.70088000  0.49851000  1.0
  N  N122  1  0.47585000  0.76779000  0.59097000  1.0
  N  N123  1  0.02414000  0.26779000  0.40903000  1.0
  N  N124  1  0.52414000  0.23221000  0.40903000  1.0
  N  N125  1  0.97585000  0.73221000  0.59098000  1.0
  O  O126  1  0.77897000  0.05461000  0.08034000  1.0
  O  O127  1  0.72104000  0.55461000  0.91966000  1.0
  O  O128  1  0.22104000  0.94539000  0.91966000  1.0
  O  O129  1  0.27896000  0.44539000  0.08034000  1.0
  O  O130  1  0.66689000  0.68068000  0.62308000  1.0
  O  O131  1  0.83311000  0.18068000  0.37692000  1.0
  O  O132  1  0.33311000  0.31932000  0.37692000  1.0
  O  O133  1  0.16689000  0.81932000  0.62308000  1.0
