# generated using pymatgen
data_CoCuH14C14(NO6)2
_symmetry_space_group_name_H-M   'P 1'
_cell_length_a   7.68847000
_cell_length_b   7.70698000
_cell_length_c   7.75994000
_cell_angle_alpha   92.63380000
_cell_angle_beta   114.08200000
_cell_angle_gamma   96.12880000
_symmetry_Int_Tables_number   1
_chemical_formula_structural   CoCuH14C14(NO6)2
_chemical_formula_sum   'Co1 Cu1 H14 C14 N2 O12'
_cell_volume   415.35935680
_cell_formula_units_Z   1
loop_
 _symmetry_equiv_pos_site_id
 _symmetry_equiv_pos_as_xyz
  1  'x, y, z'
loop_
 _atom_site_type_symbol
 _atom_site_label
 _atom_site_symmetry_multiplicity
 _atom_site_fract_x
 _atom_site_fract_y
 _atom_site_fract_z
 _atom_site_occupancy
  Co  Co0  1  0.00000000  0.50000000  0.50000000  1.0
  Cu  Cu1  1  0.50000000  0.00000000  0.50000000  1.0
  H  H2  1  0.08606000  0.00555000  0.83945000  1.0
  H  H3  1  0.91395000  0.99445000  0.16055000  1.0
  H  H4  1  0.30452000  0.39825000  0.46148000  1.0
  H  H5  1  0.69547000  0.60175000  0.53852000  1.0
  H  H6  1  0.38987000  0.57188000  0.60339000  1.0
  H  H7  1  0.61013000  0.42812000  0.39661000  1.0
  H  H8  1  0.60715000  0.37976000  0.10318000  1.0
  H  H9  1  0.39285000  0.62025000  0.89681000  1.0
  H  H10  1  0.00154000  0.59121000  0.83100000  1.0
  H  H11  1  0.99846000  0.40879000  0.16900000  1.0
  H  H12  1  0.69550000  0.28208000  0.84159000  1.0
  H  H13  1  0.30449000  0.71792000  0.15840000  1.0
  H  H14  1  0.03778000  0.39071000  0.83862000  1.0
  H  H15  1  0.96222000  0.60930000  0.16138000  1.0
  C  C16  1  0.28619000  0.02102000  0.71078000  1.0
  C  C17  1  0.71381000  0.97897000  0.28921000  1.0
  C  C18  1  0.22178000  0.07070000  0.84607000  1.0
  C  C19  1  0.77821000  0.92929000  0.15393000  1.0
  C  C20  1  0.33580000  0.20291000  0.98995000  1.0
  C  C21  1  0.66421000  0.79709000  0.01005000  1.0
  C  C22  1  0.51057000  0.27903000  0.99261000  1.0
  C  C23  1  0.48943000  0.72097000  0.00739000  1.0
  C  C24  1  0.56233000  0.22597000  0.84799000  1.0
  C  C25  1  0.43766000  0.77403000  0.15201000  1.0
  C  C26  1  0.18396000  0.87367000  0.55726000  1.0
  C  C27  1  0.81604000  0.12633000  0.44275000  1.0
  C  C28  1  0.26219000  0.26393000  0.13207000  1.0
  C  C29  1  0.73781000  0.73607000  0.86793000  1.0
  N  N30  1  0.45194000  0.09934000  0.71093000  1.0
  N  N31  1  0.54805000  0.90066000  0.28906000  1.0
  O  O32  1  0.24689000  0.85686000  0.42825000  1.0
  O  O33  1  0.75310000  0.14314000  0.57175000  1.0
  O  O34  1  0.04813000  0.77307000  0.56590000  1.0
  O  O35  1  0.95187000  0.22693000  0.43410000  1.0
  O  O36  1  0.08360000  0.27652000  0.06334000  1.0
  O  O37  1  0.91640000  0.72348000  0.93666000  1.0
  O  O38  1  0.37986000  0.29858000  0.30535000  1.0
  O  O39  1  0.62014000  0.70142000  0.69466000  1.0
  O  O40  1  0.28422000  0.47227000  0.55932000  1.0
  O  O41  1  0.71578000  0.52773000  0.44068000  1.0
  O  O42  1  0.05920000  0.49897000  0.78292000  1.0
  O  O43  1  0.94080000  0.50103000  0.21708000  1.0
