# generated using pymatgen
data_CoH12C18N2(ClO3)2
_symmetry_space_group_name_H-M   'P 1'
_cell_length_a   5.02110000
_cell_length_b   7.97206000
_cell_length_c   11.20330000
_cell_angle_alpha   83.09540000
_cell_angle_beta   82.73250000
_cell_angle_gamma   81.34200000
_symmetry_Int_Tables_number   1
_chemical_formula_structural   CoH12C18N2(ClO3)2
_chemical_formula_sum   'Co1 H12 C18 N2 Cl2 O6'
_cell_volume   437.43273248
_cell_formula_units_Z   1
loop_
 _symmetry_equiv_pos_site_id
 _symmetry_equiv_pos_as_xyz
  1  'x, y, z'
loop_
 _atom_site_type_symbol
 _atom_site_label
 _atom_site_symmetry_multiplicity
 _atom_site_fract_x
 _atom_site_fract_y
 _atom_site_fract_z
 _atom_site_occupancy
  Co  Co0  1  0.00000000  0.50000000  0.50000000  1.0
  H  H1  1  0.67269000  0.50399000  0.71967000  1.0
  H  H2  1  0.32731000  0.49601000  0.28033000  1.0
  H  H3  1  0.50273000  0.57909000  0.60980000  1.0
  H  H4  1  0.49727000  0.42091000  0.39020000  1.0
  H  H5  1  0.99691000  0.13966000  0.84886000  1.0
  H  H6  1  0.00308000  0.86035000  0.15114000  1.0
  H  H7  1  0.35936000  0.30774000  0.75754000  1.0
  H  H8  1  0.64064000  0.69226000  0.24245000  1.0
  H  H9  1  0.96741000  0.69895000  0.79950000  1.0
  H  H10  1  0.03259000  0.30105000  0.20050000  1.0
  H  H11  1  0.83614000  0.13358000  0.06921000  1.0
  H  H12  1  0.16386000  0.86642000  0.93079000  1.0
  C  C13  1  0.09801000  0.13639000  0.54699000  1.0
  C  C14  1  0.90200000  0.86361000  0.45301000  1.0
  C  C15  1  0.89877000  0.17063000  0.45327000  1.0
  C  C16  1  0.10123000  0.82937000  0.54673000  1.0
  C  C17  1  0.80860000  0.03417000  0.41047000  1.0
  C  C18  1  0.19140000  0.96583000  0.58953000  1.0
  C  C19  1  0.08994000  0.21104000  0.90547000  1.0
  C  C20  1  0.91005000  0.78896000  0.09453000  1.0
  C  C21  1  0.29039000  0.30497000  0.85383000  1.0
  C  C22  1  0.70960000  0.69504000  0.14617000  1.0
  C  C23  1  0.40397000  0.40434000  0.92637000  1.0
  C  C24  1  0.59603000  0.59567000  0.07363000  1.0
  C  C25  1  0.69059000  0.59811000  0.94574000  1.0
  C  C26  1  0.30941000  0.40189000  0.05426000  1.0
  C  C27  1  0.89478000  0.70020000  0.89539000  1.0
  C  C28  1  0.10522000  0.29980000  0.10460000  1.0
  C  C29  1  0.99774000  0.20775000  0.03105000  1.0
  C  C30  1  0.00225000  0.79225000  0.96895000  1.0
  N  N31  1  0.59278000  0.50226000  0.87523000  1.0
  N  N32  1  0.40722000  0.49774000  0.12477000  1.0
  Cl  Cl33  1  0.57658000  0.07277000  0.30555000  1.0
  Cl  Cl34  1  0.42342000  0.92722000  0.69445000  1.0
  O  O35  1  0.17010000  0.26662000  0.58203000  1.0
  O  O36  1  0.82991000  0.73338000  0.41798000  1.0
  O  O37  1  0.82632000  0.32902000  0.41866000  1.0
  O  O38  1  0.17368000  0.67098000  0.58134000  1.0
  O  O39  1  0.67181000  0.50517000  0.62959000  1.0
  O  O40  1  0.32819000  0.49482000  0.37041000  1.0
