# generated using pymatgen
data_AgPH25C28NO2F3
_symmetry_space_group_name_H-M   'P 1'
_cell_length_a   9.76960000
_cell_length_b   10.61750000
_cell_length_c   13.53960000
_cell_angle_alpha   68.67720000
_cell_angle_beta   74.26860000
_cell_angle_gamma   81.71940000
_symmetry_Int_Tables_number   1
_chemical_formula_structural   AgPH25C28NO2F3
_chemical_formula_sum   'Ag2 P2 H50 C56 N2 O4 F6'
_cell_volume   1257.68397897
_cell_formula_units_Z   2
loop_
 _symmetry_equiv_pos_site_id
 _symmetry_equiv_pos_as_xyz
  1  'x, y, z'
loop_
 _atom_site_type_symbol
 _atom_site_label
 _atom_site_symmetry_multiplicity
 _atom_site_fract_x
 _atom_site_fract_y
 _atom_site_fract_z
 _atom_site_occupancy
  Ag  Ag0  1  0.25256000  0.44920000  0.15469000  1.0
  Ag  Ag1  1  0.74745000  0.55080000  0.84531000  1.0
  P  P2  1  0.14785000  0.26564000  0.30250000  1.0
  P  P3  1  0.85215000  0.73436000  0.69750000  1.0
  H  H4  1  0.33547000  0.73343000  0.98008000  1.0
  H  H5  1  0.66453000  0.26657000  0.01992000  1.0
  H  H6  1  0.24230000  0.97033000  0.91038000  1.0
  H  H7  1  0.75770000  0.02967000  0.08962000  1.0
  H  H8  1  0.84328000  0.84476000  0.14416000  1.0
  H  H9  1  0.15672000  0.15524000  0.85584000  1.0
  H  H10  1  0.95395000  0.61514000  0.20354000  1.0
  H  H11  1  0.04605000  0.38486000  0.79646000  1.0
  H  H12  1  0.15049000  0.56419000  0.44331000  1.0
  H  H13  1  0.84951000  0.43581000  0.55670000  1.0
  H  H14  1  0.05527000  0.50117000  0.37787000  1.0
  H  H15  1  0.94473000  0.49883000  0.62213000  1.0
  H  H16  1  0.23758000  0.53558000  0.31939000  1.0
  H  H17  1  0.76242000  0.46442000  0.68061000  1.0
  H  H18  1  0.25580000  0.41862000  0.57873000  1.0
  H  H19  1  0.74420000  0.58138000  0.42127000  1.0
  H  H20  1  0.33863000  0.19014000  0.68542000  1.0
  H  H21  1  0.66137000  0.80986000  0.31458000  1.0
  H  H22  1  0.32739000  0.99105000  0.62993000  1.0
  H  H23  1  0.67261000  0.00895000  0.37007000  1.0
  H  H24  1  0.23972000  0.02596000  0.46702000  1.0
  H  H25  1  0.76028000  0.97404000  0.53298000  1.0
  H  H26  1  0.99625000  0.25259000  0.12211000  1.0
  H  H27  1  0.00375000  0.74741000  0.87789000  1.0
  H  H28  1  0.03175000  0.41635000  0.10865000  1.0
  H  H29  1  0.96825000  0.58364000  0.89135000  1.0
  H  H30  1  0.86827000  0.38865000  0.08688000  1.0
  H  H31  1  0.13173000  0.61135000  0.91312000  1.0
  H  H32  1  0.66659000  0.35718000  0.22442000  1.0
  H  H33  1  0.33341000  0.64282000  0.77558000  1.0
  H  H34  1  0.53768000  0.31017000  0.41844000  1.0
  H  H35  1  0.46232000  0.68983000  0.58156000  1.0
  H  H36  1  0.67599000  0.24050000  0.56263000  1.0
  H  H37  1  0.32401000  0.75950000  0.43737000  1.0
  H  H38  1  0.93818000  0.22000000  0.51060000  1.0
  H  H39  1  0.06182000  0.78000000  0.48940000  1.0
  H  H40  1  0.56273000  0.10269000  0.20217000  1.0
  H  H41  1  0.43727000  0.89731000  0.79783000  1.0
  H  H42  1  0.45947000  0.16506000  0.30604000  1.0
  H  H43  1  0.54053000  0.83494000  0.69396000  1.0
  H  H44  1  0.45132000  0.25302000  0.16960000  1.0
  H  H45  1  0.54868000  0.74698000  0.83040000  1.0
  H  H46  1  0.48177000  0.91595000  0.19195000  1.0
  H  H47  1  0.51823000  0.08405000  0.80805000  1.0
  H  H48  1  0.29394000  0.76764000  0.21719000  1.0
  H  H49  1  0.70606000  0.23236000  0.78282000  1.0
  H  H50  1  0.03744000  0.83326000  0.28666000  1.0
  H  H51  1  0.96256000  0.16673000  0.71335000  1.0
  H  H52  1  0.97733000  0.04754000  0.32476000  1.0
  H  H53  1  0.02267000  0.95246000  0.67524000  1.0
  C  C54  1  0.43568000  0.42440000  0.90961000  1.0
  C  C55  1  0.56431000  0.57560000  0.09039000  1.0
  C  C56  1  0.36819000  0.28997000  0.92924000  1.0
  C  C57  1  0.63181000  0.71003000  0.07076000  1.0
  C  C58  1  0.22701000  0.76360000  0.01425000  1.0
  C  C59  1  0.77299000  0.23640000  0.98575000  1.0
  C  C60  1  0.17284000  0.89577000  0.97517000  1.0
  C  C61  1  0.82716000  0.10423000  0.02483000  1.0
  C  C62  1  0.03163000  0.93061000  0.01982000  1.0
  C  C63  1  0.96838000  0.06939000  0.98018000  1.0
  C  C64  1  0.95296000  0.82689000  0.10444000  1.0
  C  C65  1  0.04704000  0.17311000  0.89556000  1.0
  C  C66  1  0.01482000  0.69710000  0.13871000  1.0
  C  C67  1  0.98518000  0.30290000  0.86129000  1.0
  C  C68  1  0.19942000  0.24201000  0.42883000  1.0
  C  C69  1  0.80058000  0.75799000  0.57118000  1.0
  C  C70  1  0.20270000  0.35462000  0.46070000  1.0
  C  C71  1  0.79730000  0.64538000  0.53930000  1.0
  C  C72  1  0.15854000  0.49615000  0.39725000  1.0
  C  C73  1  0.84146000  0.50385000  0.60276000  1.0
  C  C74  1  0.25176000  0.33209000  0.55429000  1.0
  C  C75  1  0.74824000  0.66790000  0.44571000  1.0
  C  C76  1  0.29763000  0.20318000  0.61482000  1.0
  C  C77  1  0.70237000  0.79682000  0.38518000  1.0
  C  C78  1  0.29284000  0.09263000  0.58355000  1.0
  C  C79  1  0.70716000  0.90737000  0.41645000  1.0
  C  C80  1  0.24340000  0.11251000  0.49125000  1.0
  C  C81  1  0.75660000  0.88749000  0.50875000  1.0
  C  C82  1  0.95291000  0.27867000  0.33780000  1.0
  C  C83  1  0.04709000  0.72133000  0.66220000  1.0
  C  C84  1  0.87544000  0.31779000  0.25556000  1.0
  C  C85  1  0.12456000  0.68221000  0.74444000  1.0
  C  C86  1  0.94581000  0.34550000  0.13714000  1.0
  C  C87  1  0.05419000  0.65450000  0.86286000  1.0
  C  C88  1  0.72624000  0.32776000  0.28745000  1.0
  C  C89  1  0.27376000  0.67223000  0.71255000  1.0
  C  C90  1  0.65372000  0.30106000  0.39646000  1.0
  C  C91  1  0.34628000  0.69894000  0.60354000  1.0
  C  C92  1  0.73053000  0.26279000  0.47689000  1.0
  C  C93  1  0.26947000  0.73721000  0.52311000  1.0
  C  C94  1  0.87895000  0.25163000  0.44731000  1.0
  C  C95  1  0.12106000  0.74837000  0.55269000  1.0
  C  C96  1  0.19509000  0.10366000  0.28080000  1.0
  C  C97  1  0.80491000  0.89634000  0.71920000  1.0
  C  C98  1  0.33999000  0.06615000  0.24404000  1.0
  C  C99  1  0.66001000  0.93385000  0.75596000  1.0
  C  C100  1  0.45939000  0.15055000  0.22968000  1.0
  C  C101  1  0.54061000  0.84945000  0.77031000  1.0
  C  C102  1  0.37095000  0.94514000  0.22153000  1.0
  C  C103  1  0.62905000  0.05486000  0.77847000  1.0
  C  C104  1  0.26450000  0.86128000  0.23536000  1.0
  C  C105  1  0.73550000  0.13872000  0.76465000  1.0
  C  C106  1  0.12237000  0.89820000  0.27316000  1.0
  C  C107  1  0.87764000  0.10180000  0.72684000  1.0
  C  C108  1  0.08836000  0.01909000  0.29499000  1.0
  C  C109  1  0.91164000  0.98091000  0.70501000  1.0
  N  N110  1  0.14972000  0.66494000  0.09466000  1.0
  N  N111  1  0.85028000  0.33507000  0.90534000  1.0
  O  O112  1  0.36681000  0.49969000  0.96123000  1.0
  O  O113  1  0.63318000  0.50031000  0.03877000  1.0
  O  O114  1  0.55329000  0.43995000  0.84046000  1.0
  O  O115  1  0.44671000  0.56005000  0.15953000  1.0
  F  F116  1  0.23733000  0.27264000  0.99884000  1.0
  F  F117  1  0.76267000  0.72736000  0.00116000  1.0
  F  F118  1  0.45242000  0.17880000  0.97034000  1.0
  F  F119  1  0.54758000  0.82120000  0.02966000  1.0
  F  F120  1  0.35305000  0.28561000  0.83220000  1.0
  F  F121  1  0.64695000  0.71438000  0.16780000  1.0
