# generated using pymatgen
data_PrH8C8NO9
_symmetry_space_group_name_H-M   'P 1'
_cell_length_a   7.26512000
_cell_length_b   12.12590000
_cell_length_c   13.67200000
_cell_angle_alpha   96.39060000
_cell_angle_beta   90.00000000
_cell_angle_gamma   90.00000000
_symmetry_Int_Tables_number   1
_chemical_formula_structural   PrH8C8NO9
_chemical_formula_sum   'Pr4 H32 C32 N4 O36'
_cell_volume   1196.96591352
_cell_formula_units_Z   4
loop_
 _symmetry_equiv_pos_site_id
 _symmetry_equiv_pos_as_xyz
  1  'x, y, z'
loop_
 _atom_site_type_symbol
 _atom_site_label
 _atom_site_symmetry_multiplicity
 _atom_site_fract_x
 _atom_site_fract_y
 _atom_site_fract_z
 _atom_site_occupancy
  Pr  Pr0  1  0.76354000  0.77956000  0.70327000  1.0
  Pr  Pr1  1  0.26354000  0.22043000  0.79673000  1.0
  Pr  Pr2  1  0.23646000  0.22043000  0.29673000  1.0
  Pr  Pr3  1  0.73646000  0.77956000  0.20327000  1.0
  H  H4  1  0.27745000  0.97464000  0.97365000  1.0
  H  H5  1  0.77744000  0.02536000  0.52635000  1.0
  H  H6  1  0.72255000  0.02536000  0.02635000  1.0
  H  H7  1  0.22255000  0.97464000  0.47364000  1.0
  H  H8  1  0.19866000  0.62439000  0.99681000  1.0
  H  H9  1  0.69866000  0.37561000  0.50319000  1.0
  H  H10  1  0.80134000  0.37561000  0.00319000  1.0
  H  H11  1  0.30134000  0.62439000  0.49681000  1.0
  H  H12  1  0.44005000  0.61754000  0.68886000  1.0
  H  H13  1  0.94005000  0.38246000  0.81114000  1.0
  H  H14  1  0.55995000  0.38246000  0.31114000  1.0
  H  H15  1  0.05995000  0.61754000  0.18886000  1.0
  H  H16  1  0.32979000  0.72909000  0.69125000  1.0
  H  H17  1  0.82979000  0.27091000  0.80875000  1.0
  H  H18  1  0.67020000  0.27090000  0.30875000  1.0
  H  H19  1  0.17021000  0.72909000  0.19125000  1.0
  H  H20  1  0.65972000  0.55745000  0.57777000  1.0
  H  H21  1  0.15971000  0.44255000  0.92224000  1.0
  H  H22  1  0.34028000  0.44254000  0.42223000  1.0
  H  H23  1  0.84028000  0.55746000  0.07777000  1.0
  H  H24  1  0.78776000  0.61034000  0.50091000  1.0
  H  H25  1  0.28776000  0.38966000  0.99909000  1.0
  H  H26  1  0.21223000  0.38966000  0.49909000  1.0
  H  H27  1  0.71224000  0.61034000  0.00091000  1.0
  H  H28  1  0.59394000  0.86677000  0.92081000  1.0
  H  H29  1  0.09394000  0.13323000  0.57919000  1.0
  H  H30  1  0.40606000  0.13323000  0.07919000  1.0
  H  H31  1  0.90606000  0.86677000  0.42081000  1.0
  H  H32  1  0.52677000  0.93925000  0.83420000  1.0
  H  H33  1  0.02677000  0.06075000  0.66580000  1.0
  H  H34  1  0.47323000  0.06075000  0.16580000  1.0
  H  H35  1  0.97323000  0.93925000  0.33420000  1.0
  C  C36  1  0.07409000  0.88745000  0.88005000  1.0
  C  C37  1  0.57409000  0.11255000  0.61995000  1.0
  C  C38  1  0.92591000  0.11255000  0.11995000  1.0
  C  C39  1  0.42591000  0.88745000  0.38005000  1.0
  C  C40  1  0.21083000  0.89515000  0.95211000  1.0
  C  C41  1  0.71083000  0.10485000  0.54789000  1.0
  C  C42  1  0.78917000  0.10485000  0.04790000  1.0
  C  C43  1  0.28917000  0.89515000  0.45210000  1.0
  C  C44  1  0.25875000  0.79902000  0.99394000  1.0
  C  C45  1  0.75874000  0.20098000  0.50606000  1.0
  C  C46  1  0.74125000  0.20098000  0.00606000  1.0
  C  C47  1  0.24126000  0.79902000  0.49394000  1.0
  C  C48  1  0.16623000  0.70001000  0.96440000  1.0
  C  C49  1  0.66623000  0.29999000  0.53561000  1.0
  C  C50  1  0.83376000  0.29999000  0.03560000  1.0
  C  C51  1  0.33377000  0.70001000  0.46439000  1.0
  C  C52  1  0.03356000  0.69942000  0.89081000  1.0
  C  C53  1  0.53356000  0.30058000  0.60919000  1.0
  C  C54  1  0.96644000  0.30058000  0.10919000  1.0
  C  C55  1  0.46644000  0.69942000  0.39081000  1.0
  C  C56  1  0.02194000  0.98407000  0.82510000  1.0
  C  C57  1  0.52194000  0.01593000  0.67490000  1.0
  C  C58  1  0.97806000  0.01593000  0.17490000  1.0
  C  C59  1  0.47807000  0.98407000  0.32510000  1.0
  C  C60  1  0.41524000  0.79675000  0.06492000  1.0
  C  C61  1  0.91524000  0.20325000  0.43508000  1.0
  C  C62  1  0.58476000  0.20325000  0.93508000  1.0
  C  C63  1  0.08476000  0.79675000  0.56492000  1.0
  C  C64  1  0.93029000  0.59633000  0.84934000  1.0
  C  C65  1  0.43030000  0.40367000  0.65066000  1.0
  C  C66  1  0.06971000  0.40367000  0.15066000  1.0
  C  C67  1  0.56970000  0.59633000  0.34934000  1.0
  N  N68  1  0.99012000  0.79132000  0.84992000  1.0
  N  N69  1  0.49012000  0.20868000  0.65008000  1.0
  N  N70  1  0.00988000  0.20868000  0.15008000  1.0
  N  N71  1  0.50988000  0.79131000  0.34992000  1.0
  O  O72  1  0.93311000  0.96225000  0.74488000  1.0
  O  O73  1  0.43311000  0.03775000  0.75512000  1.0
  O  O74  1  0.06689000  0.03775000  0.25512000  1.0
  O  O75  1  0.56690000  0.96225000  0.24488000  1.0
  O  O76  1  0.07480000  0.07975000  0.86028000  1.0
  O  O77  1  0.57480000  0.92025000  0.63972000  1.0
  O  O78  1  0.92521000  0.92025000  0.13972000  1.0
  O  O79  1  0.42521000  0.07975000  0.36027000  1.0
  O  O80  1  0.57100000  0.83431000  0.04044000  1.0
  O  O81  1  0.07101000  0.16570000  0.45957000  1.0
  O  O82  1  0.42899000  0.16570000  0.95957000  1.0
  O  O83  1  0.92899000  0.83431000  0.54043000  1.0
  O  O84  1  0.39199000  0.75338000  0.14437000  1.0
  O  O85  1  0.89199000  0.24662000  0.35563000  1.0
  O  O86  1  0.60801000  0.24662000  0.85563000  1.0
  O  O87  1  0.10801000  0.75338000  0.64437000  1.0
  O  O88  1  0.97110000  0.50498000  0.88101000  1.0
  O  O89  1  0.47111000  0.49502000  0.61900000  1.0
  O  O90  1  0.02889000  0.49502000  0.11900000  1.0
  O  O91  1  0.52889000  0.50498000  0.38100000  1.0
  O  O92  1  0.80593000  0.60956000  0.78651000  1.0
  O  O93  1  0.30594000  0.39043000  0.71350000  1.0
  O  O94  1  0.19407000  0.39044000  0.21349000  1.0
  O  O95  1  0.69407000  0.60956000  0.28650000  1.0
  O  O96  1  0.44738000  0.69821000  0.71324000  1.0
  O  O97  1  0.94738000  0.30179000  0.78676000  1.0
  O  O98  1  0.55262000  0.30179000  0.28676000  1.0
  O  O99  1  0.05262000  0.69821000  0.21324000  1.0
  O  O100  1  0.75820000  0.61360000  0.57040000  1.0
  O  O101  1  0.25820000  0.38640000  0.92960000  1.0
  O  O102  1  0.24180000  0.38640000  0.42960000  1.0
  O  O103  1  0.74179000  0.61360000  0.07040000  1.0
  O  O104  1  0.62075000  0.88682000  0.85364000  1.0
  O  O105  1  0.12076000  0.11318000  0.64636000  1.0
  O  O106  1  0.37924000  0.11317000  0.14636000  1.0
  O  O107  1  0.87925000  0.88682000  0.35364000  1.0
