# generated using pymatgen
data_Cu2H15C15Br2(NO)3
_symmetry_space_group_name_H-M   'P 1'
_cell_length_a   13.39440000
_cell_length_b   13.60980000
_cell_length_c   21.44510000
_cell_angle_alpha   89.99990000
_cell_angle_beta   89.99980000
_cell_angle_gamma   89.99980000
_symmetry_Int_Tables_number   1
_chemical_formula_structural   Cu2H15C15Br2(NO)3
_chemical_formula_sum   'Cu16 H120 C120 Br16 N24 O24'
_cell_volume   3909.33675876
_cell_formula_units_Z   8
loop_
 _symmetry_equiv_pos_site_id
 _symmetry_equiv_pos_as_xyz
  1  'x, y, z'
loop_
 _atom_site_type_symbol
 _atom_site_label
 _atom_site_symmetry_multiplicity
 _atom_site_fract_x
 _atom_site_fract_y
 _atom_site_fract_z
 _atom_site_occupancy
  Cu  Cu0  1  0.24466000  0.74999000  0.00000000  1.0
  Cu  Cu1  1  0.25534000  0.75000000  0.50000000  1.0
  Cu  Cu2  1  0.75534000  0.25000000  1.00000000  1.0
  Cu  Cu3  1  0.74466000  0.25000000  0.50000000  1.0
  Cu  Cu4  1  0.14999000  0.57827000  0.15486000  1.0
  Cu  Cu5  1  0.14999000  0.92173000  0.84514000  1.0
  Cu  Cu6  1  0.35001000  0.57828000  0.34514000  1.0
  Cu  Cu7  1  0.35001000  0.92172000  0.65486000  1.0
  Cu  Cu8  1  0.85001000  0.42172000  0.84514000  1.0
  Cu  Cu9  1  0.85001000  0.07827000  0.15486000  1.0
  Cu  Cu10  1  0.64999000  0.42172000  0.65487000  1.0
  Cu  Cu11  1  0.64999000  0.07828000  0.34514000  1.0
  Cu  Cu12  1  0.25000000  0.48265000  0.25000000  1.0
  Cu  Cu13  1  0.25000000  0.01736000  0.75000000  1.0
  Cu  Cu14  1  0.75000000  0.51736000  0.75000000  1.0
  Cu  Cu15  1  0.75000000  0.98265000  0.25000000  1.0
  H  H16  1  0.10184000  0.65500000  0.04600000  1.0
  H  H17  1  0.10183000  0.84500000  0.95400000  1.0
  H  H18  1  0.39816000  0.65500000  0.45400000  1.0
  H  H19  1  0.39817000  0.84499000  0.54600000  1.0
  H  H20  1  0.89817000  0.34500000  0.95400000  1.0
  H  H21  1  0.89817000  0.15500000  0.04600000  1.0
  H  H22  1  0.60183000  0.34500000  0.54600000  1.0
  H  H23  1  0.60183000  0.15500000  0.45400000  1.0
  H  H24  1  0.78491000  0.60387000  0.06034000  1.0
  H  H25  1  0.78490000  0.89613000  0.93966000  1.0
  H  H26  1  0.71509000  0.60387000  0.43966000  1.0
  H  H27  1  0.71509000  0.89613000  0.56034000  1.0
  H  H28  1  0.21510000  0.39613000  0.93966000  1.0
  H  H29  1  0.21510000  0.10387000  0.06034000  1.0
  H  H30  1  0.28490000  0.39613000  0.56034000  1.0
  H  H31  1  0.28490000  0.10387000  0.43966000  1.0
  H  H32  1  0.93276000  0.57202000  0.88274000  1.0
  H  H33  1  0.93276000  0.92798000  0.11726000  1.0
  H  H34  1  0.56724000  0.57202000  0.61726000  1.0
  H  H35  1  0.56724000  0.92798000  0.38274000  1.0
  H  H36  1  0.06724000  0.42798000  0.11726000  1.0
  H  H37  1  0.06724000  0.07202000  0.88274000  1.0
  H  H38  1  0.43276000  0.42797000  0.38274000  1.0
  H  H39  1  0.43276000  0.07202000  0.61726000  1.0
  H  H40  1  0.33121000  0.61042000  0.89550000  1.0
  H  H41  1  0.33121000  0.88958000  0.10449000  1.0
  H  H42  1  0.16879000  0.61042000  0.60450000  1.0
  H  H43  1  0.16879000  0.88958000  0.39551000  1.0
  H  H44  1  0.66879000  0.38958000  0.10450000  1.0
  H  H45  1  0.66879000  0.11042000  0.89550000  1.0
  H  H46  1  0.83121000  0.38958000  0.39550000  1.0
  H  H47  1  0.83121000  0.11042000  0.60450000  1.0
  H  H48  1  0.29374000  0.72327000  0.86108000  1.0
  H  H49  1  0.29374000  0.77673000  0.13892000  1.0
  H  H50  1  0.20626000  0.72327000  0.63892000  1.0
  H  H51  1  0.20626000  0.77673000  0.36108000  1.0
  H  H52  1  0.70626000  0.27673000  0.13892000  1.0
  H  H53  1  0.70626000  0.22327000  0.86108000  1.0
  H  H54  1  0.79374000  0.27673000  0.36108000  1.0
  H  H55  1  0.79374000  0.22327000  0.63892000  1.0
  H  H56  1  0.17926000  0.64650000  0.79216000  1.0
  H  H57  1  0.17926000  0.85350000  0.20784000  1.0
  H  H58  1  0.32074000  0.64650000  0.70785000  1.0
  H  H59  1  0.32074000  0.85350000  0.29216000  1.0
  H  H60  1  0.82074000  0.35351000  0.20784000  1.0
  H  H61  1  0.82074000  0.14650000  0.79216000  1.0
  H  H62  1  0.67926000  0.35350000  0.29216000  1.0
  H  H63  1  0.67926000  0.14650000  0.70784000  1.0
  H  H64  1  0.23308000  0.53012000  0.81429000  1.0
  H  H65  1  0.23308000  0.96988000  0.18571000  1.0
  H  H66  1  0.26693000  0.53013000  0.68571000  1.0
  H  H67  1  0.26692000  0.96988000  0.31429000  1.0
  H  H68  1  0.76693000  0.46988000  0.18571000  1.0
  H  H69  1  0.76692000  0.03012000  0.81429000  1.0
  H  H70  1  0.73308000  0.46988000  0.31429000  1.0
  H  H71  1  0.73308000  0.03012000  0.68571000  1.0
  H  H72  1  0.01773000  0.61435000  0.26130000  1.0
  H  H73  1  0.01773000  0.88565000  0.73870000  1.0
  H  H74  1  0.48227000  0.61435000  0.23870000  1.0
  H  H75  1  0.48227000  0.88565000  0.76130000  1.0
  H  H76  1  0.98227000  0.38565000  0.73870000  1.0
  H  H77  1  0.98227000  0.11435000  0.26130000  1.0
  H  H78  1  0.51773000  0.38565000  0.76130000  1.0
  H  H79  1  0.51773000  0.11435000  0.23870000  1.0
  H  H80  1  0.01900000  0.74156000  0.24045000  1.0
  H  H81  1  0.01901000  0.75844000  0.75955000  1.0
  H  H82  1  0.48100000  0.74156000  0.25955000  1.0
  H  H83  1  0.48099000  0.75844000  0.74045000  1.0
  H  H84  1  0.98100000  0.25844000  0.75955000  1.0
  H  H85  1  0.98100000  0.24156000  0.24045000  1.0
  H  H86  1  0.51900000  0.25844000  0.74045000  1.0
  H  H87  1  0.51901000  0.24156000  0.25955000  1.0
  H  H88  1  0.84138000  0.60173000  0.24119000  1.0
  H  H89  1  0.84138000  0.89826000  0.75881000  1.0
  H  H90  1  0.65862000  0.60173000  0.25881000  1.0
  H  H91  1  0.65862000  0.89826000  0.74119000  1.0
  H  H92  1  0.15862000  0.39827000  0.75881000  1.0
  H  H93  1  0.15862000  0.10173000  0.24119000  1.0
  H  H94  1  0.34138000  0.39827000  0.74119000  1.0
  H  H95  1  0.34138000  0.10174000  0.25881000  1.0
  H  H96  1  0.84081000  0.73491000  0.24192000  1.0
  H  H97  1  0.84081000  0.76508000  0.75808000  1.0
  H  H98  1  0.65919000  0.73492000  0.25808000  1.0
  H  H99  1  0.65919000  0.76508000  0.74193000  1.0
  H  H100  1  0.15919000  0.26509000  0.75808000  1.0
  H  H101  1  0.15919000  0.23492000  0.24193000  1.0
  H  H102  1  0.34081000  0.26509000  0.74192000  1.0
  H  H103  1  0.34081000  0.23492000  0.25807000  1.0
  H  H104  1  0.63450000  0.37225000  0.89497000  1.0
  H  H105  1  0.63450000  0.12775000  0.10503000  1.0
  H  H106  1  0.86550000  0.37225000  0.60503000  1.0
  H  H107  1  0.86550000  0.12775000  0.39497000  1.0
  H  H108  1  0.36550000  0.62775000  0.10503000  1.0
  H  H109  1  0.36550000  0.87225000  0.89497000  1.0
  H  H110  1  0.13450000  0.62775000  0.39497000  1.0
  H  H111  1  0.13450000  0.87225000  0.60503000  1.0
  H  H112  1  0.61775000  0.47503000  0.84373000  1.0
  H  H113  1  0.61775000  0.02498000  0.15627000  1.0
  H  H114  1  0.88225000  0.47502000  0.65627000  1.0
  H  H115  1  0.88225000  0.02498000  0.34373000  1.0
  H  H116  1  0.38225000  0.52498000  0.15627000  1.0
  H  H117  1  0.38225000  0.97502000  0.84372000  1.0
  H  H118  1  0.11775000  0.52498000  0.34373000  1.0
  H  H119  1  0.11775000  0.97502000  0.65627000  1.0
  H  H120  1  0.53587000  0.56121000  0.92843000  1.0
  H  H121  1  0.53586000  0.93879000  0.07157000  1.0
  H  H122  1  0.96413000  0.56121000  0.57157000  1.0
  H  H123  1  0.96413000  0.93879000  0.42843000  1.0
  H  H124  1  0.46413000  0.43879000  0.07157000  1.0
  H  H125  1  0.46413000  0.06121000  0.92843000  1.0
  H  H126  1  0.03586000  0.43879000  0.42843000  1.0
  H  H127  1  0.03586000  0.06121000  0.57157000  1.0
  H  H128  1  0.56053000  0.45614000  0.97793000  1.0
  H  H129  1  0.56053000  0.04387000  0.02207000  1.0
  H  H130  1  0.93947000  0.45614000  0.52207000  1.0
  H  H131  1  0.93947000  0.04386000  0.47793000  1.0
  H  H132  1  0.43947000  0.54386000  0.02207000  1.0
  H  H133  1  0.43947000  0.95614000  0.97793000  1.0
  H  H134  1  0.06053000  0.54386000  0.47793000  1.0
  H  H135  1  0.06053000  0.95614000  0.52207000  1.0
  C  C136  1  0.02630000  0.61654000  0.96017000  1.0
  C  C137  1  0.02630000  0.88346000  0.03983000  1.0
  C  C138  1  0.47370000  0.61654000  0.53983000  1.0
  C  C139  1  0.47370000  0.88346000  0.46017000  1.0
  C  C140  1  0.97370000  0.38346000  0.03983000  1.0
  C  C141  1  0.97370000  0.11654000  0.96017000  1.0
  C  C142  1  0.52630000  0.38346000  0.46017000  1.0
  C  C143  1  0.52629000  0.11654000  0.53983000  1.0
  C  C144  1  0.03061000  0.63671000  0.02416000  1.0
  C  C145  1  0.03061000  0.86328000  0.97584000  1.0
  C  C146  1  0.46939000  0.63671000  0.47584000  1.0
  C  C147  1  0.46940000  0.86328000  0.52416000  1.0
  C  C148  1  0.96939000  0.36328000  0.97584000  1.0
  C  C149  1  0.96940000  0.13672000  0.02416000  1.0
  C  C150  1  0.53060000  0.36328000  0.52416000  1.0
  C  C151  1  0.53060000  0.13672000  0.47584000  1.0
  C  C152  1  0.94359000  0.63276000  0.06025000  1.0
  C  C153  1  0.94359000  0.86724000  0.93975000  1.0
  C  C154  1  0.55641000  0.63276000  0.43975000  1.0
  C  C155  1  0.55641000  0.86724000  0.56025000  1.0
  C  C156  1  0.05641000  0.36724000  0.93975000  1.0
  C  C157  1  0.05641000  0.13276000  0.06025000  1.0
  C  C158  1  0.44359000  0.36724000  0.56025000  1.0
  C  C159  1  0.44359000  0.13276000  0.43975000  1.0
  C  C160  1  0.85252000  0.60745000  0.03234000  1.0
  C  C161  1  0.85252000  0.89255000  0.96766000  1.0
  C  C162  1  0.64748000  0.60745000  0.46766000  1.0
  C  C163  1  0.64748000  0.89254000  0.53234000  1.0
  C  C164  1  0.14748000  0.39255000  0.96766000  1.0
  C  C165  1  0.14748000  0.10746000  0.03234000  1.0
  C  C166  1  0.35252000  0.39254000  0.53234000  1.0
  C  C167  1  0.35252000  0.10746000  0.46766000  1.0
  C  C168  1  0.84939000  0.58105000  0.96921000  1.0
  C  C169  1  0.84939000  0.91895000  0.03078000  1.0
  C  C170  1  0.65061000  0.58105000  0.53079000  1.0
  C  C171  1  0.65061000  0.91895000  0.46921000  1.0
  C  C172  1  0.15061000  0.41895000  0.03079000  1.0
  C  C173  1  0.15061000  0.08105000  0.96921000  1.0
  C  C174  1  0.34939000  0.41895000  0.46921000  1.0
  C  C175  1  0.34939000  0.08105000  0.53079000  1.0
  C  C176  1  0.93579000  0.58754000  0.93271000  1.0
  C  C177  1  0.93580000  0.91247000  0.06729000  1.0
  C  C178  1  0.56421000  0.58754000  0.56729000  1.0
  C  C179  1  0.56420000  0.91247000  0.43271000  1.0
  C  C180  1  0.06420000  0.41247000  0.06729000  1.0
  C  C181  1  0.06420000  0.08754000  0.93271000  1.0
  C  C182  1  0.43580000  0.41247000  0.43271000  1.0
  C  C183  1  0.43580000  0.08753000  0.56729000  1.0
  C  C184  1  0.11552000  0.62313000  0.92102000  1.0
  C  C185  1  0.11552000  0.87688000  0.07898000  1.0
  C  C186  1  0.38448000  0.62313000  0.57898000  1.0
  C  C187  1  0.38448000  0.87687000  0.42102000  1.0
  C  C188  1  0.88448000  0.37688000  0.07898000  1.0
  C  C189  1  0.88448000  0.12313000  0.92102000  1.0
  C  C190  1  0.61552000  0.37687000  0.42102000  1.0
  C  C191  1  0.61552000  0.12312000  0.57898000  1.0
  C  C192  1  0.26639000  0.65283000  0.87924000  1.0
  C  C193  1  0.26639000  0.84717000  0.12076000  1.0
  C  C194  1  0.23361000  0.65284000  0.62076000  1.0
  C  C195  1  0.23361000  0.84717000  0.37924000  1.0
  C  C196  1  0.73361000  0.34717000  0.12076000  1.0
  C  C197  1  0.73361000  0.15284000  0.87924000  1.0
  C  C198  1  0.76639000  0.34717000  0.37924000  1.0
  C  C199  1  0.76639000  0.15283000  0.62076000  1.0
  C  C200  1  0.20103000  0.59918000  0.83137000  1.0
  C  C201  1  0.20103000  0.90082000  0.16863000  1.0
  C  C202  1  0.29897000  0.59919000  0.66863000  1.0
  C  C203  1  0.29897000  0.90082000  0.33137000  1.0
  C  C204  1  0.79897000  0.40082000  0.16863000  1.0
  C  C205  1  0.79897000  0.09918000  0.83137000  1.0
  C  C206  1  0.70103000  0.40082000  0.33137000  1.0
  C  C207  1  0.70103000  0.09918000  0.66863000  1.0
  C  C208  1  0.94678000  0.64871000  0.12779000  1.0
  C  C209  1  0.94677000  0.85129000  0.87222000  1.0
  C  C210  1  0.55323000  0.64871000  0.37221000  1.0
  C  C211  1  0.55323000  0.85129000  0.62779000  1.0
  C  C212  1  0.05323000  0.35129000  0.87222000  1.0
  C  C213  1  0.05323000  0.14871000  0.12778000  1.0
  C  C214  1  0.44677000  0.35130000  0.62778000  1.0
  C  C215  1  0.44677000  0.14871000  0.37221000  1.0
  C  C216  1  0.98949000  0.66880000  0.22807000  1.0
  C  C217  1  0.98949000  0.83120000  0.77193000  1.0
  C  C218  1  0.51051000  0.66880000  0.27193000  1.0
  C  C219  1  0.51051000  0.83120000  0.72807000  1.0
  C  C220  1  0.01051000  0.33120000  0.77193000  1.0
  C  C221  1  0.01051000  0.16880000  0.22807000  1.0
  C  C222  1  0.48949000  0.33120000  0.72807000  1.0
  C  C223  1  0.48949000  0.16880000  0.27193000  1.0
  C  C224  1  0.87584000  0.66893000  0.22253000  1.0
  C  C225  1  0.87584000  0.83106000  0.77747000  1.0
  C  C226  1  0.62416000  0.66893000  0.27747000  1.0
  C  C227  1  0.62416000  0.83106000  0.72253000  1.0
  C  C228  1  0.12416000  0.33107000  0.77747000  1.0
  C  C229  1  0.12417000  0.16893000  0.22253000  1.0
  C  C230  1  0.37584000  0.33107000  0.72253000  1.0
  C  C231  1  0.37584000  0.16894000  0.27747000  1.0
  C  C232  1  0.75728000  0.53931000  0.94374000  1.0
  C  C233  1  0.75728000  0.96069000  0.05626000  1.0
  C  C234  1  0.74272000  0.53931000  0.55626000  1.0
  C  C235  1  0.74272000  0.96069000  0.44374000  1.0
  C  C236  1  0.24272000  0.46069000  0.05626000  1.0
  C  C237  1  0.24272000  0.03931000  0.94374000  1.0
  C  C238  1  0.25728000  0.46069000  0.44373000  1.0
  C  C239  1  0.25728000  0.03931000  0.55626000  1.0
  C  C240  1  0.64342000  0.45213000  0.89016000  1.0
  C  C241  1  0.64342000  0.04787000  0.10984000  1.0
  C  C242  1  0.85658000  0.45213000  0.60984000  1.0
  C  C243  1  0.85658000  0.04787000  0.39016000  1.0
  C  C244  1  0.35658000  0.54787000  0.10984000  1.0
  C  C245  1  0.35658000  0.95213000  0.89016000  1.0
  C  C246  1  0.14341000  0.54787000  0.39016000  1.0
  C  C247  1  0.14342000  0.95213000  0.60984000  1.0
  C  C248  1  0.59159000  0.50704000  0.94344000  1.0
  C  C249  1  0.59158000  0.99296000  0.05656000  1.0
  C  C250  1  0.90842000  0.50704000  0.55656000  1.0
  C  C251  1  0.90842000  0.99296000  0.44343000  1.0
  C  C252  1  0.40842000  0.49296000  0.05656000  1.0
  C  C253  1  0.40842000  0.00704000  0.94343000  1.0
  C  C254  1  0.09158000  0.49296000  0.44344000  1.0
  C  C255  1  0.09158000  0.00704000  0.55657000  1.0
  Br  Br256  1  0.42587000  0.75000000  1.00000000  1.0
  Br  Br257  1  0.07413000  0.75000000  0.50000000  1.0
  Br  Br258  1  0.57413000  0.25000000  1.00000000  1.0
  Br  Br259  1  0.92587000  0.25000000  0.50000000  1.0
  Br  Br260  1  0.25001000  0.66762000  0.25000000  1.0
  Br  Br261  1  0.24999000  0.83237000  0.75000000  1.0
  Br  Br262  1  0.75000000  0.33236000  0.75000000  1.0
  Br  Br263  1  0.74999000  0.16762000  0.25000000  1.0
  Br  Br264  1  0.08673000  0.42341000  0.24125000  1.0
  Br  Br265  1  0.08673000  0.07659000  0.75875000  1.0
  Br  Br266  1  0.41327000  0.42341000  0.25875000  1.0
  Br  Br267  1  0.41327000  0.07659000  0.74125000  1.0
  Br  Br268  1  0.91327000  0.57659000  0.75875000  1.0
  Br  Br269  1  0.91327000  0.92341000  0.24125000  1.0
  Br  Br270  1  0.58673000  0.57659000  0.74125000  1.0
  Br  Br271  1  0.58673000  0.92341000  0.25875000  1.0
  N  N272  1  0.19820000  0.66973000  0.93251000  1.0
  N  N273  1  0.19820000  0.83027000  0.06749000  1.0
  N  N274  1  0.30180000  0.66973000  0.56749000  1.0
  N  N275  1  0.30180000  0.83026000  0.43251000  1.0
  N  N276  1  0.80180000  0.33027000  0.06749000  1.0
  N  N277  1  0.80180000  0.16974000  0.93251000  1.0
  N  N278  1  0.69820000  0.33027000  0.43251000  1.0
  N  N279  1  0.69820000  0.16973000  0.56749000  1.0
  N  N280  1  0.02371000  0.64289000  0.16448000  1.0
  N  N281  1  0.02371000  0.85711000  0.83552000  1.0
  N  N282  1  0.47629000  0.64290000  0.33552000  1.0
  N  N283  1  0.47630000  0.85710000  0.66448000  1.0
  N  N284  1  0.97630000  0.35710000  0.83552000  1.0
  N  N285  1  0.97630000  0.14290000  0.16448000  1.0
  N  N286  1  0.52370000  0.35710000  0.66447000  1.0
  N  N287  1  0.52370000  0.14290000  0.33552000  1.0
  N  N288  1  0.75006000  0.47851000  0.89716000  1.0
  N  N289  1  0.75005000  0.02149000  0.10284000  1.0
  N  N290  1  0.74995000  0.47851000  0.60284000  1.0
  N  N291  1  0.74995000  0.02149000  0.39716000  1.0
  N  N292  1  0.24995000  0.52148000  0.10284000  1.0
  N  N293  1  0.24995000  0.97851000  0.89716000  1.0
  N  N294  1  0.25005000  0.52149000  0.39716000  1.0
  N  N295  1  0.25005000  0.97851000  0.60284000  1.0
  O  O296  1  0.11026000  0.57485000  0.86589000  1.0
  O  O297  1  0.11026000  0.92515000  0.13411000  1.0
  O  O298  1  0.38975000  0.57486000  0.63411000  1.0
  O  O299  1  0.38974000  0.92515000  0.36589000  1.0
  O  O300  1  0.88974000  0.42515000  0.13411000  1.0
  O  O301  1  0.88974000  0.07485000  0.86589000  1.0
  O  O302  1  0.61026000  0.42515000  0.36589000  1.0
  O  O303  1  0.61026000  0.07485000  0.63411000  1.0
  O  O304  1  0.85799000  0.66938000  0.15502000  1.0
  O  O305  1  0.85798000  0.83062000  0.84498000  1.0
  O  O306  1  0.64201000  0.66938000  0.34497000  1.0
  O  O307  1  0.64202000  0.83062000  0.65503000  1.0
  O  O308  1  0.14202000  0.33062000  0.84498000  1.0
  O  O309  1  0.14201000  0.16938000  0.15503000  1.0
  O  O310  1  0.35799000  0.33063000  0.65503000  1.0
  O  O311  1  0.35798000  0.16939000  0.34497000  1.0
  O  O312  1  0.67228000  0.56210000  0.97408000  1.0
  O  O313  1  0.67228000  0.93790000  0.02592000  1.0
  O  O314  1  0.82772000  0.56210000  0.52593000  1.0
  O  O315  1  0.82772000  0.93790000  0.47408000  1.0
  O  O316  1  0.32772000  0.43790000  0.02592000  1.0
  O  O317  1  0.32772000  0.06210000  0.97408000  1.0
  O  O318  1  0.17228000  0.43790000  0.47407000  1.0
  O  O319  1  0.17228000  0.06210000  0.52592000  1.0
