# generated using pymatgen
data_HgH14C14(IN2)2
_symmetry_space_group_name_H-M   'P 1'
_cell_length_a   11.82680000
_cell_length_b   11.82680000
_cell_length_c   13.13340000
_cell_angle_alpha   90.00000000
_cell_angle_beta   90.00000000
_cell_angle_gamma   90.00000000
_symmetry_Int_Tables_number   1
_chemical_formula_structural   HgH14C14(IN2)2
_chemical_formula_sum   'Hg4 H56 C56 I8 N16'
_cell_volume   1837.01066177
_cell_formula_units_Z   4
loop_
 _symmetry_equiv_pos_site_id
 _symmetry_equiv_pos_as_xyz
  1  'x, y, z'
loop_
 _atom_site_type_symbol
 _atom_site_label
 _atom_site_symmetry_multiplicity
 _atom_site_fract_x
 _atom_site_fract_y
 _atom_site_fract_z
 _atom_site_occupancy
  Hg  Hg0  1  0.75000000  0.75000000  0.10384000  1.0
  Hg  Hg1  1  0.25000000  0.25000000  0.60384000  1.0
  Hg  Hg2  1  0.25000000  0.25000000  0.89616000  1.0
  Hg  Hg3  1  0.75000000  0.75000000  0.39616000  1.0
  H  H4  1  0.61934000  0.96331000  0.98195000  1.0
  H  H5  1  0.03669000  0.11934000  0.48195000  1.0
  H  H6  1  0.46331000  0.38066000  0.48195000  1.0
  H  H7  1  0.88066000  0.53669000  0.98195000  1.0
  H  H8  1  0.38066000  0.03669000  0.01805000  1.0
  H  H9  1  0.96330000  0.88066000  0.51805000  1.0
  H  H10  1  0.53670000  0.61934000  0.51805000  1.0
  H  H11  1  0.11934000  0.46330000  0.01805000  1.0
  H  H12  1  0.48787000  0.00207000  0.83614000  1.0
  H  H13  1  0.99793000  0.98787000  0.33614000  1.0
  H  H14  1  0.50207000  0.51213000  0.33614000  1.0
  H  H15  1  0.01213000  0.49793000  0.83614000  1.0
  H  H16  1  0.51213000  0.99793000  0.16386000  1.0
  H  H17  1  0.00207000  0.01213000  0.66386000  1.0
  H  H18  1  0.49793000  0.48787000  0.66386000  1.0
  H  H19  1  0.98787000  0.50207000  0.16386000  1.0
  H  H20  1  0.47670000  0.64254000  0.78175000  1.0
  H  H21  1  0.35746000  0.97670000  0.28175000  1.0
  H  H22  1  0.14254000  0.52330000  0.28175000  1.0
  H  H23  1  0.02330000  0.85746000  0.78175000  1.0
  H  H24  1  0.52330000  0.35746000  0.21825000  1.0
  H  H25  1  0.64254000  0.02330000  0.71825000  1.0
  H  H26  1  0.85746000  0.47670000  0.71825000  1.0
  H  H27  1  0.97670000  0.14254000  0.21825000  1.0
  H  H28  1  0.60200000  0.61738000  0.93459000  1.0
  H  H29  1  0.38262000  0.10200000  0.43459000  1.0
  H  H30  1  0.11738000  0.39800000  0.43459000  1.0
  H  H31  1  0.89800000  0.88262000  0.93459000  1.0
  H  H32  1  0.39800000  0.38262000  0.06541000  1.0
  H  H33  1  0.61738000  0.89800000  0.56541000  1.0
  H  H34  1  0.88262000  0.60200000  0.56541000  1.0
  H  H35  1  0.10200000  0.11738000  0.06541000  1.0
  H  H36  1  0.36884000  0.93148000  0.69706000  1.0
  H  H37  1  0.06852000  0.86884000  0.19706000  1.0
  H  H38  1  0.43148000  0.63116000  0.19706000  1.0
  H  H39  1  0.13116000  0.56852000  0.69706000  1.0
  H  H40  1  0.63116000  0.06852000  0.30294000  1.0
  H  H41  1  0.93148000  0.13116000  0.80294000  1.0
  H  H42  1  0.56852000  0.36884000  0.80294000  1.0
  H  H43  1  0.86884000  0.43148000  0.30294000  1.0
  H  H44  1  0.34899000  0.77511000  0.49079000  1.0
  H  H45  1  0.22489000  0.84899000  0.99079000  1.0
  H  H46  1  0.27511000  0.65101000  0.99079000  1.0
  H  H47  1  0.15101000  0.72489000  0.49079000  1.0
  H  H48  1  0.65101000  0.22489000  0.50921000  1.0
  H  H49  1  0.77511000  0.15101000  0.00921000  1.0
  H  H50  1  0.72489000  0.34899000  0.00921000  1.0
  H  H51  1  0.84899000  0.27511000  0.50921000  1.0
  H  H52  1  0.27153000  0.87868000  0.56191000  1.0
  H  H53  1  0.12132000  0.77153000  0.06191000  1.0
  H  H54  1  0.37868000  0.72847000  0.06191000  1.0
  H  H55  1  0.22847000  0.62132000  0.56191000  1.0
  H  H56  1  0.72847000  0.12132000  0.43809000  1.0
  H  H57  1  0.87868000  0.22847000  0.93809000  1.0
  H  H58  1  0.62132000  0.27153000  0.93809000  1.0
  H  H59  1  0.77153000  0.37868000  0.43809000  1.0
  C  C60  1  0.58400000  0.89447000  0.93662000  1.0
  C  C61  1  0.10552000  0.08400000  0.43662000  1.0
  C  C62  1  0.39447000  0.41600000  0.43662000  1.0
  C  C63  1  0.91600000  0.60553000  0.93662000  1.0
  C  C64  1  0.41600000  0.10552000  0.06338000  1.0
  C  C65  1  0.89447000  0.91600000  0.56338000  1.0
  C  C66  1  0.60553000  0.58400000  0.56338000  1.0
  C  C67  1  0.08400000  0.39447000  0.06338000  1.0
  C  C68  1  0.51197000  0.91555000  0.85491000  1.0
  C  C69  1  0.08445000  0.01197000  0.35491000  1.0
  C  C70  1  0.41555000  0.48803000  0.35491000  1.0
  C  C71  1  0.98803000  0.58445000  0.85491000  1.0
  C  C72  1  0.48803000  0.08445000  0.14509000  1.0
  C  C73  1  0.91555000  0.98803000  0.64509000  1.0
  C  C74  1  0.58445000  0.51197000  0.64509000  1.0
  C  C75  1  0.01197000  0.41555000  0.14509000  1.0
  C  C76  1  0.47276000  0.82444000  0.79646000  1.0
  C  C77  1  0.17556000  0.97276000  0.29646000  1.0
  C  C78  1  0.32444000  0.52724000  0.29646000  1.0
  C  C79  1  0.02724000  0.67556000  0.79646000  1.0
  C  C80  1  0.52724000  0.17556000  0.20354000  1.0
  C  C81  1  0.82444000  0.02724000  0.70354000  1.0
  C  C82  1  0.67556000  0.47276000  0.70354000  1.0
  C  C83  1  0.97276000  0.32444000  0.20354000  1.0
  C  C84  1  0.50619000  0.71515000  0.82497000  1.0
  C  C85  1  0.28485000  0.00620000  0.32497000  1.0
  C  C86  1  0.21515000  0.49381000  0.32497000  1.0
  C  C87  1  0.99381000  0.78485000  0.82497000  1.0
  C  C88  1  0.49380000  0.28485000  0.17503000  1.0
  C  C89  1  0.71515000  0.99380000  0.67503000  1.0
  C  C90  1  0.78485000  0.50619000  0.67503000  1.0
  C  C91  1  0.00620000  0.21515000  0.17503000  1.0
  C  C92  1  0.57592000  0.70130000  0.90887000  1.0
  C  C93  1  0.29870000  0.07592000  0.40887000  1.0
  C  C94  1  0.20130000  0.42408000  0.40887000  1.0
  C  C95  1  0.92408000  0.79870000  0.90887000  1.0
  C  C96  1  0.42408000  0.29870000  0.09113000  1.0
  C  C97  1  0.70130000  0.92408000  0.59113000  1.0
  C  C98  1  0.79870000  0.57592000  0.59113000  1.0
  C  C99  1  0.07592000  0.20130000  0.09113000  1.0
  C  C100  1  0.39962000  0.84407000  0.70760000  1.0
  C  C101  1  0.15593000  0.89962000  0.20760000  1.0
  C  C102  1  0.34407000  0.60038000  0.20760000  1.0
  C  C103  1  0.10038000  0.65593000  0.70760000  1.0
  C  C104  1  0.60038000  0.15593000  0.29240000  1.0
  C  C105  1  0.84407000  0.10038000  0.79240000  1.0
  C  C106  1  0.65593000  0.39962000  0.79240000  1.0
  C  C107  1  0.89962000  0.34407000  0.29240000  1.0
  C  C108  1  0.30096000  0.78987000  0.56153000  1.0
  C  C109  1  0.21013000  0.80095000  0.06153000  1.0
  C  C110  1  0.28987000  0.69904000  0.06153000  1.0
  C  C111  1  0.19905000  0.71013000  0.56153000  1.0
  C  C112  1  0.69904000  0.21013000  0.43847000  1.0
  C  C113  1  0.78987000  0.19905000  0.93847000  1.0
  C  C114  1  0.71013000  0.30095000  0.93847000  1.0
  C  C115  1  0.80095000  0.28987000  0.43847000  1.0
  I  I116  1  0.68710000  0.53791000  0.15519000  1.0
  I  I117  1  0.46208000  0.18710000  0.65519000  1.0
  I  I118  1  0.03791000  0.31290000  0.65518000  1.0
  I  I119  1  0.81290000  0.96209000  0.15519000  1.0
  I  I120  1  0.31290000  0.46209000  0.84481000  1.0
  I  I121  1  0.53791000  0.81290000  0.34481000  1.0
  I  I122  1  0.96209000  0.68710000  0.34481000  1.0
  I  I123  1  0.18710000  0.03791000  0.84481000  1.0
  N  N124  1  0.61469000  0.78942000  0.96355000  1.0
  N  N125  1  0.21058000  0.11469000  0.46355000  1.0
  N  N126  1  0.28942000  0.38531000  0.46355000  1.0
  N  N127  1  0.88531000  0.71058000  0.96355000  1.0
  N  N128  1  0.38531000  0.21058000  0.03645000  1.0
  N  N129  1  0.78942000  0.88531000  0.53645000  1.0
  N  N130  1  0.71058000  0.61469000  0.53645000  1.0
  N  N131  1  0.11469000  0.28942000  0.03645000  1.0
  N  N132  1  0.37445000  0.76381000  0.64643000  1.0
  N  N133  1  0.23619000  0.87445000  0.14643000  1.0
  N  N134  1  0.26381000  0.62555000  0.14643000  1.0
  N  N135  1  0.12555000  0.73619000  0.64643000  1.0
  N  N136  1  0.62555000  0.23619000  0.35357000  1.0
  N  N137  1  0.76381000  0.12555000  0.85357000  1.0
  N  N138  1  0.73619000  0.37445000  0.85357000  1.0
  N  N139  1  0.87445000  0.26381000  0.35357000  1.0
