# generated using pymatgen
data_GdH15C15NO8
_symmetry_space_group_name_H-M   'P 1'
_cell_length_a   8.34111000
_cell_length_b   10.26590000
_cell_length_c   11.07480000
_cell_angle_alpha   66.10950000
_cell_angle_beta   70.99680000
_cell_angle_gamma   78.95240000
_symmetry_Int_Tables_number   1
_chemical_formula_structural   GdH15C15NO8
_chemical_formula_sum   'Gd2 H30 C30 N2 O16'
_cell_volume   817.85703573
_cell_formula_units_Z   2
loop_
 _symmetry_equiv_pos_site_id
 _symmetry_equiv_pos_as_xyz
  1  'x, y, z'
loop_
 _atom_site_type_symbol
 _atom_site_label
 _atom_site_symmetry_multiplicity
 _atom_site_fract_x
 _atom_site_fract_y
 _atom_site_fract_z
 _atom_site_occupancy
  Gd  Gd0  1  0.14441000  0.43890000  0.64559000  1.0
  Gd  Gd1  1  0.85559000  0.56110000  0.35441000  1.0
  H  H2  1  0.40425000  0.59520000  0.37986000  1.0
  H  H3  1  0.59575000  0.40480000  0.62014000  1.0
  H  H4  1  0.46624000  0.43724000  0.41863000  1.0
  H  H5  1  0.53376000  0.56276000  0.58137000  1.0
  H  H6  1  0.14104000  0.65252000  0.82170000  1.0
  H  H7  1  0.85896000  0.34748000  0.17831000  1.0
  H  H8  1  0.51000000  0.80509000  0.53326000  1.0
  H  H9  1  0.49000000  0.19491000  0.46674000  1.0
  H  H10  1  0.61455000  0.73735000  0.66627000  1.0
  H  H11  1  0.38545000  0.26265000  0.33372000  1.0
  H  H12  1  0.53437000  0.91961000  0.61161000  1.0
  H  H13  1  0.46564000  0.08039000  0.38838000  1.0
  H  H14  1  0.16809000  0.80492000  0.90429000  1.0
  H  H15  1  0.83191000  0.19509000  0.09571000  1.0
  H  H16  1  0.26054000  0.96352000  0.77069000  1.0
  H  H17  1  0.73947000  0.03649000  0.22930000  1.0
  H  H18  1  0.38020000  0.83647000  0.88178000  1.0
  H  H19  1  0.61981000  0.16353000  0.11821000  1.0
  H  H20  1  0.99291000  0.97437000  0.73420000  1.0
  H  H21  1  0.00709000  0.02562000  0.26580000  1.0
  H  H22  1  0.06138000  0.23474000  0.30706000  1.0
  H  H23  1  0.93862000  0.76526000  0.69294000  1.0
  H  H24  1  0.55761000  0.33584000  0.87467000  1.0
  H  H25  1  0.44239000  0.66416000  0.12533000  1.0
  H  H26  1  0.73820000  0.62969000  0.97836000  1.0
  H  H27  1  0.26179000  0.37031000  0.02164000  1.0
  H  H28  1  0.20079000  0.08484000  0.08295000  1.0
  H  H29  1  0.79921000  0.91517000  0.91705000  1.0
  H  H30  1  0.65925000  0.11815000  0.75473000  1.0
  H  H31  1  0.34075000  0.88185000  0.24527000  1.0
  C  C32  1  0.26124000  0.67424000  0.73966000  1.0
  C  C33  1  0.73876000  0.32576000  0.26035000  1.0
  C  C34  1  0.51128000  0.81094000  0.62963000  1.0
  C  C35  1  0.48872000  0.18906000  0.37037000  1.0
  C  C36  1  0.28551000  0.84928000  0.82777000  1.0
  C  C37  1  0.71450000  0.15072000  0.17223000  1.0
  C  C38  1  0.06284000  0.23688000  0.55159000  1.0
  C  C39  1  0.93716000  0.76312000  0.44841000  1.0
  C  C40  1  0.02838000  0.11606000  0.52376000  1.0
  C  C41  1  0.97162000  0.88393000  0.47624000  1.0
  C  C42  1  0.99545000  0.98407000  0.63203000  1.0
  C  C43  1  0.00455000  0.01592000  0.36797000  1.0
  C  C44  1  0.03352000  0.13186000  0.39091000  1.0
  C  C45  1  0.96648000  0.86814000  0.60909000  1.0
  C  C46  1  0.83461000  0.45862000  0.82979000  1.0
  C  C47  1  0.16538000  0.54139000  0.17021000  1.0
  C  C48  1  0.66224000  0.48077000  0.91807000  1.0
  C  C49  1  0.33776000  0.51923000  0.08193000  1.0
  C  C50  1  0.52917000  0.40726000  0.93045000  1.0
  C  C51  1  0.47083000  0.59274000  0.06954000  1.0
  C  C52  1  0.63309000  0.57423000  0.98774000  1.0
  C  C53  1  0.36690000  0.42577000  0.01226000  1.0
  C  C54  1  0.33531000  0.23430000  0.81757000  1.0
  C  C55  1  0.66469000  0.76570000  0.18243000  1.0
  C  C56  1  0.42128000  0.11259000  0.91053000  1.0
  C  C57  1  0.57871000  0.88741000  0.08946000  1.0
  C  C58  1  0.33191000  0.04626000  0.04855000  1.0
  C  C59  1  0.66809000  0.95374000  0.95145000  1.0
  C  C60  1  0.59037000  0.06567000  0.86200000  1.0
  C  C61  1  0.40963000  0.93434000  0.13799000  1.0
  N  N62  1  0.34843000  0.77375000  0.73261000  1.0
  N  N63  1  0.65157000  0.22625000  0.26739000  1.0
  O  O64  1  0.00631000  0.36486000  0.49250000  1.0
  O  O65  1  0.99369000  0.63514000  0.50749000  1.0
  O  O66  1  0.15058000  0.20899000  0.63484000  1.0
  O  O67  1  0.84942000  0.79101000  0.36516000  1.0
  O  O68  1  0.86297000  0.36418000  0.77688000  1.0
  O  O69  1  0.13703000  0.63582000  0.22312000  1.0
  O  O70  1  0.95196000  0.53750000  0.80670000  1.0
  O  O71  1  0.04803000  0.46250000  0.19330000  1.0
  O  O72  1  0.18227000  0.27555000  0.86540000  1.0
  O  O73  1  0.81773000  0.72445000  0.13460000  1.0
  O  O74  1  0.41598000  0.29613000  0.69088000  1.0
  O  O75  1  0.58402000  0.70387000  0.30912000  1.0
  O  O76  1  0.36010000  0.49905000  0.42925000  1.0
  O  O77  1  0.63990000  0.50095000  0.57076000  1.0
  O  O78  1  0.30803000  0.60695000  0.65850000  1.0
  O  O79  1  0.69197000  0.39305000  0.34151000  1.0
