# generated using pymatgen
data_ZnH36Pt2Au2C20S4(NO2)4
_symmetry_space_group_name_H-M   'P 1'
_cell_length_a   12.45190000
_cell_length_b   12.45190000
_cell_length_c   24.68600000
_cell_angle_alpha   90.00000000
_cell_angle_beta   90.00000000
_cell_angle_gamma   120.00000000
_symmetry_Int_Tables_number   1
_chemical_formula_structural   ZnH36Pt2Au2C20S4(NO2)4
_chemical_formula_sum   'Zn3 H108 Pt6 Au6 C60 S12 N12 O24'
_cell_volume   3314.76393364
_cell_formula_units_Z   3
loop_
 _symmetry_equiv_pos_site_id
 _symmetry_equiv_pos_as_xyz
  1  'x, y, z'
loop_
 _atom_site_type_symbol
 _atom_site_label
 _atom_site_symmetry_multiplicity
 _atom_site_fract_x
 _atom_site_fract_y
 _atom_site_fract_z
 _atom_site_occupancy
  Zn  Zn0  1  0.00000000  0.00000000  0.66666667  1.0
  Zn  Zn1  1  0.00000000  0.00000000  0.33333333  1.0
  Zn  Zn2  1  0.00000000  0.00000000  0.00000000  1.0
  H  H3  1  0.34462000  0.07120000  0.76655000  1.0
  H  H4  1  0.65538000  0.92880000  0.76655000  1.0
  H  H5  1  0.72658000  0.65537000  0.43322000  1.0
  H  H6  1  0.92880000  0.27342000  0.09989000  1.0
  H  H7  1  0.07120000  0.72658000  0.09989000  1.0
  H  H8  1  0.27342000  0.34463000  0.43322000  1.0
  H  H9  1  0.07121000  0.34463000  0.23344000  1.0
  H  H10  1  0.65537000  0.72658000  0.56678000  1.0
  H  H11  1  0.27342000  0.92879000  0.90011000  1.0
  H  H12  1  0.72658000  0.07121000  0.90011000  1.0
  H  H13  1  0.34463000  0.27342000  0.56678000  1.0
  H  H14  1  0.92879000  0.65537000  0.23344000  1.0
  H  H15  1  0.31596000  0.03120000  0.70351000  1.0
  H  H16  1  0.68404000  0.96880000  0.70351000  1.0
  H  H17  1  0.71524000  0.68403000  0.37018000  1.0
  H  H18  1  0.96880000  0.28476000  0.03685000  1.0
  H  H19  1  0.03120000  0.71524000  0.03685000  1.0
  H  H20  1  0.28476000  0.31597000  0.37018000  1.0
  H  H21  1  0.03121000  0.31596000  0.29649000  1.0
  H  H22  1  0.68403000  0.71524000  0.62982000  1.0
  H  H23  1  0.28475000  0.96879000  0.96315000  1.0
  H  H24  1  0.71524000  0.03120000  0.96315000  1.0
  H  H25  1  0.31597000  0.28476000  0.62982000  1.0
  H  H26  1  0.96879000  0.68404000  0.29649000  1.0
  H  H27  1  0.22107000  0.87411000  0.79872000  1.0
  H  H28  1  0.77893000  0.12589000  0.79872000  1.0
  H  H29  1  0.65304000  0.77893000  0.46538000  1.0
  H  H30  1  0.12590000  0.34696000  0.13205000  1.0
  H  H31  1  0.87410000  0.65304000  0.13205000  1.0
  H  H32  1  0.34696000  0.22106000  0.46538000  1.0
  H  H33  1  0.87411000  0.22107000  0.20128000  1.0
  H  H34  1  0.77894000  0.65305000  0.53461000  1.0
  H  H35  1  0.34696000  0.12589000  0.86795000  1.0
  H  H36  1  0.65304000  0.87410000  0.86795000  1.0
  H  H37  1  0.22106000  0.34695000  0.53461000  1.0
  H  H38  1  0.12589000  0.77893000  0.20128000  1.0
  H  H39  1  0.13304000  0.65217000  0.79610000  1.0
  H  H40  1  0.86696000  0.34783000  0.79610000  1.0
  H  H41  1  0.51913000  0.86696000  0.46277000  1.0
  H  H42  1  0.34783000  0.48087000  0.12944000  1.0
  H  H43  1  0.65217000  0.51913000  0.12944000  1.0
  H  H44  1  0.48087000  0.13304000  0.46277000  1.0
  H  H45  1  0.65217000  0.13304000  0.20390000  1.0
  H  H46  1  0.86696000  0.51913000  0.53723000  1.0
  H  H47  1  0.48087000  0.34783000  0.87056000  1.0
  H  H48  1  0.51913000  0.65217000  0.87056000  1.0
  H  H49  1  0.13304000  0.48087000  0.53723000  1.0
  H  H50  1  0.34783000  0.86696000  0.20390000  1.0
  H  H51  1  0.12509000  0.57435000  0.73463000  1.0
  H  H52  1  0.87491000  0.42565000  0.73463000  1.0
  H  H53  1  0.44927000  0.87491000  0.40130000  1.0
  H  H54  1  0.42564000  0.55073000  0.06796000  1.0
  H  H55  1  0.57436000  0.44927000  0.06796000  1.0
  H  H56  1  0.55073000  0.12509000  0.40130000  1.0
  H  H57  1  0.57436000  0.12510000  0.26537000  1.0
  H  H58  1  0.87491000  0.44927000  0.59870000  1.0
  H  H59  1  0.55073000  0.42564000  0.93204000  1.0
  H  H60  1  0.44927000  0.57436000  0.93204000  1.0
  H  H61  1  0.12509000  0.55073000  0.59870000  1.0
  H  H62  1  0.42564000  0.87491000  0.26537000  1.0
  H  H63  1  0.02958000  0.64259000  0.74437000  1.0
  H  H64  1  0.97042000  0.35741000  0.74437000  1.0
  H  H65  1  0.61301000  0.97042000  0.41104000  1.0
  H  H66  1  0.35741000  0.38699000  0.07770000  1.0
  H  H67  1  0.64259000  0.61301000  0.07770000  1.0
  H  H68  1  0.38699000  0.02958000  0.41104000  1.0
  H  H69  1  0.64259000  0.02958000  0.25563000  1.0
  H  H70  1  0.97042000  0.61301000  0.58896000  1.0
  H  H71  1  0.38699000  0.35741000  0.92230000  1.0
  H  H72  1  0.61301000  0.64259000  0.92230000  1.0
  H  H73  1  0.02958000  0.38699000  0.58896000  1.0
  H  H74  1  0.35741000  0.97042000  0.25563000  1.0
  H  H75  1  0.21536000  0.70020000  0.64747000  1.0
  H  H76  1  0.78464000  0.29980000  0.64747000  1.0
  H  H77  1  0.48484000  0.78464000  0.31414000  1.0
  H  H78  1  0.29980000  0.51516000  0.98080000  1.0
  H  H79  1  0.70020000  0.48484000  0.98080000  1.0
  H  H80  1  0.51516000  0.21536000  0.31414000  1.0
  H  H81  1  0.70020000  0.21536000  0.35253000  1.0
  H  H82  1  0.78464000  0.48484000  0.68586000  1.0
  H  H83  1  0.51516000  0.29980000  0.01920000  1.0
  H  H84  1  0.48484000  0.70020000  0.01920000  1.0
  H  H85  1  0.21536000  0.51516000  0.68586000  1.0
  H  H86  1  0.29980000  0.78464000  0.35253000  1.0
  H  H87  1  0.28302000  0.86299000  0.64772000  1.0
  H  H88  1  0.71698000  0.13701000  0.64772000  1.0
  H  H89  1  0.57997000  0.71698000  0.31439000  1.0
  H  H90  1  0.13700000  0.42003000  0.98106000  1.0
  H  H91  1  0.86300000  0.57997000  0.98106000  1.0
  H  H92  1  0.42003000  0.28302000  0.31439000  1.0
  H  H93  1  0.86299000  0.28302000  0.35228000  1.0
  H  H94  1  0.71698000  0.57997000  0.68561000  1.0
  H  H95  1  0.42003000  0.13700000  0.01894000  1.0
  H  H96  1  0.57997000  0.86300000  0.01894000  1.0
  H  H97  1  0.28302000  0.42003000  0.68561000  1.0
  H  H98  1  0.13701000  0.71698000  0.35228000  1.0
  H  H99  1  0.11999000  0.76894000  0.65413000  1.0
  H  H100  1  0.88001000  0.23106000  0.65413000  1.0
  H  H101  1  0.64895000  0.88002000  0.32080000  1.0
  H  H102  1  0.23106000  0.35105000  0.98746000  1.0
  H  H103  1  0.76894000  0.64895000  0.98746000  1.0
  H  H104  1  0.35105000  0.11998000  0.32080000  1.0
  H  H105  1  0.76894000  0.11999000  0.34587000  1.0
  H  H106  1  0.88001000  0.64894000  0.67920000  1.0
  H  H107  1  0.35105000  0.23106000  0.01254000  1.0
  H  H108  1  0.64895000  0.76894000  0.01254000  1.0
  H  H109  1  0.11998000  0.35105000  0.67920000  1.0
  H  H110  1  0.23106000  0.88001000  0.34587000  1.0
  Pt  Pt111  1  0.50000000  0.00000000  0.73909000  1.0
  Pt  Pt112  1  0.50000000  0.50000000  0.40575000  1.0
  Pt  Pt113  1  0.00000000  0.50000000  0.07242000  1.0
  Pt  Pt114  1  0.00000000  0.50000000  0.26091000  1.0
  Pt  Pt115  1  0.50000000  0.50000000  0.59424000  1.0
  Pt  Pt116  1  0.50000000  0.00000000  0.92758000  1.0
  Au  Au117  1  0.39041000  0.78082000  0.83333000  1.0
  Au  Au118  1  0.60959000  0.21918000  0.83333000  1.0
  Au  Au119  1  0.39041000  0.60960000  0.50000000  1.0
  Au  Au120  1  0.21919000  0.60960000  0.16667000  1.0
  Au  Au121  1  0.78081000  0.39040000  0.16667000  1.0
  Au  Au122  1  0.60959000  0.39040000  0.50000000  1.0
  C  C123  1  0.22098000  0.77468000  0.72734000  1.0
  C  C124  1  0.77901000  0.22531000  0.72734000  1.0
  C  C125  1  0.55370000  0.77902000  0.39400000  1.0
  C  C126  1  0.22532000  0.44631000  0.06067000  1.0
  C  C127  1  0.77468000  0.55369000  0.06067000  1.0
  C  C128  1  0.44630000  0.22098000  0.39400000  1.0
  C  C129  1  0.77469000  0.22099000  0.27266000  1.0
  C  C130  1  0.77902000  0.55371000  0.60600000  1.0
  C  C131  1  0.44630000  0.22532000  0.93933000  1.0
  C  C132  1  0.55370000  0.77468000  0.93933000  1.0
  C  C133  1  0.22098000  0.44629000  0.60600000  1.0
  C  C134  1  0.22531000  0.77901000  0.27266000  1.0
  C  C135  1  0.22132000  0.88597000  0.75457000  1.0
  C  C136  1  0.77868000  0.11403000  0.75457000  1.0
  C  C137  1  0.66465000  0.77868000  0.42123000  1.0
  C  C138  1  0.11403000  0.33535000  0.08790000  1.0
  C  C139  1  0.88597000  0.66465000  0.08790000  1.0
  C  C140  1  0.33535000  0.22132000  0.42123000  1.0
  C  C141  1  0.88597000  0.22132000  0.24543000  1.0
  C  C142  1  0.77868000  0.66465000  0.57877000  1.0
  C  C143  1  0.33535000  0.11403000  0.91210000  1.0
  C  C144  1  0.66465000  0.88597000  0.91210000  1.0
  C  C145  1  0.22132000  0.33535000  0.57877000  1.0
  C  C146  1  0.11403000  0.77868000  0.24543000  1.0
  C  C147  1  0.12111000  0.65320000  0.75204000  1.0
  C  C148  1  0.87890000  0.34681000  0.75204000  1.0
  C  C149  1  0.53209000  0.87889000  0.41870000  1.0
  C  C150  1  0.34681000  0.46791000  0.08537000  1.0
  C  C151  1  0.65319000  0.53209000  0.08537000  1.0
  C  C152  1  0.46791000  0.12111000  0.41870000  1.0
  C  C153  1  0.65320000  0.12111000  0.24796000  1.0
  C  C154  1  0.87890000  0.53210000  0.58130000  1.0
  C  C155  1  0.46791000  0.34681000  0.91463000  1.0
  C  C156  1  0.53209000  0.65319000  0.91463000  1.0
  C  C157  1  0.12110000  0.46790000  0.58130000  1.0
  C  C158  1  0.34680000  0.87889000  0.24796000  1.0
  C  C159  1  0.20894000  0.77706000  0.66566000  1.0
  C  C160  1  0.79106000  0.22294000  0.66566000  1.0
  C  C161  1  0.56812000  0.79106000  0.33233000  1.0
  C  C162  1  0.22293000  0.43188000  0.99899000  1.0
  C  C163  1  0.77706000  0.56811000  0.99899000  1.0
  C  C164  1  0.43188000  0.20894000  0.33233000  1.0
  C  C165  1  0.77706000  0.20894000  0.33434000  1.0
  C  C166  1  0.79106000  0.56812000  0.66767000  1.0
  C  C167  1  0.43188000  0.22293000  0.00100000  1.0
  C  C168  1  0.56812000  0.77707000  0.00100000  1.0
  C  C169  1  0.20894000  0.43188000  0.66767000  1.0
  C  C170  1  0.22294000  0.79106000  0.33434000  1.0
  C  C171  1  0.10490000  0.89282000  0.73740000  1.0
  C  C172  1  0.89510000  0.10718000  0.73740000  1.0
  C  C173  1  0.78792000  0.89511000  0.40406000  1.0
  C  C174  1  0.10719000  0.21209000  0.07073000  1.0
  C  C175  1  0.89281000  0.78791000  0.07073000  1.0
  C  C176  1  0.21208000  0.10489000  0.40406000  1.0
  C  C177  1  0.89282000  0.10490000  0.26260000  1.0
  C  C178  1  0.89510000  0.78792000  0.59594000  1.0
  C  C179  1  0.21208000  0.10718000  0.92927000  1.0
  C  C180  1  0.78792000  0.89282000  0.92927000  1.0
  C  C181  1  0.10490000  0.21208000  0.59594000  1.0
  C  C182  1  0.10718000  0.89510000  0.26260000  1.0
  S  S183  1  0.37498000  0.78697000  0.74026000  1.0
  S  S184  1  0.62502000  0.21303000  0.74026000  1.0
  S  S185  1  0.41199000  0.62502000  0.40693000  1.0
  S  S186  1  0.21303000  0.58801000  0.07359000  1.0
  S  S187  1  0.78697000  0.41199000  0.07359000  1.0
  S  S188  1  0.58801000  0.37498000  0.40693000  1.0
  S  S189  1  0.78697000  0.37498000  0.25974000  1.0
  S  S190  1  0.62502000  0.41199000  0.59307000  1.0
  S  S191  1  0.58801000  0.21303000  0.92641000  1.0
  S  S192  1  0.41199000  0.78697000  0.92641000  1.0
  S  S193  1  0.37498000  0.58801000  0.59307000  1.0
  S  S194  1  0.21303000  0.62502000  0.25974000  1.0
  N  N195  1  0.33648000  0.00451000  0.73985000  1.0
  N  N196  1  0.66353000  0.99550000  0.73985000  1.0
  N  N197  1  0.66803000  0.66353000  0.40652000  1.0
  N  N198  1  0.99550000  0.33197000  0.07319000  1.0
  N  N199  1  0.00450000  0.66803000  0.07319000  1.0
  N  N200  1  0.33197000  0.33648000  0.40652000  1.0
  N  N201  1  0.00451000  0.33648000  0.26014000  1.0
  N  N202  1  0.66353000  0.66804000  0.59348000  1.0
  N  N203  1  0.33197000  0.99550000  0.92681000  1.0
  N  N204  1  0.66803000  0.00450000  0.92681000  1.0
  N  N205  1  0.33648000  0.33197000  0.59348000  1.0
  N  N206  1  0.99549000  0.66352000  0.26014000  1.0
  O  O207  1  0.13131000  0.98338000  0.70429000  1.0
  O  O208  1  0.86869000  0.01662000  0.70429000  1.0
  O  O209  1  0.85207000  0.86869000  0.37096000  1.0
  O  O210  1  0.01662000  0.14793000  0.03763000  1.0
  O  O211  1  0.98338000  0.85207000  0.03763000  1.0
  O  O212  1  0.14793000  0.13131000  0.37096000  1.0
  O  O213  1  0.98338000  0.13131000  0.29571000  1.0
  O  O214  1  0.86869000  0.85207000  0.62904000  1.0
  O  O215  1  0.14793000  0.01662000  0.96237000  1.0
  O  O216  1  0.85207000  0.98338000  0.96237000  1.0
  O  O217  1  0.13131000  0.14793000  0.62904000  1.0
  O  O218  1  0.01662000  0.86869000  0.29571000  1.0
  O  O219  1  0.00161000  0.81331000  0.75397000  1.0
  O  O220  1  0.99839000  0.18669000  0.75397000  1.0
  O  O221  1  0.81170000  0.99838000  0.42063000  1.0
  O  O222  1  0.18669000  0.18830000  0.08730000  1.0
  O  O223  1  0.81331000  0.81170000  0.08730000  1.0
  O  O224  1  0.18830000  0.00162000  0.42063000  1.0
  O  O225  1  0.81331000  0.00161000  0.24603000  1.0
  O  O226  1  0.99840000  0.81171000  0.57936000  1.0
  O  O227  1  0.18830000  0.18669000  0.91270000  1.0
  O  O228  1  0.81170000  0.81331000  0.91270000  1.0
  O  O229  1  0.00161000  0.18830000  0.57936000  1.0
  O  O230  1  0.18669000  0.99839000  0.24603000  1.0
