# generated using pymatgen
data_ZnH20C24(NO2)2
_symmetry_space_group_name_H-M   'P 1'
_cell_length_a   8.57483000
_cell_length_b   11.45000000
_cell_length_c   12.93550000
_cell_angle_alpha   114.16700000
_cell_angle_beta   99.39830000
_cell_angle_gamma   101.29600000
_symmetry_Int_Tables_number   1
_chemical_formula_structural   ZnH20C24(NO2)2
_chemical_formula_sum   'Zn2 H40 C48 N4 O8'
_cell_volume   1093.38476692
_cell_formula_units_Z   2
loop_
 _symmetry_equiv_pos_site_id
 _symmetry_equiv_pos_as_xyz
  1  'x, y, z'
loop_
 _atom_site_type_symbol
 _atom_site_label
 _atom_site_symmetry_multiplicity
 _atom_site_fract_x
 _atom_site_fract_y
 _atom_site_fract_z
 _atom_site_occupancy
  Zn  Zn0  1  0.64418000  0.30966000  0.39424000  1.0
  Zn  Zn1  1  0.35582000  0.69034000  0.60576000  1.0
  H  H2  1  0.98439000  0.59856000  0.74785000  1.0
  H  H3  1  0.01561000  0.40144000  0.25215000  1.0
  H  H4  1  0.03060000  0.34966000  0.77061000  1.0
  H  H5  1  0.96939000  0.65034000  0.22939000  1.0
  H  H6  1  0.15514000  0.73389000  0.91498000  1.0
  H  H7  1  0.84486000  0.26611000  0.08502000  1.0
  H  H8  1  0.34439000  0.87544000  0.11411000  1.0
  H  H9  1  0.65561000  0.12456000  0.88589000  1.0
  H  H10  1  0.46667000  0.77139000  0.23064000  1.0
  H  H11  1  0.53333000  0.22861000  0.76936000  1.0
  H  H12  1  0.20254000  0.38105000  0.94453000  1.0
  H  H13  1  0.79746000  0.61895000  0.05547000  1.0
  H  H14  1  0.50801000  0.58020000  0.24945000  1.0
  H  H15  1  0.49199000  0.41980000  0.75055000  1.0
  H  H16  1  0.27400000  0.30689000  0.06112000  1.0
  H  H17  1  0.72600000  0.69311000  0.93888000  1.0
  H  H18  1  0.98863000  0.30847000  0.40456000  1.0
  H  H19  1  0.01137000  0.69154000  0.59544000  1.0
  H  H20  1  0.53759000  0.06348000  0.16566000  1.0
  H  H21  1  0.46242000  0.93652000  0.83434000  1.0
  H  H22  1  0.67429000  0.92364000  0.02284000  1.0
  H  H23  1  0.32571000  0.07636000  0.97716000  1.0
  H  H24  1  0.14388000  0.18547000  0.26943000  1.0
  H  H25  1  0.85612000  0.81453000  0.73057000  1.0
  H  H26  1  0.13822000  0.99861000  0.09095000  1.0
  H  H27  1  0.86178000  0.00139000  0.90905000  1.0
  H  H28  1  0.95078000  0.86644000  0.00452000  1.0
  H  H29  1  0.04922000  0.13357000  0.99548000  1.0
  H  H30  1  0.11445000  0.95333000  0.56870000  1.0
  H  H31  1  0.88555000  0.04667000  0.43130000  1.0
  H  H32  1  0.06041000  0.10619000  0.62946000  1.0
  H  H33  1  0.93959000  0.89381000  0.37054000  1.0
  H  H34  1  0.18888000  0.29730000  0.59836000  1.0
  H  H35  1  0.81112000  0.70270000  0.40163000  1.0
  H  H36  1  0.27525000  0.91456000  0.41703000  1.0
  H  H37  1  0.72475000  0.08544000  0.58296000  1.0
  H  H38  1  0.49515000  0.02974000  0.35489000  1.0
  H  H39  1  0.50485000  0.97025000  0.64510000  1.0
  H  H40  1  0.40961000  0.39641000  0.53002000  1.0
  H  H41  1  0.59039000  0.60359000  0.46998000  1.0
  C  C42  1  0.86372000  0.39548000  0.60645000  1.0
  C  C43  1  0.13628000  0.60451000  0.39355000  1.0
  C  C44  1  0.97218000  0.49389000  0.72499000  1.0
  C  C45  1  0.02782000  0.50611000  0.27501000  1.0
  C  C46  1  0.05199000  0.45715000  0.79970000  1.0
  C  C47  1  0.94800000  0.54285000  0.20030000  1.0
  C  C48  1  0.16404000  0.54625000  0.91641000  1.0
  C  C49  1  0.83596000  0.45375000  0.08359000  1.0
  C  C50  1  0.20614000  0.68712000  0.96533000  1.0
  C  C51  1  0.79386000  0.31288000  0.03467000  1.0
  C  C52  1  0.31377000  0.76683000  0.07721000  1.0
  C  C53  1  0.68623000  0.23317000  0.92279000  1.0
  C  C54  1  0.38246000  0.70885000  0.14257000  1.0
  C  C55  1  0.61754000  0.29115000  0.85743000  1.0
  C  C56  1  0.23397000  0.48990000  0.98308000  1.0
  C  C57  1  0.76603000  0.51010000  0.01692000  1.0
  C  C58  1  0.34287000  0.56893000  0.09642000  1.0
  C  C59  1  0.65713000  0.43107000  0.90358000  1.0
  C  C60  1  0.41345000  0.51080000  0.16725000  1.0
  C  C61  1  0.58655000  0.48920000  0.83275000  1.0
  C  C62  1  0.36951000  0.38035000  0.14105000  1.0
  C  C63  1  0.63049000  0.61965000  0.85895000  1.0
  C  C64  1  0.44076000  0.32383000  0.21521000  1.0
  C  C65  1  0.55924000  0.67617000  0.78479000  1.0
  C  C66  1  0.92385000  0.22154000  0.32003000  1.0
  C  C67  1  0.07615000  0.77846000  0.67997000  1.0
  C  C68  1  0.67112000  0.08185000  0.18612000  1.0
  C  C69  1  0.32888000  0.91815000  0.81388000  1.0
  C  C70  1  0.74766000  0.00682000  0.10780000  1.0
  C  C71  1  0.25234000  0.99319000  0.89220000  1.0
  C  C72  1  0.00920000  0.15253000  0.24509000  1.0
  C  C73  1  0.99080000  0.84747000  0.75492000  1.0
  C  C74  1  0.92076000  0.04368000  0.13602000  1.0
  C  C75  1  0.07925000  0.95632000  0.86398000  1.0
  C  C76  1  0.00713000  0.97548000  0.04768000  1.0
  C  C77  1  0.99287000  0.02453000  0.95232000  1.0
  C  C78  1  0.08114000  0.03212000  0.55019000  1.0
  C  C79  1  0.91886000  0.96788000  0.44981000  1.0
  C  C80  1  0.21574000  0.09760000  0.51393000  1.0
  C  C81  1  0.78426000  0.90239000  0.48607000  1.0
  C  C82  1  0.25384000  0.23413000  0.54455000  1.0
  C  C83  1  0.74616000  0.76587000  0.45545000  1.0
  C  C84  1  0.30214000  0.02153000  0.44295000  1.0
  C  C85  1  0.69786000  0.97847000  0.55705000  1.0
  C  C86  1  0.42269000  0.08456000  0.40792000  1.0
  C  C87  1  0.57731000  0.91543000  0.59208000  1.0
  C  C88  1  0.37582000  0.28982000  0.50545000  1.0
  C  C89  1  0.62418000  0.71018000  0.49455000  1.0
  N  N90  1  0.75744000  0.18807000  0.29032000  1.0
  N  N91  1  0.24256000  0.81193000  0.70968000  1.0
  N  N92  1  0.45937000  0.21624000  0.43850000  1.0
  N  N93  1  0.54063000  0.78376000  0.56150000  1.0
  O  O94  1  0.83755000  0.27162000  0.57028000  1.0
  O  O95  1  0.16245000  0.72838000  0.42972000  1.0
  O  O96  1  0.80131000  0.44928000  0.54404000  1.0
  O  O97  1  0.19869000  0.55072000  0.45596000  1.0
  O  O98  1  0.55808000  0.40510000  0.31071000  1.0
  O  O99  1  0.44192000  0.59490000  0.68929000  1.0
  O  O100  1  0.38439000  0.19996000  0.18217000  1.0
  O  O101  1  0.61561000  0.80004000  0.81783000  1.0
