# generated using pymatgen
data_ZnH6(CO)3
_symmetry_space_group_name_H-M   'P 1'
_cell_length_a   6.42899000
_cell_length_b   8.04137000
_cell_length_c   8.67575000
_cell_angle_alpha   93.73520000
_cell_angle_beta   90.00000000
_cell_angle_gamma   89.99990000
_symmetry_Int_Tables_number   1
_chemical_formula_structural   ZnH6(CO)3
_chemical_formula_sum   'Zn4 H24 C12 O12'
_cell_volume   447.56519695
_cell_formula_units_Z   4
loop_
 _symmetry_equiv_pos_site_id
 _symmetry_equiv_pos_as_xyz
  1  'x, y, z'
loop_
 _atom_site_type_symbol
 _atom_site_label
 _atom_site_symmetry_multiplicity
 _atom_site_fract_x
 _atom_site_fract_y
 _atom_site_fract_z
 _atom_site_occupancy
  Zn  Zn0  1  0.92464000  0.55256000  0.83735000  1.0
  Zn  Zn1  1  0.42464000  0.44744000  0.66265000  1.0
  Zn  Zn2  1  0.07536000  0.44744000  0.16265000  1.0
  Zn  Zn3  1  0.57536000  0.55256000  0.33735000  1.0
  H  H4  1  0.84330000  0.13617000  0.03555000  1.0
  H  H5  1  0.34330000  0.86383000  0.46445000  1.0
  H  H6  1  0.15670000  0.86382000  0.96445000  1.0
  H  H7  1  0.65670000  0.13617000  0.53555000  1.0
  H  H8  1  0.88406000  0.13022000  0.83182000  1.0
  H  H9  1  0.38406000  0.86978000  0.66818000  1.0
  H  H10  1  0.11594000  0.86978000  0.16818000  1.0
  H  H11  1  0.61594000  0.13022000  0.33182000  1.0
  H  H12  1  0.58975000  0.36053000  0.02411000  1.0
  H  H13  1  0.08975000  0.63948000  0.47589000  1.0
  H  H14  1  0.41025000  0.63947000  0.97589000  1.0
  H  H15  1  0.91025000  0.36053000  0.52411000  1.0
  H  H16  1  0.42109000  0.10292000  0.95516000  1.0
  H  H17  1  0.92108000  0.89709000  0.54484000  1.0
  H  H18  1  0.57891000  0.89708000  0.04484000  1.0
  H  H19  1  0.07891000  0.10291000  0.45516000  1.0
  H  H20  1  0.55424000  0.07610000  0.77435000  1.0
  H  H21  1  0.05424000  0.92389000  0.72565000  1.0
  H  H22  1  0.44576000  0.92389000  0.22565000  1.0
  H  H23  1  0.94576000  0.07610000  0.27435000  1.0
  H  H24  1  0.19239000  0.27636000  0.85562000  1.0
  H  H25  1  0.69238000  0.72364000  0.64438000  1.0
  H  H26  1  0.80761000  0.72364000  0.14438000  1.0
  H  H27  1  0.30761000  0.27636000  0.35562000  1.0
  C  C28  1  0.85161000  0.21360000  0.93522000  1.0
  C  C29  1  0.35161000  0.78640000  0.56478000  1.0
  C  C30  1  0.14839000  0.78640000  0.06478000  1.0
  C  C31  1  0.64839000  0.21360000  0.43522000  1.0
  C  C32  1  0.64182000  0.29938000  0.91254000  1.0
  C  C33  1  0.14182000  0.70062000  0.58746000  1.0
  C  C34  1  0.35818000  0.70062000  0.08746000  1.0
  C  C35  1  0.85818000  0.29938000  0.41254000  1.0
  C  C36  1  0.48001000  0.16822000  0.85646000  1.0
  C  C37  1  0.98001000  0.83178000  0.64353000  1.0
  C  C38  1  0.51999000  0.83178000  0.14354000  1.0
  C  C39  1  0.01999000  0.16822000  0.35646000  1.0
  O  O40  1  0.01638000  0.33199000  0.95295000  1.0
  O  O41  1  0.51637000  0.66802000  0.54705000  1.0
  O  O42  1  0.98363000  0.66802000  0.04705000  1.0
  O  O43  1  0.48363000  0.33198000  0.45295000  1.0
  O  O44  1  0.66510000  0.42194000  0.80278000  1.0
  O  O45  1  0.16510000  0.57807000  0.69722000  1.0
  O  O46  1  0.33490000  0.57807000  0.19723000  1.0
  O  O47  1  0.83490000  0.42193000  0.30278000  1.0
  O  O48  1  0.30986000  0.23928000  0.77728000  1.0
  O  O49  1  0.80985000  0.76072000  0.72272000  1.0
  O  O50  1  0.69015000  0.76072000  0.22272000  1.0
  O  O51  1  0.19014000  0.23928000  0.27728000  1.0
