# generated using pymatgen
data_AlH5C15O7F2
_symmetry_space_group_name_H-M   'P 1'
_cell_length_a   6.66297000
_cell_length_b   19.35980000
_cell_length_c   22.05760000
_cell_angle_alpha   99.05510000
_cell_angle_beta   89.63720000
_cell_angle_gamma   89.81820000
_symmetry_Int_Tables_number   1
_chemical_formula_structural   AlH5C15O7F2
_chemical_formula_sum   'Al4 H20 C60 O28 F8'
_cell_volume   2809.75191009
_cell_formula_units_Z   4
loop_
 _symmetry_equiv_pos_site_id
 _symmetry_equiv_pos_as_xyz
  1  'x, y, z'
loop_
 _atom_site_type_symbol
 _atom_site_label
 _atom_site_symmetry_multiplicity
 _atom_site_fract_x
 _atom_site_fract_y
 _atom_site_fract_z
 _atom_site_occupancy
  Al  Al0  1  0.89038000  0.50023000  0.50054000  1.0
  Al  Al1  1  0.39053000  0.49968000  0.49963000  1.0
  Al  Al2  1  0.31964000  0.99968000  0.00035000  1.0
  Al  Al3  1  0.81965000  0.00013000  0.99982000  1.0
  H  H4  1  0.85023000  0.33658000  0.74478000  1.0
  H  H5  1  0.35185000  0.66316000  0.25561000  1.0
  H  H6  1  0.40642000  0.23759000  0.67507000  1.0
  H  H7  1  0.90381000  0.76236000  0.32463000  1.0
  H  H8  1  0.17930000  0.73545000  0.54047000  1.0
  H  H9  1  0.74165000  0.26775000  0.45610000  1.0
  H  H10  1  0.17309000  0.85041000  0.61030000  1.0
  H  H11  1  0.74537000  0.15250000  0.38652000  1.0
  H  H12  1  0.05863000  0.63726000  0.79088000  1.0
  H  H13  1  0.56831000  0.36307000  0.20849000  1.0
  H  H14  1  0.11589000  0.92903000  0.82185000  1.0
  H  H15  1  0.64327000  0.07165000  0.17727000  1.0
  H  H16  1  0.99157000  0.53535000  0.89394000  1.0
  H  H17  1  0.51706000  0.46509000  0.10492000  1.0
  H  H18  1  0.69287000  0.11774000  0.72482000  1.0
  H  H19  1  0.18871000  0.88237000  0.27480000  1.0
  H  H20  1  0.63680000  0.51814000  0.58111000  1.0
  H  H21  1  0.14120000  0.48058000  0.41918000  1.0
  H  H22  1  0.56926000  0.01392000  0.92429000  1.0
  H  H23  1  0.06693000  0.98543000  0.07571000  1.0
  C  C24  1  0.64630000  0.39373000  0.42616000  1.0
  C  C25  1  0.13645000  0.60664000  0.57339000  1.0
  C  C26  1  0.63918000  0.57988000  0.42606000  1.0
  C  C27  1  0.14265000  0.42017000  0.57417000  1.0
  C  C28  1  0.96619000  0.25558000  0.79092000  1.0
  C  C29  1  0.46699000  0.74433000  0.20945000  1.0
  C  C30  1  0.11378000  0.20425000  0.79547000  1.0
  C  C31  1  0.61327000  0.79582000  0.20479000  1.0
  C  C32  1  0.27499000  0.19853000  0.75222000  1.0
  C  C33  1  0.77337000  0.80152000  0.24775000  1.0
  C  C34  1  0.28262000  0.24242000  0.70785000  1.0
  C  C35  1  0.78093000  0.75752000  0.29203000  1.0
  C  C36  1  0.13036000  0.29219000  0.70403000  1.0
  C  C37  1  0.62984000  0.70768000  0.29604000  1.0
  C  C38  1  0.97002000  0.29859000  0.74652000  1.0
  C  C39  1  0.47074000  0.70123000  0.25378000  1.0
  C  C40  1  0.09628000  0.16264000  0.84214000  1.0
  C  C41  1  0.59548000  0.83751000  0.15822000  1.0
  C  C42  1  0.13704000  0.33538000  0.65793000  1.0
  C  C43  1  0.63623000  0.66451000  0.34215000  1.0
  C  C44  1  0.14063000  0.37295000  0.61858000  1.0
  C  C45  1  0.63950000  0.62703000  0.38157000  1.0
  C  C46  1  0.07547000  0.12834000  0.88344000  1.0
  C  C47  1  0.57402000  0.87177000  0.11696000  1.0
  C  C48  1  0.15658000  0.80167000  0.62855000  1.0
  C  C49  1  0.70931000  0.20050000  0.36898000  1.0
  C  C50  1  0.13715000  0.67615000  0.61464000  1.0
  C  C51  1  0.65251000  0.32487000  0.38417000  1.0
  C  C52  1  0.04494000  0.76383000  0.91478000  1.0
  C  C53  1  0.53856000  0.23595000  0.08546000  1.0
  C  C54  1  0.04006000  0.69594000  0.88034000  1.0
  C  C55  1  0.54133000  0.30407000  0.11950000  1.0
  C  C56  1  0.06259000  0.68961000  0.81671000  1.0
  C  C57  1  0.56706000  0.31056000  0.18291000  1.0
  C  C58  1  0.08840000  0.74770000  0.78610000  1.0
  C  C59  1  0.59394000  0.25251000  0.21347000  1.0
  C  C60  1  0.09163000  0.81588000  0.82263000  1.0
  C  C61  1  0.59899000  0.18426000  0.17700000  1.0
  C  C62  1  0.11086000  0.74222000  0.71976000  1.0
  C  C63  1  0.62307000  0.25830000  0.27949000  1.0
  C  C64  1  0.13280000  0.80436000  0.69248000  1.0
  C  C65  1  0.66824000  0.19697000  0.30591000  1.0
  C  C66  1  0.13111000  0.87004000  0.73249000  1.0
  C  C67  1  0.67148000  0.13129000  0.26593000  1.0
  C  C68  1  0.11323000  0.87708000  0.79445000  1.0
  C  C69  1  0.63698000  0.12358000  0.20469000  1.0
  C  C70  1  0.11368000  0.67936000  0.67738000  1.0
  C  C71  1  0.61186000  0.32082000  0.32224000  1.0
  C  C72  1  0.15984000  0.73824000  0.58990000  1.0
  C  C73  1  0.70584000  0.26395000  0.40755000  1.0
  C  C74  1  0.07051000  0.82242000  0.88714000  1.0
  C  C75  1  0.56728000  0.17740000  0.11297000  1.0
  C  C76  1  0.56930000  0.91832000  0.07231000  1.0
  C  C77  1  0.07028000  0.08163000  0.92798000  1.0
  C  C78  1  0.56772000  0.10673000  0.07332000  1.0
  C  C79  1  0.07188000  0.89307000  0.92686000  1.0
  C  C80  1  0.01073000  0.63338000  0.91058000  1.0
  C  C81  1  0.52114000  0.36678000  0.08889000  1.0
  C  C82  1  0.43264000  0.14391000  0.75367000  1.0
  C  C83  1  0.92999000  0.85614000  0.24613000  1.0
  O  O84  1  0.46744000  0.56310000  0.44455000  1.0
  O  O85  1  0.97223000  0.44228000  0.55959000  1.0
  O  O86  1  0.81538000  0.41763000  0.44542000  1.0
  O  O87  1  0.30609000  0.57879000  0.55882000  1.0
  O  O88  1  0.80959000  0.55881000  0.44165000  1.0
  O  O89  1  0.31405000  0.43595000  0.55467000  1.0
  O  O90  1  0.96589000  0.58247000  0.55616000  1.0
  O  O91  1  0.47571000  0.42146000  0.43958000  1.0
  O  O92  1  0.63902000  0.50640000  0.53679000  1.0
  O  O93  1  0.14082000  0.49350000  0.46342000  1.0
  O  O94  1  0.73893000  0.08005000  0.05889000  1.0
  O  O95  1  0.24259000  0.91895000  0.94160000  1.0
  O  O96  1  0.39793000  0.93737000  0.05567000  1.0
  O  O97  1  0.89850000  0.06300000  0.94495000  1.0
  O  O98  1  0.39760000  0.08026000  0.05890000  1.0
  O  O99  1  0.90133000  0.92033000  0.94095000  1.0
  O  O100  1  0.23992000  0.06173000  0.94520000  1.0
  O  O101  1  0.73937000  0.93762000  0.05462000  1.0
  O  O102  1  0.57000000  0.99579000  0.96289000  1.0
  O  O103  1  0.06870000  0.00397000  0.03732000  1.0
  O  O104  1  0.98728000  0.63322000  0.96550000  1.0
  O  O105  1  0.01186000  0.57251000  0.86911000  1.0
  O  O106  1  0.50029000  0.36693000  0.03396000  1.0
  O  O107  1  0.52978000  0.42782000  0.12999000  1.0
  O  O108  1  0.41734000  0.09297000  0.77954000  1.0
  O  O109  1  0.60095000  0.15652000  0.72131000  1.0
  O  O110  1  0.91484000  0.90694000  0.22008000  1.0
  O  O111  1  0.09728000  0.84367000  0.27851000  1.0
  F  F112  1  0.81309000  0.26268000  0.83191000  1.0
  F  F113  1  0.31511000  0.73719000  0.16869000  1.0
  F  F114  1  0.14949000  0.92848000  0.70558000  1.0
  F  F115  1  0.71137000  0.07358000  0.29214000  1.0
  F  F116  1  0.09409000  0.61631000  0.69743000  1.0
  F  F117  1  0.56229000  0.38240000  0.30302000  1.0
  F  F118  1  0.02488000  0.77370000  0.97649000  1.0
  F  F119  1  0.51128000  0.22592000  0.02411000  1.0
