# generated using pymatgen
data_CuH8C6IN2
_symmetry_space_group_name_H-M   'P 1'
_cell_length_a   9.75857000
_cell_length_b   12.60790000
_cell_length_c   13.34040000
_cell_angle_alpha   89.99950000
_cell_angle_beta   102.60300000
_cell_angle_gamma   89.99960000
_symmetry_Int_Tables_number   1
_chemical_formula_structural   CuH8C6IN2
_chemical_formula_sum   'Cu8 H64 C48 I8 N16'
_cell_volume   1601.78964860
_cell_formula_units_Z   8
loop_
 _symmetry_equiv_pos_site_id
 _symmetry_equiv_pos_as_xyz
  1  'x, y, z'
loop_
 _atom_site_type_symbol
 _atom_site_label
 _atom_site_symmetry_multiplicity
 _atom_site_fract_x
 _atom_site_fract_y
 _atom_site_fract_z
 _atom_site_occupancy
  Cu  Cu0  1  0.78059000  0.19108000  0.58164000  1.0
  Cu  Cu1  1  0.71941000  0.69108000  0.91837000  1.0
  Cu  Cu2  1  0.21941000  0.80892000  0.41836000  1.0
  Cu  Cu3  1  0.28059000  0.30892000  0.08163000  1.0
  Cu  Cu4  1  0.88855000  0.98622000  0.54724000  1.0
  Cu  Cu5  1  0.61146000  0.48622000  0.95275000  1.0
  Cu  Cu6  1  0.11145000  0.01378000  0.45275000  1.0
  Cu  Cu7  1  0.38855000  0.51379000  0.04724000  1.0
  H  H8  1  0.16165000  0.44676000  0.75145000  1.0
  H  H9  1  0.33836000  0.94676000  0.74855000  1.0
  H  H10  1  0.83835000  0.55324000  0.24856000  1.0
  H  H11  1  0.66164000  0.05324000  0.25145000  1.0
  H  H12  1  0.02826000  0.27396000  0.72428000  1.0
  H  H13  1  0.47175000  0.77396000  0.77571000  1.0
  H  H14  1  0.97174000  0.72604000  0.27572000  1.0
  H  H15  1  0.52825000  0.22604000  0.22428000  1.0
  H  H16  1  0.70088000  0.43058000  0.40421000  1.0
  H  H17  1  0.79912000  0.93058000  0.09580000  1.0
  H  H18  1  0.29912000  0.56942000  0.59579000  1.0
  H  H19  1  0.20088000  0.06942000  0.90421000  1.0
  H  H20  1  0.60534000  0.47841000  0.49288000  1.0
  H  H21  1  0.89465000  0.97841000  0.00713000  1.0
  H  H22  1  0.39465000  0.52159000  0.50712000  1.0
  H  H23  1  0.10535000  0.02159000  0.99287000  1.0
  H  H24  1  0.63260000  0.33910000  0.48170000  1.0
  H  H25  1  0.86739000  0.83910000  0.01831000  1.0
  H  H26  1  0.36740000  0.66090000  0.51831000  1.0
  H  H27  1  0.13261000  0.16090000  0.98169000  1.0
  H  H28  1  0.89501000  0.68796000  0.54533000  1.0
  H  H29  1  0.60499000  0.18796000  0.95467000  1.0
  H  H30  1  0.10499000  0.31204000  0.45467000  1.0
  H  H31  1  0.39501000  0.81204000  0.04533000  1.0
  H  H32  1  0.72747000  0.64514000  0.56296000  1.0
  H  H33  1  0.77252000  0.14515000  0.93704000  1.0
  H  H34  1  0.27252000  0.35486000  0.43704000  1.0
  H  H35  1  0.22748000  0.85486000  0.06296000  1.0
  H  H36  1  0.78162000  0.61150000  0.44849000  1.0
  H  H37  1  0.71837000  0.11151000  0.05151000  1.0
  H  H38  1  0.21838000  0.38849000  0.55151000  1.0
  H  H39  1  0.28163000  0.88849000  0.94849000  1.0
  H  H40  1  0.33618000  0.05249000  0.34697000  1.0
  H  H41  1  0.16383000  0.55249000  0.15304000  1.0
  H  H42  1  0.66382000  0.94750000  0.65304000  1.0
  H  H43  1  0.83618000  0.44751000  0.84696000  1.0
  H  H44  1  0.58889000  0.11109000  0.39526000  1.0
  H  H45  1  0.91112000  0.61109000  0.10475000  1.0
  H  H46  1  0.41111000  0.88891000  0.60474000  1.0
  H  H47  1  0.08889000  0.38891000  0.89525000  1.0
  H  H48  1  0.48276000  0.31667000  0.70272000  1.0
  H  H49  1  0.01724000  0.81667000  0.79728000  1.0
  H  H50  1  0.51725000  0.68333000  0.29728000  1.0
  H  H51  1  0.98276000  0.18333000  0.20272000  1.0
  H  H52  1  0.65189000  0.25948000  0.71040000  1.0
  H  H53  1  0.84811000  0.75948000  0.78960000  1.0
  H  H54  1  0.34812000  0.74051000  0.28960000  1.0
  H  H55  1  0.15189000  0.24052000  0.21040000  1.0
  H  H56  1  0.52458000  0.19478000  0.76749000  1.0
  H  H57  1  0.97541000  0.69478000  0.73252000  1.0
  H  H58  1  0.47542000  0.80521000  0.23251000  1.0
  H  H59  1  0.02459000  0.30522000  0.26748000  1.0
  H  H60  1  0.29896000  0.12555000  0.72716000  1.0
  H  H61  1  0.20102000  0.62555000  0.77283000  1.0
  H  H62  1  0.70103000  0.87446000  0.27283000  1.0
  H  H63  1  0.79898000  0.37446000  0.22716000  1.0
  H  H64  1  0.14836000  0.12790000  0.62222000  1.0
  H  H65  1  0.35163000  0.62790000  0.87777000  1.0
  H  H66  1  0.85164000  0.87211000  0.37777000  1.0
  H  H67  1  0.64837000  0.37211000  0.12223000  1.0
  H  H68  1  0.24238000  0.24643000  0.66749000  1.0
  H  H69  1  0.25761000  0.74643000  0.83251000  1.0
  H  H70  1  0.75762000  0.75358000  0.33251000  1.0
  H  H71  1  0.74238000  0.25358000  0.16749000  1.0
  C  C72  1  0.81299000  0.42490000  0.56111000  1.0
  C  C73  1  0.68700000  0.92490000  0.93889000  1.0
  C  C74  1  0.18700000  0.57510000  0.43889000  1.0
  C  C75  1  0.31300000  0.07510000  0.06111000  1.0
  C  C76  1  0.88323000  0.52341000  0.58229000  1.0
  C  C77  1  0.61677000  0.02341000  0.91771000  1.0
  C  C78  1  0.11676000  0.47659000  0.41771000  1.0
  C  C79  1  0.38323000  0.97659000  0.08229000  1.0
  C  C80  1  0.05969000  0.44163000  0.69768000  1.0
  C  C81  1  0.44031000  0.94162000  0.80231000  1.0
  C  C82  1  0.94031000  0.55837000  0.30232000  1.0
  C  C83  1  0.55969000  0.05837000  0.19769000  1.0
  C  C84  1  0.98899000  0.34581000  0.68206000  1.0
  C  C85  1  0.51101000  0.84581000  0.81794000  1.0
  C  C86  1  0.01100000  0.65419000  0.31794000  1.0
  C  C87  1  0.48899000  0.15419000  0.18206000  1.0
  C  C88  1  0.68060000  0.41741000  0.48122000  1.0
  C  C89  1  0.81939000  0.91742000  0.01879000  1.0
  C  C90  1  0.31939000  0.58259000  0.51878000  1.0
  C  C91  1  0.18061000  0.08259000  0.98121000  1.0
  C  C92  1  0.81896000  0.62276000  0.53155000  1.0
  C  C93  1  0.68103000  0.12276000  0.96845000  1.0
  C  C94  1  0.18103000  0.37724000  0.46845000  1.0
  C  C95  1  0.31896000  0.87724000  0.03155000  1.0
  C  C96  1  0.48606000  0.18308000  0.60358000  1.0
  C  C97  1  0.01394000  0.68309000  0.89642000  1.0
  C  C98  1  0.51394000  0.81691000  0.39642000  1.0
  C  C99  1  0.98607000  0.31692000  0.10358000  1.0
  C  C100  1  0.34568000  0.14619000  0.57826000  1.0
  C  C101  1  0.15432000  0.64621000  0.92174000  1.0
  C  C102  1  0.65432000  0.85380000  0.42174000  1.0
  C  C103  1  0.84568000  0.35380000  0.07826000  1.0
  C  C104  1  0.38016000  0.08940000  0.42104000  1.0
  C  C105  1  0.11985000  0.58940000  0.07896000  1.0
  C  C106  1  0.61984000  0.91059000  0.57896000  1.0
  C  C107  1  0.88016000  0.41059000  0.92103000  1.0
  C  C108  1  0.51806000  0.12193000  0.44715000  1.0
  C  C109  1  0.98194000  0.62194000  0.05286000  1.0
  C  C110  1  0.48194000  0.87806000  0.55285000  1.0
  C  C111  1  0.01807000  0.37806000  0.94714000  1.0
  C  C112  1  0.53995000  0.24152000  0.70130000  1.0
  C  C113  1  0.96005000  0.74153000  0.79871000  1.0
  C  C114  1  0.46005000  0.75847000  0.29870000  1.0
  C  C115  1  0.03996000  0.25847000  0.20129000  1.0
  C  C116  1  0.25287000  0.16141000  0.65222000  1.0
  C  C117  1  0.24712000  0.66142000  0.84778000  1.0
  C  C118  1  0.74713000  0.83859000  0.34778000  1.0
  C  C119  1  0.75288000  0.33859000  0.15221000  1.0
  I  I120  1  0.88802000  0.14140000  0.41584000  1.0
  I  I121  1  0.61198000  0.64140000  0.08416000  1.0
  I  I122  1  0.11198000  0.85861000  0.58416000  1.0
  I  I123  1  0.38803000  0.35861000  0.91584000  1.0
  I  I124  1  0.89968000  0.06844000  0.73736000  1.0
  I  I125  1  0.60032000  0.56845000  0.76264000  1.0
  I  I126  1  0.10032000  0.93156000  0.26264000  1.0
  I  I127  1  0.39969000  0.43155000  0.23736000  1.0
  N  N128  1  0.86641000  0.33652000  0.61240000  1.0
  N  N129  1  0.63360000  0.83652000  0.88761000  1.0
  N  N130  1  0.13359000  0.66348000  0.38761000  1.0
  N  N131  1  0.36641000  0.16348000  0.11239000  1.0
  N  N132  1  0.00751000  0.53076000  0.64870000  1.0
  N  N133  1  0.49248000  0.03076000  0.85130000  1.0
  N  N134  1  0.99248000  0.46924000  0.35131000  1.0
  N  N135  1  0.50751000  0.96924000  0.14870000  1.0
  N  N136  1  0.57394000  0.16604000  0.53944000  1.0
  N  N137  1  0.92607000  0.66604000  0.96056000  1.0
  N  N138  1  0.42607000  0.83395000  0.46056000  1.0
  N  N139  1  0.07394000  0.33396000  0.03944000  1.0
  N  N140  1  0.29381000  0.09727000  0.48755000  1.0
  N  N141  1  0.20618000  0.59727000  0.01245000  1.0
  N  N142  1  0.70619000  0.90273000  0.51245000  1.0
  N  N143  1  0.79382000  0.40273000  0.98755000  1.0
