# generated using pymatgen
data_AgH5C4S2N2O3
_symmetry_space_group_name_H-M   'P 1'
_cell_length_a   7.70835000
_cell_length_b   11.34070000
_cell_length_c   21.45970000
_cell_angle_alpha   96.76640000
_cell_angle_beta   97.22060000
_cell_angle_gamma   107.26100000
_symmetry_Int_Tables_number   1
_chemical_formula_structural   AgH5C4S2N2O3
_chemical_formula_sum   'Ag8 H40 C32 S16 N16 O24'
_cell_volume   1753.28660840
_cell_formula_units_Z   8
loop_
 _symmetry_equiv_pos_site_id
 _symmetry_equiv_pos_as_xyz
  1  'x, y, z'
loop_
 _atom_site_type_symbol
 _atom_site_label
 _atom_site_symmetry_multiplicity
 _atom_site_fract_x
 _atom_site_fract_y
 _atom_site_fract_z
 _atom_site_occupancy
  Ag  Ag0  1  0.25216000  0.39567000  0.24807000  1.0
  Ag  Ag1  1  0.74784000  0.60432000  0.75193000  1.0
  Ag  Ag2  1  0.36207000  0.69221000  0.29138000  1.0
  Ag  Ag3  1  0.63793000  0.30779000  0.70862000  1.0
  Ag  Ag4  1  0.96184000  0.96206000  0.24498000  1.0
  Ag  Ag5  1  0.03816000  0.03793000  0.75502000  1.0
  Ag  Ag6  1  0.89929000  0.67970000  0.28854000  1.0
  Ag  Ag7  1  0.10071000  0.32030000  0.71146000  1.0
  H  H8  1  0.83507000  0.32710000  0.38667000  1.0
  H  H9  1  0.16493000  0.67291000  0.61333000  1.0
  H  H10  1  0.02195000  0.26569000  0.37360000  1.0
  H  H11  1  0.97804000  0.73431000  0.62640000  1.0
  H  H12  1  0.83320000  0.23783000  0.31055000  1.0
  H  H13  1  0.16680000  0.76217000  0.68945000  1.0
  H  H14  1  0.55104000  0.77153000  0.44156000  1.0
  H  H15  1  0.44896000  0.22848000  0.55844000  1.0
  H  H16  1  0.45640000  0.64560000  0.53873000  1.0
  H  H17  1  0.54360000  0.35440000  0.46127000  1.0
  H  H18  1  0.02001000  0.41350000  0.04192000  1.0
  H  H19  1  0.97999000  0.58650000  0.95808000  1.0
  H  H20  1  0.98548000  0.28874000  0.08827000  1.0
  H  H21  1  0.01452000  0.71126000  0.91174000  1.0
  H  H22  1  0.21326000  0.36483000  0.07325000  1.0
  H  H23  1  0.78674000  0.63517000  0.92675000  1.0
  H  H24  1  0.54968000  0.89603000  0.20567000  1.0
  H  H25  1  0.45032000  0.10397000  0.79433000  1.0
  H  H26  1  0.50423000  0.88286000  0.08065000  1.0
  H  H27  1  0.49577000  0.11714000  0.91935000  1.0
  H  H28  1  0.97240000  0.79386000  0.03710000  1.0
  H  H29  1  0.02760000  0.20614000  0.96290000  1.0
  H  H30  1  0.03607000  0.95186000  0.07747000  1.0
  H  H31  1  0.96393000  0.04814000  0.92253000  1.0
  H  H32  1  0.79840000  0.85741000  0.06346000  1.0
  H  H33  1  0.20161000  0.14259000  0.93654000  1.0
  H  H34  1  0.63045000  0.42498000  0.20414000  1.0
  H  H35  1  0.36955000  0.57502000  0.79586000  1.0
  H  H36  1  0.53392000  0.36138000  0.07895000  1.0
  H  H37  1  0.46608000  0.63862000  0.92104000  1.0
  H  H38  1  0.53460000  0.08133000  0.37923000  1.0
  H  H39  1  0.46540000  0.91867000  0.62077000  1.0
  H  H40  1  0.36927000  0.15647000  0.35002000  1.0
  H  H41  1  0.63072000  0.84353000  0.64998000  1.0
  H  H42  1  0.50759000  0.10651000  0.29824000  1.0
  H  H43  1  0.49241000  0.89349000  0.70176000  1.0
  H  H44  1  0.88201000  0.69772000  0.44105000  1.0
  H  H45  1  0.11800000  0.30228000  0.55895000  1.0
  H  H46  1  0.09119000  0.88560000  0.53567000  1.0
  H  H47  1  0.90882000  0.11440000  0.46433000  1.0
  C  C48  1  0.91887000  0.30453000  0.35224000  1.0
  C  C49  1  0.08113000  0.69547000  0.64776000  1.0
  C  C50  1  0.18972000  0.53090000  0.38733000  1.0
  C  C51  1  0.81028000  0.46910000  0.61267000  1.0
  C  C52  1  0.43611000  0.68733000  0.43981000  1.0
  C  C53  1  0.56388000  0.31268000  0.56019000  1.0
  C  C54  1  0.38924000  0.62581000  0.48924000  1.0
  C  C55  1  0.61076000  0.37419000  0.51076000  1.0
  C  C56  1  0.08210000  0.37756000  0.08129000  1.0
  C  C57  1  0.91790000  0.62244000  0.91871000  1.0
  C  C58  1  0.26922000  0.61886000  0.14300000  1.0
  C  C59  1  0.73078000  0.38114000  0.85700000  1.0
  C  C60  1  0.46247000  0.81553000  0.17134000  1.0
  C  C61  1  0.53753000  0.18447000  0.82866000  1.0
  C  C62  1  0.44059000  0.80994000  0.10685000  1.0
  C  C63  1  0.55941000  0.19006000  0.89315000  1.0
  C  C64  1  0.94094000  0.85698000  0.07362000  1.0
  C  C65  1  0.05907000  0.14302000  0.92638000  1.0
  C  C66  1  0.82705000  0.66591000  0.14088000  1.0
  C  C67  1  0.17295000  0.33409000  0.85912000  1.0
  C  C68  1  0.67279000  0.48499000  0.16942000  1.0
  C  C69  1  0.32721000  0.51501000  0.83058000  1.0
  C  C70  1  0.62271000  0.45126000  0.10500000  1.0
  C  C71  1  0.37729000  0.54874000  0.89500000  1.0
  C  C72  1  0.43627000  0.08597000  0.33875000  1.0
  C  C73  1  0.56373000  0.91404000  0.66125000  1.0
  C  C74  1  0.18462000  0.89614000  0.38093000  1.0
  C  C75  1  0.81537000  0.10386000  0.61907000  1.0
  C  C76  1  0.99591000  0.77875000  0.43727000  1.0
  C  C77  1  0.00409000  0.22124000  0.56273000  1.0
  C  C78  1  0.10099000  0.87185000  0.48540000  1.0
  C  C79  1  0.89902000  0.12815000  0.51460000  1.0
  S  S80  1  0.03077000  0.44295000  0.32113000  1.0
  S  S81  1  0.96922000  0.55705000  0.67887000  1.0
  S  S82  1  0.19732000  0.49688000  0.46345000  1.0
  S  S83  1  0.80267000  0.50312000  0.53655000  1.0
  S  S84  1  0.11391000  0.48062000  0.15516000  1.0
  S  S85  1  0.88609000  0.51938000  0.84484000  1.0
  S  S86  1  0.29398000  0.66545000  0.06971000  1.0
  S  S87  1  0.70602000  0.33454000  0.93029000  1.0
  S  S88  1  0.98769000  0.81399000  0.15073000  1.0
  S  S89  1  0.01231000  0.18601000  0.84927000  1.0
  S  S90  1  0.72237000  0.57415000  0.06770000  1.0
  S  S91  1  0.27764000  0.42585000  0.93230000  1.0
  S  S92  1  0.26753000  0.93377000  0.31189000  1.0
  S  S93  1  0.73247000  0.06623000  0.68811000  1.0
  S  S94  1  0.26566000  0.98031000  0.45648000  1.0
  S  S95  1  0.73434000  0.01968000  0.54352000  1.0
  N  N96  1  0.27534000  0.15640000  0.18300000  1.0
  N  N97  1  0.72466000  0.84359000  0.81700000  1.0
  N  N98  1  0.58333000  0.46530000  0.35388000  1.0
  N  N99  1  0.41667000  0.53470000  0.64612000  1.0
  N  N100  1  0.75403000  0.93795000  0.35539000  1.0
  N  N101  1  0.24597000  0.06205000  0.64461000  1.0
  N  N102  1  0.80127000  0.15270000  0.17846000  1.0
  N  N103  1  0.19873000  0.84730000  0.82154000  1.0
  N  N104  1  0.32310000  0.63319000  0.38205000  1.0
  N  N105  1  0.67690000  0.36681000  0.61795000  1.0
  N  N106  1  0.36679000  0.70739000  0.19143000  1.0
  N  N107  1  0.63321000  0.29262000  0.80857000  1.0
  N  N108  1  0.78700000  0.60629000  0.18948000  1.0
  N  N109  1  0.21299000  0.39371000  0.81051000  1.0
  N  N110  1  0.04352000  0.79290000  0.37807000  1.0
  N  N111  1  0.95648000  0.20710000  0.62193000  1.0
  O  O112  1  0.19368000  0.16876000  0.23143000  1.0
  O  O113  1  0.80632000  0.83124000  0.76857000  1.0
  O  O114  1  0.34456000  0.25275000  0.15910000  1.0
  O  O115  1  0.65544000  0.74724000  0.84090000  1.0
  O  O116  1  0.28485000  0.05139000  0.16139000  1.0
  O  O117  1  0.71515000  0.94861000  0.83861000  1.0
  O  O118  1  0.57389000  0.50968000  0.30127000  1.0
  O  O119  1  0.42611000  0.49032000  0.69873000  1.0
  O  O120  1  0.44892000  0.37582000  0.36187000  1.0
  O  O121  1  0.55108000  0.62418000  0.63813000  1.0
  O  O122  1  0.72558000  0.51168000  0.39551000  1.0
  O  O123  1  0.27441000  0.48832000  0.60449000  1.0
  O  O124  1  0.69938000  0.85690000  0.30398000  1.0
  O  O125  1  0.30062000  0.14309000  0.69602000  1.0
  O  O126  1  0.90078000  0.02841000  0.36000000  1.0
  O  O127  1  0.09921000  0.97159000  0.64000000  1.0
  O  O128  1  0.66107000  0.92672000  0.39972000  1.0
  O  O129  1  0.33894000  0.07329000  0.60028000  1.0
  O  O130  1  0.76071000  0.08892000  0.22353000  1.0
  O  O131  1  0.23929000  0.91108000  0.77648000  1.0
  O  O132  1  0.82039000  0.09962000  0.12588000  1.0
  O  O133  1  0.17961000  0.90038000  0.87412000  1.0
  O  O134  1  0.82266000  0.26851000  0.18846000  1.0
  O  O135  1  0.17734000  0.73149000  0.81154000  1.0
