# generated using pymatgen
data_ZnH10C12N4O
_symmetry_space_group_name_H-M   'P 1'
_cell_length_a   13.02900000
_cell_length_b   13.03820000
_cell_length_c   14.64467871
_cell_angle_alpha   115.46721587
_cell_angle_beta   115.40751997
_cell_angle_gamma   79.60700000
_symmetry_Int_Tables_number   1
_chemical_formula_structural   ZnH10C12N4O
_chemical_formula_sum   'Zn4 H40 C48 N16 O4'
_cell_volume   2028.76480128
_cell_formula_units_Z   4
loop_
 _symmetry_equiv_pos_site_id
 _symmetry_equiv_pos_as_xyz
  1  'x, y, z'
loop_
 _atom_site_type_symbol
 _atom_site_label
 _atom_site_symmetry_multiplicity
 _atom_site_fract_x
 _atom_site_fract_y
 _atom_site_fract_z
 _atom_site_occupancy
  Zn  Zn0  1  0.62440000  0.37557000  0.99986000  1.0
  Zn  Zn1  1  0.35477000  0.64534000  0.00010000  1.0
  Zn  Zn2  1  0.50659000  0.52786000  0.85266000  1.0
  Zn  Zn3  1  0.47189000  0.49322000  0.14722000  1.0
  H  H4  1  0.85436000  0.50831000  0.16496000  1.0
  H  H5  1  0.42944000  0.05146000  0.28168000  1.0
  H  H6  1  0.94761000  0.57097000  0.71837000  1.0
  H  H7  1  0.73462000  0.41984000  0.57372000  1.0
  H  H8  1  0.58048000  0.26462000  0.42592000  1.0
  H  H9  1  0.76227000  0.53911000  0.55656000  1.0
  H  H10  1  0.46131000  0.23702000  0.44340000  1.0
  H  H11  1  0.49179000  0.14555000  0.83470000  1.0
  H  H12  1  0.27167000  0.05738000  0.92034000  1.0
  H  H13  1  0.94254000  0.72867000  0.07981000  1.0
  H  H14  1  0.44707000  0.96462000  0.81529000  1.0
  H  H15  1  0.03504000  0.55344000  0.18476000  1.0
  H  H16  1  0.51218000  0.87212000  0.15792000  1.0
  H  H17  1  0.12731000  0.48851000  0.84234000  1.0
  H  H18  1  0.48727000  0.73483000  0.76470000  1.0
  H  H19  1  0.26458000  0.51261000  0.23498000  1.0
  H  H20  1  0.63003000  0.42364000  0.36185000  1.0
  H  H21  1  0.57629000  0.36959000  0.63787000  1.0
  H  H22  1  0.28757000  0.88596000  0.96216000  1.0
  H  H23  1  0.11468000  0.71352000  0.03899000  1.0
  H  H24  1  0.83984000  0.28083000  0.17392000  1.0
  H  H25  1  0.72021000  0.16054000  0.82614000  1.0
  H  H26  1  0.70489000  0.71906000  0.97818000  1.0
  H  H27  1  0.14396000  0.24114000  0.48254000  1.0
  H  H28  1  0.28093000  0.29486000  0.02192000  1.0
  H  H29  1  0.97301000  0.22067000  0.31977000  1.0
  H  H30  1  0.78046000  0.02736000  0.68031000  1.0
  H  H31  1  0.76521000  0.53654000  0.77071000  1.0
  H  H32  1  0.89414000  0.61591000  0.86787000  1.0
  H  H33  1  0.85857000  0.49984000  0.88420000  1.0
  H  H34  1  0.75971000  0.85611000  0.51756000  1.0
  H  H35  1  0.46346000  0.23366000  0.22888000  1.0
  H  H36  1  0.38412000  0.10473000  0.13190000  1.0
  H  H37  1  0.50021000  0.14027000  0.11544000  1.0
  H  H38  1  0.83457000  0.71650000  0.40836000  1.0
  H  H39  1  0.79649000  0.56989000  0.32183000  1.0
  H  H40  1  0.82865000  0.62145000  0.46604000  1.0
  H  H41  1  0.28345000  0.16544000  0.59183000  1.0
  H  H42  1  0.43002000  0.20381000  0.67850000  1.0
  H  H43  1  0.37867000  0.17126000  0.53414000  1.0
  C  C44  1  0.80042000  0.55265000  0.11306000  1.0
  C  C45  1  0.14428000  0.61842000  0.14586000  1.0
  C  C46  1  0.38199000  0.85569000  0.85442000  1.0
  C  C47  1  0.77298000  0.33924000  0.30741000  1.0
  C  C48  1  0.66125000  0.22705000  0.69247000  1.0
  C  C49  1  0.86945000  0.38587000  0.51016000  1.0
  C  C50  1  0.61462000  0.13012000  0.48966000  1.0
  C  C51  1  0.44741000  0.19940000  0.88675000  1.0
  C  C52  1  0.86662000  0.32895000  0.40350000  1.0
  C  C53  1  0.67181000  0.13340000  0.59640000  1.0
  C  C54  1  0.96912000  0.27248000  0.39987000  1.0
  C  C55  1  0.72841000  0.03106000  0.60020000  1.0
  C  C56  1  0.06770000  0.28320000  0.49403000  1.0
  C  C57  1  0.71753000  0.93227000  0.50607000  1.0
  C  C58  1  0.07352000  0.35254000  0.60190000  1.0
  C  C59  1  0.64798000  0.92597000  0.39814000  1.0
  C  C60  1  0.96818000  0.39782000  0.60407000  1.0
  C  C61  1  0.60265000  0.03120000  0.39583000  1.0
  C  C62  1  0.91444000  0.48302000  0.68018000  1.0
  C  C63  1  0.51733000  0.08468000  0.31960000  1.0
  C  C64  1  0.53796000  0.80837000  0.19275000  1.0
  C  C65  1  0.19105000  0.46256000  0.80735000  1.0
  C  C66  1  0.79968000  0.46346000  0.57402000  1.0
  C  C67  1  0.61119000  0.82026000  0.30095000  1.0
  C  C68  1  0.53691000  0.19957000  0.42570000  1.0
  C  C69  1  0.33315000  0.05928000  0.88852000  1.0
  C  C70  1  0.94055000  0.66728000  0.11163000  1.0
  C  C71  1  0.38614000  0.96194000  0.84740000  1.0
  C  C72  1  0.03789000  0.61433000  0.15275000  1.0
  C  C73  1  0.17917000  0.38931000  0.69910000  1.0
  C  C74  1  0.43886000  0.75456000  0.81490000  1.0
  C  C75  1  0.24519000  0.56121000  0.18507000  1.0
  C  C76  1  0.66680000  0.39077000  0.30079000  1.0
  C  C77  1  0.60930000  0.33293000  0.69897000  1.0
  C  C78  1  0.33627000  0.83177000  0.91465000  1.0
  C  C79  1  0.16857000  0.66445000  0.08611000  1.0
  C  C80  1  0.77375000  0.31807000  0.20504000  1.0
  C  C81  1  0.68256000  0.22639000  0.79489000  1.0
  C  C82  1  0.61594000  0.70859000  0.29555000  1.0
  C  C83  1  0.29099000  0.38414000  0.70446000  1.0
  C  C84  1  0.72377000  0.65964000  0.01732000  1.0
  C  C85  1  0.34039000  0.27602000  0.98269000  1.0
  C  C86  1  0.82895000  0.63499000  0.08947000  1.0
  C  C87  1  0.36522000  0.17085000  0.91058000  1.0
  C  C88  1  0.85503000  0.53033000  0.82396000  1.0
  C  C89  1  0.46971000  0.14381000  0.17569000  1.0
  C  C90  1  0.79038000  0.64304000  0.39377000  1.0
  C  C91  1  0.35695000  0.20959000  0.60641000  1.0
  N  N92  1  0.68846000  0.52931000  0.05726000  1.0
  N  N93  1  0.32247000  0.57238000  0.15160000  1.0
  N  N94  1  0.42767000  0.67749000  0.84851000  1.0
  N  N95  1  0.61002000  0.39989000  0.20329000  1.0
  N  N96  1  0.60004000  0.38975000  0.79646000  1.0
  N  N97  1  0.36377000  0.72596000  0.91083000  1.0
  N  N98  1  0.27436000  0.63669000  0.08979000  1.0
  N  N99  1  0.47057000  0.31139000  0.94247000  1.0
  N  N100  1  0.67660000  0.35458000  0.14350000  1.0
  N  N101  1  0.64566000  0.32338000  0.85633000  1.0
  N  N102  1  0.54869000  0.63839000  0.19395000  1.0
  N  N103  1  0.36124000  0.45134000  0.80609000  1.0
  N  N104  1  0.64100000  0.59448000  0.99769000  1.0
  N  N105  1  0.40536000  0.35885000  0.00213000  1.0
  N  N106  1  0.50084000  0.70032000  0.13087000  1.0
  N  N107  1  0.29920000  0.49944000  0.86917000  1.0
  O  O108  1  0.91570000  0.45173000  0.76196000  1.0
  O  O109  1  0.54846000  0.08329000  0.23764000  1.0
  O  O110  1  0.67256000  0.66930000  0.37686000  1.0
  O  O111  1  0.33039000  0.32730000  0.62315000  1.0
