# generated using pymatgen
data_CdH20C18N4O5
_symmetry_space_group_name_H-M   'P 1'
_cell_length_a   6.71970000
_cell_length_b   17.38600000
_cell_length_c   17.91180000
_cell_angle_alpha   89.99980000
_cell_angle_beta   89.99990000
_cell_angle_gamma   89.99980000
_symmetry_Int_Tables_number   1
_chemical_formula_structural   CdH20C18N4O5
_chemical_formula_sum   'Cd4 H80 C72 N16 O20'
_cell_volume   2092.61238386
_cell_formula_units_Z   4
loop_
 _symmetry_equiv_pos_site_id
 _symmetry_equiv_pos_as_xyz
  1  'x, y, z'
loop_
 _atom_site_type_symbol
 _atom_site_label
 _atom_site_symmetry_multiplicity
 _atom_site_fract_x
 _atom_site_fract_y
 _atom_site_fract_z
 _atom_site_occupancy
  Cd  Cd0  1  0.28945000  0.99307000  0.47711000  1.0
  Cd  Cd1  1  0.71055000  0.00693000  0.97711000  1.0
  Cd  Cd2  1  0.21055000  0.49307000  0.97711000  1.0
  Cd  Cd3  1  0.78945000  0.50693000  0.47711000  1.0
  H  H4  1  0.18615000  0.84971000  0.36965000  1.0
  H  H5  1  0.81384000  0.15029000  0.86964000  1.0
  H  H6  1  0.31384000  0.34970000  0.86964000  1.0
  H  H7  1  0.68616000  0.65030000  0.36965000  1.0
  H  H8  1  0.20102000  0.63669000  0.49347000  1.0
  H  H9  1  0.79899000  0.36331000  0.99347000  1.0
  H  H10  1  0.29898000  0.13669000  0.99348000  1.0
  H  H11  1  0.70101000  0.86331000  0.49348000  1.0
  H  H12  1  0.16815000  0.70435000  0.37240000  1.0
  H  H13  1  0.83184000  0.29564000  0.87240000  1.0
  H  H14  1  0.33184000  0.20435000  0.87241000  1.0
  H  H15  1  0.66815000  0.79565000  0.37241000  1.0
  H  H16  1  0.32933000  0.61011000  0.69823000  1.0
  H  H17  1  0.67069000  0.38989000  0.19823000  1.0
  H  H18  1  0.17068000  0.11012000  0.19824000  1.0
  H  H19  1  0.82931000  0.88988000  0.69824000  1.0
  H  H20  1  0.46089000  0.61758000  0.61238000  1.0
  H  H21  1  0.53913000  0.38241000  0.11237000  1.0
  H  H22  1  0.03912000  0.11759000  0.11238000  1.0
  H  H23  1  0.96088000  0.88241000  0.61238000  1.0
  H  H24  1  0.20990000  0.58717000  0.61185000  1.0
  H  H25  1  0.79011000  0.41283000  0.11184000  1.0
  H  H26  1  0.29010000  0.08718000  0.11185000  1.0
  H  H27  1  0.70989000  0.91282000  0.61185000  1.0
  H  H28  1  0.28702000  0.85811000  0.59747000  1.0
  H  H29  1  0.71298000  0.14189000  0.09747000  1.0
  H  H30  1  0.21299000  0.35811000  0.09747000  1.0
  H  H31  1  0.78702000  0.64189000  0.59747000  1.0
  H  H32  1  0.19486000  0.62098000  0.85111000  1.0
  H  H33  1  0.80514000  0.37902000  0.35111000  1.0
  H  H34  1  0.30513000  0.12098000  0.35112000  1.0
  H  H35  1  0.69486000  0.87902000  0.85112000  1.0
  H  H36  1  0.34703000  0.87880000  0.81790000  1.0
  H  H37  1  0.65298000  0.12120000  0.31790000  1.0
  H  H38  1  0.15299000  0.37880000  0.31790000  1.0
  H  H39  1  0.84702000  0.62120000  0.81790000  1.0
  H  H40  1  0.08837000  0.88558000  0.83552000  1.0
  H  H41  1  0.91164000  0.11442000  0.33552000  1.0
  H  H42  1  0.41163000  0.38558000  0.33552000  1.0
  H  H43  1  0.58836000  0.61442000  0.83552000  1.0
  H  H44  1  0.17647000  0.87213000  0.74189000  1.0
  H  H45  1  0.82354000  0.12787000  0.24189000  1.0
  H  H46  1  0.32354000  0.37213000  0.24190000  1.0
  H  H47  1  0.67646000  0.62787000  0.74190000  1.0
  H  H48  1  0.19254000  0.85035000  0.94510000  1.0
  H  H49  1  0.80747000  0.14965000  0.44510000  1.0
  H  H50  1  0.30747000  0.35034000  0.44510000  1.0
  H  H51  1  0.69254000  0.64965000  0.94510000  1.0
  H  H52  1  0.21095000  0.64521000  0.08061000  1.0
  H  H53  1  0.78905000  0.35479000  0.58061000  1.0
  H  H54  1  0.28904000  0.14521000  0.58061000  1.0
  H  H55  1  0.71096000  0.85479000  0.08061000  1.0
  H  H56  1  0.20573000  0.79001000  0.07068000  1.0
  H  H57  1  0.79427000  0.20998000  0.57068000  1.0
  H  H58  1  0.29427000  0.29001000  0.57068000  1.0
  H  H59  1  0.70574000  0.70999000  0.07068000  1.0
  H  H60  1  0.79013000  0.98173000  0.27843000  1.0
  H  H61  1  0.20986000  0.01828000  0.77843000  1.0
  H  H62  1  0.70986000  0.48172000  0.77843000  1.0
  H  H63  1  0.29014000  0.51828000  0.27843000  1.0
  H  H64  1  0.66298000  0.89508000  0.26538000  1.0
  H  H65  1  0.33700000  0.10493000  0.76538000  1.0
  H  H66  1  0.83701000  0.39507000  0.76538000  1.0
  H  H67  1  0.16298000  0.60493000  0.26538000  1.0
  H  H68  1  0.48972000  0.05271000  0.22248000  1.0
  H  H69  1  0.51028000  0.94730000  0.72248000  1.0
  H  H70  1  0.01029000  0.55270000  0.72248000  1.0
  H  H71  1  0.98972000  0.44729000  0.22248000  1.0
  H  H72  1  0.37723000  0.96474000  0.20417000  1.0
  H  H73  1  0.62276000  0.03526000  0.70417000  1.0
  H  H74  1  0.12276000  0.46473000  0.70417000  1.0
  H  H75  1  0.87724000  0.53526000  0.20417000  1.0
  H  H76  1  0.83405000  0.99366000  0.44866000  1.0
  H  H77  1  0.16593000  0.00634000  0.94865000  1.0
  H  H78  1  0.66593000  0.49366000  0.94865000  1.0
  H  H79  1  0.33407000  0.50634000  0.44865000  1.0
  H  H80  1  0.90062000  0.01538000  0.53092000  1.0
  H  H81  1  0.09938000  0.98462000  0.03092000  1.0
  H  H82  1  0.59937000  0.51538000  0.03092000  1.0
  H  H83  1  0.40062000  0.48463000  0.53092000  1.0
  C  C84  1  0.20208000  0.81700000  0.42135000  1.0
  C  C85  1  0.79791000  0.18299000  0.92135000  1.0
  C  C86  1  0.29791000  0.31700000  0.92135000  1.0
  C  C87  1  0.70210000  0.68300000  0.42136000  1.0
  C  C88  1  0.23939000  0.74253000  0.55678000  1.0
  C  C89  1  0.76061000  0.25747000  0.05678000  1.0
  C  C90  1  0.26061000  0.24253000  0.05679000  1.0
  C  C91  1  0.73940000  0.75747000  0.55679000  1.0
  C  C92  1  0.24937000  0.70749000  0.63180000  1.0
  C  C93  1  0.75064000  0.29251000  0.13179000  1.0
  C  C94  1  0.25063000  0.20749000  0.13180000  1.0
  C  C95  1  0.74937000  0.79251000  0.63180000  1.0
  C  C96  1  0.21243000  0.69913000  0.49163000  1.0
  C  C97  1  0.78758000  0.30087000  0.99163000  1.0
  C  C98  1  0.28757000  0.19913000  0.99163000  1.0
  C  C99  1  0.71243000  0.80087000  0.49163000  1.0
  C  C100  1  0.19328000  0.77186000  0.81018000  1.0
  C  C101  1  0.80673000  0.22815000  0.31018000  1.0
  C  C102  1  0.30673000  0.27186000  0.31019000  1.0
  C  C103  1  0.69327000  0.72814000  0.81019000  1.0
  C  C104  1  0.19237000  0.73708000  0.42347000  1.0
  C  C105  1  0.80762000  0.26291000  0.92347000  1.0
  C  C106  1  0.30763000  0.23708000  0.92348000  1.0
  C  C107  1  0.69237000  0.76292000  0.42347000  1.0
  C  C108  1  0.31634000  0.62625000  0.63952000  1.0
  C  C109  1  0.68367000  0.37375000  0.13952000  1.0
  C  C110  1  0.18366000  0.12626000  0.13952000  1.0
  C  C111  1  0.81634000  0.87374000  0.63952000  1.0
  C  C112  1  0.25533000  0.82262000  0.54883000  1.0
  C  C113  1  0.74466000  0.17738000  0.04883000  1.0
  C  C114  1  0.24467000  0.32262000  0.04883000  1.0
  C  C115  1  0.75534000  0.67738000  0.54883000  1.0
  C  C116  1  0.19431000  0.66044000  0.89842000  1.0
  C  C117  1  0.80569000  0.33956000  0.39842000  1.0
  C  C118  1  0.30569000  0.16044000  0.39842000  1.0
  C  C119  1  0.69432000  0.83956000  0.89842000  1.0
  C  C120  1  0.19265000  0.74037000  0.88661000  1.0
  C  C121  1  0.80737000  0.25963000  0.38661000  1.0
  C  C122  1  0.30736000  0.24037000  0.38662000  1.0
  C  C123  1  0.69264000  0.75963000  0.88662000  1.0
  C  C124  1  0.20042000  0.85713000  0.80043000  1.0
  C  C125  1  0.79958000  0.14288000  0.30043000  1.0
  C  C126  1  0.29959000  0.35713000  0.30043000  1.0
  C  C127  1  0.70042000  0.64287000  0.80043000  1.0
  C  C128  1  0.19575000  0.78787000  0.95006000  1.0
  C  C129  1  0.80426000  0.21213000  0.45006000  1.0
  C  C130  1  0.30426000  0.28787000  0.45006000  1.0
  C  C131  1  0.69574000  0.71213000  0.95006000  1.0
  C  C132  1  0.53376000  0.96691000  0.34868000  1.0
  C  C133  1  0.46622000  0.03309000  0.84868000  1.0
  C  C134  1  0.96623000  0.46691000  0.84868000  1.0
  C  C135  1  0.03377000  0.53309000  0.34868000  1.0
  C  C136  1  0.20284000  0.67456000  0.02689000  1.0
  C  C137  1  0.79716000  0.32544000  0.52689000  1.0
  C  C138  1  0.29717000  0.17456000  0.52689000  1.0
  C  C139  1  0.70284000  0.82544000  0.02689000  1.0
  C  C140  1  0.20171000  0.75432000  0.02067000  1.0
  C  C141  1  0.79829000  0.24567000  0.52067000  1.0
  C  C142  1  0.29830000  0.25432000  0.52068000  1.0
  C  C143  1  0.70170000  0.74567000  0.02068000  1.0
  C  C144  1  0.63993000  0.95728000  0.27416000  1.0
  C  C145  1  0.36006000  0.04273000  0.77416000  1.0
  C  C146  1  0.86006000  0.45727000  0.77416000  1.0
  C  C147  1  0.13994000  0.54273000  0.27416000  1.0
  C  C148  1  0.52365000  0.99213000  0.20964000  1.0
  C  C149  1  0.47634000  0.00788000  0.70964000  1.0
  C  C150  1  0.97634000  0.49212000  0.70964000  1.0
  C  C151  1  0.02366000  0.50787000  0.20964000  1.0
  C  C152  1  0.62581000  0.99219000  0.13392000  1.0
  C  C153  1  0.37418000  0.00781000  0.63393000  1.0
  C  C154  1  0.87419000  0.49219000  0.63393000  1.0
  C  C155  1  0.12581000  0.50781000  0.13393000  1.0
  N  N156  1  0.23576000  0.85889000  0.48335000  1.0
  N  N157  1  0.76423000  0.14111000  0.98335000  1.0
  N  N158  1  0.26423000  0.35889000  0.98335000  1.0
  N  N159  1  0.73578000  0.64111000  0.48336000  1.0
  N  N160  1  0.19313000  0.72182000  0.75588000  1.0
  N  N161  1  0.80689000  0.27818000  0.25588000  1.0
  N  N162  1  0.30688000  0.22182000  0.25588000  1.0
  N  N163  1  0.69312000  0.77818000  0.75588000  1.0
  N  N164  1  0.19320000  0.75306000  0.68563000  1.0
  N  N165  1  0.80680000  0.24695000  0.18563000  1.0
  N  N166  1  0.30680000  0.25306000  0.18563000  1.0
  N  N167  1  0.69320000  0.74694000  0.68563000  1.0
  N  N168  1  0.19749000  0.62863000  0.96634000  1.0
  N  N169  1  0.80250000  0.37137000  0.46634000  1.0
  N  N170  1  0.30250000  0.12863000  0.46634000  1.0
  N  N171  1  0.69750000  0.87137000  0.96634000  1.0
  O  O172  1  0.34678000  0.98073000  0.34860000  1.0
  O  O173  1  0.65320000  0.01928000  0.84860000  1.0
  O  O174  1  0.15321000  0.48072000  0.84860000  1.0
  O  O175  1  0.84679000  0.51928000  0.34860000  1.0
  O  O176  1  0.63257000  0.95997000  0.40901000  1.0
  O  O177  1  0.36740000  0.04004000  0.90901000  1.0
  O  O178  1  0.86742000  0.45997000  0.90901000  1.0
  O  O179  1  0.13259000  0.54003000  0.40901000  1.0
  O  O180  1  0.81107000  0.98308000  0.12732000  1.0
  O  O181  1  0.18892000  0.01692000  0.62732000  1.0
  O  O182  1  0.68893000  0.48308000  0.62732000  1.0
  O  O183  1  0.31108000  0.51692000  0.12732000  1.0
  O  O184  1  0.50833000  0.00449000  0.07789000  1.0
  O  O185  1  0.49167000  0.99551000  0.57789000  1.0
  O  O186  1  0.99168000  0.50449000  0.57789000  1.0
  O  O187  1  0.00834000  0.49551000  0.07789000  1.0
  O  O188  1  0.94132000  0.01913000  0.47881000  1.0
  O  O189  1  0.05867000  0.98087000  0.97880000  1.0
  O  O190  1  0.55867000  0.51913000  0.97880000  1.0
  O  O191  1  0.44133000  0.48087000  0.47880000  1.0
