# generated using pymatgen
data_ZnH8C14(N4O3)2
_symmetry_space_group_name_H-M   'P 1'
_cell_length_a   9.56064000
_cell_length_b   14.59410000
_cell_length_c   18.45120000
_cell_angle_alpha   89.99940000
_cell_angle_beta   86.42110000
_cell_angle_gamma   89.99860000
_symmetry_Int_Tables_number   1
_chemical_formula_structural   ZnH8C14(N4O3)2
_chemical_formula_sum   'Zn4 H32 C56 N32 O24'
_cell_volume   2569.45552299
_cell_formula_units_Z   4
loop_
 _symmetry_equiv_pos_site_id
 _symmetry_equiv_pos_as_xyz
  1  'x, y, z'
loop_
 _atom_site_type_symbol
 _atom_site_label
 _atom_site_symmetry_multiplicity
 _atom_site_fract_x
 _atom_site_fract_y
 _atom_site_fract_z
 _atom_site_occupancy
  Zn  Zn0  1  0.81442000  0.99469000  0.23975000  1.0
  Zn  Zn1  1  0.68557000  0.49469000  0.76025000  1.0
  Zn  Zn2  1  0.18558000  0.00530000  0.76025000  1.0
  Zn  Zn3  1  0.31443000  0.50531000  0.23976000  1.0
  H  H4  1  0.33346000  0.78249000  0.92666000  1.0
  H  H5  1  0.16654000  0.28249000  0.07335000  1.0
  H  H6  1  0.66654000  0.21751000  0.07334000  1.0
  H  H7  1  0.83345000  0.71751000  0.92665000  1.0
  H  H8  1  0.64322000  0.87687000  0.05052000  1.0
  H  H9  1  0.85678000  0.37687000  0.94949000  1.0
  H  H10  1  0.35678000  0.12313000  0.94948000  1.0
  H  H11  1  0.14321000  0.62312000  0.05052000  1.0
  H  H12  1  0.59077000  0.60100000  0.91211000  1.0
  H  H13  1  0.90923000  0.10101000  0.08789000  1.0
  H  H14  1  0.40922000  0.39899000  0.08789000  1.0
  H  H15  1  0.09078000  0.89898000  0.91211000  1.0
  H  H16  1  0.40832000  0.60470000  0.38749000  1.0
  H  H17  1  0.09167000  0.10470000  0.61252000  1.0
  H  H18  1  0.59168000  0.39530000  0.61251000  1.0
  H  H19  1  0.90833000  0.89531000  0.38748000  1.0
  H  H20  1  0.34614000  0.76272000  0.77771000  1.0
  H  H21  1  0.15385000  0.26271000  0.22229000  1.0
  H  H22  1  0.65386000  0.23728000  0.22229000  1.0
  H  H23  1  0.84614000  0.73728000  0.77771000  1.0
  H  H24  1  0.63513000  0.78919000  0.40278000  1.0
  H  H25  1  0.86486000  0.28920000  0.59722000  1.0
  H  H26  1  0.36486000  0.21080000  0.59722000  1.0
  H  H27  1  0.13515000  0.71080000  0.40278000  1.0
  H  H28  1  0.33547000  0.88182000  0.55113000  1.0
  H  H29  1  0.16455000  0.38181000  0.44887000  1.0
  H  H30  1  0.66454000  0.11819000  0.44887000  1.0
  H  H31  1  0.83546000  0.61819000  0.55113000  1.0
  H  H32  1  0.58351000  0.80861000  0.24551000  1.0
  H  H33  1  0.91647000  0.30861000  0.75449000  1.0
  H  H34  1  0.41648000  0.19139000  0.75449000  1.0
  H  H35  1  0.08353000  0.69139000  0.24551000  1.0
  C  C36  1  0.57970000  0.93038000  0.02774000  1.0
  C  C37  1  0.92030000  0.43038000  0.97226000  1.0
  C  C38  1  0.42030000  0.06962000  0.97226000  1.0
  C  C39  1  0.07969000  0.56961000  0.02774000  1.0
  C  C40  1  0.56765000  0.01382000  0.06482000  1.0
  C  C41  1  0.93235000  0.51382000  0.93518000  1.0
  C  C42  1  0.43235000  0.98618000  0.93518000  1.0
  C  C43  1  0.06764000  0.48618000  0.06482000  1.0
  C  C44  1  0.53984000  0.62554000  0.86505000  1.0
  C  C45  1  0.96016000  0.12554000  0.13496000  1.0
  C  C46  1  0.46015000  0.37445000  0.13495000  1.0
  C  C47  1  0.03984000  0.87445000  0.86504000  1.0
  C  C48  1  0.54382000  0.82620000  0.92557000  1.0
  C  C49  1  0.95618000  0.32620000  0.07444000  1.0
  C  C50  1  0.45618000  0.17380000  0.07443000  1.0
  C  C51  1  0.04382000  0.67380000  0.92557000  1.0
  C  C52  1  0.46969000  0.92282000  0.45786000  1.0
  C  C53  1  0.03031000  0.42282000  0.54214000  1.0
  C  C54  1  0.53032000  0.07719000  0.54213000  1.0
  C  C55  1  0.96969000  0.57718000  0.45786000  1.0
  C  C56  1  0.63759000  0.02447000  0.13509000  1.0
  C  C57  1  0.86241000  0.52448000  0.86490000  1.0
  C  C58  1  0.36241000  0.97553000  0.86491000  1.0
  C  C59  1  0.13758000  0.47552000  0.13510000  1.0
  C  C60  1  0.51251000  0.91528000  0.96373000  1.0
  C  C61  1  0.98749000  0.41528000  0.03627000  1.0
  C  C62  1  0.48749000  0.08472000  0.03626000  1.0
  C  C63  1  0.01251000  0.58472000  0.96374000  1.0
  C  C64  1  0.44115000  0.64158000  0.33835000  1.0
  C  C65  1  0.05884000  0.14158000  0.66165000  1.0
  C  C66  1  0.55885000  0.35842000  0.66165000  1.0
  C  C67  1  0.94115000  0.85842000  0.33835000  1.0
  C  C68  1  0.41310000  0.70786000  0.79461000  1.0
  C  C69  1  0.08690000  0.20785000  0.20540000  1.0
  C  C70  1  0.58690000  0.29214000  0.20539000  1.0
  C  C71  1  0.91310000  0.79214000  0.79460000  1.0
  C  C72  1  0.40789000  0.93323000  0.52802000  1.0
  C  C73  1  0.09212000  0.43322000  0.47198000  1.0
  C  C74  1  0.59212000  0.06678000  0.47197000  1.0
  C  C75  1  0.90788000  0.56678000  0.52802000  1.0
  C  C76  1  0.56223000  0.99090000  0.42925000  1.0
  C  C77  1  0.93777000  0.49089000  0.57075000  1.0
  C  C78  1  0.43777000  0.00911000  0.57075000  1.0
  C  C79  1  0.06224000  0.50911000  0.42925000  1.0
  C  C80  1  0.53317000  0.74528000  0.26374000  1.0
  C  C81  1  0.96682000  0.24528000  0.73626000  1.0
  C  C82  1  0.46683000  0.25472000  0.73626000  1.0
  C  C83  1  0.03318000  0.75472000  0.26374000  1.0
  C  C84  1  0.42716000  0.84117000  0.41457000  1.0
  C  C85  1  0.07282000  0.34116000  0.58543000  1.0
  C  C86  1  0.57283000  0.15884000  0.58542000  1.0
  C  C87  1  0.92720000  0.65884000  0.41458000  1.0
  C  C88  1  0.62482000  0.98489000  0.35256000  1.0
  C  C89  1  0.87517000  0.48489000  0.64744000  1.0
  C  C90  1  0.37519000  0.01512000  0.64744000  1.0
  C  C91  1  0.12484000  0.51511000  0.35256000  1.0
  N  N92  1  0.54713000  0.58937000  0.79936000  1.0
  N  N93  1  0.95286000  0.08938000  0.20064000  1.0
  N  N94  1  0.45286000  0.41062000  0.20064000  1.0
  N  N95  1  0.04714000  0.91062000  0.79936000  1.0
  N  N96  1  0.43604000  0.76340000  0.91983000  1.0
  N  N97  1  0.06397000  0.26340000  0.08018000  1.0
  N  N98  1  0.56396000  0.23660000  0.08017000  1.0
  N  N99  1  0.93603000  0.73660000  0.91982000  1.0
  N  N100  1  0.45616000  0.70037000  0.86428000  1.0
  N  N101  1  0.04384000  0.20036000  0.13573000  1.0
  N  N102  1  0.54384000  0.29963000  0.13573000  1.0
  N  N103  1  0.95616000  0.79963000  0.86427000  1.0
  N  N104  1  0.46600000  0.64032000  0.75478000  1.0
  N  N105  1  0.03399000  0.14032000  0.24522000  1.0
  N  N106  1  0.53400000  0.35967000  0.24522000  1.0
  N  N107  1  0.96601000  0.85967000  0.75478000  1.0
  N  N108  1  0.42405000  0.61578000  0.27102000  1.0
  N  N109  1  0.07594000  0.11578000  0.72899000  1.0
  N  N110  1  0.57595000  0.38422000  0.72899000  1.0
  N  N111  1  0.92405000  0.88422000  0.27101000  1.0
  N  N112  1  0.51003000  0.72294000  0.33625000  1.0
  N  N113  1  0.98996000  0.22294000  0.66376000  1.0
  N  N114  1  0.48997000  0.27706000  0.66375000  1.0
  N  N115  1  0.01004000  0.77706000  0.33624000  1.0
  N  N116  1  0.53188000  0.77772000  0.39543000  1.0
  N  N117  1  0.96812000  0.27772000  0.60457000  1.0
  N  N118  1  0.46812000  0.22229000  0.60457000  1.0
  N  N119  1  0.03189000  0.72228000  0.39543000  1.0
  N  N120  1  0.48308000  0.68039000  0.22351000  1.0
  N  N121  1  0.01690000  0.18039000  0.77650000  1.0
  N  N122  1  0.51691000  0.31961000  0.77649000  1.0
  N  N123  1  0.98309000  0.81961000  0.22350000  1.0
  O  O124  1  0.61101000  0.09299000  0.17442000  1.0
  O  O125  1  0.88899000  0.59299000  0.82558000  1.0
  O  O126  1  0.38899000  0.90701000  0.82558000  1.0
  O  O127  1  0.11101000  0.40701000  0.17442000  1.0
  O  O128  1  0.66548000  0.80561000  0.90614000  1.0
  O  O129  1  0.83452000  0.30561000  0.09386000  1.0
  O  O130  1  0.33452000  0.19439000  0.09386000  1.0
  O  O131  1  0.16548000  0.69439000  0.90614000  1.0
  O  O132  1  0.72575000  0.96063000  0.14925000  1.0
  O  O133  1  0.77425000  0.46063000  0.85075000  1.0
  O  O134  1  0.27424000  0.03937000  0.85075000  1.0
  O  O135  1  0.22575000  0.53936000  0.14926000  1.0
  O  O136  1  0.56779000  0.93454000  0.30812000  1.0
  O  O137  1  0.93219000  0.43453000  0.69188000  1.0
  O  O138  1  0.43222000  0.06547000  0.69188000  1.0
  O  O139  1  0.06781000  0.56547000  0.30812000  1.0
  O  O140  1  0.30437000  0.82642000  0.40165000  1.0
  O  O141  1  0.19564000  0.32640000  0.59836000  1.0
  O  O142  1  0.69563000  0.17361000  0.59834000  1.0
  O  O143  1  0.80436000  0.67361000  0.40165000  1.0
  O  O144  1  0.73814000  0.03179000  0.33822000  1.0
  O  O145  1  0.76185000  0.53179000  0.66178000  1.0
  O  O146  1  0.26187000  0.96821000  0.66178000  1.0
  O  O147  1  0.23816000  0.46821000  0.33823000  1.0
