# generated using pymatgen
data_SnH16(C4O)2
_symmetry_space_group_name_H-M   'P 1'
_cell_length_a   6.20051000
_cell_length_b   19.45490000
_cell_length_c   19.48680000
_cell_angle_alpha   89.99970000
_cell_angle_beta   89.99990000
_cell_angle_gamma   89.99960000
_symmetry_Int_Tables_number   1
_chemical_formula_structural   SnH16(C4O)2
_chemical_formula_sum   'Sn8 H128 C64 O16'
_cell_volume   2350.69856890
_cell_formula_units_Z   8
loop_
 _symmetry_equiv_pos_site_id
 _symmetry_equiv_pos_as_xyz
  1  'x, y, z'
loop_
 _atom_site_type_symbol
 _atom_site_label
 _atom_site_symmetry_multiplicity
 _atom_site_fract_x
 _atom_site_fract_y
 _atom_site_fract_z
 _atom_site_occupancy
  Sn  Sn0  1  0.99541000  0.53977000  0.81583000  1.0
  Sn  Sn1  1  0.99538000  0.46023000  0.18417000  1.0
  Sn  Sn2  1  0.00460000  0.96022000  0.31583000  1.0
  Sn  Sn3  1  0.00460000  0.03978000  0.68417000  1.0
  Sn  Sn4  1  0.12815000  0.31217000  0.96548000  1.0
  Sn  Sn5  1  0.12814000  0.68783000  0.03451000  1.0
  Sn  Sn6  1  0.87186000  0.18783000  0.46548000  1.0
  Sn  Sn7  1  0.87185000  0.81217000  0.53452000  1.0
  H  H8  1  0.51869000  0.25256000  0.66360000  1.0
  H  H9  1  0.51868000  0.74743000  0.33640000  1.0
  H  H10  1  0.48131000  0.24744000  0.16360000  1.0
  H  H11  1  0.48134000  0.75256000  0.83639000  1.0
  H  H12  1  0.53187000  0.19574000  0.76715000  1.0
  H  H13  1  0.53188000  0.80426000  0.23285000  1.0
  H  H14  1  0.46810000  0.30427000  0.26715000  1.0
  H  H15  1  0.46813000  0.69574000  0.73284000  1.0
  H  H16  1  0.78014000  0.15800000  0.74544000  1.0
  H  H17  1  0.78014000  0.84200000  0.25457000  1.0
  H  H18  1  0.21983000  0.34200000  0.24543000  1.0
  H  H19  1  0.21987000  0.65800000  0.75456000  1.0
  H  H20  1  0.75641000  0.25127000  0.85158000  1.0
  H  H21  1  0.75643000  0.74873000  0.14841000  1.0
  H  H22  1  0.24357000  0.24873000  0.35159000  1.0
  H  H23  1  0.24359000  0.75128000  0.64841000  1.0
  H  H24  1  0.98508000  0.24753000  0.79793000  1.0
  H  H25  1  0.98509000  0.75247000  0.20208000  1.0
  H  H26  1  0.01491000  0.25247000  0.29792000  1.0
  H  H27  1  0.01493000  0.74753000  0.70207000  1.0
  H  H28  1  0.48870000  0.39940000  0.76544000  1.0
  H  H29  1  0.48871000  0.60060000  0.23456000  1.0
  H  H30  1  0.51131000  0.10060000  0.26544000  1.0
  H  H31  1  0.51130000  0.89940000  0.73456000  1.0
  H  H32  1  0.50997000  0.35260000  0.84294000  1.0
  H  H33  1  0.50997000  0.64740000  0.15706000  1.0
  H  H34  1  0.49004000  0.14740000  0.34294000  1.0
  H  H35  1  0.49005000  0.85261000  0.65706000  1.0
  H  H36  1  0.41286000  0.31156000  0.76828000  1.0
  H  H37  1  0.41287000  0.68844000  0.23172000  1.0
  H  H38  1  0.58712000  0.18845000  0.26828000  1.0
  H  H39  1  0.58714000  0.81156000  0.73172000  1.0
  H  H40  1  0.12317000  0.27649000  0.69868000  1.0
  H  H41  1  0.12318000  0.72350000  0.30132000  1.0
  H  H42  1  0.87681000  0.22351000  0.19868000  1.0
  H  H43  1  0.87683000  0.77649000  0.80132000  1.0
  H  H44  1  0.10747000  0.36657000  0.68297000  1.0
  H  H45  1  0.10747000  0.63343000  0.31703000  1.0
  H  H46  1  0.89253000  0.13343000  0.18297000  1.0
  H  H47  1  0.89254000  0.86657000  0.81703000  1.0
  H  H48  1  0.05666000  0.30740000  0.61584000  1.0
  H  H49  1  0.05665000  0.69259000  0.38416000  1.0
  H  H50  1  0.94334000  0.19260000  0.11584000  1.0
  H  H51  1  0.94336000  0.80740000  0.88416000  1.0
  H  H52  1  0.50557000  0.37254000  0.65355000  1.0
  H  H53  1  0.50556000  0.62746000  0.34645000  1.0
  H  H54  1  0.49443000  0.12746000  0.15355000  1.0
  H  H55  1  0.49445000  0.87254000  0.84645000  1.0
  H  H56  1  0.70351000  0.35753000  0.58989000  1.0
  H  H57  1  0.70350000  0.64247000  0.41011000  1.0
  H  H58  1  0.29648000  0.14247000  0.08989000  1.0
  H  H59  1  0.29650000  0.85752000  0.91011000  1.0
  H  H60  1  0.74663000  0.42235000  0.65355000  1.0
  H  H61  1  0.74661000  0.57765000  0.34645000  1.0
  H  H62  1  0.25338000  0.07765000  0.15355000  1.0
  H  H63  1  0.25340000  0.92235000  0.84646000  1.0
  H  H64  1  0.75738000  0.47747000  0.91505000  1.0
  H  H65  1  0.75737000  0.52253000  0.08495000  1.0
  H  H66  1  0.24261000  0.02253000  0.41505000  1.0
  H  H67  1  0.24262000  0.97747000  0.58496000  1.0
  H  H68  1  0.68995000  0.56700000  0.91135000  1.0
  H  H69  1  0.68993000  0.43300000  0.08864000  1.0
  H  H70  1  0.31005000  0.93300000  0.41136000  1.0
  H  H71  1  0.31005000  0.06700000  0.58864000  1.0
  H  H72  1  0.93133000  0.54054000  0.95282000  1.0
  H  H73  1  0.93132000  0.45946000  0.04718000  1.0
  H  H74  1  0.06866000  0.95945000  0.45282000  1.0
  H  H75  1  0.06867000  0.04053000  0.54718000  1.0
  H  H76  1  0.96350000  0.59420000  0.68774000  1.0
  H  H77  1  0.96344000  0.40580000  0.31225000  1.0
  H  H78  1  0.03653000  0.90579000  0.18775000  1.0
  H  H79  1  0.03650000  0.09420000  0.81226000  1.0
  H  H80  1  0.81559000  0.64707000  0.74613000  1.0
  H  H81  1  0.81556000  0.35292000  0.25387000  1.0
  H  H82  1  0.18443000  0.85293000  0.24613000  1.0
  H  H83  1  0.18442000  0.14707000  0.75388000  1.0
  H  H84  1  0.70334000  0.56748000  0.71630000  1.0
  H  H85  1  0.70329000  0.43251000  0.28368000  1.0
  H  H86  1  0.29668000  0.93251000  0.21631000  1.0
  H  H87  1  0.29665000  0.06748000  0.78369000  1.0
  H  H88  1  0.38828000  0.48854000  0.84992000  1.0
  H  H89  1  0.38826000  0.51146000  0.15006000  1.0
  H  H90  1  0.61173000  0.01146000  0.34993000  1.0
  H  H91  1  0.61173000  0.98854000  0.65007000  1.0
  H  H92  1  0.41755000  0.57515000  0.82003000  1.0
  H  H93  1  0.41753000  0.42485000  0.17996000  1.0
  H  H94  1  0.58245000  0.92486000  0.32004000  1.0
  H  H95  1  0.58244000  0.07515000  0.67996000  1.0
  H  H96  1  0.38144000  0.50653000  0.76012000  1.0
  H  H97  1  0.38141000  0.49347000  0.23987000  1.0
  H  H98  1  0.61856000  0.99347000  0.26013000  1.0
  H  H99  1  0.61856000  0.00653000  0.73987000  1.0
  H  H100  1  0.36694000  0.19868000  0.94848000  1.0
  H  H101  1  0.36688000  0.80133000  0.05151000  1.0
  H  H102  1  0.63311000  0.30133000  0.44848000  1.0
  H  H103  1  0.63310000  0.69867000  0.55152000  1.0
  H  H104  1  0.36829000  0.24392000  0.86838000  1.0
  H  H105  1  0.36824000  0.75608000  0.13162000  1.0
  H  H106  1  0.63177000  0.25609000  0.36837000  1.0
  H  H107  1  0.63175000  0.74391000  0.63163000  1.0
  H  H108  1  0.14056000  0.19320000  0.89190000  1.0
  H  H109  1  0.14049000  0.80680000  0.10809000  1.0
  H  H110  1  0.85951000  0.30681000  0.39191000  1.0
  H  H111  1  0.85949000  0.69319000  0.60810000  1.0
  H  H112  1  0.73961000  0.24927000  0.98084000  1.0
  H  H113  1  0.73960000  0.75074000  0.01915000  1.0
  H  H114  1  0.26040000  0.25074000  0.48085000  1.0
  H  H115  1  0.26040000  0.74927000  0.51915000  1.0
  H  H116  1  0.69886000  0.33529000  0.95144000  1.0
  H  H117  1  0.69886000  0.66473000  0.04857000  1.0
  H  H118  1  0.30114000  0.16472000  0.45145000  1.0
  H  H119  1  0.30113000  0.83528000  0.54857000  1.0
  H  H120  1  0.75960000  0.31935000  0.03990000  1.0
  H  H121  1  0.75958000  0.68065000  0.96010000  1.0
  H  H122  1  0.24038000  0.18066000  0.53992000  1.0
  H  H123  1  0.24040000  0.81936000  0.46010000  1.0
  H  H124  1  0.34632000  0.41542000  0.02778000  1.0
  H  H125  1  0.34634000  0.58459000  0.97223000  1.0
  H  H126  1  0.65364000  0.08460000  0.52777000  1.0
  H  H127  1  0.65369000  0.91541000  0.47223000  1.0
  H  H128  1  0.18038000  0.45014000  0.96067000  1.0
  H  H129  1  0.18039000  0.54986000  0.03933000  1.0
  H  H130  1  0.81962000  0.04986000  0.46068000  1.0
  H  H131  1  0.81961000  0.95014000  0.53933000  1.0
  H  H132  1  0.43002000  0.41054000  0.94005000  1.0
  H  H133  1  0.43003000  0.58946000  0.05995000  1.0
  H  H134  1  0.56999000  0.08946000  0.44004000  1.0
  H  H135  1  0.56995000  0.91054000  0.55995000  1.0
  C  C136  1  0.90779000  0.38420000  0.79946000  1.0
  C  C137  1  0.90778000  0.61580000  0.20054000  1.0
  C  C138  1  0.09220000  0.11581000  0.29947000  1.0
  C  C139  1  0.09222000  0.88420000  0.70054000  1.0
  C  C140  1  0.76258000  0.32827000  0.76906000  1.0
  C  C141  1  0.76258000  0.67173000  0.23094000  1.0
  C  C142  1  0.23742000  0.17173000  0.26906000  1.0
  C  C143  1  0.23743000  0.82827000  0.73094000  1.0
  C  C144  1  0.79247000  0.31743000  0.68925000  1.0
  C  C145  1  0.79247000  0.68257000  0.31075000  1.0
  C  C146  1  0.20753000  0.18257000  0.18925000  1.0
  C  C147  1  0.20754000  0.81743000  0.81075000  1.0
  C  C148  1  0.68709000  0.24405000  0.67917000  1.0
  C  C149  1  0.68709000  0.75595000  0.32083000  1.0
  C  C150  1  0.31291000  0.25595000  0.17917000  1.0
  C  C151  1  0.31293000  0.74404000  0.82082000  1.0
  C  C152  1  0.69582000  0.20720000  0.74916000  1.0
  C  C153  1  0.69583000  0.79280000  0.25084000  1.0
  C  C154  1  0.30416000  0.29280000  0.24916000  1.0
  C  C155  1  0.30419000  0.70720000  0.75083000  1.0
  C  C156  1  0.81040000  0.25663000  0.79823000  1.0
  C  C157  1  0.81041000  0.74337000  0.20177000  1.0
  C  C158  1  0.18959000  0.24337000  0.29823000  1.0
  C  C159  1  0.18961000  0.75664000  0.70177000  1.0
  C  C160  1  0.53013000  0.34931000  0.78708000  1.0
  C  C161  1  0.53013000  0.65069000  0.21292000  1.0
  C  C162  1  0.46988000  0.15069000  0.28708000  1.0
  C  C163  1  0.46988000  0.84931000  0.71292000  1.0
  C  C164  1  0.03405000  0.31662000  0.67099000  1.0
  C  C165  1  0.03404000  0.68337000  0.32901000  1.0
  C  C166  1  0.96595000  0.18337000  0.17099000  1.0
  C  C167  1  0.96597000  0.81662000  0.82901000  1.0
  C  C168  1  0.68009000  0.37096000  0.64410000  1.0
  C  C169  1  0.68009000  0.62904000  0.35590000  1.0
  C  C170  1  0.31990000  0.12905000  0.14410000  1.0
  C  C171  1  0.31992000  0.87095000  0.85590000  1.0
  C  C172  1  0.82181000  0.52964000  0.91024000  1.0
  C  C173  1  0.82179000  0.47036000  0.08975000  1.0
  C  C174  1  0.17818000  0.97036000  0.41025000  1.0
  C  C175  1  0.17819000  0.02964000  0.58976000  1.0
  C  C176  1  0.85174000  0.59402000  0.73136000  1.0
  C  C177  1  0.85171000  0.40598000  0.26863000  1.0
  C  C178  1  0.14828000  0.90598000  0.23137000  1.0
  C  C179  1  0.14826000  0.09401000  0.76864000  1.0
  C  C180  1  0.33793000  0.52579000  0.81112000  1.0
  C  C181  1  0.33791000  0.47421000  0.18887000  1.0
  C  C182  1  0.66208000  0.97421000  0.31113000  1.0
  C  C183  1  0.66207000  0.02579000  0.68887000  1.0
  C  C184  1  0.79057000  0.20561000  0.61969000  1.0
  C  C185  1  0.79059000  0.79440000  0.38032000  1.0
  C  C186  1  0.20942000  0.29439000  0.11969000  1.0
  C  C187  1  0.20943000  0.70560000  0.88031000  1.0
  C  C188  1  0.26817000  0.22691000  0.91129000  1.0
  C  C189  1  0.26813000  0.77310000  0.08871000  1.0
  C  C190  1  0.73187000  0.27310000  0.41129000  1.0
  C  C191  1  0.73186000  0.72690000  0.58871000  1.0
  C  C192  1  0.78982000  0.30293000  0.98708000  1.0
  C  C193  1  0.78982000  0.69708000  0.01292000  1.0
  C  C194  1  0.21018000  0.19708000  0.48709000  1.0
  C  C195  1  0.21018000  0.80293000  0.51292000  1.0
  C  C196  1  0.29148000  0.40888000  0.97479000  1.0
  C  C197  1  0.29149000  0.59112000  0.02521000  1.0
  C  C198  1  0.70852000  0.09113000  0.47479000  1.0
  C  C199  1  0.70852000  0.90887000  0.52521000  1.0
  O  O200  1  0.89195000  0.44366000  0.76952000  1.0
  O  O201  1  0.89195000  0.55633000  0.23048000  1.0
  O  O202  1  0.10806000  0.05633000  0.26952000  1.0
  O  O203  1  0.10804000  0.94367000  0.73048000  1.0
  O  O204  1  0.02427000  0.37370000  0.85107000  1.0
  O  O205  1  0.02425000  0.62629000  0.14892000  1.0
  O  O206  1  0.97576000  0.12629000  0.35107000  1.0
  O  O207  1  0.97575000  0.87371000  0.64892000  1.0
  O  O208  1  0.74466000  0.23132000  0.55997000  1.0
  O  O209  1  0.74466000  0.76868000  0.44003000  1.0
  O  O210  1  0.25534000  0.26868000  0.05997000  1.0
  O  O211  1  0.25536000  0.73132000  0.94003000  1.0
  O  O212  1  0.91352000  0.15487000  0.62759000  1.0
  O  O213  1  0.91350000  0.84513000  0.37242000  1.0
  O  O214  1  0.08646000  0.34512000  0.12758000  1.0
  O  O215  1  0.08650000  0.65488000  0.87241000  1.0
