# generated using pymatgen
data_LiH5C5N2O3
_symmetry_space_group_name_H-M   'P 1'
_cell_length_a   8.06513000
_cell_length_b   8.08598000
_cell_length_c   9.53205000
_cell_angle_alpha   90.00010000
_cell_angle_beta   90.00040000
_cell_angle_gamma   97.09940000
_symmetry_Int_Tables_number   1
_chemical_formula_structural   LiH5C5N2O3
_chemical_formula_sum   'Li4 H20 C20 N8 O12'
_cell_volume   616.86180778
_cell_formula_units_Z   4
loop_
 _symmetry_equiv_pos_site_id
 _symmetry_equiv_pos_as_xyz
  1  'x, y, z'
loop_
 _atom_site_type_symbol
 _atom_site_label
 _atom_site_symmetry_multiplicity
 _atom_site_fract_x
 _atom_site_fract_y
 _atom_site_fract_z
 _atom_site_occupancy
  Li  Li0  1  0.93850000  0.88786000  0.39875000  1.0
  Li  Li1  1  0.56151000  0.11214000  0.89875000  1.0
  Li  Li2  1  0.06150000  0.11213000  0.60125000  1.0
  Li  Li3  1  0.43850000  0.88786000  0.10125000  1.0
  H  H4  1  0.67947000  0.36483000  0.62045000  1.0
  H  H5  1  0.82054000  0.63518000  0.12045000  1.0
  H  H6  1  0.32052000  0.63517000  0.37955000  1.0
  H  H7  1  0.17946000  0.36482000  0.87955000  1.0
  H  H8  1  0.44020000  0.27460000  0.15711000  1.0
  H  H9  1  0.05980000  0.72540000  0.65711000  1.0
  H  H10  1  0.55980000  0.72540000  0.84289000  1.0
  H  H11  1  0.94020000  0.27460000  0.34289000  1.0
  H  H12  1  0.42769000  0.14559000  0.59790000  1.0
  H  H13  1  0.07232000  0.85442000  0.09790000  1.0
  H  H14  1  0.57231000  0.85441000  0.40210000  1.0
  H  H15  1  0.92769000  0.14558000  0.90210000  1.0
  H  H16  1  0.03607000  0.59402000  0.34000000  1.0
  H  H17  1  0.46393000  0.40598000  0.84000000  1.0
  H  H18  1  0.96393000  0.40598000  0.66000000  1.0
  H  H19  1  0.53607000  0.59402000  0.16000000  1.0
  H  H20  1  0.85667000  0.57656000  0.40904000  1.0
  H  H21  1  0.64333000  0.42344000  0.90903000  1.0
  H  H22  1  0.14333000  0.42344000  0.59096000  1.0
  H  H23  1  0.35667000  0.57656000  0.09096000  1.0
  C  C24  1  0.41465000  0.18534000  0.37328000  1.0
  C  C25  1  0.08535000  0.81467000  0.87329000  1.0
  C  C26  1  0.58534000  0.81466000  0.62671000  1.0
  C  C27  1  0.91465000  0.18533000  0.12671000  1.0
  C  C28  1  0.27358000  0.04931000  0.34278000  1.0
  C  C29  1  0.22642000  0.95070000  0.84277000  1.0
  C  C30  1  0.72642000  0.95068000  0.65722000  1.0
  C  C31  1  0.77359000  0.04931000  0.15723000  1.0
  C  C32  1  0.61663000  0.33916000  0.52006000  1.0
  C  C33  1  0.88338000  0.66085000  0.02006000  1.0
  C  C34  1  0.38337000  0.66084000  0.47995000  1.0
  C  C35  1  0.11662000  0.33915000  0.97994000  1.0
  C  C36  1  0.48481000  0.28920000  0.26495000  1.0
  C  C37  1  0.01519000  0.71080000  0.76495000  1.0
  C  C38  1  0.51519000  0.71080000  0.73505000  1.0
  C  C39  1  0.98481000  0.28920000  0.23505000  1.0
  C  C40  1  0.48034000  0.21519000  0.50672000  1.0
  C  C41  1  0.01966000  0.78482000  0.00672000  1.0
  C  C42  1  0.51966000  0.78481000  0.49328000  1.0
  C  C43  1  0.98034000  0.21519000  0.99328000  1.0
  N  N44  1  0.60633000  0.41443000  0.28574000  1.0
  N  N45  1  0.89366000  0.58557000  0.78574000  1.0
  N  N46  1  0.39366000  0.58556000  0.71426000  1.0
  N  N47  1  0.10633000  0.41443000  0.21426000  1.0
  N  N48  1  0.67557000  0.43630000  0.41343000  1.0
  N  N49  1  0.82444000  0.56370000  0.91343000  1.0
  N  N50  1  0.32443000  0.56370000  0.58657000  1.0
  N  N51  1  0.17557000  0.43630000  0.08656000  1.0
  O  O52  1  0.14920000  0.03652000  0.42536000  1.0
  O  O53  1  0.35080000  0.96348000  0.92537000  1.0
  O  O54  1  0.85079000  0.96348000  0.57464000  1.0
  O  O55  1  0.64920000  0.03652000  0.07463000  1.0
  O  O56  1  0.28895000  0.95874000  0.23722000  1.0
  O  O57  1  0.21106000  0.04126000  0.73722000  1.0
  O  O58  1  0.71105000  0.04125000  0.76278000  1.0
  O  O59  1  0.78894000  0.95874000  0.26278000  1.0
  O  O60  1  0.96084000  0.65687000  0.39384000  1.0
  O  O61  1  0.53916000  0.34313000  0.89384000  1.0
  O  O62  1  0.03916000  0.34313000  0.60616000  1.0
  O  O63  1  0.46084000  0.65687000  0.10616000  1.0
