# generated using pymatgen
data_Hf3H18C25O16F7
_symmetry_space_group_name_H-M   'P 1'
_cell_length_a   14.26950000
_cell_length_b   17.70650000
_cell_length_c   23.73930000
_cell_angle_alpha   88.28660000
_cell_angle_beta   89.57120000
_cell_angle_gamma   86.70230000
_symmetry_Int_Tables_number   1
_chemical_formula_structural   Hf3H18C25O16F7
_chemical_formula_sum   'Hf12 H72 C100 O64 F28'
_cell_volume   5985.33126525
_cell_formula_units_Z   4
loop_
 _symmetry_equiv_pos_site_id
 _symmetry_equiv_pos_as_xyz
  1  'x, y, z'
loop_
 _atom_site_type_symbol
 _atom_site_label
 _atom_site_symmetry_multiplicity
 _atom_site_fract_x
 _atom_site_fract_y
 _atom_site_fract_z
 _atom_site_occupancy
  Hf  Hf0  1  0.48014000  0.37991000  0.45530000  1.0
  Hf  Hf1  1  0.55773000  0.58735000  0.56623000  1.0
  Hf  Hf2  1  0.59699000  0.55335000  0.42315000  1.0
  Hf  Hf3  1  0.46027000  0.41613000  0.59800000  1.0
  Hf  Hf4  1  0.68165000  0.41904000  0.53073000  1.0
  Hf  Hf5  1  0.35605000  0.54498000  0.49637000  1.0
  Hf  Hf6  1  0.07775000  0.06792000  0.95943000  1.0
  Hf  Hf7  1  0.98253000  0.86171000  0.07756000  1.0
  Hf  Hf8  1  0.97371000  0.89581000  0.93243000  1.0
  Hf  Hf9  1  0.08393000  0.03223000  0.10489000  1.0
  Hf  Hf10  1  0.86885000  0.03180000  0.02784000  1.0
  Hf  Hf11  1  0.19320000  0.89995000  0.00885000  1.0
  H  H12  1  0.57927000  0.30100000  0.55373000  1.0
  H  H13  1  0.73650000  0.56490000  0.51562000  1.0
  H  H14  1  0.38409000  0.56354000  0.61575000  1.0
  H  H15  1  0.37640000  0.48893000  0.38822000  1.0
  H  H16  1  0.84758000  0.44372000  0.49831000  1.0
  H  H17  1  0.50201000  0.60949000  0.33370000  1.0
  H  H18  1  0.33141000  0.67805000  0.43299000  1.0
  H  H19  1  0.77005000  0.32321000  0.60525000  1.0
  H  H20  1  0.51642000  0.34776000  0.69664000  1.0
  H  H21  1  0.32529000  0.44466000  0.67415000  1.0
  H  H22  1  0.19590000  0.51234000  0.54468000  1.0
  H  H23  1  0.83016000  0.44609000  0.59947000  1.0
  H  H24  1  0.68559000  0.68222000  0.60693000  1.0
  H  H25  1  0.35461000  0.28113000  0.41599000  1.0
  H  H26  1  0.20843000  0.54945000  0.42867000  1.0
  H  H27  1  0.46991000  0.28509000  0.66067000  1.0
  H  H28  1  0.65435000  0.62607000  0.65731000  1.0
  H  H29  1  0.77530000  0.51501000  0.40904000  1.0
  H  H30  1  0.82781000  0.38455000  0.45023000  1.0
  H  H31  1  0.26846000  0.47927000  0.59502000  1.0
  H  H32  1  0.41371000  0.62795000  0.39789000  1.0
  H  H33  1  0.39715000  0.32689000  0.36345000  1.0
  H  H34  1  0.98905000  0.15088000  0.04633000  1.0
  H  H35  1  0.81731000  0.88085000  0.00984000  1.0
  H  H36  1  0.15348000  0.88473000  0.12904000  1.0
  H  H37  1  0.17664000  0.94848000  0.90290000  1.0
  H  H38  1  0.70814000  0.99941000  0.98021000  1.0
  H  H39  1  0.06725000  0.84139000  0.84351000  1.0
  H  H40  1  0.21205000  0.75678000  0.95674000  1.0
  H  H41  1  0.79261000  0.09167000  0.11651000  1.0
  H  H42  1  0.02133000  0.15552000  0.16394000  1.0
  H  H43  1  0.25282000  0.06292000  0.14058000  1.0
  H  H44  1  0.33686000  0.88366000  0.09449000  1.0
  H  H45  1  0.74303000  0.95524000  0.08944000  1.0
  H  H46  1  0.82730000  0.78469000  0.10965000  1.0
  H  H47  1  0.23067000  0.14750000  0.92458000  1.0
  H  H48  1  0.35399000  0.95049000  0.98083000  1.0
  H  H49  1  0.90192000  0.11639000  0.12413000  1.0
  H  H50  1  0.85680000  0.83325000  0.16098000  1.0
  H  H51  1  0.83068000  0.91632000  0.86345000  1.0
  H  H52  1  0.78606000  0.97042000  0.93306000  1.0
  H  H53  1  0.27318000  0.96454000  0.10513000  1.0
  H  H54  1  0.14452000  0.80858000  0.91516000  1.0
  H  H55  1  0.18729000  0.11217000  0.87013000  1.0
  H  H56  1  0.19573000  0.65898000  0.17728000  1.0
  H  H57  1  0.29147000  0.51774000  0.00760000  1.0
  H  H58  1  0.14691000  0.27491000  0.13340000  1.0
  H  H59  1  0.39155000  0.36268000  0.00177000  1.0
  H  H60  1  0.65399000  0.36095000  0.01281000  1.0
  H  H61  1  0.42603000  0.57930000  0.03062000  1.0
  H  H62  1  0.80153000  0.72616000  0.90531000  1.0
  H  H63  1  0.79097000  0.49646000  0.02799000  1.0
  H  H64  1  0.88562000  0.44896000  0.94948000  1.0
  H  H65  1  0.72008000  0.21451000  0.92190000  1.0
  H  H66  1  0.47135000  0.31909000  0.27047000  1.0
  H  H67  1  0.46805000  0.55417000  0.15327000  1.0
  H  H68  1  0.72033000  0.51032000  0.73635000  1.0
  H  H69  1  0.49963000  0.48228000  0.89724000  1.0
  H  H70  1  0.66743000  0.97217000  0.45886000  1.0
  H  H71  1  0.82329000  0.71453000  0.45121000  1.0
  H  H72  1  0.69492000  0.16677000  0.52980000  1.0
  H  H73  1  0.82242000  0.08563000  0.34466000  1.0
  H  H74  1  0.04727000  0.95192000  0.39523000  1.0
  H  H75  1  0.82341000  0.92672000  0.23901000  1.0
  H  H76  1  0.88604000  0.89830000  0.53376000  1.0
  H  H77  1  0.12616000  0.08429000  0.50108000  1.0
  H  H78  1  0.10866000  0.85439000  0.56900000  1.0
  H  H79  1  0.45144000  0.83720000  0.59112000  1.0
  H  H80  1  0.29005000  0.01632000  0.51207000  1.0
  H  H81  1  0.25956000  0.24509000  0.62651000  1.0
  H  H82  1  0.98895000  0.04119000  0.63895000  1.0
  H  H83  1  0.20690000  0.97623000  0.79645000  1.0
  C  C84  1  0.16595000  0.99518000  0.59902000  1.0
  C  C85  1  0.85962000  0.97549000  0.43083000  1.0
  C  C86  1  0.66275000  0.27315000  0.44943000  1.0
  C  C87  1  0.38185000  0.26252000  0.54348000  1.0
  C  C88  1  0.53620000  0.43557000  0.32794000  1.0
  C  C89  1  0.64145000  0.71080000  0.48051000  1.0
  C  C90  1  0.37942000  0.70174000  0.56218000  1.0
  C  C91  1  0.53595000  0.51472000  0.70237000  1.0
  C  C92  1  0.68912000  0.47910000  0.93266000  1.0
  C  C93  1  0.37606000  0.45057000  0.09969000  1.0
  C  C94  1  0.89896000  0.18385000  0.95210000  1.0
  C  C95  1  0.17119000  0.18327000  0.04545000  1.0
  C  C96  1  0.03065000  0.01546000  0.83347000  1.0
  C  C97  1  0.90239000  0.74044000  0.99560000  1.0
  C  C98  1  0.16010000  0.74212000  0.07835000  1.0
  C  C99  1  0.00697000  0.91983000  0.20367000  1.0
  C  C100  1  0.21806000  0.62958000  0.13935000  1.0
  C  C101  1  0.19839000  0.66166000  0.08614000  1.0
  C  C102  1  0.22366000  0.61766000  0.04002000  1.0
  C  C103  1  0.27363000  0.54868000  0.04554000  1.0
  C  C104  1  0.30550000  0.52057000  0.09854000  1.0
  C  C105  1  0.26959000  0.56051000  0.14501000  1.0
  C  C106  1  0.19870000  0.29504000  0.10349000  1.0
  C  C107  1  0.21889000  0.25510000  0.05432000  1.0
  C  C108  1  0.28624000  0.28405000  0.01795000  1.0
  C  C109  1  0.33666000  0.34611000  0.03095000  1.0
  C  C110  1  0.31982000  0.38378000  0.08131000  1.0
  C  C111  1  0.24616000  0.35849000  0.11503000  1.0
  C  C112  1  0.60423000  0.40974000  0.01465000  1.0
  C  C113  1  0.61274000  0.47342000  0.97898000  1.0
  C  C114  1  0.54715000  0.53353000  0.98883000  1.0
  C  C115  1  0.47341000  0.52934000  0.02714000  1.0
  C  C116  1  0.45940000  0.46276000  0.05868000  1.0
  C  C117  1  0.53023000  0.40528000  0.05255000  1.0
  C  C118  1  0.79972000  0.67547000  0.93238000  1.0
  C  C119  1  0.84925000  0.67231000  0.98303000  1.0
  C  C120  1  0.84256000  0.60656000  0.01676000  1.0
  C  C121  1  0.79275000  0.54605000  0.99976000  1.0
  C  C122  1  0.74502000  0.54801000  0.94801000  1.0
  C  C123  1  0.74760000  0.61625000  0.91650000  1.0
  C  C124  1  0.84740000  0.39870000  0.94248000  1.0
  C  C125  1  0.75084000  0.40428000  0.93217000  1.0
  C  C126  1  0.70966000  0.33583000  0.92137000  1.0
  C  C127  1  0.75754000  0.26591000  0.92617000  1.0
  C  C128  1  0.85338000  0.26066000  0.93890000  1.0
  C  C129  1  0.89695000  0.32859000  0.94497000  1.0
  C  C130  1  0.47042000  0.37148000  0.24519000  1.0
  C  C131  1  0.50828000  0.43550000  0.26719000  1.0
  C  C132  1  0.50828000  0.49980000  0.23110000  1.0
  C  C133  1  0.46833000  0.50139000  0.17813000  1.0
  C  C134  1  0.42407000  0.43919000  0.15777000  1.0
  C  C135  1  0.43091000  0.37327000  0.19196000  1.0
  C  C136  1  0.67074000  0.50394000  0.77107000  1.0
  C  C137  1  0.57392000  0.50635000  0.76138000  1.0
  C  C138  1  0.51567000  0.49683000  0.80823000  1.0
  C  C139  1  0.54968000  0.48836000  0.86282000  1.0
  C  C140  1  0.64599000  0.48745000  0.87303000  1.0
  C  C141  1  0.70433000  0.49304000  0.82549000  1.0
  C  C142  1  0.70412000  0.91658000  0.45920000  1.0
  C  C143  1  0.79974000  0.90827000  0.44606000  1.0
  C  C144  1  0.84006000  0.83418000  0.44498000  1.0
  C  C145  1  0.78942000  0.77089000  0.45525000  1.0
  C  C146  1  0.69461000  0.78029000  0.47006000  1.0
  C  C147  1  0.65409000  0.85344000  0.47209000  1.0
  C  C148  1  0.71961000  0.14848000  0.48855000  1.0
  C  C149  1  0.70872000  0.19628000  0.44094000  1.0
  C  C150  1  0.74458000  0.17095000  0.38991000  1.0
  C  C151  1  0.79196000  0.10078000  0.38521000  1.0
  C  C152  1  0.80229000  0.05161000  0.43226000  1.0
  C  C153  1  0.76427000  0.07770000  0.48332000  1.0
  C  C154  1  0.99666000  0.94894000  0.36148000  1.0
  C  C155  1  0.90028000  0.95945000  0.37188000  1.0
  C  C156  1  0.84078000  0.94883000  0.32639000  1.0
  C  C157  1  0.87364000  0.93160000  0.27289000  1.0
  C  C158  1  0.97027000  0.92478000  0.26263000  1.0
  C  C159  1  0.02998000  0.93305000  0.30800000  1.0
  C  C160  1  0.93903000  0.93889000  0.52491000  1.0
  C  C161  1  0.93703000  0.98216000  0.47486000  1.0
  C  C162  1  0.00440000  0.03633000  0.47038000  1.0
  C  C163  1  0.07500000  0.04218000  0.50966000  1.0
  C  C164  1  0.08088000  0.99550000  0.55837000  1.0
  C  C165  1  0.00665000  0.94706000  0.56527000  1.0
  C  C166  1  0.18354000  0.85489000  0.57480000  1.0
  C  C167  1  0.22770000  0.92023000  0.58912000  1.0
  C  C168  1  0.32611000  0.90972000  0.59464000  1.0
  C  C169  1  0.37534000  0.84059000  0.58687000  1.0
  C  C170  1  0.32902000  0.77616000  0.57292000  1.0
  C  C171  1  0.23149000  0.78587000  0.56752000  1.0
  C  C172  1  0.28090000  0.06641000  0.53759000  1.0
  C  C173  1  0.22129000  0.06588000  0.58500000  1.0
  C  C174  1  0.21384000  0.13350000  0.61464000  1.0
  C  C175  1  0.26622000  0.19495000  0.60093000  1.0
  C  C176  1  0.32668000  0.19422000  0.55443000  1.0
  C  C177  1  0.33086000  0.12889000  0.52250000  1.0
  C  C178  1  0.03740000  0.02370000  0.67267000  1.0
  C  C179  1  0.12985000  0.99757000  0.66061000  1.0
  C  C180  1  0.18770000  0.98141000  0.70722000  1.0
  C  C181  1  0.15709000  0.98956000  0.76248000  1.0
  C  C182  1  0.06409000  0.01368000  0.77350000  1.0
  C  C183  1  0.00576000  0.03001000  0.72757000  1.0
  O  O184  1  0.36227000  0.33154000  0.39907000  1.0
  O  O185  1  0.57623000  0.28285000  0.43706000  1.0
  O  O186  1  0.50939000  0.38080000  0.35943000  1.0
  O  O187  1  0.39841000  0.30027000  0.58661000  1.0
  O  O188  1  0.57885000  0.49101000  0.34446000  1.0
  O  O189  1  0.40651000  0.27859000  0.49318000  1.0
  O  O190  1  0.71346000  0.31949000  0.47245000  1.0
  O  O191  1  0.59102000  0.44412000  0.45890000  1.0
  O  O192  1  0.55371000  0.34971000  0.53878000  1.0
  O  O193  1  0.41078000  0.48290000  0.42322000  1.0
  O  O194  1  0.40616000  0.43401000  0.51969000  1.0
  O  O195  1  0.32941000  0.42246000  0.63724000  1.0
  O  O196  1  0.81414000  0.43634000  0.46194000  1.0
  O  O197  1  0.58402000  0.47311000  0.58375000  1.0
  O  O198  1  0.67397000  0.54710000  0.51046000  1.0
  O  O199  1  0.49879000  0.57784000  0.49206000  1.0
  O  O200  1  0.42361000  0.53965000  0.58718000  1.0
  O  O201  1  0.72644000  0.55152000  0.39515000  1.0
  O  O202  1  0.63054000  0.67166000  0.43823000  1.0
  O  O203  1  0.61656000  0.69549000  0.53126000  1.0
  O  O204  1  0.22664000  0.53029000  0.46586000  1.0
  O  O205  1  0.45826000  0.68546000  0.58606000  1.0
  O  O206  1  0.50178000  0.62051000  0.37351000  1.0
  O  O207  1  0.34730000  0.62714000  0.42040000  1.0
  O  O208  1  0.24941000  0.52336000  0.56811000  1.0
  O  O209  1  0.33809000  0.65957000  0.52898000  1.0
  O  O210  1  0.68149000  0.62923000  0.61901000  1.0
  O  O211  1  0.51837000  0.32200000  0.66064000  1.0
  O  O212  1  0.55169000  0.57357000  0.67300000  1.0
  O  O213  1  0.49076000  0.45930000  0.68617000  1.0
  O  O214  1  0.71004000  0.33148000  0.58670000  1.0
  O  O215  1  0.80481000  0.46065000  0.56282000  1.0
  O  O216  1  0.21061000  0.10085000  0.90831000  1.0
  O  O217  1  0.98357000  0.16884000  0.93689000  1.0
  O  O218  1  0.05967000  0.06736000  0.86374000  1.0
  O  O219  1  0.15203000  0.14525000  0.08990000  1.0
  O  O220  1  0.98185000  0.96136000  0.84946000  1.0
  O  O221  1  0.15222000  0.16643000  0.99513000  1.0
  O  O222  1  0.84669000  0.14006000  0.97975000  1.0
  O  O223  1  0.96332000  0.00650000  0.96171000  1.0
  O  O224  1  0.00020000  0.09805000  0.03737000  1.0
  O  O225  1  0.12643000  0.95325000  0.93082000  1.0
  O  O226  1  0.14490000  0.01104000  0.02482000  1.0
  O  O227  1  0.22008000  0.01646000  0.13863000  1.0
  O  O228  1  0.76240000  0.01498000  0.95848000  1.0
  O  O229  1  0.96117000  0.97576000  0.08527000  1.0
  O  O230  1  0.87640000  0.90438000  0.01437000  1.0
  O  O231  1  0.05204000  0.86616000  0.00449000  1.0
  O  O232  1  0.12077000  0.90632000  0.09615000  1.0
  O  O233  1  0.83514000  0.90545000  0.90376000  1.0
  O  O234  1  0.92503000  0.77962000  0.95300000  1.0
  O  O235  1  0.91720000  0.75620000  0.04712000  1.0
  O  O236  1  0.30632000  0.92325000  0.96245000  1.0
  O  O237  1  0.08049000  0.76065000  0.09942000  1.0
  O  O238  1  0.05334000  0.82421000  0.88167000  1.0
  O  O239  1  0.20269000  0.80786000  0.94076000  1.0
  O  O240  1  0.30277000  0.92546000  0.07494000  1.0
  O  O241  1  0.21481000  0.78476000  0.05109000  1.0
  O  O242  1  0.83395000  0.83650000  0.12194000  1.0
  O  O243  1  0.99810000  0.10897000  0.15062000  1.0
  O  O244  1  0.98029000  0.86631000  0.17310000  1.0
  O  O245  1  0.05888000  0.97165000  0.18835000  1.0
  O  O246  1  0.84410000  0.11664000  0.09747000  1.0
  O  O247  1  0.74925000  0.00429000  0.07097000  1.0
  F  F248  1  0.28379000  0.53437000  0.19890000  1.0
  F  F249  1  0.19982000  0.64382000  0.98685000  1.0
  F  F250  1  0.22324000  0.39539000  0.16324000  1.0
  F  F251  1  0.30925000  0.24880000  0.96885000  1.0
  F  F252  1  0.52659000  0.33983000  0.08401000  1.0
  F  F253  1  0.55261000  0.59995000  0.95871000  1.0
  F  F254  1  0.69677000  0.62942000  0.86852000  1.0
  F  F255  1  0.88697000  0.59931000  0.06731000  1.0
  F  F256  1  0.98995000  0.32770000  0.95743000  1.0
  F  F257  1  0.61625000  0.33635000  0.90861000  1.0
  F  F258  1  0.39801000  0.30708000  0.17466000  1.0
  F  F259  1  0.54362000  0.56544000  0.24752000  1.0
  F  F260  1  0.79933000  0.49170000  0.83275000  1.0
  F  F261  1  0.42081000  0.49735000  0.80084000  1.0
  F  F262  1  0.56106000  0.86367000  0.48548000  1.0
  F  F263  1  0.93368000  0.82255000  0.43334000  1.0
  F  F264  1  0.77173000  0.03295000  0.53127000  1.0
  F  F265  1  0.73577000  0.21750000  0.34318000  1.0
  F  F266  1  0.12444000  0.92406000  0.30018000  1.0
  F  F267  1  0.74571000  0.95637000  0.33385000  1.0
  F  F268  1  0.99801000  0.90246000  0.61315000  1.0
  F  F269  1  0.00340000  0.08608000  0.42528000  1.0
  F  F270  1  0.17807000  0.72736000  0.55603000  1.0
  F  F271  1  0.37938000  0.96798000  0.60816000  1.0
  F  F272  1  0.38730000  0.12387000  0.47613000  1.0
  F  F273  1  0.15426000  0.14350000  0.65937000  1.0
  F  F274  1  0.91469000  0.05442000  0.73691000  1.0
  F  F275  1  0.27979000  0.95887000  0.70014000  1.0
