# generated using pymatgen
data_VH12C14O5
_symmetry_space_group_name_H-M   'P 1'
_cell_length_a   6.75744000
_cell_length_b   14.23220000
_cell_length_c   15.74770000
_cell_angle_alpha   89.98920000
_cell_angle_beta   89.99640000
_cell_angle_gamma   89.96160000
_symmetry_Int_Tables_number   1
_chemical_formula_structural   VH12C14O5
_chemical_formula_sum   'V4 H48 C56 O20'
_cell_volume   1514.50692323
_cell_formula_units_Z   4
loop_
 _symmetry_equiv_pos_site_id
 _symmetry_equiv_pos_as_xyz
  1  'x, y, z'
loop_
 _atom_site_type_symbol
 _atom_site_label
 _atom_site_symmetry_multiplicity
 _atom_site_fract_x
 _atom_site_fract_y
 _atom_site_fract_z
 _atom_site_occupancy
  V  V0  1  0.92207000  0.76659000  0.49916000  1.0
  V  V1  1  0.57841000  0.23390000  0.99914000  1.0
  V  V2  1  0.07821000  0.26603000  0.00087000  1.0
  V  V3  1  0.42199000  0.73350000  0.50087000  1.0
  H  H4  1  0.96384000  0.08442000  0.19613000  1.0
  H  H5  1  0.53632000  0.91583000  0.69637000  1.0
  H  H6  1  0.03715000  0.58415000  0.30347000  1.0
  H  H7  1  0.46445000  0.41572000  0.80378000  1.0
  H  H8  1  0.56923000  0.99922000  0.15838000  1.0
  H  H9  1  0.93099000  0.00146000  0.65885000  1.0
  H  H10  1  0.43217000  0.49859000  0.34151000  1.0
  H  H11  1  0.06971000  0.50081000  0.84163000  1.0
  H  H12  1  0.92874000  0.96577000  0.31275000  1.0
  H  H13  1  0.57145000  0.03377000  0.81353000  1.0
  H  H14  1  0.07212000  0.46620000  0.18622000  1.0
  H  H15  1  0.42903000  0.53438000  0.68715000  1.0
  H  H16  1  0.53459000  0.88115000  0.27595000  1.0
  H  H17  1  0.96548000  0.11860000  0.77708000  1.0
  H  H18  1  0.46641000  0.38142000  0.22325000  1.0
  H  H19  1  0.03483000  0.61889000  0.72402000  1.0
  H  H20  1  0.53592000  0.98179000  0.48643000  1.0
  H  H21  1  0.96473000  0.01799000  0.98736000  1.0
  H  H22  1  0.46508000  0.48199000  0.01249000  1.0
  H  H23  1  0.03589000  0.51823000  0.51356000  1.0
  H  H24  1  0.89325000  0.00977000  0.49102000  1.0
  H  H25  1  0.60724000  0.99042000  0.99256000  1.0
  H  H26  1  0.10749000  0.50965000  0.00738000  1.0
  H  H27  1  0.39339000  0.49018000  0.50920000  1.0
  H  H28  1  0.02973000  0.16825000  0.44846000  1.0
  H  H29  1  0.46949000  0.83230000  0.94981000  1.0
  H  H30  1  0.96945000  0.66773000  0.05028000  1.0
  H  H31  1  0.52994000  0.33156000  0.55178000  1.0
  H  H32  1  0.83200000  0.27374000  0.35841000  1.0
  H  H33  1  0.66565000  0.72715000  0.85882000  1.0
  H  H34  1  0.16538000  0.77274000  0.14132000  1.0
  H  H35  1  0.33205000  0.22608000  0.64160000  1.0
  H  H36  1  0.56284000  0.14614000  0.29793000  1.0
  H  H37  1  0.93453000  0.85478000  0.79839000  1.0
  H  H38  1  0.43459000  0.64498000  0.20165000  1.0
  H  H39  1  0.06240000  0.35371000  0.70197000  1.0
  H  H40  1  0.47014000  0.24703000  0.34884000  1.0
  H  H41  1  0.02763000  0.75345000  0.84865000  1.0
  H  H42  1  0.52740000  0.74636000  0.15145000  1.0
  H  H43  1  0.97010000  0.25289000  0.65094000  1.0
  H  H44  1  0.41151000  0.16577000  0.48098000  1.0
  H  H45  1  0.08793000  0.83384000  0.98105000  1.0
  H  H46  1  0.58779000  0.66612000  0.01895000  1.0
  H  H47  1  0.91188000  0.33433000  0.51877000  1.0
  H  H48  1  0.32468000  0.08985000  0.40114000  1.0
  H  H49  1  0.17453000  0.91009000  0.90137000  1.0
  H  H50  1  0.67466000  0.58977000  0.09856000  1.0
  H  H51  1  0.82458000  0.41021000  0.59863000  1.0
  C  C52  1  0.28802000  0.12132000  0.10457000  1.0
  C  C53  1  0.21259000  0.87936000  0.60462000  1.0
  C  C54  1  0.71335000  0.62074000  0.39538000  1.0
  C  C55  1  0.78818000  0.37872000  0.89542000  1.0
  C  C56  1  0.26807000  0.04825000  0.17080000  1.0
  C  C57  1  0.23215000  0.95223000  0.67123000  1.0
  C  C58  1  0.73311000  0.54786000  0.32881000  1.0
  C  C59  1  0.76856000  0.45179000  0.82917000  1.0
  C  C60  1  0.08651000  0.03855000  0.21330000  1.0
  C  C61  1  0.41368000  0.96163000  0.71378000  1.0
  C  C62  1  0.91454000  0.53835000  0.28616000  1.0
  C  C63  1  0.58702000  0.46158000  0.78663000  1.0
  C  C64  1  0.42980000  0.99104000  0.19236000  1.0
  C  C65  1  0.07035000  0.00931000  0.69301000  1.0
  C  C66  1  0.57136000  0.49074000  0.30721000  1.0
  C  C67  1  0.93023000  0.50900000  0.80762000  1.0
  C  C68  1  0.21245000  0.85024000  0.37227000  1.0
  C  C69  1  0.28822000  0.14916000  0.87328000  1.0
  C  C70  1  0.78833000  0.35082000  0.12668000  1.0
  C  C71  1  0.71258000  0.64992000  0.62772000  1.0
  C  C72  1  0.22933000  0.91626000  0.29991000  1.0
  C  C73  1  0.27086000  0.08344000  0.80094000  1.0
  C  C74  1  0.77160000  0.41658000  0.19908000  1.0
  C  C75  1  0.72964000  0.58386000  0.70007000  1.0
  C  C76  1  0.06683000  0.97255000  0.27756000  1.0
  C  C77  1  0.43335000  0.02728000  0.77831000  1.0
  C  C78  1  0.93415000  0.47268000  0.22158000  1.0
  C  C79  1  0.56720000  0.52757000  0.72235000  1.0
  C  C80  1  0.41048000  0.92531000  0.25695000  1.0
  C  C81  1  0.08967000  0.07460000  0.75795000  1.0
  C  C82  1  0.59053000  0.42543000  0.24228000  1.0
  C  C83  1  0.91084000  0.57475000  0.74301000  1.0
  C  C84  1  0.59744000  0.04683000  0.46093000  1.0
  C  C85  1  0.90256000  0.95312000  0.96186000  1.0
  C  C86  1  0.40276000  0.54682000  0.03808000  1.0
  C  C87  1  0.09753000  0.45318000  0.53905000  1.0
  C  C88  1  0.79409000  0.06248000  0.46399000  1.0
  C  C89  1  0.70587000  0.93766000  0.96530000  1.0
  C  C90  1  0.20606000  0.56235000  0.03467000  1.0
  C  C91  1  0.29421000  0.43748000  0.53614000  1.0
  C  C92  1  0.87675000  0.15090000  0.43281000  1.0
  C  C93  1  0.62241000  0.84950000  0.93394000  1.0
  C  C94  1  0.12240000  0.65048000  0.06611000  1.0
  C  C95  1  0.37689000  0.34898000  0.56733000  1.0
  C  C96  1  0.76802000  0.20922000  0.38398000  1.0
  C  C97  1  0.73036000  0.79142000  0.88460000  1.0
  C  C98  1  0.23026000  0.70848000  0.11550000  1.0
  C  C99  1  0.26799000  0.29066000  0.61603000  1.0
  C  C100  1  0.55933000  0.18344000  0.35964000  1.0
  C  C101  1  0.93881000  0.81707000  0.85991000  1.0
  C  C102  1  0.43876000  0.68276000  0.14014000  1.0
  C  C103  1  0.05920000  0.31646000  0.64022000  1.0
  C  C104  1  0.46019000  0.12135000  0.42710000  1.0
  C  C105  1  0.03907000  0.87863000  0.92747000  1.0
  C  C106  1  0.53911000  0.62127000  0.07252000  1.0
  C  C107  1  0.96023000  0.37865000  0.57273000  1.0
  O  O108  1  0.69188000  0.80387000  0.49383000  1.0
  O  O109  1  0.80736000  0.19555000  0.99411000  1.0
  O  O110  1  0.30703000  0.30433000  0.00591000  1.0
  O  O111  1  0.19184000  0.69620000  0.50619000  1.0
  O  O112  1  0.46142000  0.14063000  0.07717000  1.0
  O  O113  1  0.03920000  0.86113000  0.57670000  1.0
  O  O114  1  0.54006000  0.63884000  0.42349000  1.0
  O  O115  1  0.96170000  0.35922000  0.92280000  1.0
  O  O116  1  0.04036000  0.83670000  0.40342000  1.0
  O  O117  1  0.46046000  0.16410000  0.90383000  1.0
  O  O118  1  0.96066000  0.33605000  0.09586000  1.0
  O  O119  1  0.54036000  0.66367000  0.59674000  1.0
  O  O120  1  0.12817000  0.16096000  0.07971000  1.0
  O  O121  1  0.37227000  0.83948000  0.58038000  1.0
  O  O122  1  0.87289000  0.66078000  0.41945000  1.0
  O  O123  1  0.62843000  0.33926000  0.92031000  1.0
  O  O124  1  0.37278000  0.81307000  0.39927000  1.0
  O  O125  1  0.12753000  0.18524000  0.90145000  1.0
  O  O126  1  0.62779000  0.31459000  0.09884000  1.0
  O  O127  1  0.87292000  0.68690000  0.60060000  1.0
