# generated using pymatgen
data_ZnH15C20N3O5
_symmetry_space_group_name_H-M   'P 1'
_cell_length_a   10.12710000
_cell_length_b   18.85521500
_cell_length_c   18.85550000
_cell_angle_alpha   60.00050000
_cell_angle_beta   89.99990000
_cell_angle_gamma   89.99939999
_symmetry_Int_Tables_number   1
_chemical_formula_structural   ZnH15C20N3O5
_chemical_formula_sum   'Zn6 H90 C120 N18 O30'
_cell_volume   3118.08148428
_cell_formula_units_Z   6
loop_
 _symmetry_equiv_pos_site_id
 _symmetry_equiv_pos_as_xyz
  1  'x, y, z'
loop_
 _atom_site_type_symbol
 _atom_site_label
 _atom_site_symmetry_multiplicity
 _atom_site_fract_x
 _atom_site_fract_y
 _atom_site_fract_z
 _atom_site_occupancy
  Zn  Zn0  1  0.88017000  0.94836000  0.52457000  1.0
  Zn  Zn1  1  0.88018000  0.52707000  0.94835000  1.0
  Zn  Zn2  1  0.88018000  0.52458000  0.52706000  1.0
  Zn  Zn3  1  0.11983000  0.05164000  0.47542000  1.0
  Zn  Zn4  1  0.11983000  0.47293000  0.05164000  1.0
  Zn  Zn5  1  0.11982000  0.47542000  0.47294000  1.0
  H  H6  1  0.60580000  0.95819000  0.46336000  1.0
  H  H7  1  0.60581000  0.57845000  0.95819000  1.0
  H  H8  1  0.60582000  0.46336000  0.57845000  1.0
  H  H9  1  0.39419000  0.04181000  0.53664000  1.0
  H  H10  1  0.39419000  0.42155000  0.04181000  1.0
  H  H11  1  0.39419000  0.53664000  0.42155000  1.0
  H  H12  1  0.38378000  0.89615000  0.52152000  1.0
  H  H13  1  0.38379000  0.58233000  0.89615000  1.0
  H  H14  1  0.38379000  0.52152000  0.58233000  1.0
  H  H15  1  0.61622000  0.10385000  0.47848000  1.0
  H  H16  1  0.61622000  0.41767000  0.10385000  1.0
  H  H17  1  0.61621000  0.47848000  0.41767000  1.0
  H  H18  1  0.37261000  0.78087000  0.66764000  1.0
  H  H19  1  0.37261000  0.55149000  0.78087000  1.0
  H  H20  1  0.37262000  0.66763000  0.55150000  1.0
  H  H21  1  0.62740000  0.21912000  0.33237000  1.0
  H  H22  1  0.62740000  0.44851000  0.21912000  1.0
  H  H23  1  0.62740000  0.33236000  0.44851000  1.0
  H  H24  1  0.58306000  0.73304000  0.74897000  1.0
  H  H25  1  0.58306000  0.51798000  0.73304000  1.0
  H  H26  1  0.58307000  0.74897000  0.51800000  1.0
  H  H27  1  0.41695000  0.26695000  0.25103000  1.0
  H  H28  1  0.41694000  0.48202000  0.26695000  1.0
  H  H29  1  0.41694000  0.25102000  0.48202000  1.0
  H  H30  1  0.79521000  0.80427000  0.68184000  1.0
  H  H31  1  0.79521000  0.51388000  0.80428000  1.0
  H  H32  1  0.79521000  0.68184000  0.51389000  1.0
  H  H33  1  0.20481000  0.19572000  0.31816000  1.0
  H  H34  1  0.20480000  0.48612000  0.19572000  1.0
  H  H35  1  0.20480000  0.31815000  0.48612000  1.0
  H  H36  1  0.99722000  0.70145000  0.29333000  1.0
  H  H37  1  0.99724000  0.00522000  0.70145000  1.0
  H  H38  1  0.99724000  0.29333000  0.00522000  1.0
  H  H39  1  0.00276000  0.29856000  0.70667000  1.0
  H  H40  1  0.00275000  0.99478000  0.29855000  1.0
  H  H41  1  0.00276000  0.70667000  0.99478000  1.0
  H  H42  1  0.03141000  0.74089000  0.14761000  1.0
  H  H43  1  0.03141000  0.11151000  0.74089000  1.0
  H  H44  1  0.03141000  0.14760000  0.11151000  1.0
  H  H45  1  0.96860000  0.25911000  0.85241000  1.0
  H  H46  1  0.96859000  0.88849000  0.25911000  1.0
  H  H47  1  0.96860000  0.85240000  0.88849000  1.0
  H  H48  1  0.88155000  0.84045000  0.04011000  1.0
  H  H49  1  0.88153000  0.11945000  0.84044000  1.0
  H  H50  1  0.88154000  0.04011000  0.11944000  1.0
  H  H51  1  0.11846000  0.15953000  0.95990000  1.0
  H  H52  1  0.11847000  0.88055000  0.15956000  1.0
  H  H53  1  0.11848000  0.95989000  0.88056000  1.0
  H  H54  1  0.69315000  0.90058000  0.07886000  1.0
  H  H55  1  0.69315000  0.02057000  0.90058000  1.0
  H  H56  1  0.69316000  0.07885000  0.02056000  1.0
  H  H57  1  0.30684000  0.09940000  0.92115000  1.0
  H  H58  1  0.30686000  0.97943000  0.09942000  1.0
  H  H59  1  0.30686000  0.92114000  0.97944000  1.0
  H  H60  1  0.80958000  0.76030000  0.33197000  1.0
  H  H61  1  0.80960000  0.90772000  0.76031000  1.0
  H  H62  1  0.80960000  0.33197000  0.90773000  1.0
  H  H63  1  0.19039000  0.23971000  0.66802000  1.0
  H  H64  1  0.19040000  0.09227000  0.23970000  1.0
  H  H65  1  0.19038000  0.66803000  0.09228000  1.0
  H  H66  1  0.46854000  0.91890000  0.28596000  1.0
  H  H67  1  0.46855000  0.79514000  0.91891000  1.0
  H  H68  1  0.46855000  0.28595000  0.79514000  1.0
  H  H69  1  0.53144000  0.08109000  0.71405000  1.0
  H  H70  1  0.53144000  0.20486000  0.08110000  1.0
  H  H71  1  0.53144000  0.71404000  0.20486000  1.0
  H  H72  1  0.65295000  0.92007000  0.23400000  1.0
  H  H73  1  0.65297000  0.84593000  0.92007000  1.0
  H  H74  1  0.65297000  0.23399000  0.84594000  1.0
  H  H75  1  0.34705000  0.07993000  0.76600000  1.0
  H  H76  1  0.34702000  0.15407000  0.07994000  1.0
  H  H77  1  0.34705000  0.76600000  0.15407000  1.0
  H  H78  1  0.32875000  0.92920000  0.37266000  1.0
  H  H79  1  0.32875000  0.69814000  0.92921000  1.0
  H  H80  1  0.32876000  0.37266000  0.69813000  1.0
  H  H81  1  0.67123000  0.07080000  0.62733000  1.0
  H  H82  1  0.67124000  0.30187000  0.07079000  1.0
  H  H83  1  0.67124000  0.62733000  0.30187000  1.0
  H  H84  1  0.31914000  0.71419000  0.34692000  1.0
  H  H85  1  0.31914000  0.93890000  0.71419000  1.0
  H  H86  1  0.31913000  0.34691000  0.93889000  1.0
  H  H87  1  0.68085000  0.28581000  0.65306000  1.0
  H  H88  1  0.68086000  0.06113000  0.28581000  1.0
  H  H89  1  0.68085000  0.65308000  0.06112000  1.0
  H  H90  1  0.02028000  0.75129000  0.48759000  1.0
  H  H91  1  0.02028000  0.76113000  0.75129000  1.0
  H  H92  1  0.02027000  0.48759000  0.76111000  1.0
  H  H93  1  0.97971000  0.24871000  0.51239000  1.0
  H  H94  1  0.97971000  0.23890000  0.24871000  1.0
  H  H95  1  0.97973000  0.51240000  0.23889000  1.0
  C  C96  1  0.59504000  0.90797000  0.52625000  1.0
  C  C97  1  0.59504000  0.56579000  0.90797000  1.0
  C  C98  1  0.59504000  0.52624000  0.56579000  1.0
  C  C99  1  0.40496000  0.09203000  0.47376000  1.0
  C  C100  1  0.40496000  0.43421000  0.09203000  1.0
  C  C101  1  0.40496000  0.47375000  0.43422000  1.0
  C  C102  1  0.47277000  0.87283000  0.55881000  1.0
  C  C103  1  0.47278000  0.56836000  0.87284000  1.0
  C  C104  1  0.47279000  0.55880000  0.56837000  1.0
  C  C105  1  0.52723000  0.12717000  0.44120000  1.0
  C  C106  1  0.52722000  0.43163000  0.12717000  1.0
  C  C107  1  0.52722000  0.44120000  0.43163000  1.0
  C  C108  1  0.46693000  0.80900000  0.63996000  1.0
  C  C109  1  0.46693000  0.55105000  0.80899000  1.0
  C  C110  1  0.46694000  0.63995000  0.55105000  1.0
  C  C111  1  0.53308000  0.19100000  0.36005000  1.0
  C  C112  1  0.53308000  0.44895000  0.19100000  1.0
  C  C113  1  0.53308000  0.36004000  0.44896000  1.0
  C  C114  1  0.58340000  0.78251000  0.68547000  1.0
  C  C115  1  0.58339000  0.53202000  0.78251000  1.0
  C  C116  1  0.58340000  0.68547000  0.53203000  1.0
  C  C117  1  0.41662000  0.21749000  0.31453000  1.0
  C  C118  1  0.41662000  0.46798000  0.21749000  1.0
  C  C119  1  0.41662000  0.31453000  0.46798000  1.0
  C  C120  1  0.70157000  0.82122000  0.64882000  1.0
  C  C121  1  0.70156000  0.52996000  0.82122000  1.0
  C  C122  1  0.70157000  0.64882000  0.52996000  1.0
  C  C123  1  0.29845000  0.17878000  0.35118000  1.0
  C  C124  1  0.29844000  0.47004000  0.17878000  1.0
  C  C125  1  0.29844000  0.35117000  0.47005000  1.0
  C  C126  1  0.93119000  0.74542000  0.24624000  1.0
  C  C127  1  0.93119000  0.00835000  0.74542000  1.0
  C  C128  1  0.93119000  0.24623000  0.00835000  1.0
  C  C129  1  0.06881000  0.25459000  0.75377000  1.0
  C  C130  1  0.06881000  0.99165000  0.25458000  1.0
  C  C131  1  0.06880000  0.75377000  0.99165000  1.0
  C  C132  1  0.95084000  0.76774000  0.16445000  1.0
  C  C133  1  0.95083000  0.06782000  0.76774000  1.0
  C  C134  1  0.95083000  0.16443000  0.06782000  1.0
  C  C135  1  0.04917000  0.23226000  0.83557000  1.0
  C  C136  1  0.04918000  0.93218000  0.23225000  1.0
  C  C137  1  0.04917000  0.83557000  0.93217000  1.0
  C  C138  1  0.86587000  0.82350000  0.10386000  1.0
  C  C139  1  0.86586000  0.07265000  0.82349000  1.0
  C  C140  1  0.86587000  0.10385000  0.07265000  1.0
  C  C141  1  0.13413000  0.17650000  0.89614000  1.0
  C  C142  1  0.13415000  0.92735000  0.17650000  1.0
  C  C143  1  0.13415000  0.89615000  0.92735000  1.0
  C  C144  1  0.76119000  0.85736000  0.12512000  1.0
  C  C145  1  0.76118000  0.01752000  0.85735000  1.0
  C  C146  1  0.76118000  0.12513000  0.01752000  1.0
  C  C147  1  0.23881000  0.14264000  0.87487000  1.0
  C  C148  1  0.23882000  0.98248000  0.14265000  1.0
  C  C149  1  0.23882000  0.87487000  0.98249000  1.0
  C  C150  1  0.74119000  0.83478000  0.20704000  1.0
  C  C151  1  0.74120000  0.95818000  0.83477000  1.0
  C  C152  1  0.74120000  0.20705000  0.95817000  1.0
  C  C153  1  0.25881000  0.16523000  0.79295000  1.0
  C  C154  1  0.25881000  0.04182000  0.16523000  1.0
  C  C155  1  0.25880000  0.79295000  0.04183000  1.0
  C  C156  1  0.82587000  0.77841000  0.26791000  1.0
  C  C157  1  0.82589000  0.95368000  0.77841000  1.0
  C  C158  1  0.82588000  0.26791000  0.95368000  1.0
  C  C159  1  0.17412000  0.22160000  0.73209000  1.0
  C  C160  1  0.17411000  0.04632000  0.22159000  1.0
  C  C161  1  0.17410000  0.73209000  0.04632000  1.0
  C  C162  1  0.10880000  0.89712000  0.46385000  1.0
  C  C163  1  0.10881000  0.63903000  0.89712000  1.0
  C  C164  1  0.10880000  0.46385000  0.63902000  1.0
  C  C165  1  0.89118000  0.10287000  0.53615000  1.0
  C  C166  1  0.89119000  0.36098000  0.10286000  1.0
  C  C167  1  0.89118000  0.53615000  0.36097000  1.0
  C  C168  1  0.17046000  0.84448000  0.43432000  1.0
  C  C169  1  0.17045000  0.72121000  0.84449000  1.0
  C  C170  1  0.17045000  0.43432000  0.72119000  1.0
  C  C171  1  0.82953000  0.15551000  0.56567000  1.0
  C  C172  1  0.82953000  0.27881000  0.15550000  1.0
  C  C173  1  0.82954000  0.56568000  0.27881000  1.0
  C  C174  1  0.28434000  0.87102000  0.38643000  1.0
  C  C175  1  0.28433000  0.74256000  0.87104000  1.0
  C  C176  1  0.28434000  0.38642000  0.74255000  1.0
  C  C177  1  0.71564000  0.12897000  0.61358000  1.0
  C  C178  1  0.71565000  0.25745000  0.12896000  1.0
  C  C179  1  0.71565000  0.61358000  0.25745000  1.0
  C  C180  1  0.33730000  0.82565000  0.35265000  1.0
  C  C181  1  0.33730000  0.82171000  0.82566000  1.0
  C  C182  1  0.33730000  0.35264000  0.82170000  1.0
  C  C183  1  0.66269000  0.17434000  0.64735000  1.0
  C  C184  1  0.66270000  0.17830000  0.17435000  1.0
  C  C185  1  0.66271000  0.64735000  0.17831000  1.0
  C  C186  1  0.27820000  0.75122000  0.37077000  1.0
  C  C187  1  0.27820000  0.87802000  0.75123000  1.0
  C  C188  1  0.27820000  0.37076000  0.87801000  1.0
  C  C189  1  0.72178000  0.24878000  0.62922000  1.0
  C  C190  1  0.72180000  0.12200000  0.24877000  1.0
  C  C191  1  0.72180000  0.62923000  0.12200000  1.0
  C  C192  1  0.16511000  0.72466000  0.41991000  1.0
  C  C193  1  0.16512000  0.85544000  0.72467000  1.0
  C  C194  1  0.16511000  0.41990000  0.85543000  1.0
  C  C195  1  0.83489000  0.27534000  0.58008000  1.0
  C  C196  1  0.83489000  0.14457000  0.27534000  1.0
  C  C197  1  0.83490000  0.58010000  0.14457000  1.0
  C  C198  1  0.10961000  0.77139000  0.45078000  1.0
  C  C199  1  0.10960000  0.77784000  0.77140000  1.0
  C  C200  1  0.10960000  0.45078000  0.77783000  1.0
  C  C201  1  0.89038000  0.22861000  0.54921000  1.0
  C  C202  1  0.89039000  0.22219000  0.22860000  1.0
  C  C203  1  0.89040000  0.54922000  0.22217000  1.0
  C  C204  1  0.10333000  0.64475000  0.44001000  1.0
  C  C205  1  0.10336000  0.91525000  0.64475000  1.0
  C  C206  1  0.10336000  0.44000000  0.91525000  1.0
  C  C207  1  0.89665000  0.35525000  0.56000000  1.0
  C  C208  1  0.89666000  0.08476000  0.35525000  1.0
  C  C209  1  0.89666000  0.56000000  0.08475000  1.0
  C  C210  1  0.52416000  0.82414000  0.26803000  1.0
  C  C211  1  0.52416000  0.90784000  0.82415000  1.0
  C  C212  1  0.52417000  0.26803000  0.90783000  1.0
  C  C213  1  0.47583000  0.17587000  0.73197000  1.0
  C  C214  1  0.47584000  0.09216000  0.17586000  1.0
  C  C215  1  0.47583000  0.73197000  0.09217000  1.0
  N  N216  1  0.70734000  0.88294000  0.57057000  1.0
  N  N217  1  0.70736000  0.54650000  0.88293000  1.0
  N  N218  1  0.70736000  0.57057000  0.54649000  1.0
  N  N219  1  0.29266000  0.11706000  0.42944000  1.0
  N  N220  1  0.29265000  0.45350000  0.11707000  1.0
  N  N221  1  0.29265000  0.42943000  0.45351000  1.0
  N  N222  1  0.44826000  0.85881000  0.30281000  1.0
  N  N223  1  0.44826000  0.83838000  0.85882000  1.0
  N  N224  1  0.44826000  0.30280000  0.83838000  1.0
  N  N225  1  0.55174000  0.14118000  0.69720000  1.0
  N  N226  1  0.55174000  0.16162000  0.14118000  1.0
  N  N227  1  0.55174000  0.69719000  0.16163000  1.0
  N  N228  1  0.63423000  0.86985000  0.22870000  1.0
  N  N229  1  0.63424000  0.90145000  0.86985000  1.0
  N  N230  1  0.63424000  0.22870000  0.90144000  1.0
  N  N231  1  0.36576000  0.13015000  0.77129000  1.0
  N  N232  1  0.36576000  0.09856000  0.13015000  1.0
  N  N233  1  0.36576000  0.77129000  0.09856000  1.0
  O  O234  1  0.99154000  0.87916000  0.49146000  1.0
  O  O235  1  0.99156000  0.62938000  0.87915000  1.0
  O  O236  1  0.99156000  0.49147000  0.62937000  1.0
  O  O237  1  0.00844000  0.12083000  0.50854000  1.0
  O  O238  1  0.00845000  0.37062000  0.12081000  1.0
  O  O239  1  0.00845000  0.50852000  0.37063000  1.0
  O  O240  1  0.17192000  0.59610000  0.42642000  1.0
  O  O241  1  0.17194000  0.97748000  0.59611000  1.0
  O  O242  1  0.17195000  0.42642000  0.97746000  1.0
  O  O243  1  0.82808000  0.40389000  0.57358000  1.0
  O  O244  1  0.82807000  0.02254000  0.40388000  1.0
  O  O245  1  0.82808000  0.57359000  0.02252000  1.0
  O  O246  1  0.17810000  0.95642000  0.45764000  1.0
  O  O247  1  0.17811000  0.58594000  0.95643000  1.0
  O  O248  1  0.17812000  0.45763000  0.58593000  1.0
  O  O249  1  0.82188000  0.04357000  0.54237000  1.0
  O  O250  1  0.82187000  0.41407000  0.04357000  1.0
  O  O251  1  0.82190000  0.54237000  0.41405000  1.0
  O  O252  1  0.98677000  0.63170000  0.46938000  1.0
  O  O253  1  0.98677000  0.89894000  0.63169000  1.0
  O  O254  1  0.98677000  0.46937000  0.89893000  1.0
  O  O255  1  0.01324000  0.36830000  0.53062000  1.0
  O  O256  1  0.01324000  0.10108000  0.36829000  1.0
  O  O257  1  0.01324000  0.53062000  0.10107000  1.0
  O  O258  1  0.49815000  0.75795000  0.27066000  1.0
  O  O259  1  0.49814000  0.97139000  0.75796000  1.0
  O  O260  1  0.49815000  0.27066000  0.97138000  1.0
  O  O261  1  0.50185000  0.24205000  0.72933000  1.0
  O  O262  1  0.50186000  0.02861000  0.24204000  1.0
  O  O263  1  0.50184000  0.72933000  0.02863000  1.0
