# generated using pymatgen
data_AgH6C5S4NO3
_symmetry_space_group_name_H-M   'P 1'
_cell_length_a   7.68991000
_cell_length_b   9.12087000
_cell_length_c   14.41920000
_cell_angle_alpha   89.99900000
_cell_angle_beta   88.34390000
_cell_angle_gamma   89.99750000
_symmetry_Int_Tables_number   1
_chemical_formula_structural   AgH6C5S4NO3
_chemical_formula_sum   'Ag4 H24 C20 S16 N4 O12'
_cell_volume   1010.92105979
_cell_formula_units_Z   4
loop_
 _symmetry_equiv_pos_site_id
 _symmetry_equiv_pos_as_xyz
  1  'x, y, z'
loop_
 _atom_site_type_symbol
 _atom_site_label
 _atom_site_symmetry_multiplicity
 _atom_site_fract_x
 _atom_site_fract_y
 _atom_site_fract_z
 _atom_site_occupancy
  Ag  Ag0  1  0.42144000  0.49269000  0.87281000  1.0
  Ag  Ag1  1  0.92142000  0.00729000  0.87282000  1.0
  Ag  Ag2  1  0.57859000  0.50730000  0.12719000  1.0
  Ag  Ag3  1  0.07856000  0.99270000  0.12719000  1.0
  H  H4  1  0.55083000  0.29365000  0.58932000  1.0
  H  H5  1  0.05080000  0.20637000  0.58933000  1.0
  H  H6  1  0.44918000  0.70638000  0.41067000  1.0
  H  H7  1  0.94921000  0.79363000  0.41067000  1.0
  H  H8  1  0.47988000  0.23322000  0.70440000  1.0
  H  H9  1  0.97988000  0.26678000  0.70441000  1.0
  H  H10  1  0.52012000  0.76679000  0.29559000  1.0
  H  H11  1  0.02014000  0.73321000  0.29559000  1.0
  H  H12  1  0.69726000  0.29411000  0.68360000  1.0
  H  H13  1  0.19726000  0.20589000  0.68359000  1.0
  H  H14  1  0.30274000  0.70590000  0.31640000  1.0
  H  H15  1  0.80275000  0.79410000  0.31641000  1.0
  H  H16  1  0.85976000  0.59332000  0.83084000  1.0
  H  H17  1  0.35977000  0.90667000  0.83081000  1.0
  H  H18  1  0.14025000  0.40671000  0.16919000  1.0
  H  H19  1  0.64023000  0.09331000  0.16915000  1.0
  H  H20  1  0.97540000  0.59262000  0.93631000  1.0
  H  H21  1  0.47542000  0.90732000  0.93627000  1.0
  H  H22  1  0.02460000  0.40738000  0.06372000  1.0
  H  H23  1  0.52456000  0.09261000  0.06369000  1.0
  H  H24  1  0.99677000  0.43837000  0.85859000  1.0
  H  H25  1  0.49679000  0.06160000  0.85857000  1.0
  H  H26  1  0.00320000  0.56164000  0.14143000  1.0
  H  H27  1  0.50321000  0.93836000  0.14141000  1.0
  C  C28  1  0.56201000  0.30933000  0.66418000  1.0
  C  C29  1  0.06200000  0.19067000  0.66418000  1.0
  C  C30  1  0.43800000  0.69069000  0.33581000  1.0
  C  C31  1  0.93802000  0.80932000  0.33582000  1.0
  C  C32  1  0.97861000  0.55703000  0.86383000  1.0
  C  C33  1  0.47863000  0.94294000  0.86380000  1.0
  C  C34  1  0.02138000  0.44298000  0.13619000  1.0
  C  C35  1  0.52137000  0.05702000  0.13617000  1.0
  C  C36  1  0.16616000  0.58162000  0.69877000  1.0
  C  C37  1  0.66617000  0.91837000  0.69876000  1.0
  C  C38  1  0.83384000  0.41839000  0.30124000  1.0
  C  C39  1  0.33382000  0.08163000  0.30123000  1.0
  C  C40  1  0.30492000  0.52101000  0.65164000  1.0
  C  C41  1  0.80493000  0.97900000  0.65163000  1.0
  C  C42  1  0.69509000  0.47900000  0.34837000  1.0
  C  C43  1  0.19507000  0.02101000  0.34837000  1.0
  C  C44  1  0.05234000  0.51824000  0.53542000  1.0
  C  C45  1  0.55237000  0.98180000  0.53540000  1.0
  C  C46  1  0.94764000  0.48179000  0.46460000  1.0
  C  C47  1  0.44766000  0.01827000  0.46458000  1.0
  S  S48  1  0.51193000  0.49725000  0.69575000  1.0
  S  S49  1  0.01193000  0.00275000  0.69574000  1.0
  S  S50  1  0.48807000  0.50276000  0.30425000  1.0
  S  S51  1  0.98807000  0.99723000  0.30425000  1.0
  S  S52  1  0.16793000  0.64733000  0.81256000  1.0
  S  S53  1  0.66795000  0.85265000  0.81253000  1.0
  S  S54  1  0.83208000  0.35267000  0.18746000  1.0
  S  S55  1  0.33205000  0.14733000  0.18744000  1.0
  S  S56  1  0.27685000  0.48076000  0.53382000  1.0
  S  S57  1  0.77687000  0.01928000  0.53381000  1.0
  S  S58  1  0.72313000  0.51926000  0.46620000  1.0
  S  S59  1  0.22315000  0.98077000  0.46619000  1.0
  S  S60  1  0.97635000  0.60924000  0.63616000  1.0
  S  S61  1  0.47638000  0.89076000  0.63612000  1.0
  S  S62  1  0.02363000  0.39076000  0.36387000  1.0
  S  S63  1  0.52362000  0.10928000  0.36384000  1.0
  N  N64  1  0.23108000  0.19785000  0.93433000  1.0
  N  N65  1  0.73110000  0.30212000  0.93435000  1.0
  N  N66  1  0.76890000  0.80213000  0.06567000  1.0
  N  N67  1  0.26891000  0.69785000  0.06566000  1.0
  O  O68  1  0.19932000  0.24845000  0.85488000  1.0
  O  O69  1  0.69931000  0.25150000  0.85492000  1.0
  O  O70  1  0.80065000  0.75154000  0.14511000  1.0
  O  O71  1  0.30065000  0.74847000  0.14511000  1.0
  O  O72  1  0.33109000  0.26416000  0.98771000  1.0
  O  O73  1  0.83114000  0.23584000  0.98774000  1.0
  O  O74  1  0.66888000  0.73583000  0.01227000  1.0
  O  O75  1  0.16890000  0.76417000  0.01228000  1.0
  O  O76  1  0.16237000  0.07567000  0.96038000  1.0
  O  O77  1  0.66235000  0.42431000  0.96040000  1.0
  O  O78  1  0.83763000  0.92432000  0.03961000  1.0
  O  O79  1  0.33765000  0.57569000  0.03962000  1.0
