# generated using pymatgen
data_CuH9C12S(N2O)2
_symmetry_space_group_name_H-M   'P 1'
_cell_length_a   7.85889000
_cell_length_b   10.23500000
_cell_length_c   15.70050000
_cell_angle_alpha   94.42890000
_cell_angle_beta   90.00000000
_cell_angle_gamma   90.00000000
_symmetry_Int_Tables_number   1
_chemical_formula_structural   CuH9C12S(N2O)2
_chemical_formula_sum   'Cu4 H36 C48 S4 N16 O8'
_cell_volume   1259.11026835
_cell_formula_units_Z   4
loop_
 _symmetry_equiv_pos_site_id
 _symmetry_equiv_pos_as_xyz
  1  'x, y, z'
loop_
 _atom_site_type_symbol
 _atom_site_label
 _atom_site_symmetry_multiplicity
 _atom_site_fract_x
 _atom_site_fract_y
 _atom_site_fract_z
 _atom_site_occupancy
  Cu  Cu0  1  0.32948000  0.22625000  0.80064000  1.0
  Cu  Cu1  1  0.82948000  0.27376000  0.19937000  1.0
  Cu  Cu2  1  0.67052000  0.77376000  0.19936000  1.0
  Cu  Cu3  1  0.17051000  0.72625000  0.80063000  1.0
  H  H4  1  0.32425000  0.94586000  0.61143000  1.0
  H  H5  1  0.82425000  0.55414000  0.38856000  1.0
  H  H6  1  0.67575000  0.05414000  0.38856000  1.0
  H  H7  1  0.17575000  0.44586000  0.61144000  1.0
  H  H8  1  0.49990000  0.24211000  0.98436000  1.0
  H  H9  1  0.99991000  0.25789000  0.01564000  1.0
  H  H10  1  0.50009000  0.75788000  0.01564000  1.0
  H  H11  1  0.00009000  0.74211000  0.98436000  1.0
  H  H12  1  0.73180000  0.11973000  0.05127000  1.0
  H  H13  1  0.23179000  0.38027000  0.94873000  1.0
  H  H14  1  0.26821000  0.88027000  0.94873000  1.0
  H  H15  1  0.76820000  0.61972000  0.05127000  1.0
  H  H16  1  0.85684000  0.92203000  0.96896000  1.0
  H  H17  1  0.35683000  0.57797000  0.03105000  1.0
  H  H18  1  0.14317000  0.07798000  0.03104000  1.0
  H  H19  1  0.64317000  0.42202000  0.96895000  1.0
  H  H20  1  0.74397000  0.85552000  0.82286000  1.0
  H  H21  1  0.24396000  0.64448000  0.17715000  1.0
  H  H22  1  0.25604000  0.14448000  0.17715000  1.0
  H  H23  1  0.75603000  0.35552000  0.82285000  1.0
  H  H24  1  0.51523000  0.89049000  0.70796000  1.0
  H  H25  1  0.01522000  0.60951000  0.29204000  1.0
  H  H26  1  0.48478000  0.10951000  0.29204000  1.0
  H  H27  1  0.98477000  0.39049000  0.70796000  1.0
  H  H28  1  0.29642000  0.88524000  0.47097000  1.0
  H  H29  1  0.79641000  0.61477000  0.52903000  1.0
  H  H30  1  0.70359000  0.11477000  0.52903000  1.0
  H  H31  1  0.20358000  0.38523000  0.47098000  1.0
  H  H32  1  0.14534000  0.91339000  0.31651000  1.0
  H  H33  1  0.64533000  0.58661000  0.68349000  1.0
  H  H34  1  0.85467000  0.08661000  0.68349000  1.0
  H  H35  1  0.35467000  0.41338000  0.31652000  1.0
  H  H36  1  0.00711000  0.16172000  0.33172000  1.0
  H  H37  1  0.50711000  0.33828000  0.66828000  1.0
  H  H38  1  0.99289000  0.83828000  0.66828000  1.0
  H  H39  1  0.49290000  0.66172000  0.33172000  1.0
  C  C40  1  0.55956000  0.15784000  0.94945000  1.0
  C  C41  1  0.05956000  0.34216000  0.05055000  1.0
  C  C42  1  0.44044000  0.84215000  0.05055000  1.0
  C  C43  1  0.94043000  0.65784000  0.94945000  1.0
  C  C44  1  0.68846000  0.08871000  0.98694000  1.0
  C  C45  1  0.18846000  0.41129000  0.01306000  1.0
  C  C46  1  0.31154000  0.91129000  0.01306000  1.0
  C  C47  1  0.81154000  0.58870000  0.98694000  1.0
  C  C48  1  0.75610000  0.97829000  0.94134000  1.0
  C  C49  1  0.25610000  0.52171000  0.05866000  1.0
  C  C50  1  0.24390000  0.02171000  0.05866000  1.0
  C  C51  1  0.74389000  0.47829000  0.94134000  1.0
  C  C52  1  0.69306000  0.94069000  0.86031000  1.0
  C  C53  1  0.19305000  0.55931000  0.13968000  1.0
  C  C54  1  0.30695000  0.05931000  0.13969000  1.0
  C  C55  1  0.80695000  0.44068000  0.86031000  1.0
  C  C56  1  0.56411000  0.01608000  0.82650000  1.0
  C  C57  1  0.06411000  0.48392000  0.17350000  1.0
  C  C58  1  0.43590000  0.98392000  0.17350000  1.0
  C  C59  1  0.93589000  0.51608000  0.82650000  1.0
  C  C60  1  0.49282000  0.98611000  0.74215000  1.0
  C  C61  1  0.99282000  0.51389000  0.25784000  1.0
  C  C62  1  0.50718000  0.01389000  0.25784000  1.0
  C  C63  1  0.00717000  0.48611000  0.74216000  1.0
  C  C64  1  0.24927000  0.13645000  0.58713000  1.0
  C  C65  1  0.74926000  0.36355000  0.41287000  1.0
  C  C66  1  0.75074000  0.86355000  0.41287000  1.0
  C  C67  1  0.25074000  0.63645000  0.58713000  1.0
  C  C68  1  0.20049000  0.08635000  0.50098000  1.0
  C  C69  1  0.70048000  0.41365000  0.49902000  1.0
  C  C70  1  0.79952000  0.91365000  0.49902000  1.0
  C  C71  1  0.29952000  0.58635000  0.50098000  1.0
  C  C72  1  0.22906000  0.97085000  0.45186000  1.0
  C  C73  1  0.72905000  0.52915000  0.54814000  1.0
  C  C74  1  0.77095000  0.02915000  0.54814000  1.0
  C  C75  1  0.27095000  0.47085000  0.45186000  1.0
  C  C76  1  0.15164000  0.98515000  0.37109000  1.0
  C  C77  1  0.65163000  0.51485000  0.62891000  1.0
  C  C78  1  0.84836000  0.01485000  0.62891000  1.0
  C  C79  1  0.34837000  0.48515000  0.37109000  1.0
  C  C80  1  0.08144000  0.10818000  0.37565000  1.0
  C  C81  1  0.58143000  0.39182000  0.62435000  1.0
  C  C82  1  0.91856000  0.89182000  0.62435000  1.0
  C  C83  1  0.41857000  0.60818000  0.37565000  1.0
  C  C84  1  0.40991000  0.51890000  0.81959000  1.0
  C  C85  1  0.90991000  0.98109000  0.18041000  1.0
  C  C86  1  0.59009000  0.48110000  0.18041000  1.0
  C  C87  1  0.09008000  0.01891000  0.81959000  1.0
  S  S88  1  0.44715000  0.67639000  0.83026000  1.0
  S  S89  1  0.94715000  0.82363000  0.16974000  1.0
  S  S90  1  0.55284000  0.32362000  0.16974000  1.0
  S  S91  1  0.05283000  0.17639000  0.83027000  1.0
  N  N92  1  0.49843000  0.12383000  0.87113000  1.0
  N  N93  1  0.99843000  0.37617000  0.12886000  1.0
  N  N94  1  0.50157000  0.87617000  0.12887000  1.0
  N  N95  1  0.00156000  0.62383000  0.87113000  1.0
  N  N96  1  0.40091000  0.07652000  0.70982000  1.0
  N  N97  1  0.90090000  0.42348000  0.29018000  1.0
  N  N98  1  0.59910000  0.92347000  0.29018000  1.0
  N  N99  1  0.09910000  0.57653000  0.70982000  1.0
  N  N100  1  0.32814000  0.04356000  0.63280000  1.0
  N  N101  1  0.82813000  0.45644000  0.36721000  1.0
  N  N102  1  0.67187000  0.95644000  0.36720000  1.0
  N  N103  1  0.17186000  0.54356000  0.63279000  1.0
  N  N104  1  0.38032000  0.40538000  0.81037000  1.0
  N  N105  1  0.88031000  0.09465000  0.18963000  1.0
  N  N106  1  0.61969000  0.59463000  0.18962000  1.0
  N  N107  1  0.11967000  0.90538000  0.81037000  1.0
  O  O108  1  0.22666000  0.25193000  0.61566000  1.0
  O  O109  1  0.72665000  0.24807000  0.38434000  1.0
  O  O110  1  0.77334000  0.74807000  0.38434000  1.0
  O  O111  1  0.27334000  0.75193000  0.61566000  1.0
  O  O112  1  0.10992000  0.17121000  0.45421000  1.0
  O  O113  1  0.60992000  0.32879000  0.54578000  1.0
  O  O114  1  0.89008000  0.82879000  0.54578000  1.0
  O  O115  1  0.39009000  0.67121000  0.45422000  1.0
