# generated using pymatgen
data_InH10C16(NO4)2
_symmetry_space_group_name_H-M   'P 1'
_cell_length_a   15.20330000
_cell_length_b   15.20178863
_cell_length_c   18.02017973
_cell_angle_alpha   102.50901693
_cell_angle_beta   102.50974165
_cell_angle_gamma   119.11609248
_symmetry_Int_Tables_number   1
_chemical_formula_structural   InH10C16(NO4)2
_chemical_formula_sum   'In4 H40 C64 N8 O32'
_cell_volume   3289.25670644
_cell_formula_units_Z   4
loop_
 _symmetry_equiv_pos_site_id
 _symmetry_equiv_pos_as_xyz
  1  'x, y, z'
loop_
 _atom_site_type_symbol
 _atom_site_label
 _atom_site_symmetry_multiplicity
 _atom_site_fract_x
 _atom_site_fract_y
 _atom_site_fract_z
 _atom_site_occupancy
  In  In0  1  0.68573000  0.43565000  0.87153000  1.0
  In  In1  1  0.06432000  0.81434000  0.62854000  1.0
  In  In2  1  0.31430000  0.56436000  0.12849000  1.0
  In  In3  1  0.93559000  0.18565000  0.37146000  1.0
  H  H4  1  0.92268000  0.81073000  0.04158000  1.0
  H  H5  1  0.61851000  0.23051000  0.04142000  1.0
  H  H6  1  0.68926000  0.57726000  0.45843000  1.0
  H  H7  1  0.26947000  0.88145000  0.45862000  1.0
  H  H8  1  0.07731000  0.18930000  0.95845000  1.0
  H  H9  1  0.38146000  0.76947000  0.95856000  1.0
  H  H10  1  0.31067000  0.42269000  0.54155000  1.0
  H  H11  1  0.73051000  0.11850000  0.54142000  1.0
  H  H12  1  0.55574000  0.63054000  0.10987000  1.0
  H  H13  1  0.05395000  0.47918000  0.11008000  1.0
  H  H14  1  0.86952000  0.94424000  0.39008000  1.0
  H  H15  1  0.02090000  0.44603000  0.38998000  1.0
  H  H16  1  0.44421000  0.36949000  0.89004000  1.0
  H  H17  1  0.94604000  0.52085000  0.88993000  1.0
  H  H18  1  0.13056000  0.05573000  0.60992000  1.0
  H  H19  1  0.97920000  0.55397000  0.61010000  1.0
  H  H20  1  0.58253000  0.55855000  0.03393000  1.0
  H  H21  1  0.95122000  0.47511000  0.03400000  1.0
  H  H22  1  0.94147000  0.91738000  0.46602000  1.0
  H  H23  1  0.02496000  0.54871000  0.46605000  1.0
  H  H24  1  0.41741000  0.44151000  0.96599000  1.0
  H  H25  1  0.04870000  0.52488000  0.96602000  1.0
  H  H26  1  0.05857000  0.08254000  0.53398000  1.0
  H  H27  1  0.97518000  0.45129000  0.53404000  1.0
  H  H28  1  0.98834000  0.98128000  0.15809000  1.0
  H  H29  1  0.66927000  0.17634000  0.15791000  1.0
  H  H30  1  0.51869000  0.51167000  0.34190000  1.0
  H  H31  1  0.32370000  0.83079000  0.34213000  1.0
  H  H32  1  0.01168000  0.01871000  0.84193000  1.0
  H  H33  1  0.33077000  0.82366000  0.84207000  1.0
  H  H34  1  0.48127000  0.48836000  0.65805000  1.0
  H  H35  1  0.67628000  0.16923000  0.65787000  1.0
  H  H36  1  0.68609000  0.81473000  0.19270000  1.0
  H  H37  1  0.00621000  0.37775000  0.19290000  1.0
  H  H38  1  0.68537000  0.81397000  0.30727000  1.0
  H  H39  1  0.12232000  0.49373000  0.30717000  1.0
  H  H40  1  0.31392000  0.18532000  0.80724000  1.0
  H  H41  1  0.99375000  0.62227000  0.80710000  1.0
  H  H42  1  0.31479000  0.18610000  0.69274000  1.0
  H  H43  1  0.87776000  0.50627000  0.69289000  1.0
  C  C44  1  0.73692000  0.61768000  0.98526000  1.0
  C  C45  1  0.74808000  0.36727000  0.98529000  1.0
  C  C46  1  0.88227000  0.76295000  0.51470000  1.0
  C  C47  1  0.13274000  0.75195000  0.51481000  1.0
  C  C48  1  0.26302000  0.38233000  0.01469000  1.0
  C  C49  1  0.25194000  0.63273000  0.01481000  1.0
  C  C50  1  0.11764000  0.23694000  0.48524000  1.0
  C  C51  1  0.86730000  0.24803000  0.48525000  1.0
  C  C52  1  0.77042000  0.71681000  0.05276000  1.0
  C  C53  1  0.78208000  0.33572000  0.05282000  1.0
  C  C54  1  0.78319000  0.72951000  0.44718000  1.0
  C  C55  1  0.16435000  0.71796000  0.44727000  1.0
  C  C56  1  0.22955000  0.28323000  0.94718000  1.0
  C  C57  1  0.21795000  0.66429000  0.94724000  1.0
  C  C58  1  0.21677000  0.27043000  0.55278000  1.0
  C  C59  1  0.83576000  0.28207000  0.55281000  1.0
  C  C60  1  0.70155000  0.71710000  0.09626000  1.0
  C  C61  1  0.89442000  0.37898000  0.09637000  1.0
  C  C62  1  0.78292000  0.79840000  0.40370000  1.0
  C  C63  1  0.12108000  0.60555000  0.40369000  1.0
  C  C64  1  0.29842000  0.28294000  0.90369000  1.0
  C  C65  1  0.10554000  0.62101000  0.90365000  1.0
  C  C66  1  0.21712000  0.20159000  0.59630000  1.0
  C  C67  1  0.87898000  0.39442000  0.59636000  1.0
  C  C68  1  0.87220000  0.81238000  0.07579000  1.0
  C  C69  1  0.70321000  0.26309000  0.07573000  1.0
  C  C70  1  0.68760000  0.62774000  0.42418000  1.0
  C  C71  1  0.23695000  0.79679000  0.42433000  1.0
  C  C72  1  0.12778000  0.18764000  0.92419000  1.0
  C  C73  1  0.29675000  0.73688000  0.92426000  1.0
  C  C74  1  0.31234000  0.37221000  0.57578000  1.0
  C  C75  1  0.76310000  0.20322000  0.57573000  1.0
  C  C76  1  0.90897000  0.90690000  0.14051000  1.0
  C  C77  1  0.73106000  0.23319000  0.14041000  1.0
  C  C78  1  0.59308000  0.59100000  0.35946000  1.0
  C  C79  1  0.26682000  0.76891000  0.35962000  1.0
  C  C80  1  0.09102000  0.09310000  0.85949000  1.0
  C  C81  1  0.26890000  0.76678000  0.85957000  1.0
  C  C82  1  0.40690000  0.40900000  0.64050000  1.0
  C  C83  1  0.73316000  0.23107000  0.64039000  1.0
  C  C84  1  0.73970000  0.81434000  0.16149000  1.0
  C  C85  1  0.92139000  0.34691000  0.16157000  1.0
  C  C86  1  0.68570000  0.76030000  0.33848000  1.0
  C  C87  1  0.15315000  0.57858000  0.33846000  1.0
  C  C88  1  0.26030000  0.18569000  0.83848000  1.0
  C  C89  1  0.07859000  0.65311000  0.83842000  1.0
  C  C90  1  0.31440000  0.23975000  0.66152000  1.0
  C  C91  1  0.84690000  0.42141000  0.66156000  1.0
  C  C92  1  0.84240000  0.90665000  0.18423000  1.0
  C  C93  1  0.84135000  0.27722000  0.18417000  1.0
  C  C94  1  0.59337000  0.65761000  0.31576000  1.0
  C  C95  1  0.22279000  0.65859000  0.31580000  1.0
  C  C96  1  0.15762000  0.09338000  0.81579000  1.0
  C  C97  1  0.15859000  0.72277000  0.81576000  1.0
  C  C98  1  0.40672000  0.34245000  0.68424000  1.0
  C  C99  1  0.77721000  0.34139000  0.68419000  1.0
  C  C100  1  0.88121000  0.00561000  0.25530000  1.0
  C  C101  1  0.87357000  0.24928000  0.25521000  1.0
  C  C102  1  0.49440000  0.61883000  0.24470000  1.0
  C  C103  1  0.25065000  0.62633000  0.24471000  1.0
  C  C104  1  0.11882000  0.99441000  0.74473000  1.0
  C  C105  1  0.12633000  0.75068000  0.74469000  1.0
  C  C106  1  0.50573000  0.38129000  0.75532000  1.0
  C  C107  1  0.74929000  0.37364000  0.75527000  1.0
  N  N108  1  0.60285000  0.62821000  0.07751000  1.0
  N  N109  1  0.97444000  0.44909000  0.07766000  1.0
  N  N110  1  0.87182000  0.89710000  0.42245000  1.0
  N  N111  1  0.05095000  0.52551000  0.42238000  1.0
  N  N112  1  0.39713000  0.37183000  0.92244000  1.0
  N  N113  1  0.02551000  0.55089000  0.92235000  1.0
  N  N114  1  0.12825000  0.10288000  0.57757000  1.0
  N  N115  1  0.94912000  0.47447000  0.57767000  1.0
  O  O116  1  0.79838000  0.62060000  0.94641000  1.0
  O  O117  1  0.64780000  0.32553000  0.94645000  1.0
  O  O118  1  0.87933000  0.70149000  0.55354000  1.0
  O  O119  1  0.17445000  0.85224000  0.55364000  1.0
  O  O120  1  0.20156000  0.37939000  0.05353000  1.0
  O  O121  1  0.35222000  0.67446000  0.05366000  1.0
  O  O122  1  0.12054000  0.29838000  0.44639000  1.0
  O  O123  1  0.82555000  0.14773000  0.44640000  1.0
  O  O124  1  0.64589000  0.52721000  0.96690000  1.0
  O  O125  1  0.82079000  0.43935000  0.96693000  1.0
  O  O126  1  0.97275000  0.85400000  0.53307000  1.0
  O  O127  1  0.06065000  0.67921000  0.53314000  1.0
  O  O128  1  0.35406000  0.47281000  0.03307000  1.0
  O  O129  1  0.17921000  0.56065000  0.03317000  1.0
  O  O130  1  0.02716000  0.14589000  0.46689000  1.0
  O  O131  1  0.93937000  0.32075000  0.46689000  1.0
  O  O132  1  0.96109000  0.09788000  0.26465000  1.0
  O  O133  1  0.80303000  0.16638000  0.26454000  1.0
  O  O134  1  0.40215000  0.53895000  0.23538000  1.0
  O  O135  1  0.33357000  0.69686000  0.23538000  1.0
  O  O136  1  0.03891000  0.90216000  0.73540000  1.0
  O  O137  1  0.19684000  0.83359000  0.73533000  1.0
  O  O138  1  0.59798000  0.46116000  0.76465000  1.0
  O  O139  1  0.66641000  0.30311000  0.76462000  1.0
  O  O140  1  0.83230000  0.99612000  0.30584000  1.0
  O  O141  1  0.97303000  0.30927000  0.30569000  1.0
  O  O142  1  0.50390000  0.66777000  0.19419000  1.0
  O  O143  1  0.19062000  0.52686000  0.19418000  1.0
  O  O144  1  0.16772000  0.00387000  0.69421000  1.0
  O  O145  1  0.02684000  0.69065000  0.69419000  1.0
  O  O146  1  0.49624000  0.33237000  0.80585000  1.0
  O  O147  1  0.80930000  0.47311000  0.80577000  1.0
