# generated using pymatgen
data_Al4H20C31O21
_symmetry_space_group_name_H-M   'P 1'
_cell_length_a   6.65839000
_cell_length_b   12.49760000
_cell_length_c   17.24880000
_cell_angle_alpha   89.42920000
_cell_angle_beta   89.52320000
_cell_angle_gamma   89.83320000
_symmetry_Int_Tables_number   1
_chemical_formula_structural   Al4H20C31O21
_chemical_formula_sum   'Al4 H20 C31 O21'
_cell_volume   1435.21316477
_cell_formula_units_Z   1
loop_
 _symmetry_equiv_pos_site_id
 _symmetry_equiv_pos_as_xyz
  1  'x, y, z'
loop_
 _atom_site_type_symbol
 _atom_site_label
 _atom_site_symmetry_multiplicity
 _atom_site_fract_x
 _atom_site_fract_y
 _atom_site_fract_z
 _atom_site_occupancy
  Al  Al0  1  0.88960000  0.50200000  0.50184000  1.0
  Al  Al1  1  0.38937000  0.49622000  0.50143000  1.0
  Al  Al2  1  0.37574000  0.99175000  0.99895000  1.0
  Al  Al3  1  0.87637000  0.99513000  0.99887000  1.0
  H  H4  1  0.43076000  0.18220000  0.19093000  1.0
  H  H5  1  0.97204000  0.21661000  0.19013000  1.0
  H  H6  1  0.43768000  0.31046000  0.29915000  1.0
  H  H7  1  0.98332000  0.26938000  0.31626000  1.0
  H  H8  1  0.82074000  0.23496000  0.83090000  1.0
  H  H9  1  0.82248000  0.34639000  0.70892000  1.0
  H  H10  1  0.44029000  0.26224000  0.66829000  1.0
  H  H11  1  0.43918000  0.15069000  0.79050000  1.0
  H  H12  1  0.94996000  0.73259000  0.32533000  1.0
  H  H13  1  0.94211000  0.83906000  0.20102000  1.0
  H  H14  1  0.31646000  0.76542000  0.17549000  1.0
  H  H15  1  0.32367000  0.65918000  0.30011000  1.0
  H  H16  1  0.91770000  0.75849000  0.65416000  1.0
  H  H17  1  0.34209000  0.74173000  0.83905000  1.0
  H  H18  1  0.33758000  0.63283000  0.71809000  1.0
  H  H19  1  0.91429000  0.97329000  0.79877000  1.0
  H  H20  1  0.64863000  0.36649000  0.47152000  1.0
  H  H21  1  0.14700000  0.63465000  0.47412000  1.0
  H  H22  1  0.62162000  0.12728000  0.96995000  1.0
  H  H23  1  0.12381000  0.86246000  0.96597000  1.0
  C  C24  1  0.64334000  0.62496000  0.39294000  1.0
  C  C25  1  0.62936000  0.61976000  0.60878000  1.0
  C  C26  1  0.13071000  0.37741000  0.60995000  1.0
  C  C27  1  0.14501000  0.37143000  0.39585000  1.0
  C  C28  1  0.28751000  0.21252000  0.21332000  1.0
  C  C29  1  0.12058000  0.18719000  0.17362000  1.0
  C  C30  1  0.29227000  0.27805000  0.28223000  1.0
  C  C31  1  0.13251000  0.30102000  0.32789000  1.0
  C  C32  1  0.95580000  0.24168000  0.79510000  1.0
  C  C33  1  0.95632000  0.30319000  0.72753000  1.0
  C  C34  1  0.13163000  0.31069000  0.68215000  1.0
  C  C35  1  0.30631000  0.25613000  0.70479000  1.0
  C  C36  1  0.30586000  0.19493000  0.77261000  1.0
  C  C37  1  0.13075000  0.18765000  0.81820000  1.0
  C  C38  1  0.81206000  0.74033000  0.29214000  1.0
  C  C39  1  0.80803000  0.79905000  0.22332000  1.0
  C  C40  1  0.62901000  0.80787000  0.18135000  1.0
  C  C41  1  0.45379000  0.75804000  0.20913000  1.0
  C  C42  1  0.45781000  0.69959000  0.27821000  1.0
  C  C43  1  0.63709000  0.69024000  0.31999000  1.0
  C  C44  1  0.79225000  0.75341000  0.69508000  1.0
  C  C45  1  0.79228000  0.81823000  0.76073000  1.0
  C  C46  1  0.62997000  0.81153000  0.81408000  1.0
  C  C47  1  0.46763000  0.74450000  0.79832000  1.0
  C  C48  1  0.46567000  0.68324000  0.73147000  1.0
  C  C49  1  0.62983000  0.68637000  0.68012000  1.0
  C  C50  1  0.62855000  0.87207000  0.88843000  1.0
  C  C51  1  0.62628000  0.87157000  0.10770000  1.0
  C  C52  1  0.12528000  0.11703000  0.10535000  1.0
  C  C53  1  0.12914000  0.12103000  0.89045000  1.0
  C  C54  1  0.95393000  0.90001000  0.76615000  1.0
  O  O55  1  0.46186000  0.58107000  0.58832000  1.0
  O  O56  1  0.81610000  0.59449000  0.41593000  1.0
  O  O57  1  0.97740000  0.39302000  0.42915000  1.0
  O  O58  1  0.79622000  0.60680000  0.57352000  1.0
  O  O59  1  0.96248000  0.41611000  0.58911000  1.0
  O  O60  1  0.47622000  0.60418000  0.42637000  1.0
  O  O61  1  0.64178000  0.43313000  0.49972000  1.0
  O  O62  1  0.29713000  0.39068000  0.57424000  1.0
  O  O63  1  0.31734000  0.40523000  0.41612000  1.0
  O  O64  1  0.14131000  0.56512000  0.49934000  1.0
  O  O65  1  0.79558000  0.89981000  0.07966000  1.0
  O  O66  1  0.45752000  0.89387000  0.91797000  1.0
  O  O67  1  0.29832000  0.09402000  0.91868000  1.0
  O  O68  1  0.45606000  0.89302000  0.07821000  1.0
  O  O69  1  0.29515000  0.08617000  0.07940000  1.0
  O  O70  1  0.79852000  0.89565000  0.91742000  1.0
  O  O71  1  0.62477000  0.05831000  0.99607000  1.0
  O  O72  1  0.95479000  0.09268000  0.07727000  1.0
  O  O73  1  0.95712000  0.09581000  0.91845000  1.0
  O  O74  1  0.12509000  0.92762000  0.99598000  1.0
  O  O75  1  0.11778000  0.89154000  0.73375000  1.0
