# generated using pymatgen
data_CoH22C24S2(N2O3)2
_symmetry_space_group_name_H-M   'P 1'
_cell_length_a   8.79858000
_cell_length_b   8.80828000
_cell_length_c   9.25387000
_cell_angle_alpha   86.86830000
_cell_angle_beta   72.56610000
_cell_angle_gamma   62.03220000
_symmetry_Int_Tables_number   1
_chemical_formula_structural   CoH22C24S2(N2O3)2
_chemical_formula_sum   'Co1 H22 C24 S2 N4 O6'
_cell_volume   601.17609973
_cell_formula_units_Z   1
loop_
 _symmetry_equiv_pos_site_id
 _symmetry_equiv_pos_as_xyz
  1  'x, y, z'
loop_
 _atom_site_type_symbol
 _atom_site_label
 _atom_site_symmetry_multiplicity
 _atom_site_fract_x
 _atom_site_fract_y
 _atom_site_fract_z
 _atom_site_occupancy
  Co  Co0  1  0.50000000  0.00000000  0.50000000  1.0
  H  H1  1  0.30393000  0.15201000  0.76322000  1.0
  H  H2  1  0.69607000  0.84798000  0.23678000  1.0
  H  H3  1  0.40651000  0.26651000  0.71299000  1.0
  H  H4  1  0.59349000  0.73349000  0.28701000  1.0
  H  H5  1  0.09634000  0.14217000  0.65241000  1.0
  H  H6  1  0.90366000  0.85783000  0.34760000  1.0
  H  H7  1  0.41314000  0.04477000  0.20051000  1.0
  H  H8  1  0.58686000  0.95523000  0.79950000  1.0
  H  H9  1  0.14320000  0.15759000  0.11006000  1.0
  H  H10  1  0.85680000  0.84241000  0.88995000  1.0
  H  H11  1  0.83408000  0.27938000  0.30548000  1.0
  H  H12  1  0.16592000  0.72062000  0.69452000  1.0
  H  H13  1  0.77165000  0.23505000  0.72385000  1.0
  H  H14  1  0.22835000  0.76495000  0.27615000  1.0
  H  H15  1  0.68268000  0.22801000  0.57627000  1.0
  H  H16  1  0.31732000  0.77199000  0.42372000  1.0
  H  H17  1  0.09773000  0.87250000  0.05392000  1.0
  H  H18  1  0.90227000  0.12750000  0.94608000  1.0
  H  H19  1  0.06330000  0.61269000  0.15481000  1.0
  H  H20  1  0.93670000  0.38731000  0.84519000  1.0
  H  H21  1  0.27394000  0.32670000  0.00088000  1.0
  H  H22  1  0.72606000  0.67330000  0.99912000  1.0
  C  C23  1  0.09991000  0.15206000  0.53364000  1.0
  C  C24  1  0.90009000  0.84794000  0.46636000  1.0
  C  C25  1  0.27723000  0.09703000  0.28150000  1.0
  C  C26  1  0.72277000  0.90297000  0.71850000  1.0
  C  C27  1  0.12591000  0.16278000  0.23167000  1.0
  C  C28  1  0.87409000  0.83722000  0.76833000  1.0
  C  C29  1  0.95566000  0.22699000  0.33983000  1.0
  C  C30  1  0.04435000  0.77300000  0.66017000  1.0
  C  C31  1  0.94052000  0.22023000  0.49455000  1.0
  C  C32  1  0.05948000  0.77977000  0.50545000  1.0
  C  C33  1  0.75954000  0.27844000  0.61259000  1.0
  C  C34  1  0.24046000  0.72156000  0.38741000  1.0
  C  C35  1  0.44857000  0.55155000  0.78841000  1.0
  C  C36  1  0.55143000  0.44845000  0.21159000  1.0
  C  C37  1  0.32792000  0.72180000  0.86278000  1.0
  C  C38  1  0.67208000  0.27820000  0.13722000  1.0
  C  C39  1  0.19111000  0.74255000  0.99690000  1.0
  C  C40  1  0.80889000  0.25745000  0.00310000  1.0
  C  C41  1  0.17070000  0.60031000  0.05198000  1.0
  C  C42  1  0.82930000  0.39970000  0.94802000  1.0
  C  C43  1  0.28881000  0.44092000  0.96713000  1.0
  C  C44  1  0.71119000  0.55908000  0.03287000  1.0
  C  C45  1  0.33405000  0.87684000  0.79346000  1.0
  C  C46  1  0.66595000  0.12315000  0.20654000  1.0
  S  S47  1  0.63534000  0.51405000  0.62890000  1.0
  S  S48  1  0.36466000  0.48595000  0.37110000  1.0
  N  N49  1  0.26511000  0.09185000  0.43006000  1.0
  N  N50  1  0.73489000  0.90815000  0.56994000  1.0
  N  N51  1  0.42430000  0.41573000  0.83913000  1.0
  N  N52  1  0.57570000  0.58427000  0.16087000  1.0
  O  O53  1  0.41646000  0.85262000  0.65008000  1.0
  O  O54  1  0.58355000  0.14737000  0.34991000  1.0
  O  O55  1  0.25531000  0.02035000  0.87495000  1.0
  O  O56  1  0.74469000  0.97965000  0.12504000  1.0
  O  O57  1  0.35146000  0.20757000  0.67491000  1.0
  O  O58  1  0.64854000  0.79243000  0.32509000  1.0
