# generated using pymatgen
data_CdH10C14(SN6)2
_symmetry_space_group_name_H-M   'P 1'
_cell_length_a   7.32483000
_cell_length_b   10.99400000
_cell_length_c   13.42219408
_cell_angle_alpha   114.03376560
_cell_angle_beta   105.80036447
_cell_angle_gamma   90.01480000
_symmetry_Int_Tables_number   1
_chemical_formula_structural   CdH10C14(SN6)2
_chemical_formula_sum   'Cd2 H20 C28 S4 N24'
_cell_volume   942.24439311
_cell_formula_units_Z   2
loop_
 _symmetry_equiv_pos_site_id
 _symmetry_equiv_pos_as_xyz
  1  'x, y, z'
loop_
 _atom_site_type_symbol
 _atom_site_label
 _atom_site_symmetry_multiplicity
 _atom_site_fract_x
 _atom_site_fract_y
 _atom_site_fract_z
 _atom_site_occupancy
  Cd  Cd0  1  0.40891000  0.25004000  0.99991000  1.0
  Cd  Cd1  1  0.59111000  0.74997000  0.00009000  1.0
  H  H2  1  0.13762000  0.93463000  0.94225000  1.0
  H  H3  1  0.19455000  0.56534000  0.05766000  1.0
  H  H4  1  0.86238000  0.06538000  0.05775000  1.0
  H  H5  1  0.80544000  0.43466000  0.94234000  1.0
  H  H6  1  0.04450000  0.16579000  0.75279000  1.0
  H  H7  1  0.29159000  0.33435000  0.24725000  1.0
  H  H8  1  0.95551000  0.83421000  0.24721000  1.0
  H  H9  1  0.70841000  0.66565000  0.75275000  1.0
  H  H10  1  0.68276000  0.73461000  0.59886000  1.0
  H  H11  1  0.08443000  0.76567000  0.40149000  1.0
  H  H12  1  0.31724000  0.26539000  0.40114000  1.0
  H  H13  1  0.91558000  0.23434000  0.59852000  1.0
  H  H14  1  0.70520000  0.01284000  0.39700000  1.0
  H  H15  1  0.30769000  0.48709000  0.60306000  1.0
  H  H16  1  0.29479000  0.98715000  0.60299000  1.0
  H  H17  1  0.69230000  0.51291000  0.39694000  1.0
  H  H18  1  0.50004000  0.78726000  0.29910000  1.0
  H  H19  1  0.20071000  0.71276000  0.70110000  1.0
  H  H20  1  0.49996000  0.21273000  0.70090000  1.0
  H  H21  1  0.79927000  0.28724000  0.29890000  1.0
  C  C22  1  0.08200000  0.96647000  0.87425000  1.0
  C  C23  1  0.20713000  0.53351000  0.12569000  1.0
  C  C24  1  0.91799000  0.03353000  0.12574000  1.0
  C  C25  1  0.79287000  0.46650000  0.87432000  1.0
  C  C26  1  0.03951000  0.08615000  0.78021000  1.0
  C  C27  1  0.25905000  0.41393000  0.21977000  1.0
  C  C28  1  0.96050000  0.91385000  0.21979000  1.0
  C  C29  1  0.74094000  0.58608000  0.78023000  1.0
  C  C30  1  0.30388000  0.45555000  0.87005000  1.0
  C  C31  1  0.43383000  0.04458000  0.12995000  1.0
  C  C32  1  0.69610000  0.54446000  0.12994000  1.0
  C  C33  1  0.56618000  0.95544000  0.87005000  1.0
  C  C34  1  0.80352000  0.91956000  0.60450000  1.0
  C  C35  1  0.19902000  0.58056000  0.39569000  1.0
  C  C36  1  0.19648000  0.08043000  0.39550000  1.0
  C  C37  1  0.80098000  0.41944000  0.60431000  1.0
  C  C38  1  0.68568000  0.79678000  0.55339000  1.0
  C  C39  1  0.13268000  0.70344000  0.44691000  1.0
  C  C40  1  0.31433000  0.20321000  0.44661000  1.0
  C  C41  1  0.86732000  0.29655000  0.55309000  1.0
  C  C42  1  0.70011000  0.95030000  0.44212000  1.0
  C  C43  1  0.25782000  0.54978000  0.55806000  1.0
  C  C44  1  0.29989000  0.04970000  0.55788000  1.0
  C  C45  1  0.74218000  0.45022000  0.44195000  1.0
  C  C46  1  0.58606000  0.82621000  0.38839000  1.0
  C  C47  1  0.19756000  0.67388000  0.61182000  1.0
  C  C48  1  0.41394000  0.17379000  0.61161000  1.0
  C  C49  1  0.80243000  0.32612000  0.38818000  1.0
  S  S50  1  0.24936000  0.59528000  0.86163000  1.0
  S  S51  1  0.38798000  0.90510000  0.13885000  1.0
  S  S52  1  0.75064000  0.40473000  0.13837000  1.0
  S  S53  1  0.61201000  0.09489000  0.86113000  1.0
  N  N54  1  0.13953000  0.08859000  0.88007000  1.0
  N  N55  1  0.25895000  0.41140000  0.11982000  1.0
  N  N56  1  0.86048000  0.91141000  0.11993000  1.0
  N  N57  1  0.74104000  0.58860000  0.88018000  1.0
  N  N58  1  0.34259000  0.35368000  0.87632000  1.0
  N  N59  1  0.46603000  0.14625000  0.12331000  1.0
  N  N60  1  0.65740000  0.64632000  0.12367000  1.0
  N  N61  1  0.53398000  0.85375000  0.87669000  1.0
  N  N62  1  0.92727000  0.96679000  0.71735000  1.0
  N  N63  1  0.20974000  0.53327000  0.28274000  1.0
  N  N64  1  0.07274000  0.03321000  0.28265000  1.0
  N  N65  1  0.79026000  0.46674000  0.71727000  1.0
  N  N66  1  0.95242000  0.88926000  0.77663000  1.0
  N  N67  1  0.17540000  0.61075000  0.22342000  1.0
  N  N68  1  0.04759000  0.11075000  0.22337000  1.0
  N  N69  1  0.82460000  0.38926000  0.77659000  1.0
  N  N70  1  0.81035000  0.99725000  0.55095000  1.0
  N  N71  1  0.25921000  0.50281000  0.44918000  1.0
  N  N72  1  0.18965000  0.00275000  0.44905000  1.0
  N  N73  1  0.74078000  0.49718000  0.55082000  1.0
  N  N74  1  0.57833000  0.75001000  0.44428000  1.0
  N  N75  1  0.13436000  0.75024000  0.55604000  1.0
  N  N76  1  0.42167000  0.24999000  0.55572000  1.0
  N  N77  1  0.86564000  0.24977000  0.44397000  1.0
