# generated using pymatgen
data_CuH6C9IN6
_symmetry_space_group_name_H-M   'P 1'
_cell_length_a   4.86989000
_cell_length_b   12.97440000
_cell_length_c   16.85910000
_cell_angle_alpha   75.73100000
_cell_angle_beta   89.99940000
_cell_angle_gamma   89.99970000
_symmetry_Int_Tables_number   1
_chemical_formula_structural   CuH6C9IN6
_chemical_formula_sum   'Cu4 H24 C36 I4 N24'
_cell_volume   1032.36072957
_cell_formula_units_Z   4
loop_
 _symmetry_equiv_pos_site_id
 _symmetry_equiv_pos_as_xyz
  1  'x, y, z'
loop_
 _atom_site_type_symbol
 _atom_site_label
 _atom_site_symmetry_multiplicity
 _atom_site_fract_x
 _atom_site_fract_y
 _atom_site_fract_z
 _atom_site_occupancy
  Cu  Cu0  1  0.54095000  0.06058000  0.68345000  1.0
  Cu  Cu1  1  0.04097000  0.93943000  0.81655000  1.0
  Cu  Cu2  1  0.45902000  0.93941000  0.31656000  1.0
  Cu  Cu3  1  0.95906000  0.06058000  0.18345000  1.0
  H  H4  1  0.55471000  0.22179000  0.37181000  1.0
  H  H5  1  0.05471000  0.77822000  0.12818000  1.0
  H  H6  1  0.44528000  0.77820000  0.62819000  1.0
  H  H7  1  0.94529000  0.22179000  0.87181000  1.0
  H  H8  1  0.74918000  0.07568000  0.51008000  1.0
  H  H9  1  0.24917000  0.92434000  0.98991000  1.0
  H  H10  1  0.25080000  0.92432000  0.48993000  1.0
  H  H11  1  0.75081000  0.07568000  0.01008000  1.0
  H  H12  1  0.08567000  0.18463000  0.71369000  1.0
  H  H13  1  0.58566000  0.81537000  0.78630000  1.0
  H  H14  1  0.91436000  0.81537000  0.28631000  1.0
  H  H15  1  0.41437000  0.18463000  0.21369000  1.0
  H  H16  1  0.63887000  0.31596000  0.72117000  1.0
  H  H17  1  0.13884000  0.68404000  0.77883000  1.0
  H  H18  1  0.36116000  0.68403000  0.27884000  1.0
  H  H19  1  0.86118000  0.31596000  0.22116000  1.0
  H  H20  1  0.61344000  0.50612000  0.41872000  1.0
  H  H21  1  0.11344000  0.49388000  0.08128000  1.0
  H  H22  1  0.38652000  0.49387000  0.58129000  1.0
  H  H23  1  0.88656000  0.50613000  0.91871000  1.0
  H  H24  1  0.85475000  0.51173000  0.26923000  1.0
  H  H25  1  0.35475000  0.48828000  0.23077000  1.0
  H  H26  1  0.14524000  0.48827000  0.73078000  1.0
  H  H27  1  0.64524000  0.51173000  0.76922000  1.0
  C  C28  1  0.49693000  0.20601000  0.43559000  1.0
  C  C29  1  0.99692000  0.79400000  0.06440000  1.0
  C  C30  1  0.50307000  0.79399000  0.56442000  1.0
  C  C31  1  0.00308000  0.20601000  0.93559000  1.0
  C  C32  1  0.58932000  0.13514000  0.50453000  1.0
  C  C33  1  0.08933000  0.86487000  0.99545000  1.0
  C  C34  1  0.41066000  0.86485000  0.49547000  1.0
  C  C35  1  0.91068000  0.13514000  0.00454000  1.0
  C  C36  1  0.12120000  0.34241000  0.41733000  1.0
  C  C37  1  0.62119000  0.65759000  0.08266000  1.0
  C  C38  1  0.87880000  0.65759000  0.58268000  1.0
  C  C39  1  0.37882000  0.34241000  0.91733000  1.0
  C  C40  1  0.26239000  0.22283000  0.54553000  1.0
  C  C41  1  0.76239000  0.77718000  0.95446000  1.0
  C  C42  1  0.73761000  0.77717000  0.45448000  1.0
  C  C43  1  0.23761000  0.22283000  0.04553000  1.0
  C  C44  1  0.88813000  0.34633000  0.54325000  1.0
  C  C45  1  0.38812000  0.65367000  0.95675000  1.0
  C  C46  1  0.11187000  0.65366000  0.45676000  1.0
  C  C47  1  0.61189000  0.34633000  0.04324000  1.0
  C  C48  1  0.98042000  0.24394000  0.66696000  1.0
  C  C49  1  0.48041000  0.75606000  0.83304000  1.0
  C  C50  1  0.01958000  0.75605000  0.33305000  1.0
  C  C51  1  0.51960000  0.24394000  0.16695000  1.0
  C  C52  1  0.76206000  0.31059000  0.66864000  1.0
  C  C53  1  0.26204000  0.68942000  0.83135000  1.0
  C  C54  1  0.23794000  0.68940000  0.33136000  1.0
  C  C55  1  0.73796000  0.31059000  0.16864000  1.0
  C  C56  1  0.78136000  0.45999000  0.40234000  1.0
  C  C57  1  0.28136000  0.54001000  0.09765000  1.0
  C  C58  1  0.21861000  0.54000000  0.59767000  1.0
  C  C59  1  0.71864000  0.46000000  0.90234000  1.0
  C  C60  1  0.90360000  0.46018000  0.32880000  1.0
  C  C61  1  0.40361000  0.53982000  0.17120000  1.0
  C  C62  1  0.09637000  0.53981000  0.67121000  1.0
  C  C63  1  0.59638000  0.46018000  0.82880000  1.0
  I  I64  1  0.45021000  0.06588000  0.83028000  1.0
  I  I65  1  0.95019000  0.93413000  0.66972000  1.0
  I  I66  1  0.54980000  0.93412000  0.16973000  1.0
  I  I67  1  0.04980000  0.06588000  0.33028000  1.0
  N  N68  1  0.92467000  0.38382000  0.46005000  1.0
  N  N69  1  0.42465000  0.61619000  0.03994000  1.0
  N  N70  1  0.07531000  0.61617000  0.53996000  1.0
  N  N71  1  0.57534000  0.38382000  0.96005000  1.0
  N  N72  1  0.06401000  0.26700000  0.58533000  1.0
  N  N73  1  0.56400000  0.73300000  0.91467000  1.0
  N  N74  1  0.93599000  0.73299000  0.41468000  1.0
  N  N75  1  0.43601000  0.26700000  0.08532000  1.0
  N  N76  1  0.44288000  0.14568000  0.57326000  1.0
  N  N77  1  0.94287000  0.85434000  0.92673000  1.0
  N  N78  1  0.55711000  0.85432000  0.42675000  1.0
  N  N79  1  0.05713000  0.14568000  0.07326000  1.0
  N  N80  1  0.28743000  0.26231000  0.46187000  1.0
  N  N81  1  0.78743000  0.73769000  0.03812000  1.0
  N  N82  1  0.71256000  0.73768000  0.53814000  1.0
  N  N83  1  0.21257000  0.26231000  0.96187000  1.0
  N  N84  1  0.11530000  0.38619000  0.33835000  1.0
  N  N85  1  0.61529000  0.61382000  0.16164000  1.0
  N  N86  1  0.88471000  0.61381000  0.66166000  1.0
  N  N87  1  0.38470000  0.38618000  0.83835000  1.0
  N  N88  1  0.70483000  0.37393000  0.59120000  1.0
  N  N89  1  0.20482000  0.62608000  0.90880000  1.0
  N  N90  1  0.29516000  0.62606000  0.40881000  1.0
  N  N91  1  0.79519000  0.37393000  0.09119000  1.0
