# generated using pymatgen
data_Zn2H23C41N2O9
_symmetry_space_group_name_H-M   'P 1'
_cell_length_a   16.52550000
_cell_length_b   17.91480000
_cell_length_c   29.09720000
_cell_angle_alpha   90.24830000
_cell_angle_beta   89.86990000
_cell_angle_gamma   89.94940000
_symmetry_Int_Tables_number   1
_chemical_formula_structural   Zn2H23C41N2O9
_chemical_formula_sum   'Zn4 H46 C82 N4 O18'
_cell_volume   8614.14942265
_cell_formula_units_Z   2
loop_
 _symmetry_equiv_pos_site_id
 _symmetry_equiv_pos_as_xyz
  1  'x, y, z'
loop_
 _atom_site_type_symbol
 _atom_site_label
 _atom_site_symmetry_multiplicity
 _atom_site_fract_x
 _atom_site_fract_y
 _atom_site_fract_z
 _atom_site_occupancy
  Zn  Zn0  1  0.58365000  0.49989000  0.50096000  1.0
  Zn  Zn1  1  0.41542000  0.50007000  0.49998000  1.0
  Zn  Zn2  1  0.41538000  0.50200000  0.88529000  1.0
  Zn  Zn3  1  0.58359000  0.50181000  0.88387000  1.0
  H  H4  1  0.28586000  0.58223000  0.55062000  1.0
  H  H5  1  0.13388000  0.58528000  0.55311000  1.0
  H  H6  1  0.13505000  0.41463000  0.44727000  1.0
  H  H7  1  0.28730000  0.41859000  0.44987000  1.0
  H  H8  1  0.86490000  0.58533000  0.55315000  1.0
  H  H9  1  0.71261000  0.58118000  0.55147000  1.0
  H  H10  1  0.71217000  0.41857000  0.45021000  1.0
  H  H11  1  0.86444000  0.41492000  0.44722000  1.0
  H  H12  1  0.62975000  0.73787000  0.50041000  1.0
  H  H13  1  0.63043000  0.87765000  0.49984000  1.0
  H  H14  1  0.36947000  0.87764000  0.49973000  1.0
  H  H15  1  0.37036000  0.73787000  0.50031000  1.0
  H  H16  1  0.63049000  0.12207000  0.49995000  1.0
  H  H17  1  0.62981000  0.26187000  0.50019000  1.0
  H  H18  1  0.37040000  0.26225000  0.50016000  1.0
  H  H19  1  0.36952000  0.12247000  0.49995000  1.0
  H  H20  1  0.68769000  0.55067000  0.73538000  1.0
  H  H21  1  0.68703000  0.45100000  0.73547000  1.0
  H  H22  1  0.68694000  0.45054000  0.64887000  1.0
  H  H23  1  0.68757000  0.55022000  0.64911000  1.0
  H  H24  1  0.37030000  0.50215000  0.03149000  1.0
  H  H25  1  0.36970000  0.50167000  0.11760000  1.0
  H  H26  1  0.63068000  0.50186000  0.11703000  1.0
  H  H27  1  0.62965000  0.50227000  0.03090000  1.0
  H  H28  1  0.36984000  0.50058000  0.26784000  1.0
  H  H29  1  0.37061000  0.50028000  0.35395000  1.0
  H  H30  1  0.62995000  0.50051000  0.35372000  1.0
  H  H31  1  0.63082000  0.50088000  0.26760000  1.0
  H  H32  1  0.71300000  0.58301000  0.83367000  1.0
  H  H33  1  0.86532000  0.58742000  0.83218000  1.0
  H  H34  1  0.86394000  0.41799000  0.93781000  1.0
  H  H35  1  0.71170000  0.42134000  0.93461000  1.0
  H  H36  1  0.13441000  0.58713000  0.83238000  1.0
  H  H37  1  0.28635000  0.58395000  0.83491000  1.0
  H  H38  1  0.28668000  0.42090000  0.93515000  1.0
  H  H39  1  0.13439000  0.41721000  0.93775000  1.0
  H  H40  1  0.37043000  0.73982000  0.88373000  1.0
  H  H41  1  0.36953000  0.87962000  0.88385000  1.0
  H  H42  1  0.63049000  0.87963000  0.88401000  1.0
  H  H43  1  0.62982000  0.73983000  0.88389000  1.0
  H  H44  1  0.36948000  0.12436000  0.88439000  1.0
  H  H45  1  0.37033000  0.26414000  0.88447000  1.0
  H  H46  1  0.62973000  0.26380000  0.88455000  1.0
  H  H47  1  0.63044000  0.12400000  0.88452000  1.0
  H  H48  1  0.36449000  0.49908000  0.61348000  1.0
  H  H49  1  0.36466000  0.49969000  0.77202000  1.0
  C  C50  1  0.50037000  0.64625000  0.50149000  1.0
  C  C51  1  0.49795000  0.50054000  0.59206000  1.0
  C  C52  1  0.50030000  0.35370000  0.50001000  1.0
  C  C53  1  0.49997000  0.49959000  0.41019000  1.0
  C  C54  1  0.50042000  0.64819000  0.88334000  1.0
  C  C55  1  0.49819000  0.50152000  0.79302000  1.0
  C  C56  1  0.50025000  0.35560000  0.88477000  1.0
  C  C57  1  0.49959000  0.50168000  0.97484000  1.0
  C  C58  1  0.24952000  0.54614000  0.52854000  1.0
  C  C59  1  0.16557000  0.54775000  0.52967000  1.0
  C  C60  1  0.12206000  0.50004000  0.50010000  1.0
  C  C61  1  0.16629000  0.45242000  0.47063000  1.0
  C  C62  1  0.25020000  0.45434000  0.47189000  1.0
  C  C63  1  0.03644000  0.49998000  0.49999000  1.0
  C  C64  1  0.96266000  0.50006000  0.49996000  1.0
  C  C65  1  0.87704000  0.50010000  0.50016000  1.0
  C  C66  1  0.83327000  0.54764000  0.52990000  1.0
  C  C67  1  0.74933000  0.54565000  0.52911000  1.0
  C  C68  1  0.74909000  0.45423000  0.47225000  1.0
  C  C69  1  0.83302000  0.45251000  0.47074000  1.0
  C  C70  1  0.50009000  0.72981000  0.50077000  1.0
  C  C71  1  0.57332000  0.76937000  0.50044000  1.0
  C  C72  1  0.57359000  0.84685000  0.50005000  1.0
  C  C73  1  0.49993000  0.88696000  0.49993000  1.0
  C  C74  1  0.42636000  0.84682000  0.49998000  1.0
  C  C75  1  0.42677000  0.76932000  0.50037000  1.0
  C  C76  1  0.49987000  0.96587000  0.49978000  1.0
  C  C77  1  0.49993000  0.03406000  0.49975000  1.0
  C  C78  1  0.49999000  0.11298000  0.49979000  1.0
  C  C79  1  0.57364000  0.15297000  0.49987000  1.0
  C  C80  1  0.57338000  0.23046000  0.49996000  1.0
  C  C81  1  0.50013000  0.27014000  0.49992000  1.0
  C  C82  1  0.42681000  0.23071000  0.49992000  1.0
  C  C83  1  0.42642000  0.15322000  0.49986000  1.0
  C  C84  1  0.49748000  0.50150000  0.74227000  1.0
  C  C85  1  0.49735000  0.50098000  0.64281000  1.0
  C  C86  1  0.56904000  0.50141000  0.71615000  1.0
  C  C87  1  0.42378000  0.50107000  0.66809000  1.0
  C  C88  1  0.56900000  0.50114000  0.66867000  1.0
  C  C89  1  0.42383000  0.50128000  0.71723000  1.0
  C  C90  1  0.66061000  0.50083000  0.71946000  1.0
  C  C91  1  0.66053000  0.50053000  0.66505000  1.0
  C  C92  1  0.49995000  0.50165000  0.02628000  1.0
  C  C93  1  0.42673000  0.50173000  0.05078000  1.0
  C  C94  1  0.42650000  0.50157000  0.09848000  1.0
  C  C95  1  0.50022000  0.50141000  0.12297000  1.0
  C  C96  1  0.57379000  0.50167000  0.09814000  1.0
  C  C97  1  0.57332000  0.50179000  0.05042000  1.0
  C  C98  1  0.50032000  0.50110000  0.17152000  1.0
  C  C99  1  0.50036000  0.50081000  0.21349000  1.0
  C  C100  1  0.50035000  0.50048000  0.26205000  1.0
  C  C101  1  0.42668000  0.50034000  0.28678000  1.0
  C  C102  1  0.42700000  0.50009000  0.33448000  1.0
  C  C103  1  0.50027000  0.49991000  0.35874000  1.0
  C  C104  1  0.57358000  0.50021000  0.33437000  1.0
  C  C105  1  0.57396000  0.50048000  0.28666000  1.0
  C  C106  1  0.74954000  0.54771000  0.85597000  1.0
  C  C107  1  0.83351000  0.54989000  0.85532000  1.0
  C  C108  1  0.87701000  0.50270000  0.88503000  1.0
  C  C109  1  0.83273000  0.45532000  0.91431000  1.0
  C  C110  1  0.74881000  0.45684000  0.91268000  1.0
  C  C111  1  0.96262000  0.50266000  0.88530000  1.0
  C  C112  1  0.03640000  0.50245000  0.88530000  1.0
  C  C113  1  0.12201000  0.50234000  0.88520000  1.0
  C  C114  1  0.16583000  0.54979000  0.85575000  1.0
  C  C115  1  0.24975000  0.54808000  0.85690000  1.0
  C  C116  1  0.24983000  0.45660000  0.91325000  1.0
  C  C117  1  0.16591000  0.45481000  0.91450000  1.0
  C  C118  1  0.50016000  0.73176000  0.88350000  1.0
  C  C119  1  0.42684000  0.77129000  0.88362000  1.0
  C  C120  1  0.42642000  0.84879000  0.88376000  1.0
  C  C121  1  0.50000000  0.88891000  0.88386000  1.0
  C  C122  1  0.57366000  0.84881000  0.88386000  1.0
  C  C123  1  0.57339000  0.77133000  0.88370000  1.0
  C  C124  1  0.49993000  0.96781000  0.88405000  1.0
  C  C125  1  0.49993000  0.03598000  0.88429000  1.0
  C  C126  1  0.49995000  0.11489000  0.88452000  1.0
  C  C127  1  0.42635000  0.15512000  0.88454000  1.0
  C  C128  1  0.42674000  0.23261000  0.88463000  1.0
  C  C129  1  0.50006000  0.27204000  0.88473000  1.0
  C  C130  1  0.57330000  0.23239000  0.88470000  1.0
  C  C131  1  0.57360000  0.15490000  0.88462000  1.0
  N  N132  1  0.29094000  0.50031000  0.50026000  1.0
  N  N133  1  0.70813000  0.49983000  0.50088000  1.0
  N  N134  1  0.70810000  0.50207000  0.88406000  1.0
  N  N135  1  0.29089000  0.50238000  0.88504000  1.0
  O  O136  1  0.56913000  0.61392000  0.50151000  1.0
  O  O137  1  0.43178000  0.61361000  0.50197000  1.0
  O  O138  1  0.42850000  0.49970000  0.57142000  1.0
  O  O139  1  0.56567000  0.50093000  0.57141000  1.0
  O  O140  1  0.43169000  0.38637000  0.49986000  1.0
  O  O141  1  0.56904000  0.38597000  0.50025000  1.0
  O  O142  1  0.56836000  0.49926000  0.43035000  1.0
  O  O143  1  0.43098000  0.49974000  0.42996000  1.0
  O  O144  1  0.43183000  0.61553000  0.88316000  1.0
  O  O145  1  0.56916000  0.61585000  0.88347000  1.0
  O  O146  1  0.56594000  0.50217000  0.81347000  1.0
  O  O147  1  0.42877000  0.50080000  0.81385000  1.0
  O  O148  1  0.56899000  0.38787000  0.88443000  1.0
  O  O149  1  0.43163000  0.38828000  0.88513000  1.0
  O  O150  1  0.43059000  0.50210000  0.95526000  1.0
  O  O151  1  0.56797000  0.50137000  0.95449000  1.0
  O  O152  1  0.35075000  0.50062000  0.64722000  1.0
  O  O153  1  0.35084000  0.50098000  0.73833000  1.0
