# generated using pymatgen
data_HgH5C4S2N3
_symmetry_space_group_name_H-M   'P 1'
_cell_length_a   5.79697000
_cell_length_b   7.41765000
_cell_length_c   9.66318000
_cell_angle_alpha   94.34930000
_cell_angle_beta   98.35630000
_cell_angle_gamma   101.66810000
_symmetry_Int_Tables_number   1
_chemical_formula_structural   HgH5C4S2N3
_chemical_formula_sum   'Hg2 H10 C8 S4 N6'
_cell_volume   400.22785253
_cell_formula_units_Z   2
loop_
 _symmetry_equiv_pos_site_id
 _symmetry_equiv_pos_as_xyz
  1  'x, y, z'
loop_
 _atom_site_type_symbol
 _atom_site_label
 _atom_site_symmetry_multiplicity
 _atom_site_fract_x
 _atom_site_fract_y
 _atom_site_fract_z
 _atom_site_occupancy
  Hg  Hg0  1  0.18297000  0.32657000  0.83275000  1.0
  Hg  Hg1  1  0.81702000  0.67343000  0.16725000  1.0
  H  H2  1  0.91000000  0.22873000  0.57841000  1.0
  H  H3  1  0.08998000  0.77128000  0.42158000  1.0
  H  H4  1  0.34845000  0.08559000  0.57237000  1.0
  H  H5  1  0.65154000  0.91442000  0.42762000  1.0
  H  H6  1  0.28786000  0.29227000  0.50771000  1.0
  H  H7  1  0.71212000  0.70774000  0.49229000  1.0
  H  H8  1  0.76043000  0.96364000  0.68894000  1.0
  H  H9  1  0.23956000  0.03637000  0.31106000  1.0
  H  H10  1  0.02998000  0.88711000  0.68043000  1.0
  H  H11  1  0.97002000  0.11289000  0.31956000  1.0
  C  C12  1  0.67206000  0.16457000  0.91592000  1.0
  C  C13  1  0.32795000  0.83543000  0.08409000  1.0
  C  C14  1  0.64562000  0.51218000  0.70882000  1.0
  C  C15  1  0.35440000  0.48777000  0.29117000  1.0
  C  C16  1  0.20799000  0.14843000  0.51944000  1.0
  C  C17  1  0.79201000  0.85156000  0.48053000  1.0
  C  C18  1  0.90060000  0.95770000  0.62462000  1.0
  C  C19  1  0.09936000  0.04228000  0.37536000  1.0
  S  S20  1  0.93577000  0.22960000  0.01629000  1.0
  S  S21  1  0.06428000  0.77042000  0.98373000  1.0
  S  S22  1  0.46955000  0.61376000  0.79336000  1.0
  S  S23  1  0.53037000  0.38626000  0.20667000  1.0
  N  N24  1  0.47916000  0.11693000  0.84791000  1.0
  N  N25  1  0.52086000  0.88306000  0.15212000  1.0
  N  N26  1  0.77544000  0.44667000  0.64709000  1.0
  N  N27  1  0.22462000  0.55332000  0.35287000  1.0
  N  N28  1  0.02758000  0.14791000  0.61248000  1.0
  N  N29  1  0.97243000  0.85211000  0.38754000  1.0
