# generated using pymatgen
data_TbH15C11O6
_symmetry_space_group_name_H-M   'P 1'
_cell_length_a   8.20999000
_cell_length_b   10.68710000
_cell_length_c   14.76090000
_cell_angle_alpha   90.00030000
_cell_angle_beta   90.00000000
_cell_angle_gamma   90.00000000
_symmetry_Int_Tables_number   1
_chemical_formula_structural   TbH15C11O6
_chemical_formula_sum   'Tb4 H60 C44 O24'
_cell_volume   1295.13589261
_cell_formula_units_Z   4
loop_
 _symmetry_equiv_pos_site_id
 _symmetry_equiv_pos_as_xyz
  1  'x, y, z'
loop_
 _atom_site_type_symbol
 _atom_site_label
 _atom_site_symmetry_multiplicity
 _atom_site_fract_x
 _atom_site_fract_y
 _atom_site_fract_z
 _atom_site_occupancy
  Tb  Tb0  1  0.91940000  0.80197000  0.00216000  1.0
  Tb  Tb1  1  0.58060000  0.19803000  0.50216000  1.0
  Tb  Tb2  1  0.08060000  0.30197000  0.49784000  1.0
  Tb  Tb3  1  0.41940000  0.69803000  0.99784000  1.0
  H  H4  1  0.72288000  0.82879000  0.30513000  1.0
  H  H5  1  0.77712000  0.17121000  0.80513000  1.0
  H  H6  1  0.27712000  0.32879000  0.19487000  1.0
  H  H7  1  0.22287000  0.67121000  0.69487000  1.0
  H  H8  1  0.55832000  0.98682000  0.88935000  1.0
  H  H9  1  0.94166000  0.01316000  0.38935000  1.0
  H  H10  1  0.44167000  0.48683000  0.61065000  1.0
  H  H11  1  0.05832000  0.51318000  0.11065000  1.0
  H  H12  1  0.40772000  0.70253000  0.26955000  1.0
  H  H13  1  0.09228000  0.29747000  0.76956000  1.0
  H  H14  1  0.59227000  0.20254000  0.23044000  1.0
  H  H15  1  0.90772000  0.79747000  0.73045000  1.0
  H  H16  1  0.46281000  0.80398000  0.35880000  1.0
  H  H17  1  0.03719000  0.19602000  0.85880000  1.0
  H  H18  1  0.53719000  0.30398000  0.14120000  1.0
  H  H19  1  0.96281000  0.69602000  0.64120000  1.0
  H  H20  1  0.44765000  0.61691000  0.44774000  1.0
  H  H21  1  0.05235000  0.38309000  0.94774000  1.0
  H  H22  1  0.55235000  0.11691000  0.05226000  1.0
  H  H23  1  0.94765000  0.88309000  0.55226000  1.0
  H  H24  1  0.47817000  0.52058000  0.35281000  1.0
  H  H25  1  0.02183000  0.47942000  0.85281000  1.0
  H  H26  1  0.52183000  0.02058000  0.14719000  1.0
  H  H27  1  0.97817000  0.97942000  0.64719000  1.0
  H  H28  1  0.88117000  0.69247000  0.49238000  1.0
  H  H29  1  0.61883000  0.30753000  0.99238000  1.0
  H  H30  1  0.11884000  0.19247000  0.00762000  1.0
  H  H31  1  0.38117000  0.80753000  0.50763000  1.0
  H  H32  1  0.68575000  0.67529000  0.54201000  1.0
  H  H33  1  0.81425000  0.32471000  0.04201000  1.0
  H  H34  1  0.31424000  0.17530000  0.95799000  1.0
  H  H35  1  0.18576000  0.82471000  0.45799000  1.0
  H  H36  1  0.71739000  0.79197000  0.45837000  1.0
  H  H37  1  0.78261000  0.20803000  0.95837000  1.0
  H  H38  1  0.28261000  0.29197000  0.04163000  1.0
  H  H39  1  0.21739000  0.70803000  0.54163000  1.0
  H  H40  1  0.03831000  0.59627000  0.33994000  1.0
  H  H41  1  0.46169000  0.40373000  0.83994000  1.0
  H  H42  1  0.96169000  0.09627000  0.16006000  1.0
  H  H43  1  0.53831000  0.90373000  0.66006000  1.0
  H  H44  1  0.97816000  0.75431000  0.35743000  1.0
  H  H45  1  0.52184000  0.24569000  0.85743000  1.0
  H  H46  1  0.02183000  0.25431000  0.14257000  1.0
  H  H47  1  0.47817000  0.74569000  0.64257000  1.0
  H  H48  1  0.00272000  0.69761000  0.24581000  1.0
  H  H49  1  0.49729000  0.30239000  0.74580000  1.0
  H  H50  1  0.99729000  0.19761000  0.25420000  1.0
  H  H51  1  0.50272000  0.80239000  0.75420000  1.0
  H  H52  1  0.84324000  0.43969000  0.27201000  1.0
  H  H53  1  0.65677000  0.56031000  0.77201000  1.0
  H  H54  1  0.15677000  0.93969000  0.22799000  1.0
  H  H55  1  0.34324000  0.06032000  0.72799000  1.0
  H  H56  1  0.81054000  0.54094000  0.17867000  1.0
  H  H57  1  0.68947000  0.45906000  0.67867000  1.0
  H  H58  1  0.18947000  0.04094000  0.32133000  1.0
  H  H59  1  0.31054000  0.95906000  0.82133000  1.0
  H  H60  1  0.64191000  0.48386000  0.24036000  1.0
  H  H61  1  0.85809000  0.51613000  0.74036000  1.0
  H  H62  1  0.35809000  0.98386000  0.25964000  1.0
  H  H63  1  0.14191000  0.01614000  0.75964000  1.0
  C  C64  1  0.66989000  0.75439000  0.17679000  1.0
  C  C65  1  0.83011000  0.24561000  0.67679000  1.0
  C  C66  1  0.33011000  0.25439000  0.32321000  1.0
  C  C67  1  0.16989000  0.74562000  0.82321000  1.0
  C  C68  1  0.66904000  0.74204000  0.27860000  1.0
  C  C69  1  0.83096000  0.25796000  0.77860000  1.0
  C  C70  1  0.33096000  0.24204000  0.22140000  1.0
  C  C71  1  0.16904000  0.75796000  0.72140000  1.0
  C  C72  1  0.66089000  0.93416000  0.91924000  1.0
  C  C73  1  0.83910000  0.06583000  0.41924000  1.0
  C  C74  1  0.33910000  0.43416000  0.58077000  1.0
  C  C75  1  0.16089000  0.56585000  0.08077000  1.0
  C  C76  1  0.50017000  0.71979000  0.32164000  1.0
  C  C77  1  0.99983000  0.28021000  0.82164000  1.0
  C  C78  1  0.49983000  0.21979000  0.17836000  1.0
  C  C79  1  0.00017000  0.78021000  0.67836000  1.0
  C  C80  1  0.51935000  0.60724000  0.38553000  1.0
  C  C81  1  0.98066000  0.39276000  0.88553000  1.0
  C  C82  1  0.48065000  0.10724000  0.11447000  1.0
  C  C83  1  0.01934000  0.89276000  0.61447000  1.0
  C  C84  1  0.75613000  0.47453000  0.44400000  1.0
  C  C85  1  0.74388000  0.52547000  0.94400000  1.0
  C  C86  1  0.24388000  0.97453000  0.05600000  1.0
  C  C87  1  0.25612000  0.02547000  0.55600000  1.0
  C  C88  1  0.70310000  0.60002000  0.40525000  1.0
  C  C89  1  0.79691000  0.39998000  0.90525000  1.0
  C  C90  1  0.29691000  0.10002000  0.09475000  1.0
  C  C91  1  0.20309000  0.89998000  0.59475000  1.0
  C  C92  1  0.75018000  0.69635000  0.47850000  1.0
  C  C93  1  0.74982000  0.30365000  0.97850000  1.0
  C  C94  1  0.24982000  0.19636000  0.02150000  1.0
  C  C95  1  0.25018000  0.80365000  0.52150000  1.0
  C  C96  1  0.78250000  0.63109000  0.31057000  1.0
  C  C97  1  0.71750000  0.36891000  0.81057000  1.0
  C  C98  1  0.21750000  0.13109000  0.18942000  1.0
  C  C99  1  0.28250000  0.86891000  0.68942000  1.0
  C  C100  1  0.96099000  0.67196000  0.31400000  1.0
  C  C101  1  0.53901000  0.32804000  0.81400000  1.0
  C  C102  1  0.03901000  0.17196000  0.18600000  1.0
  C  C103  1  0.46099000  0.82804000  0.68600000  1.0
  C  C104  1  0.76771000  0.51728000  0.24715000  1.0
  C  C105  1  0.73230000  0.48272000  0.74715000  1.0
  C  C106  1  0.23230000  0.01728000  0.25285000  1.0
  C  C107  1  0.26770000  0.98272000  0.75285000  1.0
  O  O108  1  0.79526000  0.80327000  0.13942000  1.0
  O  O109  1  0.70474000  0.19673000  0.63942000  1.0
  O  O110  1  0.20474000  0.30326000  0.36058000  1.0
  O  O111  1  0.29526000  0.69674000  0.86058000  1.0
  O  O112  1  0.64040000  0.81695000  0.93711000  1.0
  O  O113  1  0.85959000  0.18304000  0.43711000  1.0
  O  O114  1  0.35960000  0.31695000  0.56289000  1.0
  O  O115  1  0.14040000  0.68305000  0.06289000  1.0
  O  O116  1  0.79445000  0.98748000  0.93497000  1.0
  O  O117  1  0.70553000  0.01251000  0.43498000  1.0
  O  O118  1  0.20555000  0.48748000  0.56502000  1.0
  O  O119  1  0.29445000  0.51252000  0.06503000  1.0
  O  O120  1  0.90795000  0.45092000  0.44746000  1.0
  O  O121  1  0.59206000  0.54908000  0.94746000  1.0
  O  O122  1  0.09205000  0.95092000  0.05254000  1.0
  O  O123  1  0.40795000  0.04908000  0.55254000  1.0
  O  O124  1  0.54973000  0.71315000  0.13133000  1.0
  O  O125  1  0.95026000  0.28685000  0.63133000  1.0
  O  O126  1  0.45026000  0.21315000  0.36867000  1.0
  O  O127  1  0.04973000  0.78685000  0.86867000  1.0
  O  O128  1  0.64761000  0.40184000  0.47629000  1.0
  O  O129  1  0.85239000  0.59815000  0.97629000  1.0
  O  O130  1  0.35238000  0.90185000  0.02371000  1.0
  O  O131  1  0.14761000  0.09815000  0.52371000  1.0
