# generated using pymatgen
data_AgH20C25N2ClO6
_symmetry_space_group_name_H-M   'P 1'
_cell_length_a   10.03550000
_cell_length_b   13.93850000
_cell_length_c   14.93530000
_cell_angle_alpha   66.72230000
_cell_angle_beta   88.64900000
_cell_angle_gamma   71.54870000
_symmetry_Int_Tables_number   1
_chemical_formula_structural   AgH20C25N2ClO6
_chemical_formula_sum   'Ag2 H40 C50 N4 Cl2 O12'
_cell_volume   1808.04440675
_cell_formula_units_Z   2
loop_
 _symmetry_equiv_pos_site_id
 _symmetry_equiv_pos_as_xyz
  1  'x, y, z'
loop_
 _atom_site_type_symbol
 _atom_site_label
 _atom_site_symmetry_multiplicity
 _atom_site_fract_x
 _atom_site_fract_y
 _atom_site_fract_z
 _atom_site_occupancy
  Ag  Ag0  1  0.14716000  0.92084000  0.63211000  1.0
  Ag  Ag1  1  0.85285000  0.07916000  0.36789000  1.0
  H  H2  1  0.40118000  0.47117000  0.25881000  1.0
  H  H3  1  0.59883000  0.52882000  0.74119000  1.0
  H  H4  1  0.58230000  0.68013000  0.02989000  1.0
  H  H5  1  0.41769000  0.31987000  0.97010000  1.0
  H  H6  1  0.56671000  0.30949000  0.36942000  1.0
  H  H7  1  0.43331000  0.69050000  0.63059000  1.0
  H  H8  1  0.45286000  0.20603000  0.50447000  1.0
  H  H9  1  0.54716000  0.79397000  0.49554000  1.0
  H  H10  1  0.31330000  0.07672000  0.31797000  1.0
  H  H11  1  0.68670000  0.92329000  0.68203000  1.0
  H  H12  1  0.42994000  0.18190000  0.18162000  1.0
  H  H13  1  0.57006000  0.81811000  0.81838000  1.0
  H  H14  1  0.81579000  0.61528000  0.06142000  1.0
  H  H15  1  0.18421000  0.38472000  0.93857000  1.0
  H  H16  1  0.95151000  0.73009000  0.95669000  1.0
  H  H17  1  0.04849000  0.26990000  0.04331000  1.0
  H  H18  1  0.93312000  0.59951000  0.74056000  1.0
  H  H19  1  0.06687000  0.40050000  0.25943000  1.0
  H  H20  1  0.79981000  0.48210000  0.84843000  1.0
  H  H21  1  0.20018000  0.51790000  0.15156000  1.0
  H  H22  1  0.38105000  0.82699000  0.02112000  1.0
  H  H23  1  0.61894000  0.17301000  0.97888000  1.0
  H  H24  1  0.24614000  0.87746000  0.08648000  1.0
  H  H25  1  0.75385000  0.12254000  0.91352000  1.0
  H  H26  1  0.23074000  0.78333000  0.03753000  1.0
  H  H27  1  0.76925000  0.21667000  0.96247000  1.0
  H  H28  1  0.53640000  0.67254000  0.28886000  1.0
  H  H29  1  0.46359000  0.32746000  0.71114000  1.0
  H  H30  1  0.42045000  0.81201000  0.23583000  1.0
  H  H31  1  0.57954000  0.18799000  0.76417000  1.0
  H  H32  1  0.55977000  0.76387000  0.17113000  1.0
  H  H33  1  0.44022000  0.23613000  0.82888000  1.0
  H  H34  1  0.19381000  0.65549000  0.20531000  1.0
  H  H35  1  0.80618000  0.34450000  0.79470000  1.0
  H  H36  1  0.20511000  0.75246000  0.25188000  1.0
  H  H37  1  0.79488000  0.24753000  0.74812000  1.0
  H  H38  1  0.31490000  0.61247000  0.31044000  1.0
  H  H39  1  0.68510000  0.38752000  0.68957000  1.0
  H  H40  1  0.68337000  0.31043000  0.07700000  1.0
  H  H41  1  0.31664000  0.68956000  0.92300000  1.0
  C  C42  1  0.46582000  0.60701000  0.15250000  1.0
  C  C43  1  0.53417000  0.39300000  0.84750000  1.0
  C  C44  1  0.46553000  0.49827000  0.20096000  1.0
  C  C45  1  0.53447000  0.50173000  0.79904000  1.0
  C  C46  1  0.55672000  0.42863000  0.15978000  1.0
  C  C47  1  0.44328000  0.57138000  0.84022000  1.0
  C  C48  1  0.62078000  0.49967000  0.08338000  1.0
  C  C49  1  0.37921000  0.50033000  0.91661000  1.0
  C  C50  1  0.56201000  0.60697000  0.08156000  1.0
  C  C51  1  0.43798000  0.39303000  0.91843000  1.0
  C  C52  1  0.56618000  0.31871000  0.18282000  1.0
  C  C53  1  0.43382000  0.68129000  0.81718000  1.0
  C  C54  1  0.49858000  0.25742000  0.26483000  1.0
  C  C55  1  0.50143000  0.74257000  0.73518000  1.0
  C  C56  1  0.50587000  0.26314000  0.35636000  1.0
  C  C57  1  0.49415000  0.73686000  0.64365000  1.0
  C  C58  1  0.44250000  0.20457000  0.43268000  1.0
  C  C59  1  0.55751000  0.79542000  0.56733000  1.0
  C  C60  1  0.37100000  0.13929000  0.41749000  1.0
  C  C61  1  0.62902000  0.86070000  0.58252000  1.0
  C  C62  1  0.36653000  0.12994000  0.32704000  1.0
  C  C63  1  0.63347000  0.87006000  0.67297000  1.0
  C  C64  1  0.43151000  0.18837000  0.25190000  1.0
  C  C65  1  0.56849000  0.81163000  0.74811000  1.0
  C  C66  1  0.30614000  0.07949000  0.49538000  1.0
  C  C67  1  0.69388000  0.92051000  0.50462000  1.0
  C  C68  1  0.72016000  0.46861000  0.02204000  1.0
  C  C69  1  0.27983000  0.53140000  0.97795000  1.0
  C  C70  1  0.79395000  0.54459000  0.95947000  1.0
  C  C71  1  0.20604000  0.45541000  0.04052000  1.0
  C  C72  1  0.83714000  0.61456000  0.98988000  1.0
  C  C73  1  0.16285000  0.38544000  0.01011000  1.0
  C  C74  1  0.91359000  0.67875000  0.93178000  1.0
  C  C75  1  0.08639000  0.32126000  0.06821000  1.0
  C  C76  1  0.94765000  0.67327000  0.84168000  1.0
  C  C77  1  0.05234000  0.32673000  0.15832000  1.0
  C  C78  1  0.90571000  0.60301000  0.81050000  1.0
  C  C79  1  0.09428000  0.39700000  0.18949000  1.0
  C  C80  1  0.83091000  0.53870000  0.86993000  1.0
  C  C81  1  0.16908000  0.46131000  0.13006000  1.0
  C  C82  1  0.02847000  0.73645000  0.78323000  1.0
  C  C83  1  0.97152000  0.26356000  0.21676000  1.0
  C  C84  1  0.37967000  0.70699000  0.17077000  1.0
  C  C85  1  0.62033000  0.29301000  0.82923000  1.0
  C  C86  1  0.30533000  0.80429000  0.07294000  1.0
  C  C87  1  0.69467000  0.19570000  0.92707000  1.0
  C  C88  1  0.48028000  0.74104000  0.21944000  1.0
  C  C89  1  0.51970000  0.25896000  0.78056000  1.0
  C  C90  1  0.26707000  0.67999000  0.23849000  1.0
  C  C91  1  0.73293000  0.32000000  0.76151000  1.0
  N  N92  1  0.25415000  0.02975000  0.55979000  1.0
  N  N93  1  0.74586000  0.97025000  0.44021000  1.0
  N  N94  1  0.09714000  0.78681000  0.73612000  1.0
  N  N95  1  0.90286000  0.21319000  0.26389000  1.0
  Cl  Cl96  1  0.81083000  0.11922000  0.59155000  1.0
  Cl  Cl97  1  0.18918000  0.88078000  0.40845000  1.0
  O  O98  1  0.62973000  0.26245000  0.13246000  1.0
  O  O99  1  0.37029000  0.73755000  0.86754000  1.0
  O  O100  1  0.75457000  0.37440000  0.01696000  1.0
  O  O101  1  0.24543000  0.62560000  0.98304000  1.0
  O  O102  1  0.88031000  0.00044000  0.61140000  1.0
  O  O103  1  0.11970000  0.99957000  0.38859000  1.0
  O  O104  1  0.89138000  0.15045000  0.64812000  1.0
  O  O105  1  0.10863000  0.84955000  0.35188000  1.0
  O  O106  1  0.80603000  0.18575000  0.48615000  1.0
  O  O107  1  0.19397000  0.81426000  0.51385000  1.0
  O  O108  1  0.66734000  0.13388000  0.61877000  1.0
  O  O109  1  0.33267000  0.86612000  0.38123000  1.0
