# generated using pymatgen
data_ZnH6C9N3ClO2
_symmetry_space_group_name_H-M   'P 1'
_cell_length_a   7.29763000
_cell_length_b   9.01718000
_cell_length_c   17.61610000
_cell_angle_alpha   90.00000000
_cell_angle_beta   89.99970000
_cell_angle_gamma   89.58190000
_symmetry_Int_Tables_number   1
_chemical_formula_structural   ZnH6C9N3ClO2
_chemical_formula_sum   'Zn4 H24 C36 N12 Cl4 O8'
_cell_volume   1159.17974335
_cell_formula_units_Z   4
loop_
 _symmetry_equiv_pos_site_id
 _symmetry_equiv_pos_as_xyz
  1  'x, y, z'
loop_
 _atom_site_type_symbol
 _atom_site_label
 _atom_site_symmetry_multiplicity
 _atom_site_fract_x
 _atom_site_fract_y
 _atom_site_fract_z
 _atom_site_occupancy
  Zn  Zn0  1  0.87654000  0.82445000  0.95387000  1.0
  Zn  Zn1  1  0.62346000  0.17555000  0.45387000  1.0
  Zn  Zn2  1  0.12346000  0.17555000  0.04613000  1.0
  Zn  Zn3  1  0.37655000  0.82445000  0.54613000  1.0
  H  H4  1  0.46692000  0.68916000  0.80289000  1.0
  H  H5  1  0.03310000  0.31085000  0.30288000  1.0
  H  H6  1  0.53310000  0.31085000  0.19711000  1.0
  H  H7  1  0.96691000  0.68915000  0.69711000  1.0
  H  H8  1  0.57276000  0.51160000  0.90261000  1.0
  H  H9  1  0.92724000  0.48840000  0.40261000  1.0
  H  H10  1  0.42723000  0.48840000  0.09739000  1.0
  H  H11  1  0.07277000  0.51160000  0.59739000  1.0
  H  H12  1  0.76191000  0.21240000  0.72673000  1.0
  H  H13  1  0.73808000  0.78759000  0.22673000  1.0
  H  H14  1  0.23809000  0.78760000  0.27327000  1.0
  H  H15  1  0.26190000  0.21240000  0.77327000  1.0
  H  H16  1  0.65646000  0.39058000  0.62858000  1.0
  H  H17  1  0.84353000  0.60941000  0.12858000  1.0
  H  H18  1  0.34355000  0.60942000  0.37142000  1.0
  H  H19  1  0.15645000  0.39058000  0.87142000  1.0
  H  H20  1  0.68298000  0.03375000  0.82834000  1.0
  H  H21  1  0.81702000  0.96625000  0.32834000  1.0
  H  H22  1  0.31702000  0.96625000  0.17166000  1.0
  H  H23  1  0.18297000  0.03375000  0.67166000  1.0
  H  H24  1  0.86731000  0.40301000  0.95599000  1.0
  H  H25  1  0.63269000  0.59699000  0.45598000  1.0
  H  H26  1  0.13268000  0.59698000  0.04402000  1.0
  H  H27  1  0.36731000  0.40301000  0.54402000  1.0
  C  C28  1  0.48595000  0.65189000  0.64912000  1.0
  C  C29  1  0.01405000  0.34810000  0.14912000  1.0
  C  C30  1  0.51406000  0.34811000  0.35088000  1.0
  C  C31  1  0.98594000  0.65190000  0.85088000  1.0
  C  C32  1  0.55052000  0.54908000  0.70986000  1.0
  C  C33  1  0.94948000  0.45092000  0.20986000  1.0
  C  C34  1  0.44949000  0.45093000  0.29014000  1.0
  C  C35  1  0.05052000  0.54907000  0.79014000  1.0
  C  C36  1  0.53018000  0.58396000  0.78687000  1.0
  C  C37  1  0.96982000  0.41604000  0.28687000  1.0
  C  C38  1  0.46983000  0.41605000  0.21313000  1.0
  C  C39  1  0.03018000  0.58396000  0.71313000  1.0
  C  C40  1  0.58899000  0.48483000  0.84262000  1.0
  C  C41  1  0.91101000  0.51517000  0.34262000  1.0
  C  C42  1  0.41101000  0.51517000  0.15738000  1.0
  C  C43  1  0.08899000  0.48483000  0.65738000  1.0
  C  C44  1  0.66915000  0.35097000  0.81988000  1.0
  C  C45  1  0.83085000  0.64903000  0.31988000  1.0
  C  C46  1  0.33085000  0.64903000  0.18012000  1.0
  C  C47  1  0.16914000  0.35097000  0.68012000  1.0
  C  C48  1  0.69111000  0.31418000  0.74331000  1.0
  C  C49  1  0.80889000  0.68582000  0.24330000  1.0
  C  C50  1  0.30889000  0.68583000  0.25669000  1.0
  C  C51  1  0.19111000  0.31418000  0.75670000  1.0
  C  C52  1  0.63238000  0.41412000  0.68845000  1.0
  C  C53  1  0.86762000  0.58587000  0.18845000  1.0
  C  C54  1  0.36763000  0.58588000  0.31155000  1.0
  C  C55  1  0.13237000  0.41412000  0.81155000  1.0
  C  C56  1  0.74906000  0.10053000  0.87137000  1.0
  C  C57  1  0.75094000  0.89947000  0.37137000  1.0
  C  C58  1  0.25094000  0.89946000  0.12863000  1.0
  C  C59  1  0.24905000  0.10053000  0.62863000  1.0
  C  C60  1  0.83901000  0.28967000  0.93859000  1.0
  C  C61  1  0.66099000  0.71033000  0.43859000  1.0
  C  C62  1  0.16099000  0.71033000  0.06141000  1.0
  C  C63  1  0.33900000  0.28966000  0.56141000  1.0
  N  N64  1  0.84625000  0.04881000  0.92866000  1.0
  N  N65  1  0.65375000  0.95119000  0.42866000  1.0
  N  N66  1  0.15375000  0.95119000  0.07134000  1.0
  N  N67  1  0.34625000  0.04881000  0.57134000  1.0
  N  N68  1  0.90344000  0.16779000  0.97093000  1.0
  N  N69  1  0.59656000  0.83221000  0.47093000  1.0
  N  N70  1  0.09655000  0.83221000  0.02907000  1.0
  N  N71  1  0.40344000  0.16779000  0.52907000  1.0
  N  N72  1  0.74271000  0.25164000  0.87523000  1.0
  N  N73  1  0.75729000  0.74836000  0.37523000  1.0
  N  N74  1  0.25729000  0.74836000  0.12477000  1.0
  N  N75  1  0.24271000  0.25164000  0.62477000  1.0
  Cl  Cl76  1  0.62035000  0.75604000  0.01252000  1.0
  Cl  Cl77  1  0.87964000  0.24396000  0.51252000  1.0
  Cl  Cl78  1  0.37965000  0.24396000  0.98748000  1.0
  Cl  Cl79  1  0.12036000  0.75604000  0.48748000  1.0
  O  O80  1  0.49088000  0.60673000  0.58039000  1.0
  O  O81  1  0.00911000  0.39327000  0.08039000  1.0
  O  O82  1  0.50912000  0.39328000  0.41961000  1.0
  O  O83  1  0.99088000  0.60673000  0.91961000  1.0
  O  O84  1  0.42563000  0.78181000  0.66526000  1.0
  O  O85  1  0.07437000  0.21819000  0.16525000  1.0
  O  O86  1  0.57437000  0.21820000  0.33475000  1.0
  O  O87  1  0.92563000  0.78180000  0.83474000  1.0
