# generated using pymatgen
data_LaH7C14(NO4)2
_symmetry_space_group_name_H-M   'P 1'
_cell_length_a   6.81478000
_cell_length_b   14.38220000
_cell_length_c   14.70300000
_cell_angle_alpha   97.70380000
_cell_angle_beta   89.99920000
_cell_angle_gamma   89.99970000
_symmetry_Int_Tables_number   1
_chemical_formula_structural   LaH7C14(NO4)2
_chemical_formula_sum   'La4 H28 C56 N8 O32'
_cell_volume   1428.05691875
_cell_formula_units_Z   4
loop_
 _symmetry_equiv_pos_site_id
 _symmetry_equiv_pos_as_xyz
  1  'x, y, z'
loop_
 _atom_site_type_symbol
 _atom_site_label
 _atom_site_symmetry_multiplicity
 _atom_site_fract_x
 _atom_site_fract_y
 _atom_site_fract_z
 _atom_site_occupancy
  La  La0  1  0.23624000  0.30587000  0.66119000  1.0
  La  La1  1  0.73622000  0.69414000  0.83883000  1.0
  La  La2  1  0.76378000  0.69413000  0.33882000  1.0
  La  La3  1  0.26376000  0.30587000  0.16118000  1.0
  H  H4  1  0.16122000  0.36798000  0.43252000  1.0
  H  H5  1  0.66121000  0.63203000  0.06748000  1.0
  H  H6  1  0.83878000  0.63202000  0.56747000  1.0
  H  H7  1  0.33879000  0.36797000  0.93252000  1.0
  H  H8  1  0.37905000  0.53566000  0.66303000  1.0
  H  H9  1  0.87904000  0.46434000  0.83698000  1.0
  H  H10  1  0.62096000  0.46433000  0.33698000  1.0
  H  H11  1  0.12096000  0.53566000  0.16303000  1.0
  H  H12  1  0.37055000  0.67746000  0.58571000  1.0
  H  H13  1  0.87054000  0.32253000  0.91429000  1.0
  H  H14  1  0.62946000  0.32253000  0.41429000  1.0
  H  H15  1  0.12947000  0.67746000  0.08570000  1.0
  H  H16  1  0.31988000  0.01908000  0.19682000  1.0
  H  H17  1  0.81987000  0.98092000  0.30319000  1.0
  H  H18  1  0.68013000  0.98092000  0.80319000  1.0
  H  H19  1  0.18012000  0.01908000  0.69681000  1.0
  H  H20  1  0.27241000  0.85497000  0.24080000  1.0
  H  H21  1  0.77240000  0.14503000  0.25920000  1.0
  H  H22  1  0.72759000  0.14503000  0.75920000  1.0
  H  H23  1  0.22760000  0.85497000  0.74080000  1.0
  H  H24  1  0.20797000  0.96262000  0.51528000  1.0
  H  H25  1  0.70798000  0.03738000  0.98472000  1.0
  H  H26  1  0.79201000  0.03738000  0.48472000  1.0
  H  H27  1  0.29203000  0.96262000  0.01528000  1.0
  H  H28  1  0.18971000  0.83861000  0.39237000  1.0
  H  H29  1  0.68970000  0.16139000  0.10762000  1.0
  H  H30  1  0.81029000  0.16139000  0.60762000  1.0
  H  H31  1  0.31030000  0.83862000  0.89237000  1.0
  C  C32  1  0.10511000  0.50344000  0.32202000  1.0
  C  C33  1  0.60513000  0.49657000  0.17798000  1.0
  C  C34  1  0.89487000  0.49656000  0.67798000  1.0
  C  C35  1  0.39488000  0.50344000  0.82202000  1.0
  C  C36  1  0.18984000  0.51461000  0.41650000  1.0
  C  C37  1  0.68984000  0.48539000  0.08351000  1.0
  C  C38  1  0.81017000  0.48539000  0.58350000  1.0
  C  C39  1  0.31016000  0.51460000  0.91649000  1.0
  C  C40  1  0.20399000  0.43772000  0.46501000  1.0
  C  C41  1  0.70398000  0.56228000  0.03499000  1.0
  C  C42  1  0.79603000  0.56228000  0.53498000  1.0
  C  C43  1  0.29601000  0.43772000  0.96501000  1.0
  C  C44  1  0.32364000  0.53084000  0.59307000  1.0
  C  C45  1  0.82363000  0.46916000  0.90693000  1.0
  C  C46  1  0.67637000  0.46916000  0.40693000  1.0
  C  C47  1  0.17636000  0.53084000  0.09307000  1.0
  C  C48  1  0.31787000  0.61091000  0.54974000  1.0
  C  C49  1  0.81785000  0.38909000  0.95026000  1.0
  C  C50  1  0.68213000  0.38908000  0.45026000  1.0
  C  C51  1  0.18215000  0.61091000  0.04974000  1.0
  C  C52  1  0.24854000  0.60321000  0.45981000  1.0
  C  C53  1  0.74854000  0.39679000  0.04019000  1.0
  C  C54  1  0.75147000  0.39679000  0.54018000  1.0
  C  C55  1  0.25146000  0.60321000  0.95981000  1.0
  C  C56  1  0.25194000  0.68882000  0.41156000  1.0
  C  C57  1  0.75193000  0.31118000  0.08844000  1.0
  C  C58  1  0.74806000  0.31118000  0.58844000  1.0
  C  C59  1  0.24806000  0.68881000  0.91156000  1.0
  C  C60  1  0.29049000  0.18090000  0.30410000  1.0
  C  C61  1  0.79049000  0.81910000  0.19590000  1.0
  C  C62  1  0.70952000  0.81910000  0.69590000  1.0
  C  C63  1  0.20952000  0.18090000  0.80410000  1.0
  C  C64  1  0.29055000  0.08560000  0.33682000  1.0
  C  C65  1  0.79055000  0.91440000  0.16318000  1.0
  C  C66  1  0.70946000  0.91440000  0.66318000  1.0
  C  C67  1  0.20946000  0.08559000  0.83682000  1.0
  C  C68  1  0.29934000  0.00792000  0.26805000  1.0
  C  C69  1  0.79932000  0.99208000  0.23195000  1.0
  C  C70  1  0.70066000  0.99208000  0.73195000  1.0
  C  C71  1  0.20066000  0.00792000  0.76804000  1.0
  C  C72  1  0.27175000  0.91832000  0.29012000  1.0
  C  C73  1  0.77173000  0.08168000  0.20988000  1.0
  C  C74  1  0.72825000  0.08168000  0.70988000  1.0
  C  C75  1  0.22825000  0.91832000  0.79012000  1.0
  C  C76  1  0.23553000  0.97847000  0.44608000  1.0
  C  C77  1  0.73554000  0.02153000  0.05392000  1.0
  C  C78  1  0.76445000  0.02153000  0.55392000  1.0
  C  C79  1  0.26446000  0.97847000  0.94608000  1.0
  C  C80  1  0.26637000  0.06997000  0.42878000  1.0
  C  C81  1  0.76637000  0.93003000  0.07122000  1.0
  C  C82  1  0.73363000  0.93003000  0.57122000  1.0
  C  C83  1  0.23363000  0.06997000  0.92878000  1.0
  C  C84  1  0.26712000  0.14764000  0.50843000  1.0
  C  C85  1  0.76713000  0.85236000  0.99157000  1.0
  C  C86  1  0.73287000  0.85237000  0.49157000  1.0
  C  C87  1  0.23287000  0.14764000  0.00843000  1.0
  N  N88  1  0.23442000  0.90658000  0.37783000  1.0
  N  N89  1  0.73443000  0.09342000  0.12216000  1.0
  N  N90  1  0.76557000  0.09342000  0.62217000  1.0
  N  N91  1  0.26556000  0.90658000  0.87784000  1.0
  N  N92  1  0.26720000  0.44535000  0.55230000  1.0
  N  N93  1  0.76717000  0.55465000  0.94770000  1.0
  N  N94  1  0.73282000  0.55465000  0.44770000  1.0
  N  N95  1  0.23280000  0.44534000  0.05229000  1.0
  O  O96  1  0.12188000  0.21229000  0.28822000  1.0
  O  O97  1  0.62188000  0.78771000  0.21178000  1.0
  O  O98  1  0.87813000  0.78771000  0.71178000  1.0
  O  O99  1  0.37813000  0.21229000  0.78823000  1.0
  O  O100  1  0.45078000  0.21746000  0.28270000  1.0
  O  O101  1  0.95078000  0.78254000  0.21730000  1.0
  O  O102  1  0.54922000  0.78254000  0.71731000  1.0
  O  O103  1  0.04923000  0.21746000  0.78269000  1.0
  O  O104  1  0.29692000  0.23067000  0.49184000  1.0
  O  O105  1  0.79692000  0.76933000  0.00816000  1.0
  O  O106  1  0.70307000  0.76934000  0.50816000  1.0
  O  O107  1  0.20308000  0.23067000  0.99184000  1.0
  O  O108  1  0.23802000  0.12602000  0.58887000  1.0
  O  O109  1  0.73801000  0.87398000  0.91113000  1.0
  O  O110  1  0.76199000  0.87398000  0.41113000  1.0
  O  O111  1  0.26199000  0.12602000  0.08887000  1.0
  O  O112  1  0.40710000  0.70656000  0.37104000  1.0
  O  O113  1  0.90708000  0.29343000  0.12896000  1.0
  O  O114  1  0.59290000  0.29343000  0.62896000  1.0
  O  O115  1  0.09292000  0.70656000  0.87104000  1.0
  O  O116  1  0.10184000  0.74324000  0.41925000  1.0
  O  O117  1  0.60182000  0.25677000  0.08075000  1.0
  O  O118  1  0.89816000  0.25676000  0.58075000  1.0
  O  O119  1  0.39817000  0.74323000  0.91925000  1.0
  O  O120  1  0.02241000  0.57495000  0.29606000  1.0
  O  O121  1  0.52241000  0.42505000  0.20395000  1.0
  O  O122  1  0.97760000  0.42506000  0.70394000  1.0
  O  O123  1  0.47759000  0.57495000  0.79606000  1.0
  O  O124  1  0.11761000  0.42433000  0.27303000  1.0
  O  O125  1  0.61761000  0.57567000  0.22696000  1.0
  O  O126  1  0.88239000  0.57568000  0.72696000  1.0
  O  O127  1  0.38240000  0.42433000  0.77303000  1.0
