# generated using pymatgen
data_CuH2C2NCl
_symmetry_space_group_name_H-M   'P 1'
_cell_length_a   3.67631000
_cell_length_b   13.13890000
_cell_length_c   14.39480000
_cell_angle_alpha   90.00080000
_cell_angle_beta   89.99970000
_cell_angle_gamma   89.99760000
_symmetry_Int_Tables_number   1
_chemical_formula_structural   CuH2C2NCl
_chemical_formula_sum   'Cu8 H16 C16 N8 Cl8'
_cell_volume   695.30726564
_cell_formula_units_Z   8
loop_
 _symmetry_equiv_pos_site_id
 _symmetry_equiv_pos_as_xyz
  1  'x, y, z'
loop_
 _atom_site_type_symbol
 _atom_site_label
 _atom_site_symmetry_multiplicity
 _atom_site_fract_x
 _atom_site_fract_y
 _atom_site_fract_z
 _atom_site_occupancy
  Cu  Cu0  1  0.69579000  0.52958000  0.31394000  1.0
  Cu  Cu1  1  0.80416000  0.52966000  0.81394000  1.0
  Cu  Cu2  1  0.69576000  0.97035000  0.31395000  1.0
  Cu  Cu3  1  0.19580000  0.02961000  0.18607000  1.0
  Cu  Cu4  1  0.30416000  0.47038000  0.68608000  1.0
  Cu  Cu5  1  0.19584000  0.47038000  0.18604000  1.0
  Cu  Cu6  1  0.30415000  0.02961000  0.68605000  1.0
  Cu  Cu7  1  0.80421000  0.97043000  0.81394000  1.0
  H  H8  1  0.77865000  0.74996000  0.26904000  1.0
  H  H9  1  0.72145000  0.75004000  0.76902000  1.0
  H  H10  1  0.27859000  0.24998000  0.23097000  1.0
  H  H11  1  0.22141000  0.25000000  0.73097000  1.0
  H  H12  1  0.33258000  0.58583000  0.48874000  1.0
  H  H13  1  0.16732000  0.58588000  0.98871000  1.0
  H  H14  1  0.33269000  0.91412000  0.48875000  1.0
  H  H15  1  0.83254000  0.08584000  0.01127000  1.0
  H  H16  1  0.66738000  0.41415000  0.51128000  1.0
  H  H17  1  0.83260000  0.41414000  0.01126000  1.0
  H  H18  1  0.66734000  0.08584000  0.51126000  1.0
  H  H19  1  0.16747000  0.91418000  0.98873000  1.0
  H  H20  1  0.17713000  0.74997000  0.57045000  1.0
  H  H21  1  0.32295000  0.75003000  0.07044000  1.0
  H  H22  1  0.67707000  0.24998000  0.92957000  1.0
  H  H23  1  0.82287000  0.25000000  0.42955000  1.0
  C  C24  1  0.64616000  0.74996000  0.33681000  1.0
  C  C25  1  0.85391000  0.75005000  0.83679000  1.0
  C  C26  1  0.14608000  0.24999000  0.16320000  1.0
  C  C27  1  0.35387000  0.25000000  0.66319000  1.0
  C  C28  1  0.39946000  0.65955000  0.45873000  1.0
  C  C29  1  0.10059000  0.65962000  0.95872000  1.0
  C  C30  1  0.39950000  0.84040000  0.45873000  1.0
  C  C31  1  0.89943000  0.15958000  0.04128000  1.0
  C  C32  1  0.60052000  0.34043000  0.54128000  1.0
  C  C33  1  0.89940000  0.34041000  0.04127000  1.0
  C  C34  1  0.60052000  0.15958000  0.54126000  1.0
  C  C35  1  0.10060000  0.84045000  0.95872000  1.0
  C  C36  1  0.31262000  0.74997000  0.50328000  1.0
  C  C37  1  0.18752000  0.75004000  0.00327000  1.0
  C  C38  1  0.81254000  0.24999000  0.99673000  1.0
  C  C39  1  0.68741000  0.25001000  0.49673000  1.0
  N  N40  1  0.56831000  0.65927000  0.37508000  1.0
  N  N41  1  0.93166000  0.65936000  0.87507000  1.0
  N  N42  1  0.56841000  0.84066000  0.37508000  1.0
  N  N43  1  0.06830000  0.15931000  0.12494000  1.0
  N  N44  1  0.43163000  0.34070000  0.62493000  1.0
  N  N45  1  0.06834000  0.34069000  0.12493000  1.0
  N  N46  1  0.43159000  0.15932000  0.62491000  1.0
  N  N47  1  0.93168000  0.84074000  0.87507000  1.0
  Cl  Cl48  1  0.65928000  0.57682000  0.14993000  1.0
  Cl  Cl49  1  0.84068000  0.57683000  0.64993000  1.0
  Cl  Cl50  1  0.65933000  0.92316000  0.14994000  1.0
  Cl  Cl51  1  0.15926000  0.07679000  0.35007000  1.0
  Cl  Cl52  1  0.34073000  0.42321000  0.85008000  1.0
  Cl  Cl53  1  0.15937000  0.42316000  0.35005000  1.0
  Cl  Cl54  1  0.34068000  0.07686000  0.85005000  1.0
  Cl  Cl55  1  0.84068000  0.92317000  0.64994000  1.0
