# generated using pymatgen
data_NdH12C15N2O7
_symmetry_space_group_name_H-M   'P 1'
_cell_length_a   10.75100000
_cell_length_b   11.79760000
_cell_length_c   16.47380000
_cell_angle_alpha   70.74100000
_cell_angle_beta   89.99490000
_cell_angle_gamma   62.91100000
_symmetry_Int_Tables_number   1
_chemical_formula_structural   NdH12C15N2O7
_chemical_formula_sum   'Nd4 H48 C60 N8 O28'
_cell_volume   1727.91474947
_cell_formula_units_Z   4
loop_
 _symmetry_equiv_pos_site_id
 _symmetry_equiv_pos_as_xyz
  1  'x, y, z'
loop_
 _atom_site_type_symbol
 _atom_site_label
 _atom_site_symmetry_multiplicity
 _atom_site_fract_x
 _atom_site_fract_y
 _atom_site_fract_z
 _atom_site_occupancy
  Nd  Nd0  1  0.02556000  0.99600000  0.87226000  1.0
  Nd  Nd1  1  0.02152000  0.00395000  0.62779000  1.0
  Nd  Nd2  1  0.97444000  0.00400000  0.12774000  1.0
  Nd  Nd3  1  0.97848000  0.99605000  0.37221000  1.0
  H  H4  1  0.30170000  0.54363000  0.98601000  1.0
  H  H5  1  0.84496000  0.45640000  0.51401000  1.0
  H  H6  1  0.69830000  0.45637000  0.01399000  1.0
  H  H7  1  0.15504000  0.54360000  0.48599000  1.0
  H  H8  1  0.52470000  0.31741000  0.04598000  1.0
  H  H9  1  0.84152000  0.68281000  0.45401000  1.0
  H  H10  1  0.47530000  0.68259000  0.95402000  1.0
  H  H11  1  0.15848000  0.31719000  0.54599000  1.0
  H  H12  1  0.53643000  0.35479000  0.29581000  1.0
  H  H13  1  0.89141000  0.64518000  0.20428000  1.0
  H  H14  1  0.46357000  0.64521000  0.70419000  1.0
  H  H15  1  0.10859000  0.35482000  0.79572000  1.0
  H  H16  1  0.31029000  0.58103000  0.23650000  1.0
  H  H17  1  0.89168000  0.41879000  0.26361000  1.0
  H  H18  1  0.68971000  0.41897000  0.76350000  1.0
  H  H19  1  0.10832000  0.58121000  0.73639000  1.0
  H  H20  1  0.64585000  0.02758000  0.10223000  1.0
  H  H21  1  0.67322000  0.97266000  0.39761000  1.0
  H  H22  1  0.35415000  0.97242000  0.89777000  1.0
  H  H23  1  0.32678000  0.02734000  0.60239000  1.0
  H  H24  1  0.41239000  0.04075000  0.13276000  1.0
  H  H25  1  0.45319000  0.95880000  0.36742000  1.0
  H  H26  1  0.58761000  0.95925000  0.86723000  1.0
  H  H27  1  0.54681000  0.04120000  0.63258000  1.0
  H  H28  1  0.82765000  0.65889000  0.94318000  1.0
  H  H29  1  0.48683000  0.34074000  0.55683000  1.0
  H  H30  1  0.17235000  0.34110000  0.05682000  1.0
  H  H31  1  0.51317000  0.65926000  0.44317000  1.0
  H  H32  1  0.94408000  0.50966000  0.92164000  1.0
  H  H33  1  0.45397000  0.48999000  0.57839000  1.0
  H  H34  1  0.05592000  0.49034000  0.07836000  1.0
  H  H35  1  0.54603000  0.51001000  0.42161000  1.0
  H  H36  1  0.84081000  0.61412000  0.77011000  1.0
  H  H37  1  0.45514000  0.38548000  0.72991000  1.0
  H  H38  1  0.15919000  0.38588000  0.22989000  1.0
  H  H39  1  0.54486000  0.61452000  0.27009000  1.0
  H  H40  1  0.69119000  0.72252000  0.80533000  1.0
  H  H41  1  0.41402000  0.27695000  0.69473000  1.0
  H  H42  1  0.30881000  0.27748000  0.19467000  1.0
  H  H43  1  0.58597000  0.72305000  0.30527000  1.0
  H  H44  1  0.05319000  0.67234000  0.93279000  1.0
  H  H45  1  0.72570000  0.32749000  0.56719000  1.0
  H  H46  1  0.94681000  0.32766000  0.06721000  1.0
  H  H47  1  0.27430000  0.67251000  0.43281000  1.0
  H  H48  1  0.79001000  0.87467000  0.70149000  1.0
  H  H49  1  0.66491000  0.12506000  0.79853000  1.0
  H  H50  1  0.20999000  0.12533000  0.29851000  1.0
  H  H51  1  0.33509000  0.87494000  0.20147000  1.0
  C  C52  1  0.29312000  0.57617000  0.10761000  1.0
  C  C53  1  0.86925000  0.42381000  0.39243000  1.0
  C  C54  1  0.70689000  0.42383000  0.89238000  1.0
  C  C55  1  0.13075000  0.57619000  0.60757000  1.0
  C  C56  1  0.35131000  0.50043000  0.05442000  1.0
  C  C57  1  0.85143000  0.49965000  0.44559000  1.0
  C  C58  1  0.64869000  0.49957000  0.94558000  1.0
  C  C59  1  0.14856000  0.50035000  0.55441000  1.0
  C  C60  1  0.47577000  0.37505000  0.08747000  1.0
  C  C61  1  0.85041000  0.62513000  0.41252000  1.0
  C  C62  1  0.52423000  0.62495000  0.91252000  1.0
  C  C63  1  0.14959000  0.37488000  0.58748000  1.0
  C  C64  1  0.54377000  0.32407000  0.17408000  1.0
  C  C65  1  0.86759000  0.67605000  0.32593000  1.0
  C  C66  1  0.45623000  0.67593000  0.82592000  1.0
  C  C67  1  0.13241000  0.32395000  0.67407000  1.0
  C  C68  1  0.48236000  0.39711000  0.22843000  1.0
  C  C69  1  0.87944000  0.60291000  0.27161000  1.0
  C  C70  1  0.51764000  0.60289000  0.77157000  1.0
  C  C71  1  0.12055000  0.39709000  0.72839000  1.0
  C  C72  1  0.35790000  0.52200000  0.19554000  1.0
  C  C73  1  0.87999000  0.47794000  0.30452000  1.0
  C  C74  1  0.64210000  0.47800000  0.80446000  1.0
  C  C75  1  0.12001000  0.52206000  0.69548000  1.0
  C  C76  1  0.16981000  0.71903000  0.07029000  1.0
  C  C77  1  0.88901000  0.28085000  0.42978000  1.0
  C  C78  1  0.83019000  0.28097000  0.92970000  1.0
  C  C79  1  0.11099000  0.71915000  0.57022000  1.0
  C  C80  1  0.68615000  0.19707000  0.20736000  1.0
  C  C81  1  0.88293000  0.80310000  0.29261000  1.0
  C  C82  1  0.31385000  0.80293000  0.79264000  1.0
  C  C83  1  0.11707000  0.19690000  0.70739000  1.0
  C  C84  1  0.62999000  0.99308000  0.98273000  1.0
  C  C85  1  0.62291000  0.00722000  0.51712000  1.0
  C  C86  1  0.37001000  0.00693000  0.01727000  1.0
  C  C87  1  0.37709000  0.99278000  0.48289000  1.0
  C  C88  1  0.58174000  0.01516000  0.05810000  1.0
  C  C89  1  0.59680000  0.98496000  0.44182000  1.0
  C  C90  1  0.41826000  0.98484000  0.94190000  1.0
  C  C91  1  0.40321000  0.01504000  0.55818000  1.0
  C  C92  1  0.45213000  0.02231000  0.07493000  1.0
  C  C93  1  0.47450000  0.97745000  0.42516000  1.0
  C  C94  1  0.54787000  0.97769000  0.92507000  1.0
  C  C95  1  0.52550000  0.02255000  0.57484000  1.0
  C  C96  1  0.76697000  0.98883000  0.96235000  1.0
  C  C97  1  0.75568000  0.01142000  0.53747000  1.0
  C  C98  1  0.23303000  0.01117000  0.03765000  1.0
  C  C99  1  0.24432000  0.98858000  0.46253000  1.0
  C  C100  1  0.94890000  0.78349000  0.80735000  1.0
  C  C101  1  0.73255000  0.21638000  0.69266000  1.0
  C  C102  1  0.05110000  0.21651000  0.19265000  1.0
  C  C103  1  0.26745000  0.78362000  0.30734000  1.0
  C  C104  1  0.89369000  0.62186000  0.89678000  1.0
  C  C105  1  0.51578000  0.37781000  0.60323000  1.0
  C  C106  1  0.10631000  0.37814000  0.10322000  1.0
  C  C107  1  0.48422000  0.62220000  0.39677000  1.0
  C  C108  1  0.80456000  0.68682000  0.80410000  1.0
  C  C109  1  0.49161000  0.31279000  0.69591000  1.0
  C  C110  1  0.19544000  0.31318000  0.19590000  1.0
  C  C111  1  0.50839000  0.68721000  0.30409000  1.0
  N  N112  1  0.99905000  0.66983000  0.88252000  1.0
  N  N113  1  0.66905000  0.32998000  0.61747000  1.0
  N  N114  1  0.00095000  0.33017000  0.11748000  1.0
  N  N115  1  0.33095000  0.67002000  0.38253000  1.0
  N  N116  1  0.83367000  0.79981000  0.76265000  1.0
  N  N117  1  0.63368000  0.19990000  0.73736000  1.0
  N  N118  1  0.16633000  0.20019000  0.23735000  1.0
  N  N119  1  0.36631000  0.80010000  0.26264000  1.0
  O  O120  1  0.13697000  0.78644000  0.12004000  1.0
  O  O121  1  0.92382000  0.21337000  0.38007000  1.0
  O  O122  1  0.86303000  0.21355000  0.87996000  1.0
  O  O123  1  0.07618000  0.78663000  0.61993000  1.0
  O  O124  1  0.10914000  0.76504000  0.99080000  1.0
  O  O125  1  0.87429000  0.23482000  0.50927000  1.0
  O  O126  1  0.89086000  0.23496000  0.00920000  1.0
  O  O127  1  0.12570000  0.76518000  0.49073000  1.0
  O  O128  1  0.74211000  0.14037000  0.15343000  1.0
  O  O129  1  0.88226000  0.85982000  0.34650000  1.0
  O  O130  1  0.25789000  0.85963000  0.84657000  1.0
  O  O131  1  0.11774000  0.14018000  0.65350000  1.0
  O  O132  1  0.74213000  0.15696000  0.28618000  1.0
  O  O133  1  0.89876000  0.84324000  0.21377000  1.0
  O  O134  1  0.25787000  0.84304000  0.71382000  1.0
  O  O135  1  0.10124000  0.15676000  0.78623000  1.0
  O  O136  1  0.84518000  0.99584000  0.01611000  1.0
  O  O137  1  0.84091000  0.00427000  0.48371000  1.0
  O  O138  1  0.15482000  0.00416000  0.98389000  1.0
  O  O139  1  0.15910000  0.99573000  0.51629000  1.0
  O  O140  1  0.80069000  0.98078000  0.88921000  1.0
  O  O141  1  0.78142000  0.01934000  0.61065000  1.0
  O  O142  1  0.19931000  0.01922000  0.11079000  1.0
  O  O143  1  0.21858000  0.98066000  0.38935000  1.0
  O  O144  1  0.00502000  0.86078000  0.78391000  1.0
  O  O145  1  0.86593000  0.13923000  0.71610000  1.0
  O  O146  1  0.99498000  0.13922000  0.21609000  1.0
  O  O147  1  0.13407000  0.86077000  0.28390000  1.0
