# generated using pymatgen
data_LiH6(C2O)2
_symmetry_space_group_name_H-M   'P 1'
_cell_length_a   4.82038000
_cell_length_b   9.21456000
_cell_length_c   10.52500000
_cell_angle_alpha   64.23200000
_cell_angle_beta   89.99970000
_cell_angle_gamma   89.99970000
_symmetry_Int_Tables_number   1
_chemical_formula_structural   LiH6(C2O)2
_chemical_formula_sum   'Li4 H24 C16 O8'
_cell_volume   421.00907790
_cell_formula_units_Z   4
loop_
 _symmetry_equiv_pos_site_id
 _symmetry_equiv_pos_as_xyz
  1  'x, y, z'
loop_
 _atom_site_type_symbol
 _atom_site_label
 _atom_site_symmetry_multiplicity
 _atom_site_fract_x
 _atom_site_fract_y
 _atom_site_fract_z
 _atom_site_occupancy
  Li  Li0  1  0.08605000  0.14153000  0.00468000  1.0
  Li  Li1  1  0.58607000  0.35847000  0.99532000  1.0
  Li  Li2  1  0.91394000  0.85847000  0.99532000  1.0
  Li  Li3  1  0.41395000  0.64153000  0.00468000  1.0
  H  H4  1  0.40999000  0.26336000  0.64533000  1.0
  H  H5  1  0.90998000  0.23664000  0.35467000  1.0
  H  H6  1  0.59001000  0.73663000  0.35467000  1.0
  H  H7  1  0.09003000  0.76337000  0.64533000  1.0
  H  H8  1  0.21334000  0.09989000  0.75975000  1.0
  H  H9  1  0.71335000  0.40011000  0.24025000  1.0
  H  H10  1  0.78665000  0.90010000  0.24025000  1.0
  H  H11  1  0.28666000  0.59988000  0.75975000  1.0
  H  H12  1  0.56093000  0.90626000  0.74767000  1.0
  H  H13  1  0.06091000  0.59375000  0.25233000  1.0
  H  H14  1  0.43908000  0.09374000  0.25233000  1.0
  H  H15  1  0.93908000  0.40627000  0.74767000  1.0
  H  H16  1  0.79044000  0.06495000  0.65015000  1.0
  H  H17  1  0.29044000  0.43506000  0.34984000  1.0
  H  H18  1  0.20956000  0.93506000  0.34984000  1.0
  H  H19  1  0.70957000  0.56495000  0.65017000  1.0
  H  H20  1  0.43380000  0.17822000  0.45530000  1.0
  H  H21  1  0.93382000  0.32178000  0.54470000  1.0
  H  H22  1  0.56617000  0.82178000  0.54469000  1.0
  H  H23  1  0.06618000  0.67822000  0.45531000  1.0
  H  H24  1  0.21088000  0.01708000  0.55324000  1.0
  H  H25  1  0.71087000  0.48292000  0.44676000  1.0
  H  H26  1  0.78911000  0.98292000  0.44675000  1.0
  H  H27  1  0.28912000  0.51707000  0.55324000  1.0
  C  C28  1  0.56834000  0.15343000  0.85110000  1.0
  C  C29  1  0.06834000  0.34657000  0.14891000  1.0
  C  C30  1  0.43166000  0.84656000  0.14891000  1.0
  C  C31  1  0.93166000  0.65344000  0.85110000  1.0
  C  C32  1  0.42873000  0.13871000  0.72821000  1.0
  C  C33  1  0.92875000  0.36129000  0.27177000  1.0
  C  C34  1  0.57125000  0.86129000  0.27178000  1.0
  C  C35  1  0.07127000  0.63871000  0.72822000  1.0
  C  C36  1  0.56919000  0.03314000  0.66926000  1.0
  C  C37  1  0.06919000  0.46687000  0.33074000  1.0
  C  C38  1  0.43081000  0.96686000  0.33074000  1.0
  C  C39  1  0.93081000  0.53314000  0.66926000  1.0
  C  C40  1  0.43185000  0.05051000  0.53259000  1.0
  C  C41  1  0.93185000  0.44949000  0.46741000  1.0
  C  C42  1  0.56814000  0.94949000  0.46740000  1.0
  C  C43  1  0.06815000  0.55051000  0.53260000  1.0
  O  O44  1  0.43732000  0.23302000  0.90599000  1.0
  O  O45  1  0.93732000  0.26697000  0.09400000  1.0
  O  O46  1  0.56268000  0.76699000  0.09400000  1.0
  O  O47  1  0.06270000  0.73302000  0.90598000  1.0
  O  O48  1  0.80689000  0.09160000  0.89278000  1.0
  O  O49  1  0.30694000  0.40840000  0.10722000  1.0
  O  O50  1  0.19306000  0.90840000  0.10722000  1.0
  O  O51  1  0.69312000  0.59161000  0.89279000  1.0
