# generated using pymatgen
data_TbH11C16(NO7)2
_symmetry_space_group_name_H-M   'P 1'
_cell_length_a   9.12165000
_cell_length_b   10.03700000
_cell_length_c   12.55307901
_cell_angle_alpha   95.53842436
_cell_angle_beta   108.98204556
_cell_angle_gamma   111.51990000
_symmetry_Int_Tables_number   1
_chemical_formula_structural   TbH11C16(NO7)2
_chemical_formula_sum   'Tb2 H22 C32 N4 O28'
_cell_volume   980.12608093
_cell_formula_units_Z   2
loop_
 _symmetry_equiv_pos_site_id
 _symmetry_equiv_pos_as_xyz
  1  'x, y, z'
loop_
 _atom_site_type_symbol
 _atom_site_label
 _atom_site_symmetry_multiplicity
 _atom_site_fract_x
 _atom_site_fract_y
 _atom_site_fract_z
 _atom_site_occupancy
  Tb  Tb0  1  0.26749000  0.52944000  0.46687000  1.0
  Tb  Tb1  1  0.73252000  0.47054000  0.53313000  1.0
  H  H2  1  0.92732000  0.86125000  0.64093000  1.0
  H  H3  1  0.07269000  0.13875000  0.35906000  1.0
  H  H4  1  0.22984000  0.32733000  0.69232000  1.0
  H  H5  1  0.77017000  0.67267000  0.30768000  1.0
  H  H6  1  0.36686000  0.00286000  0.55004000  1.0
  H  H7  1  0.63316000  0.99714000  0.44996000  1.0
  H  H8  1  0.70746000  0.91671000  0.82219000  1.0
  H  H9  1  0.29254000  0.08329000  0.17782000  1.0
  H  H10  1  0.66707000  0.98004000  0.15411000  1.0
  H  H11  1  0.33292000  0.01997000  0.84590000  1.0
  H  H12  1  0.29232000  0.59352000  0.88147000  1.0
  H  H13  1  0.70765000  0.40649000  0.11853000  1.0
  H  H14  1  0.36114000  0.78643000  0.24492000  1.0
  H  H15  1  0.63887000  0.21358000  0.75510000  1.0
  H  H16  1  0.91987000  0.47950000  0.30631000  1.0
  H  H17  1  0.08013000  0.52050000  0.69369000  1.0
  H  H18  1  0.04403000  0.59067000  0.26086000  1.0
  H  H19  1  0.95597000  0.40932000  0.73914000  1.0
  H  H20  1  0.31763000  0.31838000  0.31050000  1.0
  H  H21  1  0.68238000  0.68161000  0.68950000  1.0
  H  H22  1  0.13204000  0.31435000  0.23472000  1.0
  H  H23  1  0.86797000  0.68565000  0.76528000  1.0
  C  C24  1  0.14373000  0.91630000  0.59074000  1.0
  C  C25  1  0.85629000  0.08369000  0.40926000  1.0
  C  C26  1  0.03633000  0.94941000  0.63568000  1.0
  C  C27  1  0.96368000  0.05058000  0.36431000  1.0
  C  C28  1  0.07359000  0.09730000  0.67445000  1.0
  C  C29  1  0.92641000  0.90269000  0.32554000  1.0
  C  C30  1  0.20880000  0.21314000  0.66562000  1.0
  C  C31  1  0.79121000  0.78686000  0.33438000  1.0
  C  C32  1  0.31319000  0.17783000  0.61891000  1.0
  C  C33  1  0.68681000  0.82216000  0.38108000  1.0
  C  C34  1  0.28378000  0.03037000  0.58475000  1.0
  C  C35  1  0.71621000  0.96963000  0.41524000  1.0
  C  C36  1  0.10586000  0.75821000  0.54505000  1.0
  C  C37  1  0.89415000  0.24177000  0.45495000  1.0
  C  C38  1  0.45450000  0.29453000  0.60024000  1.0
  C  C39  1  0.54551000  0.70546000  0.39976000  1.0
  C  C40  1  0.49023000  0.74646000  0.83753000  1.0
  C  C41  1  0.50977000  0.25355000  0.16248000  1.0
  C  C42  1  0.64179000  0.87614000  0.87881000  1.0
  C  C43  1  0.35820000  0.12387000  0.12119000  1.0
  C  C44  1  0.70373000  0.95565000  0.99313000  1.0
  C  C45  1  0.29626000  0.04436000  0.00687000  1.0
  C  C46  1  0.61814000  0.91244000  0.06660000  1.0
  C  C47  1  0.38184000  0.08759000  0.93340000  1.0
  C  C48  1  0.47006000  0.78001000  0.02551000  1.0
  C  C49  1  0.52992000  0.22003000  0.97449000  1.0
  C  C50  1  0.40735000  0.69675000  0.91168000  1.0
  C  C51  1  0.59263000  0.30327000  0.08832000  1.0
  C  C52  1  0.41673000  0.66357000  0.71352000  1.0
  C  C53  1  0.58327000  0.33642000  0.28649000  1.0
  C  C54  1  0.38034000  0.72069000  0.10298000  1.0
  C  C55  1  0.61965000  0.27934000  0.89702000  1.0
  N  N56  1  0.96022000  0.13237000  0.72068000  1.0
  N  N57  1  0.03979000  0.86762000  0.27932000  1.0
  N  N58  1  0.86425000  0.09083000  0.03731000  1.0
  N  N59  1  0.13574000  0.90919000  0.96269000  1.0
  O  O60  1  0.21213000  0.73495000  0.51076000  1.0
  O  O61  1  0.78787000  0.26502000  0.48924000  1.0
  O  O62  1  0.96870000  0.65886000  0.54205000  1.0
  O  O63  1  0.03130000  0.34113000  0.45795000  1.0
  O  O64  1  0.59790000  0.28657000  0.62625000  1.0
  O  O65  1  0.40210000  0.71342000  0.37375000  1.0
  O  O66  1  0.42861000  0.39594000  0.55438000  1.0
  O  O67  1  0.57142000  0.60407000  0.44562000  1.0
  O  O68  1  0.01713000  0.25921000  0.78232000  1.0
  O  O69  1  0.98288000  0.74078000  0.21768000  1.0
  O  O70  1  0.81438000  0.03501000  0.69501000  1.0
  O  O71  1  0.18562000  0.96498000  0.30499000  1.0
  O  O72  1  0.26732000  0.55737000  0.66978000  1.0
  O  O73  1  0.73267000  0.44261000  0.33023000  1.0
  O  O74  1  0.50351000  0.70166000  0.65081000  1.0
  O  O75  1  0.49649000  0.29832000  0.34920000  1.0
  O  O76  1  0.30510000  0.58847000  0.09369000  1.0
  O  O77  1  0.69488000  0.41156000  0.90630000  1.0
  O  O78  1  0.39587000  0.82941000  0.18364000  1.0
  O  O79  1  0.60412000  0.17061000  0.81636000  1.0
  O  O80  1  0.90633000  0.16853000  0.13565000  1.0
  O  O81  1  0.09367000  0.83148000  0.86435000  1.0
  O  O82  1  0.94939000  0.12039000  0.97697000  1.0
  O  O83  1  0.05059000  0.87962000  0.02302000  1.0
  O  O84  1  0.02999000  0.50625000  0.29620000  1.0
  O  O85  1  0.97000000  0.49373000  0.70380000  1.0
  O  O86  1  0.23044000  0.35615000  0.30947000  1.0
  O  O87  1  0.76958000  0.64386000  0.69053000  1.0
