# generated using pymatgen
data_CdH13C15NO5
_symmetry_space_group_name_H-M   'P 1'
_cell_length_a   6.70405000
_cell_length_b   13.47150000
_cell_length_c   15.22900000
_cell_angle_alpha   90.00000000
_cell_angle_beta   90.00000000
_cell_angle_gamma   90.00000000
_symmetry_Int_Tables_number   1
_chemical_formula_structural   CdH13C15NO5
_chemical_formula_sum   'Cd4 H52 C60 N4 O20'
_cell_volume   1375.38596022
_cell_formula_units_Z   4
loop_
 _symmetry_equiv_pos_site_id
 _symmetry_equiv_pos_as_xyz
  1  'x, y, z'
loop_
 _atom_site_type_symbol
 _atom_site_label
 _atom_site_symmetry_multiplicity
 _atom_site_fract_x
 _atom_site_fract_y
 _atom_site_fract_z
 _atom_site_occupancy
  Cd  Cd0  1  0.86102000  0.68903000  0.46898000  1.0
  Cd  Cd1  1  0.63897000  0.31097000  0.96898000  1.0
  Cd  Cd2  1  0.13898000  0.18903000  0.03102000  1.0
  Cd  Cd3  1  0.36102000  0.81097000  0.53102000  1.0
  H  H4  1  0.13790000  0.45937000  0.63363000  1.0
  H  H5  1  0.36210000  0.54063000  0.13363000  1.0
  H  H6  1  0.86209000  0.95937000  0.86637000  1.0
  H  H7  1  0.63790000  0.04063000  0.36637000  1.0
  H  H8  1  0.15849000  0.33049000  0.75156000  1.0
  H  H9  1  0.34151000  0.66951000  0.25156000  1.0
  H  H10  1  0.84151000  0.83049000  0.74844000  1.0
  H  H11  1  0.65849000  0.16951000  0.24844000  1.0
  H  H12  1  0.12826000  0.51128000  0.02004000  1.0
  H  H13  1  0.37174000  0.48872000  0.52004000  1.0
  H  H14  1  0.87174000  0.01128000  0.47996000  1.0
  H  H15  1  0.62826000  0.98872000  0.97996000  1.0
  H  H16  1  0.13115000  0.68949000  0.06117000  1.0
  H  H17  1  0.36885000  0.31051000  0.56117000  1.0
  H  H18  1  0.86885000  0.18949000  0.43883000  1.0
  H  H19  1  0.63115000  0.81051000  0.93883000  1.0
  H  H20  1  0.14046000  0.81941000  0.94446000  1.0
  H  H21  1  0.35954000  0.18059000  0.44446000  1.0
  H  H22  1  0.85954000  0.31941000  0.55554000  1.0
  H  H23  1  0.64046000  0.68059000  0.05554000  1.0
  H  H24  1  0.15273000  0.77064000  0.78783000  1.0
  H  H25  1  0.34727000  0.22936000  0.28783000  1.0
  H  H26  1  0.84727000  0.27064000  0.71217000  1.0
  H  H27  1  0.65273000  0.72936000  0.21217000  1.0
  H  H28  1  0.87082000  0.61048000  0.27942000  1.0
  H  H29  1  0.62918000  0.38952000  0.77942000  1.0
  H  H30  1  0.12918000  0.11048000  0.22058000  1.0
  H  H31  1  0.37082000  0.88952000  0.72058000  1.0
  H  H32  1  0.92391000  0.36535000  0.37293000  1.0
  H  H33  1  0.57609000  0.63466000  0.87293000  1.0
  H  H34  1  0.07609000  0.86535000  0.12707000  1.0
  H  H35  1  0.42391000  0.13466000  0.62707000  1.0
  H  H36  1  0.97014000  0.31252000  0.26634000  1.0
  H  H37  1  0.52986000  0.68748000  0.76634000  1.0
  H  H38  1  0.02986000  0.81252000  0.23366000  1.0
  H  H39  1  0.47014000  0.18748000  0.73366000  1.0
  H  H40  1  0.71998000  0.32860000  0.30494000  1.0
  H  H41  1  0.78002000  0.67140000  0.80494000  1.0
  H  H42  1  0.28002000  0.82860000  0.19506000  1.0
  H  H43  1  0.21998000  0.17140000  0.69506000  1.0
  H  H44  1  0.88427000  0.54453000  0.15192000  1.0
  H  H45  1  0.61573000  0.45547000  0.65192000  1.0
  H  H46  1  0.11573000  0.04453000  0.34808000  1.0
  H  H47  1  0.38427000  0.95547000  0.84808000  1.0
  H  H48  1  0.71598000  0.44197000  0.14636000  1.0
  H  H49  1  0.78402000  0.55803000  0.64635000  1.0
  H  H50  1  0.28402000  0.94197000  0.35365000  1.0
  H  H51  1  0.21598000  0.05803000  0.85364000  1.0
  H  H52  1  0.97723000  0.42063000  0.14169000  1.0
  H  H53  1  0.52277000  0.57937000  0.64169000  1.0
  H  H54  1  0.02277000  0.92063000  0.35831000  1.0
  H  H55  1  0.47723000  0.07937000  0.85831000  1.0
  C  C56  1  0.14368000  0.58146000  0.72289000  1.0
  C  C57  1  0.35632000  0.41854000  0.22289000  1.0
  C  C58  1  0.85632000  0.08146000  0.77711000  1.0
  C  C59  1  0.64368000  0.91854000  0.27711000  1.0
  C  C60  1  0.14231000  0.48111000  0.70248000  1.0
  C  C61  1  0.35769000  0.51889000  0.20248000  1.0
  C  C62  1  0.85769000  0.98111000  0.79752000  1.0
  C  C63  1  0.64231000  0.01889000  0.29752000  1.0
  C  C64  1  0.14991000  0.40890000  0.76848000  1.0
  C  C65  1  0.35009000  0.59110000  0.26848000  1.0
  C  C66  1  0.85009000  0.90890000  0.73152000  1.0
  C  C67  1  0.64991000  0.09110000  0.23152000  1.0
  C  C68  1  0.14286000  0.43602000  0.85609000  1.0
  C  C69  1  0.35714000  0.56398000  0.35609000  1.0
  C  C70  1  0.85714000  0.93602000  0.64390000  1.0
  C  C71  1  0.64286000  0.06398000  0.14390000  1.0
  C  C72  1  0.13300000  0.56853000  0.96978000  1.0
  C  C73  1  0.36700000  0.43147000  0.46978000  1.0
  C  C74  1  0.86700000  0.06854000  0.53022000  1.0
  C  C75  1  0.63300000  0.93146000  0.03022000  1.0
  C  C76  1  0.13425000  0.66755000  0.99226000  1.0
  C  C77  1  0.36575000  0.33245000  0.49226000  1.0
  C  C78  1  0.86575000  0.16756000  0.50774000  1.0
  C  C79  1  0.63425000  0.83244000  0.00774000  1.0
  C  C80  1  0.13977000  0.74111000  0.92607000  1.0
  C  C81  1  0.36023000  0.25889000  0.42607000  1.0
  C  C82  1  0.86023000  0.24111000  0.57393000  1.0
  C  C83  1  0.63978000  0.75889000  0.07393000  1.0
  C  C84  1  0.14530000  0.71424000  0.83874000  1.0
  C  C85  1  0.35470000  0.28576000  0.33874000  1.0
  C  C86  1  0.85470000  0.21424000  0.66127000  1.0
  C  C87  1  0.64530000  0.78576000  0.16127000  1.0
  C  C88  1  0.14446000  0.61265000  0.81272000  1.0
  C  C89  1  0.35554000  0.38735000  0.31273000  1.0
  C  C90  1  0.85553000  0.11265000  0.68727000  1.0
  C  C91  1  0.64446000  0.88735000  0.18728000  1.0
  C  C92  1  0.13732000  0.53816000  0.88042000  1.0
  C  C93  1  0.36268000  0.46184000  0.38042000  1.0
  C  C94  1  0.86268000  0.03816000  0.61958000  1.0
  C  C95  1  0.63732000  0.96184000  0.11958000  1.0
  C  C96  1  0.14786000  0.65138000  0.64584000  1.0
  C  C97  1  0.35214000  0.34862000  0.14584000  1.0
  C  C98  1  0.85214000  0.15138000  0.85416000  1.0
  C  C99  1  0.64786000  0.84862000  0.35416000  1.0
  C  C100  1  0.14163000  0.35397000  0.92183000  1.0
  C  C101  1  0.35837000  0.64603000  0.42183000  1.0
  C  C102  1  0.85837000  0.85397000  0.57816000  1.0
  C  C103  1  0.64163000  0.14603000  0.07817000  1.0
  C  C104  1  0.87094000  0.54031000  0.31667000  1.0
  C  C105  1  0.62907000  0.45969000  0.81665000  1.0
  C  C106  1  0.12907000  0.04031000  0.18335000  1.0
  C  C107  1  0.37093000  0.95969000  0.68333000  1.0
  C  C108  1  0.87098000  0.36017000  0.30510000  1.0
  C  C109  1  0.62902000  0.63984000  0.80510000  1.0
  C  C110  1  0.12902000  0.86016000  0.19490000  1.0
  C  C111  1  0.37098000  0.13984000  0.69490000  1.0
  C  C112  1  0.86109000  0.46695000  0.17135000  1.0
  C  C113  1  0.63891000  0.53305000  0.67135000  1.0
  C  C114  1  0.13891000  0.96695000  0.32865000  1.0
  C  C115  1  0.36109000  0.03305000  0.82865000  1.0
  N  N116  1  0.86982000  0.45915000  0.26667000  1.0
  N  N117  1  0.63018000  0.54085000  0.76667000  1.0
  N  N118  1  0.13018000  0.95915000  0.23333000  1.0
  N  N119  1  0.36982000  0.04085000  0.73333000  1.0
  O  O120  1  0.05501000  0.62220000  0.57798000  1.0
  O  O121  1  0.44499000  0.37780000  0.07798000  1.0
  O  O122  1  0.94499000  0.12220000  0.92202000  1.0
  O  O123  1  0.55501000  0.87780000  0.42202000  1.0
  O  O124  1  0.25024000  0.73102000  0.65318000  1.0
  O  O125  1  0.24975000  0.26898000  0.15318000  1.0
  O  O126  1  0.74975000  0.23102000  0.84682000  1.0
  O  O127  1  0.75024000  0.76898000  0.34682000  1.0
  O  O128  1  0.27179000  0.28523000  0.91279000  1.0
  O  O129  1  0.22821000  0.71478000  0.41279000  1.0
  O  O130  1  0.72821000  0.78523000  0.58721000  1.0
  O  O131  1  0.77179000  0.21478000  0.08721000  1.0
  O  O132  1  0.01031000  0.35181000  0.98237000  1.0
  O  O133  1  0.48969000  0.64819000  0.48237000  1.0
  O  O134  1  0.98969000  0.85181000  0.51763000  1.0
  O  O135  1  0.51031000  0.14819000  0.01763000  1.0
  O  O136  1  0.87223000  0.53957000  0.39937000  1.0
  O  O137  1  0.62777000  0.46043000  0.89939000  1.0
  O  O138  1  0.12777000  0.03957000  0.10062000  1.0
  O  O139  1  0.37223000  0.96043000  0.60062000  1.0
