# generated using pymatgen
data_Zn8H44C51O49
_symmetry_space_group_name_H-M   'P 1'
_cell_length_a   18.34140000
_cell_length_b   18.49880000
_cell_length_c   18.61730000
_cell_angle_alpha   90.35840000
_cell_angle_beta   119.10900000
_cell_angle_gamma   119.67900000
_symmetry_Int_Tables_number   1
_chemical_formula_structural   Zn8H44C51O49
_chemical_formula_sum   'Zn8 H44 C51 O49'
_cell_volume   4533.67408824
_cell_formula_units_Z   1
loop_
 _symmetry_equiv_pos_site_id
 _symmetry_equiv_pos_as_xyz
  1  'x, y, z'
loop_
 _atom_site_type_symbol
 _atom_site_label
 _atom_site_symmetry_multiplicity
 _atom_site_fract_x
 _atom_site_fract_y
 _atom_site_fract_z
 _atom_site_occupancy
  Zn  Zn0  1  0.41954000  0.54734000  0.46037000  1.0
  Zn  Zn1  1  0.59516000  0.54693000  0.45658000  1.0
  Zn  Zn2  1  0.42858000  0.37813000  0.45793000  1.0
  Zn  Zn3  1  0.59158000  0.55175000  0.62870000  1.0
  Zn  Zn4  1  0.59245000  0.95462000  0.04820000  1.0
  Zn  Zn5  1  0.59994000  0.13169000  0.04095000  1.0
  Zn  Zn6  1  0.42248000  0.96303000  0.04373000  1.0
  Zn  Zn7  1  0.42691000  0.96154000  0.87468000  1.0
  H  H8  1  0.10978000  0.80718000  0.69816000  1.0
  H  H9  1  0.71702000  0.27170000  0.95061000  1.0
  H  H10  1  0.76317000  0.34550000  0.89792000  1.0
  H  H11  1  0.35774000  0.11756000  0.57896000  1.0
  H  H12  1  0.55968000  0.42383000  0.77721000  1.0
  H  H13  1  0.15350000  0.76710000  0.91815000  1.0
  H  H14  1  0.97542000  0.60402000  0.59625000  1.0
  H  H15  1  0.04213000  0.70325000  0.57657000  1.0
  H  H16  1  0.91600000  0.61451000  0.49062000  1.0
  H  H17  1  0.86728000  0.71596000  0.77066000  1.0
  H  H18  1  0.31947000  0.08732000  0.19113000  1.0
  H  H19  1  0.56941000  0.81497000  0.23113000  1.0
  H  H20  1  0.23610000  0.38577000  0.59218000  1.0
  H  H21  1  0.29274000  0.42916000  0.53358000  1.0
  H  H22  1  0.25184000  0.48439000  0.56659000  1.0
  H  H23  1  0.64729000  0.27984000  0.21913000  1.0
  H  H24  1  0.49444000  0.21548000  0.42902000  1.0
  H  H25  1  0.46863000  0.12649000  0.35824000  1.0
  H  H26  1  0.37548000  0.11003000  0.37805000  1.0
  H  H27  1  0.55289000  0.42334000  0.26285000  1.0
  H  H28  1  0.41122000  0.83702000  0.36029000  1.0
  H  H29  1  0.29836000  0.74682000  0.26319000  1.0
  H  H30  1  0.42024000  0.72598000  0.32783000  1.0
  H  H31  1  0.32437000  0.85465000  0.27528000  1.0
  H  H32  1  0.63718000  0.71583000  0.34914000  1.0
  H  H33  1  0.16944000  0.37467000  0.65836000  1.0
  H  H34  1  0.18979000  0.40281000  0.76161000  1.0
  H  H35  1  0.17896000  0.30559000  0.72492000  1.0
  H  H36  1  0.34166000  0.46559000  0.88973000  1.0
  H  H37  1  0.51133000  0.75563000  0.05801000  1.0
  H  H38  1  0.58549000  0.75447000  0.02240000  1.0
  H  H39  1  0.49665000  0.65440000  0.02760000  1.0
  H  H40  1  0.49811000  0.91048000  0.76594000  1.0
  H  H41  1  0.54884000  0.85995000  0.65183000  1.0
  H  H42  1  0.97047000  0.08903000  0.29279000  1.0
  H  H43  1  0.83530000  0.22365000  0.01879000  1.0
  H  H44  1  0.94863000  0.22931000  0.05168000  1.0
  H  H45  1  0.95465000  0.32848000  0.06758000  1.0
  H  H46  1  0.05549000  0.12090000  0.21612000  1.0
  H  H47  1  0.09999000  0.42403000  0.26755000  1.0
  H  H48  1  0.14898000  0.46979000  0.37866000  1.0
  H  H49  1  0.01369000  0.40120000  0.29761000  1.0
  H  H50  1  0.29147000  0.09843000  0.66315000  1.0
  H  H51  1  0.70066000  0.22974000  0.85237000  1.0
  C  C52  1  0.77975000  0.63477000  0.63128000  1.0
  C  C53  1  0.89479000  0.18410000  0.16398000  1.0
  C  C54  1  0.06737000  0.21835000  0.26959000  1.0
  C  C55  1  0.23777000  0.36368000  0.36313000  1.0
  C  C56  1  0.12613000  0.30446000  0.31952000  1.0
  C  C57  1  0.43756000  0.17418000  0.72624000  1.0
  C  C58  1  0.52144000  0.19592000  0.80539000  1.0
  C  C59  1  0.43493000  0.22613000  0.66749000  1.0
  C  C60  1  0.48215000  0.31568000  0.69177000  1.0
  C  C61  1  0.06749000  0.77026000  0.72546000  1.0
  C  C62  1  0.12695000  0.78414000  0.81194000  1.0
  C  C63  1  0.42493000  0.65206000  0.86328000  1.0
  C  C64  1  0.95864000  0.71351000  0.66597000  1.0
  C  C65  1  0.89115000  0.69678000  0.68792000  1.0
  C  C66  1  0.44270000  0.17334000  0.20714000  1.0
  C  C67  1  0.52151000  0.65751000  0.38143000  1.0
  C  C68  1  0.51785000  0.19818000  0.19316000  1.0
  C  C69  1  0.44783000  0.22948000  0.26701000  1.0
  C  C70  1  0.49074000  0.31824000  0.28383000  1.0
  C  C71  1  0.47004000  0.81246000  0.25858000  1.0
  C  C72  1  0.52179000  0.83792000  0.21943000  1.0
  C  C73  1  0.47338000  0.75345000  0.30878000  1.0
  C  C74  1  0.45467000  0.69286000  0.80882000  1.0
  C  C75  1  0.53374000  0.72366000  0.33453000  1.0
  C  C76  1  0.51597000  0.13877000  0.86177000  1.0
  C  C77  1  0.51667000  0.88773000  0.15935000  1.0
  C  C78  1  0.78250000  0.13077000  0.11778000  1.0
  C  C79  1  0.49266000  0.36918000  0.63444000  1.0
  C  C80  1  0.23873000  0.85319000  0.86410000  1.0
  C  C81  1  0.50982000  0.14359000  0.12846000  1.0
  C  C82  1  0.49969000  0.84725000  0.87202000  1.0
  C  C83  1  0.50466000  0.37413000  0.35300000  1.0
  C  C84  1  0.49070000  0.63296000  0.63411000  1.0
  C  C85  1  0.44618000  0.64024000  0.74387000  1.0
  C  C86  1  0.39812000  0.54795000  0.72890000  1.0
  C  C87  1  0.36443000  0.50954000  0.77961000  1.0
  C  C88  1  0.38300000  0.56268000  0.84963000  1.0
  C  C89  1  0.08697000  0.41277000  0.31919000  1.0
  C  C90  1  0.70292000  0.27966000  0.88768000  1.0
  C  C91  1  0.96719000  0.64970000  0.56075000  1.0
  C  C92  1  0.28515000  0.44632000  0.58479000  1.0
  C  C93  1  0.43563000  0.15722000  0.37038000  1.0
  C  C94  1  0.35871000  0.81773000  0.28948000  1.0
  C  C95  1  0.20689000  0.37358000  0.72542000  1.0
  C  C96  1  0.48004000  0.67933000  0.69104000  1.0
  C  C97  1  0.51144000  0.71620000  0.01407000  1.0
  C  C98  1  0.91774000  0.26029000  0.06736000  1.0
  C  C99  1  0.50657000  0.76353000  0.69254000  1.0
  C  C100  1  0.50321000  0.81210000  0.74867000  1.0
  C  C101  1  0.48583000  0.78149000  0.81070000  1.0
  C  C102  1  0.95586000  0.16253000  0.22264000  1.0
  O  O103  1  0.50924000  0.50750000  0.50069000  1.0
  O  O104  1  0.28306000  0.86570000  0.94619000  1.0
  O  O105  1  0.59098000  0.18120000  0.12796000  1.0
  O  O106  1  0.73613000  0.62677000  0.67128000  1.0
  O  O107  1  0.45176000  0.88266000  0.83300000  1.0
  O  O108  1  0.42893000  0.06740000  0.07879000  1.0
  O  O109  1  0.56164000  0.87106000  0.95319000  1.0
  O  O110  1  0.73736000  0.04926000  0.10961000  1.0
  O  O111  1  0.28055000  0.89289000  0.82567000  1.0
  O  O112  1  0.56594000  0.17858000  0.94278000  1.0
  O  O113  1  0.46199000  0.91794000  0.13923000  1.0
  O  O114  1  0.45063000  0.62620000  0.39321000  1.0
  O  O115  1  0.27715000  0.44586000  0.39106000  1.0
  O  O116  1  0.58663000  0.63863000  0.40435000  1.0
  O  O117  1  0.44337000  0.33127000  0.55335000  1.0
  O  O118  1  0.54560000  0.45577000  0.35666000  1.0
  O  O119  1  0.56686000  0.62824000  0.67265000  1.0
  O  O120  1  0.48027000  0.34241000  0.40416000  1.0
  O  O121  1  0.42707000  0.60837000  0.55221000  1.0
  O  O122  1  0.53650000  0.80186000  0.64091000  1.0
  O  O123  1  0.07868000  0.33380000  0.33626000  1.0
  O  O124  1  0.34734000  0.09139000  0.69185000  1.0
  O  O125  1  0.55443000  0.45294000  0.67483000  1.0
  O  O126  1  0.61063000  0.27491000  0.83616000  1.0
  O  O127  1  0.37507000  0.17704000  0.58075000  1.0
  O  O128  1  0.52520000  0.36184000  0.77450000  1.0
  O  O129  1  0.09314000  0.73888000  0.85768000  1.0
  O  O130  1  0.91966000  0.68216000  0.57975000  1.0
  O  O131  1  0.92757000  0.74228000  0.76861000  1.0
  O  O132  1  0.35787000  0.08881000  0.16768000  1.0
  O  O133  1  0.38606000  0.49864000  0.66314000  1.0
  O  O134  1  0.60930000  0.27757000  0.24347000  1.0
  O  O135  1  0.38793000  0.18229000  0.29701000  1.0
  O  O136  1  0.73424000  0.59437000  0.55131000  1.0
  O  O137  1  0.52316000  0.36136000  0.23599000  1.0
  O  O138  1  0.41082000  0.84094000  0.24719000  1.0
  O  O139  1  0.60760000  0.74830000  0.32115000  1.0
  O  O140  1  0.31534000  0.41985000  0.76668000  1.0
  O  O141  1  0.35620000  0.52434000  0.90314000  1.0
  O  O142  1  0.43179000  0.69857000  0.92673000  1.0
  O  O143  1  0.52350000  0.89173000  0.73865000  1.0
  O  O144  1  0.91642000  0.08383000  0.23798000  1.0
  O  O145  1  0.94094000  0.26466000  0.15356000  1.0
  O  O146  1  0.10897000  0.17482000  0.26604000  1.0
  O  O147  1  0.28566000  0.32942000  0.37035000  1.0
  O  O148  1  0.51080000  0.00281000  0.00096000  1.0
  O  O149  1  0.46405000  0.05604000  0.82479000  1.0
  O  O150  1  0.56932000  0.89643000  0.12860000  1.0
  O  O151  1  0.74130000  0.17268000  0.09002000  1.0
