# generated using pymatgen
data_SrH13Au2C19N7O
_symmetry_space_group_name_H-M   'P 1'
_cell_length_a   9.82220000
_cell_length_b   10.14550000
_cell_length_c   11.65280000
_cell_angle_alpha   96.67260000
_cell_angle_beta   92.39870000
_cell_angle_gamma   113.05100000
_symmetry_Int_Tables_number   1
_chemical_formula_structural   SrH13Au2C19N7O
_chemical_formula_sum   'Sr2 H26 Au4 C38 N14 O2'
_cell_volume   1056.40345947
_cell_formula_units_Z   2
loop_
 _symmetry_equiv_pos_site_id
 _symmetry_equiv_pos_as_xyz
  1  'x, y, z'
loop_
 _atom_site_type_symbol
 _atom_site_label
 _atom_site_symmetry_multiplicity
 _atom_site_fract_x
 _atom_site_fract_y
 _atom_site_fract_z
 _atom_site_occupancy
  Sr  Sr0  1  0.53695000  0.22700000  0.70974000  1.0
  Sr  Sr1  1  0.46305000  0.77300000  0.29026000  1.0
  H  H2  1  0.50176000  0.89973000  0.60591000  1.0
  H  H3  1  0.49824000  0.10028000  0.39409000  1.0
  H  H4  1  0.34943000  0.91017000  0.60984000  1.0
  H  H5  1  0.65057000  0.08983000  0.39016000  1.0
  H  H6  1  0.84692000  0.15805000  0.76788000  1.0
  H  H7  1  0.15308000  0.84196000  0.23212000  1.0
  H  H8  1  0.00335000  0.10810000  0.91733000  1.0
  H  H9  1  0.99665000  0.89191000  0.08267000  1.0
  H  H10  1  0.92489000  0.09895000  0.12201000  1.0
  H  H11  1  0.07511000  0.90105000  0.87799000  1.0
  H  H12  1  0.70262000  0.14447000  0.16605000  1.0
  H  H13  1  0.29738000  0.85553000  0.83395000  1.0
  H  H14  1  0.50310000  0.15009000  0.18515000  1.0
  H  H15  1  0.49690000  0.84991000  0.81485000  1.0
  H  H16  1  0.30261000  0.23712000  0.22287000  1.0
  H  H17  1  0.69739000  0.76288000  0.77713000  1.0
  H  H18  1  0.22221000  0.35446000  0.07597000  1.0
  H  H19  1  0.77779000  0.64553000  0.92403000  1.0
  H  H20  1  0.15253000  0.43291000  0.95015000  1.0
  H  H21  1  0.84747000  0.56709000  0.04985000  1.0
  H  H22  1  0.08350000  0.54508000  0.79168000  1.0
  H  H23  1  0.91650000  0.45491000  0.20832000  1.0
  H  H24  1  0.22812000  0.57663000  0.61640000  1.0
  H  H25  1  0.77188000  0.42337000  0.38360000  1.0
  H  H26  1  0.42406000  0.47748000  0.60326000  1.0
  H  H27  1  0.57594000  0.52252000  0.39674000  1.0
  Au  Au28  1  0.98838000  0.66128000  0.56348000  1.0
  Au  Au29  1  0.01162000  0.33872000  0.43652000  1.0
  Au  Au30  1  0.08975000  0.07429000  0.38432000  1.0
  Au  Au31  1  0.91025000  0.92570000  0.61567000  1.0
  C  C32  1  0.83749000  0.55704000  0.66402000  1.0
  C  C33  1  0.16250000  0.44296000  0.33597000  1.0
  C  C34  1  0.14912000  0.75596000  0.46721000  1.0
  C  C35  1  0.85087000  0.24404000  0.53279000  1.0
  C  C36  1  0.29894000  0.16878000  0.45064000  1.0
  C  C37  1  0.70106000  0.83122000  0.54936000  1.0
  C  C38  1  0.81919000  0.15573000  0.85765000  1.0
  C  C39  1  0.18081000  0.84427000  0.14235000  1.0
  C  C40  1  0.88182000  0.97594000  0.31550000  1.0
  C  C41  1  0.11819000  0.02405000  0.68449000  1.0
  C  C42  1  0.90555000  0.12673000  0.94112000  1.0
  C  C43  1  0.09445000  0.87328000  0.05887000  1.0
  C  C44  1  0.86245000  0.12224000  0.05346000  1.0
  C  C45  1  0.13755000  0.87776000  0.94654000  1.0
  C  C46  1  0.73683000  0.14810000  0.07844000  1.0
  C  C47  1  0.26317000  0.85190000  0.92156000  1.0
  C  C48  1  0.65760000  0.18021000  0.99047000  1.0
  C  C49  1  0.34240000  0.81979000  0.00953000  1.0
  C  C50  1  0.52899000  0.21919000  0.01435000  1.0
  C  C51  1  0.47102000  0.78081000  0.98565000  1.0
  C  C52  1  0.46521000  0.19997000  0.11996000  1.0
  C  C53  1  0.53480000  0.80003000  0.88004000  1.0
  C  C54  1  0.35243000  0.24743000  0.14076000  1.0
  C  C55  1  0.64757000  0.75256000  0.85924000  1.0
  C  C56  1  0.30566000  0.31172000  0.05709000  1.0
  C  C57  1  0.69434000  0.68827000  0.94291000  1.0
  C  C58  1  0.37083000  0.32405000  0.95193000  1.0
  C  C59  1  0.62917000  0.67595000  0.04807000  1.0
  C  C60  1  0.32452000  0.39242000  0.85967000  1.0
  C  C61  1  0.67548000  0.60758000  0.14033000  1.0
  C  C62  1  0.21122000  0.44329000  0.87236000  1.0
  C  C63  1  0.78878000  0.55671000  0.12765000  1.0
  C  C64  1  0.17303000  0.50750000  0.78404000  1.0
  C  C65  1  0.82698000  0.49250000  0.21596000  1.0
  C  C66  1  0.25152000  0.52362000  0.68619000  1.0
  C  C67  1  0.74847000  0.47638000  0.31381000  1.0
  C  C68  1  0.36150000  0.46917000  0.67928000  1.0
  C  C69  1  0.63850000  0.53083000  0.32072000  1.0
  N  N70  1  0.75033000  0.48955000  0.72302000  1.0
  N  N71  1  0.24967000  0.51045000  0.27697000  1.0
  N  N72  1  0.25053000  0.80869000  0.41395000  1.0
  N  N73  1  0.74947000  0.19131000  0.58606000  1.0
  N  N74  1  0.42321000  0.22127000  0.49111000  1.0
  N  N75  1  0.57679000  0.77873000  0.50890000  1.0
  N  N76  1  0.69888000  0.18227000  0.88098000  1.0
  N  N77  1  0.30112000  0.81773000  0.11902000  1.0
  N  N78  1  0.75632000  0.92296000  0.27921000  1.0
  N  N79  1  0.24369000  0.07703000  0.72078000  1.0
  N  N80  1  0.48018000  0.27742000  0.93167000  1.0
  N  N81  1  0.51982000  0.72258000  0.06833000  1.0
  N  N82  1  0.39610000  0.40362000  0.76233000  1.0
  N  N83  1  0.60390000  0.59638000  0.23767000  1.0
  O  O84  1  0.44722000  0.94572000  0.65331000  1.0
  O  O85  1  0.55279000  0.05428000  0.34670000  1.0
