# generated using pymatgen
data_ZnH16C10N2O5
_symmetry_space_group_name_H-M   'P 1'
_cell_length_a   7.63968000
_cell_length_b   11.43190000
_cell_length_c   13.95330000
_cell_angle_alpha   90.00000000
_cell_angle_beta   90.00010000
_cell_angle_gamma   90.00000000
_symmetry_Int_Tables_number   1
_chemical_formula_structural   ZnH16C10N2O5
_chemical_formula_sum   'Zn4 H64 C40 N8 O20'
_cell_volume   1218.62621519
_cell_formula_units_Z   4
loop_
 _symmetry_equiv_pos_site_id
 _symmetry_equiv_pos_as_xyz
  1  'x, y, z'
loop_
 _atom_site_type_symbol
 _atom_site_label
 _atom_site_symmetry_multiplicity
 _atom_site_fract_x
 _atom_site_fract_y
 _atom_site_fract_z
 _atom_site_occupancy
  Zn  Zn0  1  0.92744000  0.54070000  0.57459000  1.0
  Zn  Zn1  1  0.57256000  0.45931000  0.07459000  1.0
  Zn  Zn2  1  0.42744000  0.95931000  0.42541000  1.0
  Zn  Zn3  1  0.07256000  0.04069000  0.92541000  1.0
  H  H4  1  0.19019000  0.71596000  0.95066000  1.0
  H  H5  1  0.30981000  0.28405000  0.45066000  1.0
  H  H6  1  0.69018000  0.78404000  0.04934000  1.0
  H  H7  1  0.80982000  0.21595000  0.54934000  1.0
  H  H8  1  0.06375000  0.66841000  0.04704000  1.0
  H  H9  1  0.43625000  0.33159000  0.54704000  1.0
  H  H10  1  0.56375000  0.83159000  0.95296000  1.0
  H  H11  1  0.93625000  0.16840000  0.45296000  1.0
  H  H12  1  0.10857000  0.50907000  0.87260000  1.0
  H  H13  1  0.39143000  0.49093000  0.37260000  1.0
  H  H14  1  0.60857000  0.99093000  0.12740000  1.0
  H  H15  1  0.89143000  0.00907000  0.62740000  1.0
  H  H16  1  0.85123000  0.80927000  0.73186000  1.0
  H  H17  1  0.64877000  0.19073000  0.23186000  1.0
  H  H18  1  0.35123000  0.69073000  0.26814000  1.0
  H  H19  1  0.14877000  0.30927000  0.76814000  1.0
  H  H20  1  0.58170000  0.61442000  0.69907000  1.0
  H  H21  1  0.91830000  0.38558000  0.19907000  1.0
  H  H22  1  0.08170000  0.88558000  0.30093000  1.0
  H  H23  1  0.41830000  0.11442000  0.80093000  1.0
  H  H24  1  0.59647000  0.69935000  0.80411000  1.0
  H  H25  1  0.90353000  0.30065000  0.30411000  1.0
  H  H26  1  0.09647000  0.80065000  0.19589000  1.0
  H  H27  1  0.40353000  0.19935000  0.69589000  1.0
  H  H28  1  0.50258000  0.79343000  0.60523000  1.0
  H  H29  1  0.99742000  0.20657000  0.10523000  1.0
  H  H30  1  0.00258000  0.70657000  0.39477000  1.0
  H  H31  1  0.49742000  0.29343000  0.89477000  1.0
  H  H32  1  0.27843000  0.73161000  0.78020000  1.0
  H  H33  1  0.22157000  0.26839000  0.28020000  1.0
  H  H34  1  0.77843000  0.76839000  0.21980000  1.0
  H  H35  1  0.72157000  0.23161000  0.71980000  1.0
  H  H36  1  0.27693000  0.65920000  0.66718000  1.0
  H  H37  1  0.22308000  0.34080000  0.16717000  1.0
  H  H38  1  0.77693000  0.84080000  0.33282000  1.0
  H  H39  1  0.72307000  0.15920000  0.83282000  1.0
  H  H40  1  0.20009000  0.80578000  0.67694000  1.0
  H  H41  1  0.29991000  0.19422000  0.17694000  1.0
  H  H42  1  0.70009000  0.69422000  0.32306000  1.0
  H  H43  1  0.79991000  0.30578000  0.82306000  1.0
  H  H44  1  0.64022000  0.94580000  0.71571000  1.0
  H  H45  1  0.85978000  0.05420000  0.21571000  1.0
  H  H46  1  0.14022000  0.55420000  0.28429000  1.0
  H  H47  1  0.35978000  0.44580000  0.78429000  1.0
  H  H48  1  0.47113000  0.91524000  0.80004000  1.0
  H  H49  1  0.02887000  0.08476000  0.30004000  1.0
  H  H50  1  0.97113000  0.58477000  0.19996000  1.0
  H  H51  1  0.52887000  0.41524000  0.69996000  1.0
  H  H52  1  0.41935000  0.97383000  0.68561000  1.0
  H  H53  1  0.08065000  0.02617000  0.18561000  1.0
  H  H54  1  0.91935000  0.52617000  0.31439000  1.0
  H  H55  1  0.58065000  0.47383000  0.81439000  1.0
  H  H56  1  0.90609000  0.73125000  0.88079000  1.0
  H  H57  1  0.59391000  0.26875000  0.38079000  1.0
  H  H58  1  0.40608000  0.76875000  0.11921000  1.0
  H  H59  1  0.09391000  0.23124000  0.61921000  1.0
  H  H60  1  0.93312000  0.77584000  0.57901000  1.0
  H  H61  1  0.56688000  0.22416000  0.07901000  1.0
  H  H62  1  0.43312000  0.72416000  0.42099000  1.0
  H  H63  1  0.06688000  0.27584000  0.92099000  1.0
  H  H64  1  0.73718000  0.71624000  0.56186000  1.0
  H  H65  1  0.76282000  0.28376000  0.06186000  1.0
  H  H66  1  0.23718000  0.78376000  0.43814000  1.0
  H  H67  1  0.26281000  0.21624000  0.93814000  1.0
  C  C68  1  0.30109000  0.57383000  0.02480000  1.0
  C  C69  1  0.19891000  0.42617000  0.52480000  1.0
  C  C70  1  0.80109000  0.92617000  0.97520000  1.0
  C  C71  1  0.69891000  0.07383000  0.47520000  1.0
  C  C72  1  0.14163000  0.63624000  0.98619000  1.0
  C  C73  1  0.35837000  0.36376000  0.48619000  1.0
  C  C74  1  0.64163000  0.86376000  0.01381000  1.0
  C  C75  1  0.85837000  0.13624000  0.51381000  1.0
  C  C76  1  0.02670000  0.56676000  0.91641000  1.0
  C  C77  1  0.47330000  0.43324000  0.41641000  1.0
  C  C78  1  0.52670000  0.93324000  0.08359000  1.0
  C  C79  1  0.97330000  0.06675000  0.58359000  1.0
  C  C80  1  0.89384000  0.48946000  0.97092000  1.0
  C  C81  1  0.60616000  0.51054000  0.47092000  1.0
  C  C82  1  0.39384000  0.01054000  0.02908000  1.0
  C  C83  1  0.10616000  0.98946000  0.52908000  1.0
  C  C84  1  0.90885000  0.62814000  0.76138000  1.0
  C  C85  1  0.59115000  0.37186000  0.26138000  1.0
  C  C86  1  0.40885000  0.87186000  0.23862000  1.0
  C  C87  1  0.09115000  0.12814000  0.73862000  1.0
  C  C88  1  0.80986000  0.72286000  0.70539000  1.0
  C  C89  1  0.69014000  0.27714000  0.20539000  1.0
  C  C90  1  0.30986000  0.77714000  0.29461000  1.0
  C  C91  1  0.19014000  0.22286000  0.79461000  1.0
  C  C92  1  0.61441000  0.70219000  0.72579000  1.0
  C  C93  1  0.88560000  0.29781000  0.22579000  1.0
  C  C94  1  0.11440000  0.79781000  0.27421000  1.0
  C  C95  1  0.38559000  0.20219000  0.77421000  1.0
  C  C96  1  0.48378000  0.78951000  0.68345000  1.0
  C  C97  1  0.01622000  0.21049000  0.18345000  1.0
  C  C98  1  0.98378000  0.71050000  0.31655000  1.0
  C  C99  1  0.51622000  0.28951000  0.81655000  1.0
  C  C100  1  0.29883000  0.74372000  0.70273000  1.0
  C  C101  1  0.20117000  0.25628000  0.20273000  1.0
  C  C102  1  0.79883000  0.75628000  0.29727000  1.0
  C  C103  1  0.70117000  0.24372000  0.79727000  1.0
  C  C104  1  0.50598000  0.91272000  0.72343000  1.0
  C  C105  1  0.99402000  0.08728000  0.22343000  1.0
  C  C106  1  0.00598000  0.58728000  0.27657000  1.0
  C  C107  1  0.49402000  0.41272000  0.77657000  1.0
  N  N108  1  0.93814000  0.64912000  0.85338000  1.0
  N  N109  1  0.56186000  0.35088000  0.35338000  1.0
  N  N110  1  0.43814000  0.85088000  0.14662000  1.0
  N  N111  1  0.06185000  0.14912000  0.64662000  1.0
  N  N112  1  0.84914000  0.71069000  0.60240000  1.0
  N  N113  1  0.65086000  0.28931000  0.10240000  1.0
  N  N114  1  0.34914000  0.78931000  0.39760000  1.0
  N  N115  1  0.15085000  0.21069000  0.89760000  1.0
  O  O116  1  0.40010000  0.62942000  0.08208000  1.0
  O  O117  1  0.09990000  0.37058000  0.58208000  1.0
  O  O118  1  0.90010000  0.87058000  0.91792000  1.0
  O  O119  1  0.59989000  0.12942000  0.41792000  1.0
  O  O120  1  0.33943000  0.46934000  0.99895000  1.0
  O  O121  1  0.16057000  0.53066000  0.49895000  1.0
  O  O122  1  0.83943000  0.03066000  0.00105000  1.0
  O  O123  1  0.66057000  0.96934000  0.50105000  1.0
  O  O124  1  0.91849000  0.38128000  0.97542000  1.0
  O  O125  1  0.58151000  0.61872000  0.47542000  1.0
  O  O126  1  0.41849000  0.11872000  0.02458000  1.0
  O  O127  1  0.08151000  0.88128000  0.52458000  1.0
  O  O128  1  0.76517000  0.54568000  0.00939000  1.0
  O  O129  1  0.73483000  0.45432000  0.50939000  1.0
  O  O130  1  0.26517000  0.95431000  0.99061000  1.0
  O  O131  1  0.23483000  0.04568000  0.49061000  1.0
  O  O132  1  0.95131000  0.53274000  0.72143000  1.0
  O  O133  1  0.54869000  0.46726000  0.22143000  1.0
  O  O134  1  0.45131000  0.96725000  0.27857000  1.0
  O  O135  1  0.04870000  0.03274000  0.77857000  1.0
