# generated using pymatgen
data_La2H10C14S(NO7)2
_symmetry_space_group_name_H-M   'P 1'
_cell_length_a   8.94612000
_cell_length_b   13.21910000
_cell_length_c   13.21910000
_cell_angle_alpha   65.54850000
_cell_angle_beta   73.06240000
_cell_angle_gamma   73.06200000
_symmetry_Int_Tables_number   1
_chemical_formula_structural   La2H10C14S(NO7)2
_chemical_formula_sum   'La4 H20 C28 S2 N4 O28'
_cell_volume   1334.92297550
_cell_formula_units_Z   2
loop_
 _symmetry_equiv_pos_site_id
 _symmetry_equiv_pos_as_xyz
  1  'x, y, z'
loop_
 _atom_site_type_symbol
 _atom_site_label
 _atom_site_symmetry_multiplicity
 _atom_site_fract_x
 _atom_site_fract_y
 _atom_site_fract_z
 _atom_site_occupancy
  La  La0  1  0.10483000  0.92073000  0.80921000  1.0
  La  La1  1  0.39516000  0.19080000  0.07927000  1.0
  La  La2  1  0.89516000  0.07927000  0.19080000  1.0
  La  La3  1  0.60484000  0.80920000  0.92073000  1.0
  H  H4  1  0.09195000  0.16522000  0.73039000  1.0
  H  H5  1  0.40806000  0.26960000  0.83477000  1.0
  H  H6  1  0.90806000  0.83478000  0.26961000  1.0
  H  H7  1  0.59195000  0.73039000  0.16523000  1.0
  H  H8  1  0.99695000  0.15170000  0.65348000  1.0
  H  H9  1  0.50305000  0.34652000  0.84830000  1.0
  H  H10  1  0.00305000  0.84830000  0.34652000  1.0
  H  H11  1  0.49695000  0.65348000  0.15170000  1.0
  H  H12  1  0.82469000  0.49476000  0.18537000  1.0
  H  H13  1  0.67532000  0.81463000  0.50525000  1.0
  H  H14  1  0.17532000  0.50524000  0.81463000  1.0
  H  H15  1  0.32468000  0.18537000  0.49476000  1.0
  H  H16  1  0.39765000  0.47588000  0.02714000  1.0
  H  H17  1  0.10235000  0.97286000  0.52413000  1.0
  H  H18  1  0.60237000  0.52412000  0.97287000  1.0
  H  H19  1  0.89764000  0.02714000  0.47587000  1.0
  H  H20  1  0.93755000  0.67135000  0.11894000  1.0
  H  H21  1  0.56245000  0.88107000  0.32865000  1.0
  H  H22  1  0.06245000  0.32865000  0.88106000  1.0
  H  H23  1  0.43756000  0.11893000  0.67135000  1.0
  C  C24  1  0.25065000  0.68886000  0.02578000  1.0
  C  C25  1  0.24935000  0.97421000  0.31115000  1.0
  C  C26  1  0.74935000  0.31115000  0.97421000  1.0
  C  C27  1  0.75066000  0.02579000  0.68885000  1.0
  C  C28  1  0.17717000  0.58586000  0.07150000  1.0
  C  C29  1  0.32282000  0.92851000  0.41414000  1.0
  C  C30  1  0.82283000  0.41414000  0.92851000  1.0
  C  C31  1  0.67717000  0.07149000  0.58586000  1.0
  C  C32  1  0.05281000  0.39680000  0.13661000  1.0
  C  C33  1  0.44718000  0.86339000  0.60321000  1.0
  C  C34  1  0.94720000  0.60320000  0.86338000  1.0
  C  C35  1  0.55281000  0.13661000  0.39680000  1.0
  C  C36  1  0.99285000  0.29155000  0.16458000  1.0
  C  C37  1  0.50715000  0.83542000  0.70845000  1.0
  C  C38  1  0.00715000  0.70845000  0.83541000  1.0
  C  C39  1  0.49284000  0.16458000  0.29155000  1.0
  C  C40  1  0.95115000  0.49438000  0.15092000  1.0
  C  C41  1  0.54885000  0.84908000  0.50563000  1.0
  C  C42  1  0.04886000  0.50562000  0.84907000  1.0
  C  C43  1  0.45114000  0.15092000  0.49438000  1.0
  C  C44  1  0.27044000  0.48346000  0.06268000  1.0
  C  C45  1  0.22955000  0.93732000  0.51654000  1.0
  C  C46  1  0.72956000  0.51654000  0.93732000  1.0
  C  C47  1  0.77045000  0.06268000  0.48345000  1.0
  C  C48  1  0.01388000  0.59129000  0.11549000  1.0
  C  C49  1  0.48612000  0.88452000  0.40870000  1.0
  C  C50  1  0.98613000  0.40870000  0.88451000  1.0
  C  C51  1  0.51388000  0.11549000  0.59130000  1.0
  S  S52  1  0.75000000  0.96900000  0.03100000  1.0
  S  S53  1  0.25000000  0.03101000  0.96899000  1.0
  N  N54  1  0.21009000  0.39167000  0.09231000  1.0
  N  N55  1  0.28990000  0.90769000  0.60833000  1.0
  N  N56  1  0.78992000  0.60833000  0.90769000  1.0
  N  N57  1  0.71009000  0.09231000  0.39167000  1.0
  O  O58  1  0.84810000  0.28627000  0.20363000  1.0
  O  O59  1  0.65190000  0.79637000  0.71373000  1.0
  O  O60  1  0.15191000  0.71375000  0.79635000  1.0
  O  O61  1  0.34809000  0.20363000  0.28627000  1.0
  O  O62  1  0.15820000  0.78382000  0.99219000  1.0
  O  O63  1  0.34179000  0.00782000  0.21618000  1.0
  O  O64  1  0.84179000  0.21617000  0.00781000  1.0
  O  O65  1  0.65821000  0.99218000  0.78383000  1.0
  O  O66  1  0.09737000  0.20809000  0.14345000  1.0
  O  O67  1  0.40261000  0.85654000  0.79192000  1.0
  O  O68  1  0.90263000  0.79192000  0.85654000  1.0
  O  O69  1  0.59737000  0.14346000  0.20808000  1.0
  O  O70  1  0.70131000  0.86319000  0.04873000  1.0
  O  O71  1  0.79869000  0.95126000  0.13681000  1.0
  O  O72  1  0.29869000  0.13680000  0.95127000  1.0
  O  O73  1  0.20131000  0.04873000  0.86319000  1.0
  O  O74  1  0.88392000  0.99212000  0.93275000  1.0
  O  O75  1  0.61608000  0.06725000  0.00788000  1.0
  O  O76  1  0.11608000  0.00788000  0.06725000  1.0
  O  O77  1  0.38392000  0.93274000  0.99212000  1.0
  O  O78  1  0.39923000  0.67365000  0.02244000  1.0
  O  O79  1  0.10077000  0.97756000  0.32635000  1.0
  O  O80  1  0.60077000  0.32635000  0.97755000  1.0
  O  O81  1  0.89923000  0.02244000  0.67365000  1.0
  O  O82  1  0.10289000  0.13930000  0.66867000  1.0
  O  O83  1  0.39712000  0.33133000  0.86070000  1.0
  O  O84  1  0.89712000  0.86070000  0.33133000  1.0
  O  O85  1  0.60289000  0.66867000  0.13930000  1.0
