# generated using pymatgen
data_Sn3H8C16O9
_symmetry_space_group_name_H-M   'P 1'
_cell_length_a   6.96249000
_cell_length_b   7.21009000
_cell_length_c   19.12440000
_cell_angle_alpha   83.66230000
_cell_angle_beta   88.92640000
_cell_angle_gamma   63.79120000
_symmetry_Int_Tables_number   1
_chemical_formula_structural   Sn3H8C16O9
_chemical_formula_sum   'Sn6 H16 C32 O18'
_cell_volume   855.59705887
_cell_formula_units_Z   2
loop_
 _symmetry_equiv_pos_site_id
 _symmetry_equiv_pos_as_xyz
  1  'x, y, z'
loop_
 _atom_site_type_symbol
 _atom_site_label
 _atom_site_symmetry_multiplicity
 _atom_site_fract_x
 _atom_site_fract_y
 _atom_site_fract_z
 _atom_site_occupancy
  Sn  Sn0  1  0.98587000  0.65051000  0.25950000  1.0
  Sn  Sn1  1  0.01414000  0.34948000  0.74051000  1.0
  Sn  Sn2  1  0.31334000  0.06585000  0.27213000  1.0
  Sn  Sn3  1  0.68666000  0.93415000  0.72786000  1.0
  Sn  Sn4  1  0.54994000  0.41719000  0.22707000  1.0
  Sn  Sn5  1  0.45006000  0.58282000  0.77293000  1.0
  H  H6  1  0.18070000  0.43248000  0.51810000  1.0
  H  H7  1  0.81928000  0.56750000  0.48190000  1.0
  H  H8  1  0.55071000  0.66380000  0.38417000  1.0
  H  H9  1  0.44929000  0.33618000  0.61582000  1.0
  H  H10  1  0.13288000  0.65786000  0.07340000  1.0
  H  H11  1  0.86713000  0.34216000  0.92660000  1.0
  H  H12  1  0.97952000  0.30859000  0.05272000  1.0
  H  H13  1  0.02048000  0.69142000  0.94728000  1.0
  H  H14  1  0.63565000  0.80195000  0.11792000  1.0
  H  H15  1  0.36436000  0.19804000  0.88209000  1.0
  H  H16  1  0.41532000  0.37530000  0.98031000  1.0
  H  H17  1  0.58468000  0.62469000  0.01969000  1.0
  H  H18  1  0.69147000  0.96901000  0.44858000  1.0
  H  H19  1  0.30852000  0.03100000  0.55142000  1.0
  H  H20  1  0.18828000  0.17009000  0.42646000  1.0
  H  H21  1  0.81171000  0.82992000  0.57354000  1.0
  C  C22  1  0.19271000  0.60419000  0.38622000  1.0
  C  C23  1  0.80730000  0.39582000  0.61378000  1.0
  C  C24  1  0.35036000  0.55240000  0.44495000  1.0
  C  C25  1  0.64962000  0.44760000  0.55504000  1.0
  C  C26  1  0.32197000  0.45916000  0.51003000  1.0
  C  C27  1  0.67804000  0.54082000  0.48997000  1.0
  C  C28  1  0.52890000  0.59291000  0.43516000  1.0
  C  C29  1  0.47110000  0.40708000  0.56485000  1.0
  C  C30  1  0.12586000  0.95996000  0.14551000  1.0
  C  C31  1  0.87413000  0.04005000  0.85448000  1.0
  C  C32  1  0.05992000  0.98179000  0.07050000  1.0
  C  C33  1  0.94008000  0.01822000  0.92950000  1.0
  C  C34  1  0.07142000  0.80738000  0.04109000  1.0
  C  C35  1  0.92857000  0.19263000  0.95891000  1.0
  C  C36  1  0.98817000  0.17456000  0.02909000  1.0
  C  C37  1  0.01183000  0.82546000  0.97091000  1.0
  C  C38  1  0.54902000  0.21014000  0.11347000  1.0
  C  C39  1  0.45098000  0.78986000  0.88653000  1.0
  C  C40  1  0.52578000  0.09980000  0.05528000  1.0
  C  C41  1  0.47422000  0.90021000  0.94473000  1.0
  C  C42  1  0.57636000  0.88764000  0.06607000  1.0
  C  C43  1  0.42364000  0.11236000  0.93394000  1.0
  C  C44  1  0.44958000  0.21171000  0.98878000  1.0
  C  C45  1  0.55042000  0.78829000  0.01122000  1.0
  C  C46  1  0.86388000  0.15404000  0.35398000  1.0
  C  C47  1  0.13612000  0.84596000  0.64601000  1.0
  C  C48  1  0.93531000  0.07390000  0.42913000  1.0
  C  C49  1  0.06470000  0.92608000  0.57087000  1.0
  C  C50  1  0.82607000  0.98262000  0.47154000  1.0
  C  C51  1  0.17393000  0.01736000  0.52846000  1.0
  C  C52  1  0.10959000  0.09089000  0.45836000  1.0
  C  C53  1  0.89041000  0.90909000  0.54164000  1.0
  O  O54  1  0.26797000  0.37723000  0.24908000  1.0
  O  O55  1  0.73203000  0.62278000  0.75092000  1.0
  O  O56  1  0.05129000  0.53841000  0.38974000  1.0
  O  O57  1  0.94872000  0.46160000  0.61025000  1.0
  O  O58  1  0.20759000  0.71231000  0.32918000  1.0
  O  O59  1  0.79243000  0.28767000  0.67082000  1.0
  O  O60  1  0.17029000  0.78809000  0.18368000  1.0
  O  O61  1  0.82969000  0.21191000  0.81632000  1.0
  O  O62  1  0.14009000  0.11460000  0.16843000  1.0
  O  O63  1  0.85991000  0.88541000  0.83157000  1.0
  O  O64  1  0.62578000  0.10903000  0.17489000  1.0
  O  O65  1  0.37422000  0.89098000  0.82512000  1.0
  O  O66  1  0.48950000  0.40501000  0.10317000  1.0
  O  O67  1  0.51051000  0.59499000  0.89683000  1.0
  O  O68  1  0.68561000  0.16784000  0.33252000  1.0
  O  O69  1  0.31439000  0.83217000  0.66748000  1.0
  O  O70  1  0.97968000  0.21412000  0.31279000  1.0
  O  O71  1  0.02032000  0.78588000  0.68721000  1.0
