# generated using pymatgen
data_ZnH12C16N2O5
_symmetry_space_group_name_H-M   'P 1'
_cell_length_a   5.38256000
_cell_length_b   14.78570000
_cell_length_c   20.21110000
_cell_angle_alpha   105.73200000
_cell_angle_beta   89.99970000
_cell_angle_gamma   89.99990000
_symmetry_Int_Tables_number   1
_chemical_formula_structural   ZnH12C16N2O5
_chemical_formula_sum   'Zn4 H48 C64 N8 O20'
_cell_volume   1548.24510880
_cell_formula_units_Z   4
loop_
 _symmetry_equiv_pos_site_id
 _symmetry_equiv_pos_as_xyz
  1  'x, y, z'
loop_
 _atom_site_type_symbol
 _atom_site_label
 _atom_site_symmetry_multiplicity
 _atom_site_fract_x
 _atom_site_fract_y
 _atom_site_fract_z
 _atom_site_occupancy
  Zn  Zn0  1  0.91486000  0.37812000  0.28261000  1.0
  Zn  Zn1  1  0.41485000  0.62188000  0.21739000  1.0
  Zn  Zn2  1  0.08513000  0.62188000  0.71740000  1.0
  Zn  Zn3  1  0.58515000  0.37812000  0.78261000  1.0
  H  H4  1  0.58674000  0.01842000  0.40334000  1.0
  H  H5  1  0.08674000  0.98157000  0.09666000  1.0
  H  H6  1  0.41329000  0.98159000  0.59666000  1.0
  H  H7  1  0.91327000  0.01842000  0.90334000  1.0
  H  H8  1  0.90528000  0.12850000  0.47038000  1.0
  H  H9  1  0.40528000  0.87149000  0.02962000  1.0
  H  H10  1  0.09472000  0.87151000  0.52963000  1.0
  H  H11  1  0.59472000  0.12850000  0.97037000  1.0
  H  H12  1  0.89249000  0.29806000  0.47266000  1.0
  H  H13  1  0.39250000  0.70193000  0.02734000  1.0
  H  H14  1  0.10750000  0.70195000  0.52734000  1.0
  H  H15  1  0.60750000  0.29807000  0.97266000  1.0
  H  H16  1  0.55034000  0.35685000  0.41161000  1.0
  H  H17  1  0.05035000  0.64314000  0.08839000  1.0
  H  H18  1  0.44965000  0.64315000  0.58839000  1.0
  H  H19  1  0.94966000  0.35685000  0.91161000  1.0
  H  H20  1  0.72792000  0.10591000  0.21350000  1.0
  H  H21  1  0.22790000  0.89409000  0.28650000  1.0
  H  H22  1  0.27208000  0.89409000  0.78650000  1.0
  H  H23  1  0.77211000  0.10591000  0.71349000  1.0
  H  H24  1  0.43100000  0.36978000  0.07829000  1.0
  H  H25  1  0.93098000  0.63021000  0.42171000  1.0
  H  H26  1  0.56899000  0.63022000  0.92172000  1.0
  H  H27  1  0.06899000  0.36979000  0.57829000  1.0
  H  H28  1  0.10901000  0.25138000  0.02733000  1.0
  H  H29  1  0.60899000  0.74862000  0.47267000  1.0
  H  H30  1  0.89098000  0.74862000  0.97267000  1.0
  H  H31  1  0.39101000  0.25140000  0.52733000  1.0
  H  H32  1  0.06463000  0.10761000  0.06682000  1.0
  H  H33  1  0.56460000  0.89238000  0.43318000  1.0
  H  H34  1  0.93537000  0.89239000  0.93318000  1.0
  H  H35  1  0.43543000  0.10763000  0.56682000  1.0
  H  H36  1  0.36035000  0.07901000  0.15496000  1.0
  H  H37  1  0.86031000  0.92099000  0.34504000  1.0
  H  H38  1  0.63965000  0.92099000  0.84504000  1.0
  H  H39  1  0.13972000  0.07902000  0.65496000  1.0
  H  H40  1  0.69974000  0.47444000  0.13919000  1.0
  H  H41  1  0.19974000  0.52555000  0.36081000  1.0
  H  H42  1  0.30024000  0.52555000  0.86082000  1.0
  H  H43  1  0.80023000  0.47445000  0.63919000  1.0
  H  H44  1  0.90231000  0.38779000  0.08720000  1.0
  H  H45  1  0.40230000  0.61220000  0.41280000  1.0
  H  H46  1  0.09767000  0.61221000  0.91280000  1.0
  H  H47  1  0.59768000  0.38780000  0.58720000  1.0
  H  H48  1  0.12318000  0.09789000  0.30625000  1.0
  H  H49  1  0.62318000  0.90211000  0.19375000  1.0
  H  H50  1  0.87684000  0.90211000  0.69375000  1.0
  H  H51  1  0.37682000  0.09789000  0.80625000  1.0
  C  C52  1  0.38178000  0.22159000  0.37241000  1.0
  C  C53  1  0.88177000  0.77841000  0.12759000  1.0
  C  C54  1  0.61823000  0.77841000  0.62759000  1.0
  C  C55  1  0.11823000  0.22158000  0.87241000  1.0
  C  C56  1  0.39609000  0.12424000  0.36851000  1.0
  C  C57  1  0.89609000  0.87576000  0.13149000  1.0
  C  C58  1  0.60393000  0.87576000  0.63149000  1.0
  C  C59  1  0.10391000  0.12424000  0.86851000  1.0
  C  C60  1  0.58243000  0.09277000  0.40569000  1.0
  C  C61  1  0.08242000  0.90722000  0.09431000  1.0
  C  C62  1  0.41759000  0.90723000  0.59431000  1.0
  C  C63  1  0.91758000  0.09277000  0.90569000  1.0
  C  C64  1  0.75840000  0.15465000  0.44319000  1.0
  C  C65  1  0.25839000  0.84534000  0.05681000  1.0
  C  C66  1  0.24161000  0.84536000  0.55681000  1.0
  C  C67  1  0.74161000  0.15465000  0.94319000  1.0
  C  C68  1  0.74986000  0.25022000  0.44532000  1.0
  C  C69  1  0.24987000  0.74977000  0.05468000  1.0
  C  C70  1  0.25013000  0.74979000  0.55469000  1.0
  C  C71  1  0.75013000  0.25022000  0.94531000  1.0
  C  C72  1  0.56126000  0.28298000  0.41095000  1.0
  C  C73  1  0.06126000  0.71701000  0.08905000  1.0
  C  C74  1  0.43874000  0.71702000  0.58905000  1.0
  C  C75  1  0.93874000  0.28298000  0.91095000  1.0
  C  C76  1  0.18968000  0.26002000  0.33584000  1.0
  C  C77  1  0.68967000  0.73997000  0.16416000  1.0
  C  C78  1  0.81033000  0.73998000  0.66416000  1.0
  C  C79  1  0.31034000  0.26002000  0.83584000  1.0
  C  C80  1  0.72866000  0.18054000  0.21456000  1.0
  C  C81  1  0.22864000  0.81946000  0.28544000  1.0
  C  C82  1  0.27135000  0.81946000  0.78544000  1.0
  C  C83  1  0.77136000  0.18054000  0.71456000  1.0
  C  C84  1  0.56036000  0.20801000  0.16747000  1.0
  C  C85  1  0.06034000  0.79199000  0.33253000  1.0
  C  C86  1  0.43964000  0.79199000  0.83253000  1.0
  C  C87  1  0.93966000  0.20801000  0.66747000  1.0
  C  C88  1  0.57708000  0.29080000  0.14486000  1.0
  C  C89  1  0.07705000  0.70919000  0.35514000  1.0
  C  C90  1  0.42293000  0.70920000  0.85514000  1.0
  C  C91  1  0.92294000  0.29081000  0.64486000  1.0
  C  C92  1  0.41541000  0.30597000  0.09506000  1.0
  C  C93  1  0.91539000  0.69403000  0.40494000  1.0
  C  C94  1  0.58459000  0.69403000  0.90494000  1.0
  C  C95  1  0.08460000  0.30598000  0.59506000  1.0
  C  C96  1  0.23280000  0.23971000  0.06692000  1.0
  C  C97  1  0.73277000  0.76028000  0.43308000  1.0
  C  C98  1  0.76720000  0.76028000  0.93308000  1.0
  C  C99  1  0.26723000  0.23973000  0.56692000  1.0
  C  C100  1  0.20950000  0.15837000  0.08885000  1.0
  C  C101  1  0.70948000  0.84163000  0.41115000  1.0
  C  C102  1  0.79050000  0.84163000  0.91115000  1.0
  C  C103  1  0.29054000  0.15838000  0.58885000  1.0
  C  C104  1  0.37252000  0.14289000  0.13798000  1.0
  C  C105  1  0.87250000  0.85710000  0.36202000  1.0
  C  C106  1  0.62748000  0.85711000  0.86202000  1.0
  C  C107  1  0.12752000  0.14290000  0.63798000  1.0
  C  C108  1  0.84412000  0.42240000  0.14017000  1.0
  C  C109  1  0.34411000  0.57759000  0.35982000  1.0
  C  C110  1  0.15587000  0.57760000  0.85983000  1.0
  C  C111  1  0.65586000  0.42240000  0.64018000  1.0
  C  C112  1  0.06310000  0.47324000  0.18164000  1.0
  C  C113  1  0.56310000  0.52675000  0.31835000  1.0
  C  C114  1  0.93689000  0.52676000  0.81836000  1.0
  C  C115  1  0.43688000  0.47325000  0.68165000  1.0
  N  N116  1  0.04406000  0.19645000  0.29226000  1.0
  N  N117  1  0.54405000  0.80355000  0.20774000  1.0
  N  N118  1  0.95594000  0.80355000  0.70774000  1.0
  N  N119  1  0.45595000  0.19645000  0.79226000  1.0
  N  N120  1  0.88263000  0.23620000  0.25626000  1.0
  N  N121  1  0.38262000  0.76380000  0.24374000  1.0
  N  N122  1  0.11737000  0.76380000  0.74374000  1.0
  N  N123  1  0.61738000  0.23620000  0.75626000  1.0
  O  O124  1  0.17195000  0.34963000  0.34633000  1.0
  O  O125  1  0.67194000  0.65037000  0.15366000  1.0
  O  O126  1  0.82805000  0.65037000  0.65367000  1.0
  O  O127  1  0.32807000  0.34963000  0.84634000  1.0
  O  O128  1  0.23717000  0.06058000  0.33010000  1.0
  O  O129  1  0.73717000  0.93942000  0.16990000  1.0
  O  O130  1  0.76286000  0.93942000  0.66989000  1.0
  O  O131  1  0.26284000  0.06058000  0.83010000  1.0
  O  O132  1  0.76108000  0.35361000  0.17348000  1.0
  O  O133  1  0.26107000  0.64638000  0.32652000  1.0
  O  O134  1  0.23891000  0.64639000  0.82652000  1.0
  O  O135  1  0.73891000  0.35361000  0.67348000  1.0
  O  O136  1  0.13038000  0.45254000  0.23570000  1.0
  O  O137  1  0.63036000  0.54745000  0.26429000  1.0
  O  O138  1  0.86962000  0.54745000  0.76430000  1.0
  O  O139  1  0.36962000  0.45255000  0.73571000  1.0
  O  O140  1  0.16936000  0.53506000  0.15823000  1.0
  O  O141  1  0.66937000  0.46493000  0.34176000  1.0
  O  O142  1  0.83062000  0.46494000  0.84177000  1.0
  O  O143  1  0.33060000  0.53506000  0.65824000  1.0
