# generated using pymatgen
data_SbH21C15(SCl)3
_symmetry_space_group_name_H-M   'P 1'
_cell_length_a   10.49520000
_cell_length_b   11.42940000
_cell_length_c   20.43600000
_cell_angle_alpha   85.79090000
_cell_angle_beta   76.69030000
_cell_angle_gamma   64.97940000
_symmetry_Int_Tables_number   1
_chemical_formula_structural   SbH21C15(SCl)3
_chemical_formula_sum   'Sb4 H84 C60 S12 Cl12'
_cell_volume   2160.86518137
_cell_formula_units_Z   4
loop_
 _symmetry_equiv_pos_site_id
 _symmetry_equiv_pos_as_xyz
  1  'x, y, z'
loop_
 _atom_site_type_symbol
 _atom_site_label
 _atom_site_symmetry_multiplicity
 _atom_site_fract_x
 _atom_site_fract_y
 _atom_site_fract_z
 _atom_site_occupancy
  Sb  Sb0  1  0.51811000  0.23227000  0.31957000  1.0
  Sb  Sb1  1  0.48189000  0.76773000  0.68043000  1.0
  Sb  Sb2  1  0.94355000  0.46235000  0.24807000  1.0
  Sb  Sb3  1  0.05645000  0.53765000  0.75193000  1.0
  H  H4  1  0.34967000  0.28161000  0.14061000  1.0
  H  H5  1  0.65032000  0.71839000  0.85939000  1.0
  H  H6  1  0.46652000  0.11389000  0.14391000  1.0
  H  H7  1  0.53348000  0.88611000  0.85609000  1.0
  H  H8  1  0.49982000  0.20605000  0.07164000  1.0
  H  H9  1  0.50017000  0.79395000  0.92836000  1.0
  H  H10  1  0.81072000  0.13305000  0.16960000  1.0
  H  H11  1  0.18928000  0.86695000  0.83040000  1.0
  H  H12  1  0.73730000  0.03760000  0.14108000  1.0
  H  H13  1  0.26270000  0.96240000  0.85892000  1.0
  H  H14  1  0.75845000  0.00958000  0.02424000  1.0
  H  H15  1  0.24155000  0.99041000  0.97576000  1.0
  H  H16  1  0.85287000  0.04456000  0.90408000  1.0
  H  H17  1  0.14714000  0.95544000  0.09591000  1.0
  H  H18  1  0.95402000  0.20896000  0.87656000  1.0
  H  H19  1  0.04599000  0.79104000  0.12344000  1.0
  H  H20  1  0.95915000  0.33567000  0.96826000  1.0
  H  H21  1  0.04085000  0.66433000  0.03174000  1.0
  H  H22  1  0.76587000  0.36088000  0.14028000  1.0
  H  H23  1  0.23412000  0.63912000  0.85972000  1.0
  H  H24  1  0.88605000  0.40868000  0.08043000  1.0
  H  H25  1  0.11395000  0.59132000  0.91957000  1.0
  H  H26  1  0.25677000  0.13822000  0.10073000  1.0
  H  H27  1  0.74323000  0.86178000  0.89927000  1.0
  H  H28  1  0.17389000  0.29775000  0.06962000  1.0
  H  H29  1  0.82611000  0.70225000  0.93038000  1.0
  H  H30  1  0.15429000  0.16429000  0.03796000  1.0
  H  H31  1  0.84571000  0.83571000  0.96204000  1.0
  H  H32  1  0.17602000  0.53671000  0.44083000  1.0
  H  H33  1  0.82398000  0.46329000  0.55917000  1.0
  H  H34  1  0.14148000  0.51180000  0.36206000  1.0
  H  H35  1  0.85852000  0.48820000  0.63794000  1.0
  H  H36  1  0.12272000  0.66780000  0.38524000  1.0
  H  H37  1  0.87728000  0.33220000  0.61476000  1.0
  H  H38  1  0.47526000  0.51726000  0.23557000  1.0
  H  H39  1  0.52474000  0.48274000  0.76443000  1.0
  H  H40  1  0.29318000  0.54003000  0.24743000  1.0
  H  H41  1  0.70682000  0.45997000  0.75258000  1.0
  H  H42  1  0.10982000  0.74638000  0.24272000  1.0
  H  H43  1  0.89018000  0.25362000  0.75728000  1.0
  H  H44  1  0.02672000  0.98353000  0.22891000  1.0
  H  H45  1  0.97329000  0.01647000  0.77109000  1.0
  H  H46  1  0.18916000  0.08813000  0.23738000  1.0
  H  H47  1  0.81084000  0.91187000  0.76262000  1.0
  H  H48  1  0.43402000  0.95359000  0.25663000  1.0
  H  H49  1  0.56598000  0.04641000  0.74337000  1.0
  H  H50  1  0.56643000  0.61706000  0.30589000  1.0
  H  H51  1  0.43356000  0.38294000  0.69410000  1.0
  H  H52  1  0.60282000  0.75651000  0.29150000  1.0
  H  H53  1  0.39718000  0.24349000  0.70850000  1.0
  H  H54  1  0.78890000  0.72487000  0.10604000  1.0
  H  H55  1  0.21110000  0.27513000  0.89396000  1.0
  H  H56  1  0.75521000  0.79917000  0.18631000  1.0
  H  H57  1  0.24478000  0.20083000  0.81369000  1.0
  H  H58  1  0.60809000  0.83145000  0.14582000  1.0
  H  H59  1  0.39191000  0.16855000  0.85418000  1.0
  H  H60  1  0.49141000  0.89502000  0.38790000  1.0
  H  H61  1  0.50859000  0.10498000  0.61210000  1.0
  H  H62  1  0.35178000  0.94607000  0.46296000  1.0
  H  H63  1  0.64823000  0.05393000  0.53704000  1.0
  H  H64  1  0.49421000  0.99984000  0.44778000  1.0
  H  H65  1  0.50580000  0.00016000  0.55222000  1.0
  H  H66  1  0.27675000  0.23748000  0.47679000  1.0
  H  H67  1  0.72324000  0.76252000  0.52321000  1.0
  H  H68  1  0.15361000  0.31487000  0.42364000  1.0
  H  H69  1  0.84639000  0.68513000  0.57636000  1.0
  H  H70  1  0.22659000  0.11382000  0.56895000  1.0
  H  H71  1  0.77341000  0.88618000  0.43105000  1.0
  H  H72  1  0.05798000  0.03990000  0.64493000  1.0
  H  H73  1  0.94202000  0.96011000  0.35507000  1.0
  H  H74  1  0.82654000  0.07360000  0.61554000  1.0
  H  H75  1  0.17346000  0.92640000  0.38446000  1.0
  H  H76  1  0.77455000  0.17226000  0.50613000  1.0
  H  H77  1  0.22544000  0.82774000  0.49387000  1.0
  H  H78  1  0.85680000  0.22474000  0.39604000  1.0
  H  H79  1  0.14320000  0.77526000  0.60395000  1.0
  H  H80  1  0.03762000  0.20607000  0.36773000  1.0
  H  H81  1  0.96238000  0.79393000  0.63227000  1.0
  H  H82  1  0.64720000  0.58506000  0.44063000  1.0
  H  H83  1  0.35280000  0.41494000  0.55937000  1.0
  H  H84  1  0.67775000  0.44600000  0.49130000  1.0
  H  H85  1  0.32225000  0.55400000  0.50870000  1.0
  H  H86  1  0.63988000  0.44448000  0.41023000  1.0
  H  H87  1  0.36012000  0.55552000  0.58977000  1.0
  C  C88  1  0.46106000  0.20883000  0.12645000  1.0
  C  C89  1  0.53894000  0.79116000  0.87355000  1.0
  C  C90  1  0.74551000  0.13058000  0.13519000  1.0
  C  C91  1  0.25449000  0.86942000  0.86481000  1.0
  C  C92  1  0.80546000  0.15208000  0.06373000  1.0
  C  C93  1  0.19454000  0.84792000  0.93627000  1.0
  C  C94  1  0.80236000  0.08162000  0.01142000  1.0
  C  C95  1  0.19764000  0.91838000  0.98858000  1.0
  C  C96  1  0.85550000  0.10067000  0.94423000  1.0
  C  C97  1  0.14450000  0.89933000  0.05577000  1.0
  C  C98  1  0.91318000  0.19163000  0.92869000  1.0
  C  C99  1  0.08683000  0.80837000  0.07131000  1.0
  C  C100  1  0.91662000  0.26265000  0.98049000  1.0
  C  C101  1  0.08338000  0.73735000  0.01951000  1.0
  C  C102  1  0.86276000  0.24501000  0.04791000  1.0
  C  C103  1  0.13724000  0.75499000  0.95209000  1.0
  C  C104  1  0.86673000  0.32501000  0.10174000  1.0
  C  C105  1  0.13327000  0.67499000  0.89826000  1.0
  C  C106  1  0.16313000  0.20684000  0.08219000  1.0
  C  C107  1  0.83688000  0.79317000  0.91781000  1.0
  C  C108  1  0.18384000  0.56335000  0.38787000  1.0
  C  C109  1  0.81616000  0.43665000  0.61213000  1.0
  C  C110  1  0.36502000  0.57248000  0.26453000  1.0
  C  C111  1  0.63498000  0.42752000  0.73547000  1.0
  C  C112  1  0.31847000  0.71548000  0.25684000  1.0
  C  C113  1  0.68153000  0.28452000  0.74316000  1.0
  C  C114  1  0.18150000  0.79200000  0.24493000  1.0
  C  C115  1  0.81850000  0.20800000  0.75507000  1.0
  C  C116  1  0.13474000  0.92527000  0.23717000  1.0
  C  C117  1  0.86526000  0.07472000  0.76283000  1.0
  C  C118  1  0.22537000  0.98377000  0.24143000  1.0
  C  C119  1  0.77463000  0.01623000  0.75857000  1.0
  C  C120  1  0.36284000  0.90823000  0.25281000  1.0
  C  C121  1  0.63716000  0.09176000  0.74719000  1.0
  C  C122  1  0.41075000  0.77471000  0.26080000  1.0
  C  C123  1  0.58925000  0.22529000  0.73920000  1.0
  C  C124  1  0.56005000  0.69717000  0.27170000  1.0
  C  C125  1  0.43995000  0.30283000  0.72830000  1.0
  C  C126  1  0.71186000  0.75889000  0.15429000  1.0
  C  C127  1  0.28814000  0.24111000  0.84571000  1.0
  C  C128  1  0.42453000  0.97453000  0.42461000  1.0
  C  C129  1  0.57548000  0.02547000  0.57539000  1.0
  C  C130  1  0.20593000  0.22439000  0.44878000  1.0
  C  C131  1  0.79407000  0.77561000  0.55122000  1.0
  C  C132  1  0.09893000  0.18248000  0.49364000  1.0
  C  C133  1  0.90107000  0.81752000  0.50636000  1.0
  C  C134  1  0.12777000  0.12573000  0.55473000  1.0
  C  C135  1  0.87222000  0.87427000  0.44527000  1.0
  C  C136  1  0.03183000  0.08492000  0.59811000  1.0
  C  C137  1  0.96817000  0.91508000  0.40189000  1.0
  C  C138  1  0.90296000  0.10369000  0.58140000  1.0
  C  C139  1  0.09704000  0.89631000  0.41860000  1.0
  C  C140  1  0.87342000  0.15966000  0.52048000  1.0
  C  C141  1  0.12658000  0.84034000  0.47952000  1.0
  C  C142  1  0.97110000  0.19705000  0.47544000  1.0
  C  C143  1  0.02890000  0.80296000  0.52456000  1.0
  C  C144  1  0.94043000  0.24757000  0.40818000  1.0
  C  C145  1  0.05957000  0.75243000  0.59182000  1.0
  C  C146  1  0.69308000  0.47917000  0.43948000  1.0
  C  C147  1  0.30692000  0.52083000  0.56052000  1.0
  S  S148  1  0.56623000  0.25807000  0.16686000  1.0
  S  S149  1  0.43377000  0.74193000  0.83313000  1.0
  S  S150  1  0.00632000  0.23404000  0.14838000  1.0
  S  S151  1  0.99367000  0.76597000  0.85162000  1.0
  S  S152  1  0.37173000  0.51920000  0.35104000  1.0
  S  S153  1  0.62827000  0.48080000  0.64896000  1.0
  S  S154  1  0.68696000  0.62108000  0.19312000  1.0
  S  S155  1  0.31304000  0.37892000  0.80688000  1.0
  S  S156  1  0.32096000  0.10867000  0.37947000  1.0
  S  S157  1  0.67904000  0.89133000  0.62053000  1.0
  S  S158  1  0.88282000  0.42229000  0.40166000  1.0
  S  S159  1  0.11718000  0.57771000  0.59834000  1.0
  Cl  Cl160  1  0.55110000  0.22464000  0.43647000  1.0
  Cl  Cl161  1  0.44890000  0.77535000  0.56353000  1.0
  Cl  Cl162  1  0.71896000  0.31003000  0.28214000  1.0
  Cl  Cl163  1  0.28104000  0.68997000  0.71786000  1.0
  Cl  Cl164  1  0.69131000  0.00330000  0.29314000  1.0
  Cl  Cl165  1  0.30869000  0.99670000  0.70686000  1.0
  Cl  Cl166  1  0.89532000  0.66910000  0.29912000  1.0
  Cl  Cl167  1  0.10468000  0.33090000  0.70088000  1.0
  Cl  Cl168  1  0.19052000  0.33344000  0.27350000  1.0
  Cl  Cl169  1  0.80948000  0.66656000  0.72650000  1.0
  Cl  Cl170  1  0.06865000  0.52045000  0.14154000  1.0
  Cl  Cl171  1  0.93136000  0.47955000  0.85846000  1.0
