# generated using pymatgen
data_NiH16C18(NO3)2
_symmetry_space_group_name_H-M   'P 1'
_cell_length_a   9.78279000
_cell_length_b   14.84920000
_cell_length_c   28.22150000
_cell_angle_alpha   89.99990000
_cell_angle_beta   89.99990000
_cell_angle_gamma   73.54000000
_symmetry_Int_Tables_number   1
_chemical_formula_structural   NiH16C18(NO3)2
_chemical_formula_sum   'Ni8 H128 C144 N16 O48'
_cell_volume   3931.62909603
_cell_formula_units_Z   8
loop_
 _symmetry_equiv_pos_site_id
 _symmetry_equiv_pos_as_xyz
  1  'x, y, z'
loop_
 _atom_site_type_symbol
 _atom_site_label
 _atom_site_symmetry_multiplicity
 _atom_site_fract_x
 _atom_site_fract_y
 _atom_site_fract_z
 _atom_site_occupancy
  Ni  Ni0  1  0.81968000  0.83061000  0.50904000  1.0
  Ni  Ni1  1  0.22867000  0.49562000  0.66557000  1.0
  Ni  Ni2  1  0.68032000  0.16939000  0.00904000  1.0
  Ni  Ni3  1  0.27133000  0.50438000  0.16557000  1.0
  Ni  Ni4  1  0.18032000  0.16939000  0.49096000  1.0
  Ni  Ni5  1  0.77133000  0.50439000  0.33443000  1.0
  Ni  Ni6  1  0.31969000  0.83061000  0.99096000  1.0
  Ni  Ni7  1  0.72867000  0.49562000  0.83443000  1.0
  H  H8  1  0.75510000  0.68439000  0.48486000  1.0
  H  H9  1  0.73102000  0.70440000  0.54212000  1.0
  H  H10  1  0.99820000  0.68075000  0.48509000  1.0
  H  H11  1  0.05736000  0.69747000  0.53709000  1.0
  H  H12  1  0.05552000  0.54343000  0.59999000  1.0
  H  H13  1  0.07663000  0.43133000  0.60226000  1.0
  H  H14  1  0.30400000  0.53302000  0.58447000  1.0
  H  H15  1  0.40168000  0.42937000  0.60203000  1.0
  H  H16  1  0.68052000  0.70707000  0.67984000  1.0
  H  H17  1  0.69214000  0.73723000  0.76764000  1.0
  H  H18  1  0.83970000  0.83669000  0.79647000  1.0
  H  H19  1  0.99222000  0.89327000  0.73956000  1.0
  H  H20  1  0.96743000  0.00272000  0.66688000  1.0
  H  H21  1  0.14470000  0.04459000  0.61479000  1.0
  H  H22  1  0.31285000  0.92104000  0.56682000  1.0
  H  H23  1  0.30095000  0.75626000  0.57046000  1.0
  H  H24  1  0.63319000  0.18139000  0.63067000  1.0
  H  H25  1  0.72839000  0.01195000  0.65377000  1.0
  H  H26  1  0.56129000  0.92702000  0.68457000  1.0
  H  H27  1  0.30360000  0.00993000  0.69149000  1.0
  H  H28  1  0.17020000  0.12783000  0.74303000  1.0
  H  H29  1  0.91066000  0.18250000  0.75530000  1.0
  H  H30  1  0.75203000  0.27596000  0.69240000  1.0
  H  H31  1  0.86010000  0.31345000  0.61762000  1.0
  H  H32  1  0.06793000  0.85533000  0.45444000  1.0
  H  H33  1  0.81148000  0.01715000  0.55811000  1.0
  H  H34  1  0.61738000  0.95702000  0.57594000  1.0
  H  H35  1  0.61649000  0.91459000  0.43067000  1.0
  H  H36  1  0.42916000  0.61813000  0.68401000  1.0
  H  H37  1  0.11268000  0.61905000  0.75230000  1.0
  H  H38  1  0.05556000  0.37497000  0.69498000  1.0
  H  H39  1  0.36761000  0.37681000  0.74304000  1.0
  H  H40  1  0.74490000  0.31560000  0.98486000  1.0
  H  H41  1  0.76897000  0.29561000  0.04211000  1.0
  H  H42  1  0.50179000  0.31925000  0.98509000  1.0
  H  H43  1  0.44263000  0.30253000  0.03709000  1.0
  H  H44  1  0.44448000  0.45657000  0.10000000  1.0
  H  H45  1  0.42338000  0.56867000  0.10226000  1.0
  H  H46  1  0.19601000  0.46698000  0.08447000  1.0
  H  H47  1  0.09832000  0.57063000  0.10204000  1.0
  H  H48  1  0.81947000  0.29294000  0.17983000  1.0
  H  H49  1  0.80787000  0.26278000  0.26764000  1.0
  H  H50  1  0.66033000  0.16331000  0.29647000  1.0
  H  H51  1  0.50781000  0.10673000  0.23956000  1.0
  H  H52  1  0.53259000  0.99727000  0.16688000  1.0
  H  H53  1  0.35532000  0.95541000  0.11479000  1.0
  H  H54  1  0.18716000  0.07895000  0.06682000  1.0
  H  H55  1  0.19905000  0.24373000  0.07046000  1.0
  H  H56  1  0.86681000  0.81862000  0.13068000  1.0
  H  H57  1  0.77162000  0.98805000  0.15377000  1.0
  H  H58  1  0.93872000  0.07298000  0.18457000  1.0
  H  H59  1  0.19641000  0.99007000  0.19148000  1.0
  H  H60  1  0.32981000  0.87216000  0.24303000  1.0
  H  H61  1  0.58935000  0.81749000  0.25530000  1.0
  H  H62  1  0.74797000  0.72403000  0.19239000  1.0
  H  H63  1  0.63990000  0.68654000  0.11761000  1.0
  H  H64  1  0.43207000  0.14467000  0.95444000  1.0
  H  H65  1  0.68850000  0.98285000  0.05811000  1.0
  H  H66  1  0.88262000  0.04298000  0.07594000  1.0
  H  H67  1  0.88351000  0.08541000  0.93067000  1.0
  H  H68  1  0.07084000  0.38187000  0.18401000  1.0
  H  H69  1  0.38731000  0.38095000  0.25230000  1.0
  H  H70  1  0.44444000  0.62502000  0.19499000  1.0
  H  H71  1  0.13238000  0.62319000  0.24304000  1.0
  H  H72  1  0.24491000  0.31560000  0.51514000  1.0
  H  H73  1  0.26897000  0.29560000  0.45788000  1.0
  H  H74  1  0.00180000  0.31925000  0.51491000  1.0
  H  H75  1  0.94263000  0.30254000  0.46292000  1.0
  H  H76  1  0.94447000  0.45658000  0.40001000  1.0
  H  H77  1  0.92338000  0.56868000  0.39774000  1.0
  H  H78  1  0.69600000  0.46698000  0.41553000  1.0
  H  H79  1  0.59832000  0.57064000  0.39797000  1.0
  H  H80  1  0.31947000  0.29293000  0.32017000  1.0
  H  H81  1  0.30788000  0.26277000  0.23236000  1.0
  H  H82  1  0.16032000  0.16331000  0.20353000  1.0
  H  H83  1  0.00778000  0.10673000  0.26044000  1.0
  H  H84  1  0.03256000  0.99728000  0.33312000  1.0
  H  H85  1  0.85528000  0.95542000  0.38521000  1.0
  H  H86  1  0.68714000  0.07897000  0.43318000  1.0
  H  H87  1  0.69905000  0.24374000  0.42954000  1.0
  H  H88  1  0.36682000  0.81862000  0.36933000  1.0
  H  H89  1  0.27162000  0.98805000  0.34623000  1.0
  H  H90  1  0.43872000  0.07298000  0.31543000  1.0
  H  H91  1  0.69640000  0.99007000  0.30852000  1.0
  H  H92  1  0.82982000  0.87217000  0.25697000  1.0
  H  H93  1  0.08935000  0.81749000  0.24470000  1.0
  H  H94  1  0.24797000  0.72404000  0.30761000  1.0
  H  H95  1  0.13990000  0.68655000  0.38239000  1.0
  H  H96  1  0.93205000  0.14468000  0.54556000  1.0
  H  H97  1  0.18850000  0.98286000  0.44189000  1.0
  H  H98  1  0.38263000  0.04298000  0.42406000  1.0
  H  H99  1  0.38351000  0.08541000  0.56933000  1.0
  H  H100  1  0.57084000  0.38188000  0.31599000  1.0
  H  H101  1  0.88731000  0.38095000  0.24770000  1.0
  H  H102  1  0.94444000  0.62503000  0.30501000  1.0
  H  H103  1  0.63238000  0.62319000  0.25696000  1.0
  H  H104  1  0.25510000  0.68440000  0.01514000  1.0
  H  H105  1  0.23102000  0.70441000  0.95788000  1.0
  H  H106  1  0.49820000  0.68075000  0.01491000  1.0
  H  H107  1  0.55736000  0.69747000  0.96291000  1.0
  H  H108  1  0.55553000  0.54343000  0.90001000  1.0
  H  H109  1  0.57662000  0.43133000  0.89773000  1.0
  H  H110  1  0.80400000  0.53301000  0.91553000  1.0
  H  H111  1  0.90169000  0.42936000  0.89796000  1.0
  H  H112  1  0.18051000  0.70707000  0.82017000  1.0
  H  H113  1  0.19212000  0.73723000  0.73236000  1.0
  H  H114  1  0.33969000  0.83668000  0.70353000  1.0
  H  H115  1  0.49222000  0.89326000  0.76044000  1.0
  H  H116  1  0.46744000  0.00272000  0.83311000  1.0
  H  H117  1  0.64470000  0.04458000  0.88521000  1.0
  H  H118  1  0.81284000  0.92105000  0.93318000  1.0
  H  H119  1  0.80095000  0.75626000  0.92954000  1.0
  H  H120  1  0.13318000  0.18138000  0.86933000  1.0
  H  H121  1  0.22838000  0.01195000  0.84623000  1.0
  H  H122  1  0.06128000  0.92702000  0.81543000  1.0
  H  H123  1  0.80360000  0.00993000  0.80851000  1.0
  H  H124  1  0.67019000  0.12783000  0.75696000  1.0
  H  H125  1  0.41065000  0.18250000  0.74470000  1.0
  H  H126  1  0.25203000  0.27596000  0.80761000  1.0
  H  H127  1  0.36010000  0.31345000  0.88239000  1.0
  H  H128  1  0.56794000  0.85532000  0.04556000  1.0
  H  H129  1  0.31150000  0.01714000  0.94189000  1.0
  H  H130  1  0.11738000  0.95702000  0.92406000  1.0
  H  H131  1  0.11648000  0.91459000  0.06933000  1.0
  H  H132  1  0.92916000  0.61812000  0.81599000  1.0
  H  H133  1  0.61269000  0.61905000  0.74770000  1.0
  H  H134  1  0.55556000  0.37498000  0.80501000  1.0
  H  H135  1  0.86762000  0.37680000  0.75696000  1.0
  C  C136  1  0.80562000  0.76888000  0.60923000  1.0
  C  C137  1  0.83007000  0.78185000  0.66141000  1.0
  C  C138  1  0.74863000  0.74756000  0.69393000  1.0
  C  C139  1  0.75373000  0.76528000  0.74235000  1.0
  C  C140  1  0.83765000  0.82084000  0.75873000  1.0
  C  C141  1  0.92171000  0.85333000  0.72684000  1.0
  C  C142  1  0.92381000  0.83156000  0.67840000  1.0
  C  C143  1  0.03121000  0.85594000  0.64777000  1.0
  C  C144  1  0.04095000  0.94829000  0.64586000  1.0
  C  C145  1  0.14087000  0.97210000  0.61684000  1.0
  C  C146  1  0.23434000  0.90312000  0.58951000  1.0
  C  C147  1  0.22770000  0.81073000  0.59144000  1.0
  C  C148  1  0.12816000  0.78644000  0.62071000  1.0
  C  C149  1  0.13595000  0.68401000  0.62285000  1.0
  C  C150  1  0.37887000  0.29529000  0.63911000  1.0
  C  C151  1  0.41741000  0.19126000  0.64944000  1.0
  C  C152  1  0.56250000  0.14259000  0.64452000  1.0
  C  C153  1  0.61533000  0.04858000  0.65745000  1.0
  C  C154  1  0.52156000  0.00095000  0.67487000  1.0
  C  C155  1  0.37701000  0.04788000  0.67892000  1.0
  C  C156  1  0.32140000  0.14320000  0.66643000  1.0
  C  C157  1  0.16535000  0.18546000  0.67259000  1.0
  C  C158  1  0.10236000  0.16743000  0.71501000  1.0
  C  C159  1  0.95533000  0.19851000  0.72210000  1.0
  C  C160  1  0.86710000  0.25099000  0.68708000  1.0
  C  C161  1  0.92751000  0.27208000  0.64525000  1.0
  C  C162  1  0.07489000  0.23862000  0.63740000  1.0
  C  C163  1  0.87719000  0.74849000  0.41212000  1.0
  C  C164  1  0.03765000  0.92024000  0.47472000  1.0
  C  C165  1  0.89503000  0.00974000  0.53168000  1.0
  C  C166  1  0.56473000  0.97715000  0.54198000  1.0
  C  C167  1  0.56378000  0.95295000  0.46155000  1.0
  C  C168  1  0.45746000  0.56443000  0.71140000  1.0
  C  C169  1  0.05906000  0.56414000  0.75401000  1.0
  C  C170  1  0.02567000  0.42966000  0.72174000  1.0
  C  C171  1  0.42294000  0.43077000  0.74429000  1.0
  C  C172  1  0.69437000  0.23113000  0.10922000  1.0
  C  C173  1  0.66993000  0.21816000  0.16141000  1.0
  C  C174  1  0.75137000  0.25245000  0.19393000  1.0
  C  C175  1  0.74628000  0.23473000  0.24234000  1.0
  C  C176  1  0.66237000  0.17916000  0.25873000  1.0
  C  C177  1  0.57830000  0.14667000  0.22684000  1.0
  C  C178  1  0.57619000  0.16844000  0.17840000  1.0
  C  C179  1  0.46880000  0.14406000  0.14777000  1.0
  C  C180  1  0.45906000  0.05170000  0.14586000  1.0
  C  C181  1  0.35914000  0.02790000  0.11684000  1.0
  C  C182  1  0.26566000  0.09687000  0.08952000  1.0
  C  C183  1  0.27231000  0.18927000  0.09144000  1.0
  C  C184  1  0.37184000  0.21356000  0.12071000  1.0
  C  C185  1  0.36406000  0.31599000  0.12285000  1.0
  C  C186  1  0.12114000  0.70471000  0.13911000  1.0
  C  C187  1  0.08260000  0.80874000  0.14944000  1.0
  C  C188  1  0.93750000  0.85741000  0.14452000  1.0
  C  C189  1  0.88467000  0.95143000  0.15745000  1.0
  C  C190  1  0.97845000  0.99905000  0.17487000  1.0
  C  C191  1  0.12300000  0.95212000  0.17892000  1.0
  C  C192  1  0.17861000  0.85680000  0.16643000  1.0
  C  C193  1  0.33466000  0.81454000  0.17259000  1.0
  C  C194  1  0.39764000  0.83257000  0.21501000  1.0
  C  C195  1  0.54467000  0.80148000  0.22209000  1.0
  C  C196  1  0.63290000  0.74900000  0.18708000  1.0
  C  C197  1  0.57250000  0.72791000  0.14524000  1.0
  C  C198  1  0.42512000  0.76137000  0.13739000  1.0
  C  C199  1  0.62281000  0.25151000  0.91212000  1.0
  C  C200  1  0.46233000  0.07976000  0.97471000  1.0
  C  C201  1  0.60495000  0.99026000  0.03168000  1.0
  C  C202  1  0.93527000  0.02285000  0.04198000  1.0
  C  C203  1  0.93622000  0.04705000  0.96155000  1.0
  C  C204  1  0.04253000  0.43557000  0.21140000  1.0
  C  C205  1  0.44094000  0.43586000  0.25401000  1.0
  C  C206  1  0.47433000  0.57034000  0.22174000  1.0
  C  C207  1  0.07706000  0.56923000  0.24429000  1.0
  C  C208  1  0.19436000  0.23112000  0.39077000  1.0
  C  C209  1  0.16992000  0.21816000  0.33859000  1.0
  C  C210  1  0.25136000  0.25244000  0.30607000  1.0
  C  C211  1  0.24628000  0.23472000  0.25766000  1.0
  C  C212  1  0.16236000  0.17916000  0.24127000  1.0
  C  C213  1  0.07829000  0.14667000  0.27316000  1.0
  C  C214  1  0.07618000  0.16844000  0.32160000  1.0
  C  C215  1  0.96878000  0.14406000  0.35223000  1.0
  C  C216  1  0.95903000  0.05171000  0.35414000  1.0
  C  C217  1  0.85911000  0.02791000  0.38317000  1.0
  C  C218  1  0.76565000  0.09688000  0.41049000  1.0
  C  C219  1  0.77230000  0.18928000  0.40856000  1.0
  C  C220  1  0.87183000  0.21356000  0.37929000  1.0
  C  C221  1  0.86405000  0.31600000  0.37715000  1.0
  C  C222  1  0.62114000  0.70471000  0.36089000  1.0
  C  C223  1  0.58260000  0.80874000  0.35056000  1.0
  C  C224  1  0.43750000  0.85741000  0.35548000  1.0
  C  C225  1  0.38467000  0.95143000  0.34255000  1.0
  C  C226  1  0.47844000  0.99905000  0.32513000  1.0
  C  C227  1  0.62300000  0.95213000  0.32108000  1.0
  C  C228  1  0.67861000  0.85681000  0.33357000  1.0
  C  C229  1  0.83466000  0.81454000  0.32741000  1.0
  C  C230  1  0.89764000  0.83257000  0.28499000  1.0
  C  C231  1  0.04467000  0.80149000  0.27791000  1.0
  C  C232  1  0.13291000  0.74901000  0.31292000  1.0
  C  C233  1  0.07251000  0.72793000  0.35476000  1.0
  C  C234  1  0.92513000  0.76138000  0.36261000  1.0
  C  C235  1  0.12281000  0.25152000  0.58788000  1.0
  C  C236  1  0.96232000  0.07976000  0.52529000  1.0
  C  C237  1  0.10494000  0.99026000  0.46832000  1.0
  C  C238  1  0.43528000  0.02285000  0.45802000  1.0
  C  C239  1  0.43623000  0.04704000  0.53845000  1.0
  C  C240  1  0.54253000  0.43557000  0.28860000  1.0
  C  C241  1  0.94093000  0.43586000  0.24599000  1.0
  C  C242  1  0.97433000  0.57034000  0.27826000  1.0
  C  C243  1  0.57706000  0.56923000  0.25571000  1.0
  C  C244  1  0.30563000  0.76888000  0.89077000  1.0
  C  C245  1  0.33007000  0.78185000  0.83859000  1.0
  C  C246  1  0.24863000  0.74756000  0.80607000  1.0
  C  C247  1  0.25372000  0.76528000  0.75766000  1.0
  C  C248  1  0.33764000  0.82084000  0.74127000  1.0
  C  C249  1  0.42171000  0.85333000  0.77316000  1.0
  C  C250  1  0.42382000  0.83156000  0.82160000  1.0
  C  C251  1  0.53121000  0.85594000  0.85223000  1.0
  C  C252  1  0.54096000  0.94829000  0.85414000  1.0
  C  C253  1  0.64087000  0.97210000  0.88316000  1.0
  C  C254  1  0.73434000  0.90313000  0.91049000  1.0
  C  C255  1  0.72770000  0.81073000  0.90856000  1.0
  C  C256  1  0.62816000  0.78644000  0.87928000  1.0
  C  C257  1  0.63595000  0.68400000  0.87715000  1.0
  C  C258  1  0.87886000  0.29529000  0.86089000  1.0
  C  C259  1  0.91740000  0.19126000  0.85056000  1.0
  C  C260  1  0.06249000  0.14259000  0.85548000  1.0
  C  C261  1  0.11532000  0.04857000  0.84255000  1.0
  C  C262  1  0.02156000  0.00095000  0.82513000  1.0
  C  C263  1  0.87700000  0.04787000  0.82108000  1.0
  C  C264  1  0.82139000  0.14319000  0.83357000  1.0
  C  C265  1  0.66534000  0.18546000  0.82740000  1.0
  C  C266  1  0.60236000  0.16742000  0.78498000  1.0
  C  C267  1  0.45532000  0.19851000  0.77791000  1.0
  C  C268  1  0.36709000  0.25099000  0.81292000  1.0
  C  C269  1  0.42749000  0.27207000  0.85476000  1.0
  C  C270  1  0.57487000  0.23862000  0.86260000  1.0
  C  C271  1  0.37719000  0.74848000  0.08787000  1.0
  C  C272  1  0.53767000  0.92024000  0.02528000  1.0
  C  C273  1  0.39505000  0.00973000  0.96831000  1.0
  C  C274  1  0.06473000  0.97715000  0.95803000  1.0
  C  C275  1  0.06378000  0.95296000  0.03845000  1.0
  C  C276  1  0.95747000  0.56442000  0.78860000  1.0
  C  C277  1  0.55906000  0.56414000  0.74599000  1.0
  C  C278  1  0.52567000  0.42966000  0.77826000  1.0
  C  C279  1  0.92295000  0.43076000  0.75571000  1.0
  N  N280  1  0.93167000  0.92998000  0.50631000  1.0
  N  N281  1  0.62924000  0.93034000  0.50361000  1.0
  N  N282  1  0.38835000  0.49813000  0.71097000  1.0
  N  N283  1  0.09309000  0.49690000  0.72068000  1.0
  N  N284  1  0.56833000  0.07001000  0.00631000  1.0
  N  N285  1  0.87077000  0.06966000  0.00361000  1.0
  N  N286  1  0.11165000  0.50187000  0.21097000  1.0
  N  N287  1  0.40691000  0.50309000  0.22068000  1.0
  N  N288  1  0.06831000  0.07002000  0.49369000  1.0
  N  N289  1  0.37077000  0.06966000  0.49639000  1.0
  N  N290  1  0.61165000  0.50187000  0.28903000  1.0
  N  N291  1  0.90690000  0.50310000  0.27932000  1.0
  N  N292  1  0.43168000  0.92998000  0.99369000  1.0
  N  N293  1  0.12923000  0.93034000  0.99639000  1.0
  N  N294  1  0.88836000  0.49812000  0.78903000  1.0
  N  N295  1  0.59310000  0.49691000  0.77932000  1.0
  O  O296  1  0.82016000  0.83508000  0.58178000  1.0
  O  O297  1  0.76790000  0.69791000  0.59676000  1.0
  O  O298  1  0.16310000  0.64295000  0.66280000  1.0
  O  O299  1  0.12353000  0.64256000  0.58402000  1.0
  O  O300  1  0.28911000  0.34908000  0.66747000  1.0
  O  O301  1  0.44291000  0.32106000  0.60514000  1.0
  O  O302  1  0.82882000  0.82479000  0.43510000  1.0
  O  O303  1  0.89781000  0.66650000  0.42940000  1.0
  O  O304  1  0.70710000  0.73060000  0.50868000  1.0
  O  O305  1  0.01695000  0.72850000  0.50625000  1.0
  O  O306  1  0.06050000  0.49017000  0.62151000  1.0
  O  O307  1  0.36695000  0.49977000  0.60969000  1.0
  O  O308  1  0.67983000  0.16493000  0.08178000  1.0
  O  O309  1  0.73208000  0.30210000  0.09676000  1.0
  O  O310  1  0.33690000  0.35704000  0.16281000  1.0
  O  O311  1  0.37646000  0.35743000  0.08402000  1.0
  O  O312  1  0.21089000  0.65092000  0.16747000  1.0
  O  O313  1  0.05709000  0.67894000  0.10515000  1.0
  O  O314  1  0.67118000  0.17521000  0.93510000  1.0
  O  O315  1  0.60219000  0.33349000  0.92939000  1.0
  O  O316  1  0.79290000  0.26941000  0.00867000  1.0
  O  O317  1  0.48304000  0.27151000  0.00624000  1.0
  O  O318  1  0.43949000  0.50983000  0.12151000  1.0
  O  O319  1  0.13305000  0.50023000  0.10969000  1.0
  O  O320  1  0.17983000  0.16492000  0.41822000  1.0
  O  O321  1  0.23206000  0.30210000  0.40324000  1.0
  O  O322  1  0.83690000  0.35705000  0.33720000  1.0
  O  O323  1  0.87645000  0.35744000  0.41598000  1.0
  O  O324  1  0.71089000  0.65093000  0.33253000  1.0
  O  O325  1  0.55709000  0.67894000  0.39486000  1.0
  O  O326  1  0.17118000  0.17521000  0.56491000  1.0
  O  O327  1  0.10219000  0.33350000  0.57061000  1.0
  O  O328  1  0.29290000  0.26940000  0.49133000  1.0
  O  O329  1  0.98304000  0.27151000  0.49376000  1.0
  O  O330  1  0.93949000  0.50983000  0.37849000  1.0
  O  O331  1  0.63305000  0.50024000  0.39031000  1.0
  O  O332  1  0.32017000  0.83508000  0.91822000  1.0
  O  O333  1  0.26790000  0.69792000  0.90324000  1.0
  O  O334  1  0.66310000  0.64295000  0.83719000  1.0
  O  O335  1  0.62353000  0.64257000  0.91598000  1.0
  O  O336  1  0.78911000  0.34907000  0.83253000  1.0
  O  O337  1  0.94291000  0.32106000  0.89485000  1.0
  O  O338  1  0.32883000  0.82478000  0.06490000  1.0
  O  O339  1  0.39781000  0.66650000  0.07060000  1.0
  O  O340  1  0.20710000  0.73060000  0.99132000  1.0
  O  O341  1  0.51695000  0.72850000  0.99375000  1.0
  O  O342  1  0.56051000  0.49017000  0.87849000  1.0
  O  O343  1  0.86695000  0.49976000  0.89031000  1.0
