# generated using pymatgen
data_ZnH6(CN2)4
_symmetry_space_group_name_H-M   'P 1'
_cell_length_a   10.34450000
_cell_length_b   10.34460000
_cell_length_c   11.47830000
_cell_angle_alpha   90.00030000
_cell_angle_beta   89.99920000
_cell_angle_gamma   89.99320000
_symmetry_Int_Tables_number   1
_chemical_formula_structural   ZnH6(CN2)4
_chemical_formula_sum   'Zn4 H24 C16 N32'
_cell_volume   1228.28959945
_cell_formula_units_Z   4
loop_
 _symmetry_equiv_pos_site_id
 _symmetry_equiv_pos_as_xyz
  1  'x, y, z'
loop_
 _atom_site_type_symbol
 _atom_site_label
 _atom_site_symmetry_multiplicity
 _atom_site_fract_x
 _atom_site_fract_y
 _atom_site_fract_z
 _atom_site_occupancy
  Zn  Zn0  1  0.31160000  0.68842000  0.49999000  1.0
  Zn  Zn1  1  0.68841000  0.31159000  0.00000000  1.0
  Zn  Zn2  1  0.81155000  0.81153000  0.75001000  1.0
  Zn  Zn3  1  0.18847000  0.18846000  0.25000000  1.0
  H  H4  1  0.58710000  0.57553000  0.42859000  1.0
  H  H5  1  0.52998000  0.91165000  0.76537000  1.0
  H  H6  1  0.38629000  0.85502000  0.70899000  1.0
  H  H7  1  0.41290000  0.42449000  0.92860000  1.0
  H  H8  1  0.47001000  0.08835000  0.26536000  1.0
  H  H9  1  0.61370000  0.14497000  0.20899000  1.0
  H  H10  1  0.92477000  0.08709000  0.67861000  1.0
  H  H11  1  0.58865000  0.03009000  0.01544000  1.0
  H  H12  1  0.64520000  0.88647000  0.95892000  1.0
  H  H13  1  0.07524000  0.91292000  0.17860000  1.0
  H  H14  1  0.41134000  0.96990000  0.51543000  1.0
  H  H15  1  0.35479000  0.11353000  0.45892000  1.0
  H  H16  1  0.08708000  0.92473000  0.82141000  1.0
  H  H17  1  0.03010000  0.58866000  0.48455000  1.0
  H  H18  1  0.88648000  0.64521000  0.54108000  1.0
  H  H19  1  0.91292000  0.07524000  0.32140000  1.0
  H  H20  1  0.96989000  0.41133000  0.98456000  1.0
  H  H21  1  0.11352000  0.35479000  0.04108000  1.0
  H  H22  1  0.42449000  0.41291000  0.57138000  1.0
  H  H23  1  0.08834000  0.47002000  0.23463000  1.0
  H  H24  1  0.14496000  0.61371000  0.29100000  1.0
  H  H25  1  0.57553000  0.58710000  0.07141000  1.0
  H  H26  1  0.91165000  0.52998000  0.73464000  1.0
  H  H27  1  0.85504000  0.38629000  0.79101000  1.0
  C  C28  1  0.55100000  0.78686000  0.62924000  1.0
  C  C29  1  0.59758000  0.64595000  0.49808000  1.0
  C  C30  1  0.44900000  0.21315000  0.12925000  1.0
  C  C31  1  0.40241000  0.35406000  0.99809000  1.0
  C  C32  1  0.71330000  0.05115000  0.87916000  1.0
  C  C33  1  0.85428000  0.09759000  0.74803000  1.0
  C  C34  1  0.28668000  0.94885000  0.37916000  1.0
  C  C35  1  0.14572000  0.90242000  0.24803000  1.0
  C  C36  1  0.05117000  0.71331000  0.62083000  1.0
  C  C37  1  0.09759000  0.85427000  0.75197000  1.0
  C  C38  1  0.94884000  0.28668000  0.12084000  1.0
  C  C39  1  0.90240000  0.14572000  0.25197000  1.0
  C  C40  1  0.21313000  0.44900000  0.37075000  1.0
  C  C41  1  0.35406000  0.40243000  0.50190000  1.0
  C  C42  1  0.78687000  0.55099000  0.87077000  1.0
  C  C43  1  0.64595000  0.59758000  0.00192000  1.0
  N  N44  1  0.49500000  0.70875000  0.54808000  1.0
  N  N45  1  0.68022000  0.77115000  0.62796000  1.0
  N  N46  1  0.70948000  0.67996000  0.54323000  1.0
  N  N47  1  0.48384000  0.87394000  0.69474000  1.0
  N  N48  1  0.50500000  0.29125000  0.04808000  1.0
  N  N49  1  0.31978000  0.22884000  0.12795000  1.0
  N  N50  1  0.29051000  0.32004000  0.04324000  1.0
  N  N51  1  0.51617000  0.12605000  0.19475000  1.0
  N  N52  1  0.79144000  0.99505000  0.79809000  1.0
  N  N53  1  0.72906000  0.18036000  0.87784000  1.0
  N  N54  1  0.82029000  0.20952000  0.79314000  1.0
  N  N55  1  0.62631000  0.98399000  0.94475000  1.0
  N  N56  1  0.20856000  0.00495000  0.29806000  1.0
  N  N57  1  0.27094000  0.81963000  0.37783000  1.0
  N  N58  1  0.17973000  0.79050000  0.29314000  1.0
  N  N59  1  0.37369000  0.01600000  0.44474000  1.0
  N  N60  1  0.99505000  0.79144000  0.70192000  1.0
  N  N61  1  0.18039000  0.72906000  0.62216000  1.0
  N  N62  1  0.20952000  0.82028000  0.70686000  1.0
  N  N63  1  0.98401000  0.62630000  0.55525000  1.0
  N  N64  1  0.00495000  0.20855000  0.20193000  1.0
  N  N65  1  0.81962000  0.27093000  0.12217000  1.0
  N  N66  1  0.79048000  0.17971000  0.20686000  1.0
  N  N67  1  0.01600000  0.37369000  0.05525000  1.0
  N  N68  1  0.29126000  0.50501000  0.45191000  1.0
  N  N69  1  0.22884000  0.31978000  0.37204000  1.0
  N  N70  1  0.32003000  0.29054000  0.45676000  1.0
  N  N71  1  0.12604000  0.51617000  0.30525000  1.0
  N  N72  1  0.70875000  0.49499000  0.95192000  1.0
  N  N73  1  0.77116000  0.68020000  0.87205000  1.0
  N  N74  1  0.67997000  0.70948000  0.95678000  1.0
  N  N75  1  0.87395000  0.48383000  0.80526000  1.0
