# generated using pymatgen
data_CdH24C32N4(ClO2)2
_symmetry_space_group_name_H-M   'P 1'
_cell_length_a   9.98826000
_cell_length_b   11.25900000
_cell_length_c   13.16040000
_cell_angle_alpha   89.87020000
_cell_angle_beta   105.22100000
_cell_angle_gamma   89.87540000
_symmetry_Int_Tables_number   1
_chemical_formula_structural   CdH24C32N4(ClO2)2
_chemical_formula_sum   'Cd2 H48 C64 N8 Cl4 O8'
_cell_volume   1428.06278565
_cell_formula_units_Z   2
loop_
 _symmetry_equiv_pos_site_id
 _symmetry_equiv_pos_as_xyz
  1  'x, y, z'
loop_
 _atom_site_type_symbol
 _atom_site_label
 _atom_site_symmetry_multiplicity
 _atom_site_fract_x
 _atom_site_fract_y
 _atom_site_fract_z
 _atom_site_occupancy
  Cd  Cd0  1  0.35835000  0.32902000  0.26518000  1.0
  Cd  Cd1  1  0.64165000  0.67098000  0.73482000  1.0
  H  H2  1  0.09953000  0.64336000  0.93096000  1.0
  H  H3  1  0.90047000  0.35663000  0.06904000  1.0
  H  H4  1  0.17052000  0.50426000  0.08546000  1.0
  H  H5  1  0.82948000  0.49574000  0.91454000  1.0
  H  H6  1  0.74594000  0.17450000  0.77200000  1.0
  H  H7  1  0.25406000  0.82550000  0.22800000  1.0
  H  H8  1  0.92812000  0.11748000  0.13557000  1.0
  H  H9  1  0.07188000  0.88252000  0.86443000  1.0
  H  H10  1  0.64881000  0.36945000  0.70327000  1.0
  H  H11  1  0.35119000  0.63056000  0.29672000  1.0
  H  H12  1  0.74383000  0.00326000  0.65234000  1.0
  H  H13  1  0.25617000  0.99674000  0.34766000  1.0
  H  H14  1  0.46367000  0.11719000  0.17617000  1.0
  H  H15  1  0.53633000  0.88281000  0.82383000  1.0
  H  H16  1  0.45882000  0.97076000  0.22619000  1.0
  H  H17  1  0.54118000  0.02924000  0.77381000  1.0
  H  H18  1  0.61549000  0.02600000  0.20624000  1.0
  H  H19  1  0.38451000  0.97400000  0.79376000  1.0
  H  H20  1  0.52688000  0.74906000  0.96802000  1.0
  H  H21  1  0.47312000  0.25094000  0.03198000  1.0
  H  H22  1  0.27463000  0.76390000  0.87502000  1.0
  H  H23  1  0.72538000  0.23610000  0.12498000  1.0
  H  H24  1  0.74416000  0.66726000  0.06447000  1.0
  H  H25  1  0.25585000  0.33274000  0.93553000  1.0
  H  H26  1  0.82766000  0.56814000  0.16534000  1.0
  H  H27  1  0.17234000  0.43186000  0.83466000  1.0
  H  H28  1  0.87185000  0.34381000  0.56994000  1.0
  H  H29  1  0.12816000  0.65619000  0.43006000  1.0
  H  H30  1  0.66432000  0.40273000  0.35443000  1.0
  H  H31  1  0.33569000  0.59727000  0.64557000  1.0
  H  H32  1  0.76889000  0.52791000  0.34513000  1.0
  H  H33  1  0.23111000  0.47209000  0.65487000  1.0
  H  H34  1  0.77552000  0.39940000  0.26893000  1.0
  H  H35  1  0.22449000  0.60060000  0.73107000  1.0
  H  H36  1  0.04006000  0.95427000  0.28073000  1.0
  H  H37  1  0.95994000  0.04573000  0.71928000  1.0
  H  H38  1  0.90158000  0.01512000  0.40353000  1.0
  H  H39  1  0.09842000  0.98487000  0.59647000  1.0
  H  H40  1  0.53969000  0.40026000  0.51175000  1.0
  H  H41  1  0.46030000  0.59975000  0.48824000  1.0
  H  H42  1  0.61563000  0.73132000  0.28935000  1.0
  H  H43  1  0.38437000  0.26868000  0.71065000  1.0
  H  H44  1  0.97138000  0.77806000  0.16584000  1.0
  H  H45  1  0.02862000  0.22194000  0.83417000  1.0
  H  H46  1  0.56991000  0.85737000  0.41155000  1.0
  H  H47  1  0.43008000  0.14263000  0.58845000  1.0
  H  H48  1  0.72259000  0.88869000  0.51077000  1.0
  H  H49  1  0.27741000  0.11132000  0.48923000  1.0
  C  C50  1  0.07506000  0.47019000  0.42659000  1.0
  C  C51  1  0.92494000  0.52981000  0.57341000  1.0
  C  C52  1  0.20859000  0.63528000  0.97400000  1.0
  C  C53  1  0.79141000  0.36472000  0.02600000  1.0
  C  C54  1  0.00195000  0.38386000  0.46692000  1.0
  C  C55  1  0.99805000  0.61614000  0.53308000  1.0
  C  C56  1  0.24665000  0.55667000  0.05893000  1.0
  C  C57  1  0.75336000  0.44333000  0.94108000  1.0
  C  C58  1  0.70207000  0.18561000  0.68738000  1.0
  C  C59  1  0.29792000  0.81439000  0.31262000  1.0
  C  C60  1  0.64709000  0.10978000  0.51321000  1.0
  C  C61  1  0.35290000  0.89022000  0.48679000  1.0
  C  C62  1  0.95915000  0.06632000  0.07547000  1.0
  C  C63  1  0.04085000  0.93368000  0.92453000  1.0
  C  C64  1  0.64597000  0.29671000  0.64843000  1.0
  C  C65  1  0.35403000  0.70329000  0.35156000  1.0
  C  C66  1  0.56054000  0.09956000  0.33906000  1.0
  C  C67  1  0.43946000  0.90044000  0.66094000  1.0
  C  C68  1  0.70316000  0.08957000  0.62062000  1.0
  C  C69  1  0.29683000  0.91043000  0.37938000  1.0
  C  C70  1  0.58691000  0.22007000  0.47328000  1.0
  C  C71  1  0.41308000  0.77993000  0.52672000  1.0
  C  C72  1  0.52258000  0.05097000  0.23104000  1.0
  C  C73  1  0.47741000  0.94903000  0.76896000  1.0
  C  C74  1  0.44951000  0.69641000  0.99276000  1.0
  C  C75  1  0.55050000  0.30358000  0.00724000  1.0
  C  C76  1  0.30837000  0.70341000  0.94167000  1.0
  C  C77  1  0.69163000  0.29659000  0.05833000  1.0
  C  C78  1  0.59231000  0.50466000  0.21474000  1.0
  C  C79  1  0.40769000  0.49533000  0.78526000  1.0
  C  C80  1  0.86525000  0.98987000  0.01034000  1.0
  C  C81  1  0.13475000  0.01013000  0.98966000  1.0
  C  C82  1  0.38802000  0.54774000  0.11014000  1.0
  C  C83  1  0.61198000  0.45226000  0.88986000  1.0
  C  C84  1  0.48695000  0.61732000  0.07724000  1.0
  C  C85  1  0.51305000  0.38267000  0.92276000  1.0
  C  C86  1  0.16221000  0.43553000  0.35368000  1.0
  C  C87  1  0.83780000  0.56447000  0.64632000  1.0
  C  C88  1  0.74842000  0.63857000  0.14523000  1.0
  C  C89  1  0.25158000  0.36143000  0.85477000  1.0
  C  C90  1  0.92851000  0.41231000  0.54015000  1.0
  C  C91  1  0.07149000  0.58769000  0.45985000  1.0
  C  C92  1  0.70608000  0.45597000  0.30045000  1.0
  C  C93  1  0.29392000  0.54403000  0.69955000  1.0
  C  C94  1  0.18964000  0.16192000  0.14020000  1.0
  C  C95  1  0.81035000  0.83808000  0.85980000  1.0
  C  C96  1  0.94885000  0.90351000  0.28410000  1.0
  C  C97  1  0.05115000  0.09649000  0.71591000  1.0
  C  C98  1  0.09493000  0.07816000  0.06619000  1.0
  C  C99  1  0.90507000  0.92184000  0.93381000  1.0
  C  C100  1  0.87052000  0.93848000  0.35231000  1.0
  C  C101  1  0.12948000  0.06152000  0.64769000  1.0
  C  C102  1  0.58646000  0.31533000  0.54125000  1.0
  C  C103  1  0.41354000  0.68467000  0.45875000  1.0
  C  C104  1  0.71096000  0.77796000  0.28824000  1.0
  C  C105  1  0.28903000  0.22204000  0.71176000  1.0
  C  C106  1  0.90983000  0.80496000  0.21928000  1.0
  C  C107  1  0.09017000  0.19504000  0.78072000  1.0
  C  C108  1  0.66581000  0.90951000  0.42918000  1.0
  C  C109  1  0.33419000  0.09049000  0.57082000  1.0
  C  C110  1  0.78951000  0.74202000  0.22012000  1.0
  C  C111  1  0.21049000  0.25798000  0.77988000  1.0
  C  C112  1  0.75133000  0.87534000  0.35496000  1.0
  C  C113  1  0.24866000  0.12466000  0.64504000  1.0
  N  N114  1  0.62968000  0.03598000  0.42613000  1.0
  N  N115  1  0.37031000  0.96402000  0.57387000  1.0
  N  N116  1  0.45757000  0.47846000  0.19582000  1.0
  N  N117  1  0.54244000  0.52153000  0.80418000  1.0
  N  N118  1  0.61478000  0.58701000  0.14449000  1.0
  N  N119  1  0.38522000  0.41299000  0.85552000  1.0
  N  N120  1  0.53325000  0.21017000  0.36473000  1.0
  N  N121  1  0.46675000  0.78983000  0.63527000  1.0
  Cl  Cl122  1  0.69842000  0.98282000  0.02542000  1.0
  Cl  Cl123  1  0.30158000  0.01718000  0.97458000  1.0
  Cl  Cl124  1  0.99549000  0.23956000  0.41960000  1.0
  Cl  Cl125  1  0.00451000  0.76044000  0.58039000  1.0
  O  O126  1  0.28321000  0.39531000  0.40150000  1.0
  O  O127  1  0.71680000  0.60469000  0.59851000  1.0
  O  O128  1  0.19803000  0.15193000  0.23747000  1.0
  O  O129  1  0.80197000  0.84807000  0.76253000  1.0
  O  O130  1  0.25566000  0.24019000  0.10181000  1.0
  O  O131  1  0.74434000  0.75981000  0.89819000  1.0
  O  O132  1  0.11580000  0.44538000  0.25573000  1.0
  O  O133  1  0.88420000  0.55461000  0.74427000  1.0
