# generated using pymatgen
data_ZnH10C12N3O4
_symmetry_space_group_name_H-M   'P 1'
_cell_length_a   6.92833000
_cell_length_b   13.27622797
_cell_length_c   15.30140000
_cell_angle_alpha   67.05302058
_cell_angle_beta   89.97300000
_cell_angle_gamma   74.87794002
_symmetry_Int_Tables_number   1
_chemical_formula_structural   ZnH10C12N3O4
_chemical_formula_sum   'Zn4 H40 C48 N12 O16'
_cell_volume   1243.05704801
_cell_formula_units_Z   4
loop_
 _symmetry_equiv_pos_site_id
 _symmetry_equiv_pos_as_xyz
  1  'x, y, z'
loop_
 _atom_site_type_symbol
 _atom_site_label
 _atom_site_symmetry_multiplicity
 _atom_site_fract_x
 _atom_site_fract_y
 _atom_site_fract_z
 _atom_site_occupancy
  Zn  Zn0  1  0.65953000  0.34793000  0.76985000  1.0
  Zn  Zn1  1  0.00780000  0.65218000  0.73007000  1.0
  Zn  Zn2  1  0.34046000  0.65207000  0.23015000  1.0
  Zn  Zn3  1  0.99220000  0.34782000  0.26994000  1.0
  H  H4  1  0.10127000  0.20834000  0.87114000  1.0
  H  H5  1  0.31025000  0.79181000  0.62892000  1.0
  H  H6  1  0.89872000  0.79167000  0.12886000  1.0
  H  H7  1  0.68976000  0.20819000  0.37108000  1.0
  H  H8  1  0.85478000  0.45589000  0.03490000  1.0
  H  H9  1  0.31078000  0.54372000  0.46510000  1.0
  H  H10  1  0.14524000  0.54410000  0.96510000  1.0
  H  H11  1  0.68921000  0.45628000  0.53491000  1.0
  H  H12  1  0.61898000  0.36798000  0.14411000  1.0
  H  H13  1  0.98716000  0.63167000  0.35593000  1.0
  H  H14  1  0.38102000  0.63202000  0.85589000  1.0
  H  H15  1  0.01285000  0.36833000  0.64408000  1.0
  H  H16  1  0.38742000  0.28462000  0.08645000  1.0
  H  H17  1  0.67242000  0.71531000  0.41361000  1.0
  H  H18  1  0.61257000  0.71538000  0.91354000  1.0
  H  H19  1  0.32758000  0.28470000  0.58639000  1.0
  H  H20  1  0.63623000  0.25287000  0.62023000  1.0
  H  H21  1  0.88957000  0.74691000  0.88001000  1.0
  H  H22  1  0.36377000  0.74712000  0.37978000  1.0
  H  H23  1  0.11044000  0.25308000  0.11999000  1.0
  H  H24  1  0.57292000  0.13201000  0.70271000  1.0
  H  H25  1  0.70553000  0.86789000  0.79762000  1.0
  H  H26  1  0.42706000  0.86799000  0.29729000  1.0
  H  H27  1  0.29447000  0.13212000  0.20238000  1.0
  H  H28  1  0.74018000  0.11804000  0.61726000  1.0
  H  H29  1  0.85892000  0.88171000  0.88307000  1.0
  H  H30  1  0.25981000  0.88196000  0.38274000  1.0
  H  H31  1  0.14108000  0.11829000  0.11694000  1.0
  H  H32  1  0.36338000  0.00835000  0.95435000  1.0
  H  H33  1  0.37142000  0.99218000  0.54553000  1.0
  H  H34  1  0.63662000  0.99166000  0.04564000  1.0
  H  H35  1  0.62858000  0.00782000  0.45447000  1.0
  H  H36  1  0.48295000  0.03412000  0.84879000  1.0
  H  H37  1  0.51735000  0.96607000  0.65095000  1.0
  H  H38  1  0.51705000  0.96588000  0.15120000  1.0
  H  H39  1  0.48266000  0.03393000  0.34905000  1.0
  H  H40  1  0.38964000  0.91295000  0.89643000  1.0
  H  H41  1  0.30290000  0.08722000  0.60379000  1.0
  H  H42  1  0.61035000  0.08706000  0.10357000  1.0
  H  H43  1  0.69710000  0.91279000  0.39621000  1.0
  C  C44  1  0.75940000  0.41228000  0.92306000  1.0
  C  C45  1  0.17192000  0.58774000  0.57681000  1.0
  C  C46  1  0.24059000  0.58771000  0.07694000  1.0
  C  C47  1  0.82808000  0.41226000  0.42319000  1.0
  C  C48  1  0.75804000  0.41499000  0.01321000  1.0
  C  C49  1  0.17323000  0.58482000  0.48673000  1.0
  C  C50  1  0.24196000  0.58500000  0.98679000  1.0
  C  C51  1  0.82678000  0.41518000  0.51328000  1.0
  C  C52  1  0.62672000  0.36549000  0.07378000  1.0
  C  C53  1  0.99247000  0.63429000  0.42620000  1.0
  C  C54  1  0.37327000  0.63451000  0.92621000  1.0
  C  C55  1  0.00754000  0.36570000  0.57380000  1.0
  C  C56  1  0.49784000  0.31810000  0.04242000  1.0
  C  C57  1  0.81631000  0.68188000  0.45755000  1.0
  C  C58  1  0.50215000  0.68190000  0.95758000  1.0
  C  C59  1  0.18369000  0.31813000  0.54245000  1.0
  C  C60  1  0.50982000  0.31679000  0.95177000  1.0
  C  C61  1  0.82703000  0.68334000  0.54815000  1.0
  C  C62  1  0.49017000  0.68321000  0.04822000  1.0
  C  C63  1  0.17298000  0.31666000  0.45185000  1.0
  C  C64  1  0.37816000  0.27221000  0.90424000  1.0
  C  C65  1  0.65086000  0.72809000  0.59569000  1.0
  C  C66  1  0.62183000  0.72778000  0.09577000  1.0
  C  C67  1  0.34915000  0.27190000  0.40431000  1.0
  C  C68  1  0.87214000  0.47142000  0.84328000  1.0
  C  C69  1  0.34363000  0.52872000  0.65651000  1.0
  C  C70  1  0.12787000  0.52857000  0.15671000  1.0
  C  C71  1  0.65637000  0.47128000  0.34349000  1.0
  C  C72  1  0.69581000  0.16155000  0.66499000  1.0
  C  C73  1  0.85805000  0.83825000  0.83528000  1.0
  C  C74  1  0.30419000  0.83844000  0.33501000  1.0
  C  C75  1  0.14195000  0.16175000  0.16472000  1.0
  C  C76  1  0.86977000  0.13985000  0.73293000  1.0
  C  C77  1  0.01030000  0.85996000  0.76732000  1.0
  C  C78  1  0.13023000  0.86015000  0.26707000  1.0
  C  C79  1  0.98971000  0.14004000  0.23268000  1.0
  C  C80  1  0.04829000  0.04852000  0.76370000  1.0
  C  C81  1  0.09713000  0.95144000  0.73648000  1.0
  C  C82  1  0.95169000  0.95148000  0.23630000  1.0
  C  C83  1  0.90288000  0.04856000  0.26353000  1.0
  C  C84  1  0.16124000  0.06963000  0.82752000  1.0
  C  C85  1  0.23127000  0.93044000  0.67259000  1.0
  C  C86  1  0.83876000  0.93038000  0.17248000  1.0
  C  C87  1  0.76873000  0.06956000  0.32742000  1.0
  C  C88  1  0.35998000  0.00270000  0.88477000  1.0
  C  C89  1  0.36282000  0.99756000  0.61522000  1.0
  C  C90  1  0.64001000  0.99731000  0.11523000  1.0
  C  C91  1  0.63719000  0.00244000  0.38479000  1.0
  N  N92  1  0.64218000  0.36094000  0.89673000  1.0
  N  N93  1  0.00343000  0.63923000  0.60313000  1.0
  N  N94  1  0.35782000  0.63906000  0.10326000  1.0
  N  N95  1  0.99657000  0.36077000  0.39688000  1.0
  N  N96  1  0.87563000  0.21175000  0.77462000  1.0
  N  N97  1  0.08805000  0.78817000  0.72553000  1.0
  N  N98  1  0.12436000  0.78825000  0.22537000  1.0
  N  N99  1  0.91197000  0.21183000  0.27447000  1.0
  N  N100  1  0.05259000  0.16748000  0.83209000  1.0
  N  N101  1  0.22066000  0.83257000  0.66803000  1.0
  N  N102  1  0.94740000  0.83253000  0.16791000  1.0
  N  N103  1  0.77935000  0.16743000  0.33198000  1.0
  O  O104  1  0.42811000  0.26777000  0.82518000  1.0
  O  O105  1  0.69642000  0.73255000  0.67471000  1.0
  O  O106  1  0.57188000  0.73222000  0.17482000  1.0
  O  O107  1  0.30358000  0.26746000  0.32529000  1.0
  O  O108  1  0.23006000  0.24456000  0.94489000  1.0
  O  O109  1  0.47512000  0.75585000  0.55505000  1.0
  O  O110  1  0.76992000  0.75544000  0.05511000  1.0
  O  O111  1  0.52489000  0.24417000  0.44494000  1.0
  O  O112  1  0.87185000  0.45116000  0.76943000  1.0
  O  O113  1  0.32308000  0.54911000  0.73031000  1.0
  O  O114  1  0.12816000  0.54883000  0.23057000  1.0
  O  O115  1  0.67693000  0.45090000  0.26969000  1.0
  O  O116  1  0.95054000  0.54416000  0.85405000  1.0
  O  O117  1  0.49480000  0.45598000  0.64574000  1.0
  O  O118  1  0.04947000  0.45583000  0.14594000  1.0
  O  O119  1  0.50521000  0.54401000  0.35426000  1.0
