# generated using pymatgen
data_CdH23C33S(N3O2)2
_symmetry_space_group_name_H-M   'P 1'
_cell_length_a   9.37895000
_cell_length_b   10.87880000
_cell_length_c   36.25970000
_cell_angle_alpha   90.00040000
_cell_angle_beta   90.00050000
_cell_angle_gamma   101.10800000
_symmetry_Int_Tables_number   1
_chemical_formula_structural   CdH23C33S(N3O2)2
_chemical_formula_sum   'Cd4 H92 C132 S4 N24 O16'
_cell_volume   3630.32971601
_cell_formula_units_Z   4
loop_
 _symmetry_equiv_pos_site_id
 _symmetry_equiv_pos_as_xyz
  1  'x, y, z'
loop_
 _atom_site_type_symbol
 _atom_site_label
 _atom_site_symmetry_multiplicity
 _atom_site_fract_x
 _atom_site_fract_y
 _atom_site_fract_z
 _atom_site_occupancy
  Cd  Cd0  1  0.26001000  0.84986000  0.63277000  1.0
  Cd  Cd1  1  0.23999000  0.15014000  0.13277000  1.0
  Cd  Cd2  1  0.74000000  0.15014000  0.36723000  1.0
  Cd  Cd3  1  0.76000000  0.84986000  0.86724000  1.0
  H  H4  1  0.54983000  0.51958000  0.58109000  1.0
  H  H5  1  0.54079000  0.27208000  0.58105000  1.0
  H  H6  1  0.33491000  0.74149000  0.71891000  1.0
  H  H7  1  0.55996000  0.86200000  0.76414000  1.0
  H  H8  1  0.55588000  0.06108000  0.66338000  1.0
  H  H9  1  0.66696000  0.04322000  0.78840000  1.0
  H  H10  1  0.86402000  0.20662000  0.80989000  1.0
  H  H11  1  0.98880000  0.30372000  0.69739000  1.0
  H  H12  1  0.79449000  0.13537000  0.67554000  1.0
  H  H13  1  0.54265000  0.62214000  0.81350000  1.0
  H  H14  1  0.45611000  0.97500000  0.84236000  1.0
  H  H15  1  0.19743000  0.82188000  0.81747000  1.0
  H  H16  1  0.09217000  0.58713000  0.84096000  1.0
  H  H17  1  0.92035000  0.40408000  0.81757000  1.0
  H  H18  1  0.19901000  0.38506000  0.72382000  1.0
  H  H19  1  0.37340000  0.56615000  0.74805000  1.0
  H  H20  1  0.19545000  0.68137000  0.54910000  1.0
  H  H21  1  0.95939000  0.70196000  0.50365000  1.0
  H  H22  1  0.98618000  0.95869000  0.59236000  1.0
  H  H23  1  0.71219000  0.88130000  0.58546000  1.0
  H  H24  1  0.50318000  0.96549000  0.56455000  1.0
  H  H25  1  0.66229000  0.97017000  0.45232000  1.0
  H  H26  1  0.87657000  0.89340000  0.47418000  1.0
  H  H27  1  0.95015000  0.48041000  0.08109000  1.0
  H  H28  1  0.95919000  0.72792000  0.08105000  1.0
  H  H29  1  0.16509000  0.25850000  0.21891000  1.0
  H  H30  1  0.94005000  0.13798000  0.26414000  1.0
  H  H31  1  0.94412000  0.93891000  0.16337000  1.0
  H  H32  1  0.83304000  0.95678000  0.28840000  1.0
  H  H33  1  0.63598000  0.79338000  0.30989000  1.0
  H  H34  1  0.51119000  0.69626000  0.19739000  1.0
  H  H35  1  0.70551000  0.86460000  0.17553000  1.0
  H  H36  1  0.95734000  0.37786000  0.31350000  1.0
  H  H37  1  0.04390000  0.02500000  0.34235000  1.0
  H  H38  1  0.30256000  0.17812000  0.31746000  1.0
  H  H39  1  0.40782000  0.41287000  0.34095000  1.0
  H  H40  1  0.57964000  0.59593000  0.31757000  1.0
  H  H41  1  0.30098000  0.61495000  0.22382000  1.0
  H  H42  1  0.12659000  0.43385000  0.24804000  1.0
  H  H43  1  0.30453000  0.31861000  0.04910000  1.0
  H  H44  1  0.54059000  0.29804000  0.00365000  1.0
  H  H45  1  0.51382000  0.04132000  0.09236000  1.0
  H  H46  1  0.78781000  0.11870000  0.08546000  1.0
  H  H47  1  0.99682000  0.03452000  0.06455000  1.0
  H  H48  1  0.83772000  0.02986000  0.95232000  1.0
  H  H49  1  0.62344000  0.10662000  0.97418000  1.0
  H  H50  1  0.45017000  0.48041000  0.41890000  1.0
  H  H51  1  0.45921000  0.72792000  0.41894000  1.0
  H  H52  1  0.66513000  0.25848000  0.28109000  1.0
  H  H53  1  0.44008000  0.13798000  0.23586000  1.0
  H  H54  1  0.44413000  0.93892000  0.33663000  1.0
  H  H55  1  0.33305000  0.95678000  0.21160000  1.0
  H  H56  1  0.13597000  0.79339000  0.19011000  1.0
  H  H57  1  0.01121000  0.69626000  0.30261000  1.0
  H  H58  1  0.20553000  0.86461000  0.32447000  1.0
  H  H59  1  0.45736000  0.37787000  0.18650000  1.0
  H  H60  1  0.54390000  0.02500000  0.15765000  1.0
  H  H61  1  0.80257000  0.17811000  0.18254000  1.0
  H  H62  1  0.90784000  0.41287000  0.15905000  1.0
  H  H63  1  0.07965000  0.59593000  0.18244000  1.0
  H  H64  1  0.80099000  0.61493000  0.27619000  1.0
  H  H65  1  0.62660000  0.43384000  0.25196000  1.0
  H  H66  1  0.80455000  0.31864000  0.45090000  1.0
  H  H67  1  0.04062000  0.29806000  0.49635000  1.0
  H  H68  1  0.01381000  0.04131000  0.40764000  1.0
  H  H69  1  0.28781000  0.11870000  0.41454000  1.0
  H  H70  1  0.49682000  0.03450000  0.43544000  1.0
  H  H71  1  0.33770000  0.02983000  0.54767000  1.0
  H  H72  1  0.12343000  0.10661000  0.52582000  1.0
  H  H73  1  0.04986000  0.51959000  0.91891000  1.0
  H  H74  1  0.04080000  0.27208000  0.91895000  1.0
  H  H75  1  0.83490000  0.74151000  0.78109000  1.0
  H  H76  1  0.05995000  0.86202000  0.73587000  1.0
  H  H77  1  0.05588000  0.06111000  0.83663000  1.0
  H  H78  1  0.16694000  0.04322000  0.71161000  1.0
  H  H79  1  0.36401000  0.20661000  0.69011000  1.0
  H  H80  1  0.48880000  0.30375000  0.80261000  1.0
  H  H81  1  0.29448000  0.13541000  0.82447000  1.0
  H  H82  1  0.04267000  0.62214000  0.68650000  1.0
  H  H83  1  0.95612000  0.97500000  0.65765000  1.0
  H  H84  1  0.69745000  0.82188000  0.68254000  1.0
  H  H85  1  0.59217000  0.58713000  0.65905000  1.0
  H  H86  1  0.42035000  0.40408000  0.68244000  1.0
  H  H87  1  0.69902000  0.38506000  0.77618000  1.0
  H  H88  1  0.87341000  0.56615000  0.75196000  1.0
  H  H89  1  0.69544000  0.68135000  0.95090000  1.0
  H  H90  1  0.45936000  0.70192000  0.99635000  1.0
  H  H91  1  0.48619000  0.95869000  0.90764000  1.0
  H  H92  1  0.21218000  0.88130000  0.91454000  1.0
  H  H93  1  0.00318000  0.96551000  0.93544000  1.0
  H  H94  1  0.16229000  0.97016000  0.04768000  1.0
  H  H95  1  0.37656000  0.89337000  0.02582000  1.0
  C  C96  1  0.32358000  0.60982000  0.62132000  1.0
  C  C97  1  0.34943000  0.48244000  0.61245000  1.0
  C  C98  1  0.46505000  0.44953000  0.59362000  1.0
  C  C99  1  0.46035000  0.31886000  0.59365000  1.0
  C  C100  1  0.33988000  0.25295000  0.61202000  1.0
  C  C101  1  0.30067000  0.11651000  0.61949000  1.0
  C  C102  1  0.41496000  0.82621000  0.71436000  1.0
  C  C103  1  0.52468000  0.88476000  0.73699000  1.0
  C  C104  1  0.52744000  0.98948000  0.68432000  1.0
  C  C105  1  0.71542000  0.07966000  0.73032000  1.0
  C  C106  1  0.73768000  0.09858000  0.76816000  1.0
  C  C107  1  0.84988000  0.19251000  0.78029000  1.0
  C  C108  1  0.94058000  0.27051000  0.75544000  1.0
  C  C109  1  0.91995000  0.24624000  0.71757000  1.0
  C  C110  1  0.80897000  0.15177000  0.70505000  1.0
  C  C111  1  0.48686000  0.69993000  0.81682000  1.0
  C  C112  1  0.43421000  0.87906000  0.83263000  1.0
  C  C113  1  0.30719000  0.80589000  0.82037000  1.0
  C  C114  1  0.24333000  0.58736000  0.79595000  1.0
  C  C115  1  0.11557000  0.54210000  0.81540000  1.0
  C  C116  1  0.01972000  0.43809000  0.80210000  1.0
  C  C117  1  0.04729000  0.37872000  0.76908000  1.0
  C  C118  1  0.17473000  0.42817000  0.74956000  1.0
  C  C119  1  0.27322000  0.53074000  0.76302000  1.0
  C  C120  1  0.11596000  0.74137000  0.55124000  1.0
  C  C121  1  0.00133000  0.75108000  0.52851000  1.0
  C  C122  1  0.01035000  0.88393000  0.57515000  1.0
  C  C123  1  0.80912000  0.88438000  0.53123000  1.0
  C  C124  1  0.70295000  0.90437000  0.55638000  1.0
  C  C125  1  0.58280000  0.95021000  0.54409000  1.0
  C  C126  1  0.56419000  0.97559000  0.50650000  1.0
  C  C127  1  0.67158000  0.95239000  0.48167000  1.0
  C  C128  1  0.79300000  0.90792000  0.49375000  1.0
  C  C129  1  0.17640000  0.39017000  0.12132000  1.0
  C  C130  1  0.15055000  0.51755000  0.11245000  1.0
  C  C131  1  0.03493000  0.55046000  0.09361000  1.0
  C  C132  1  0.03964000  0.68114000  0.09365000  1.0
  C  C133  1  0.16010000  0.74704000  0.11202000  1.0
  C  C134  1  0.19931000  0.88348000  0.11949000  1.0
  C  C135  1  0.08504000  0.17377000  0.21436000  1.0
  C  C136  1  0.97533000  0.11522000  0.23699000  1.0
  C  C137  1  0.97255000  0.01051000  0.18432000  1.0
  C  C138  1  0.78459000  0.92033000  0.23032000  1.0
  C  C139  1  0.76233000  0.90141000  0.26816000  1.0
  C  C140  1  0.65012000  0.80749000  0.28029000  1.0
  C  C141  1  0.55942000  0.72948000  0.25544000  1.0
  C  C142  1  0.58005000  0.75375000  0.21757000  1.0
  C  C143  1  0.69103000  0.84821000  0.20505000  1.0
  C  C144  1  0.01314000  0.30006000  0.31682000  1.0
  C  C145  1  0.06579000  0.12094000  0.33262000  1.0
  C  C146  1  0.19280000  0.19411000  0.32036000  1.0
  C  C147  1  0.25666000  0.41265000  0.29594000  1.0
  C  C148  1  0.38442000  0.45791000  0.31540000  1.0
  C  C149  1  0.48028000  0.56191000  0.30210000  1.0
  C  C150  1  0.45270000  0.62128000  0.26908000  1.0
  C  C151  1  0.32525000  0.57183000  0.24956000  1.0
  C  C152  1  0.22676000  0.46927000  0.26302000  1.0
  C  C153  1  0.38403000  0.25863000  0.05124000  1.0
  C  C154  1  0.49866000  0.24891000  0.02851000  1.0
  C  C155  1  0.48964000  0.11607000  0.07515000  1.0
  C  C156  1  0.69088000  0.11563000  0.03123000  1.0
  C  C157  1  0.79705000  0.09564000  0.05638000  1.0
  C  C158  1  0.91721000  0.04980000  0.04409000  1.0
  C  C159  1  0.93582000  0.02443000  0.00650000  1.0
  C  C160  1  0.82843000  0.04764000  0.98167000  1.0
  C  C161  1  0.70700000  0.09209000  0.99375000  1.0
  C  C162  1  0.67642000  0.39020000  0.37866000  1.0
  C  C163  1  0.65057000  0.51757000  0.38754000  1.0
  C  C164  1  0.53495000  0.55047000  0.40637000  1.0
  C  C165  1  0.53965000  0.68114000  0.40634000  1.0
  C  C166  1  0.66012000  0.74705000  0.38797000  1.0
  C  C167  1  0.69932000  0.88350000  0.38051000  1.0
  C  C168  1  0.58507000  0.17376000  0.28564000  1.0
  C  C169  1  0.47535000  0.11521000  0.26301000  1.0
  C  C170  1  0.47257000  0.01050000  0.31568000  1.0
  C  C171  1  0.28459000  0.92034000  0.26968000  1.0
  C  C172  1  0.26233000  0.90142000  0.23184000  1.0
  C  C173  1  0.15012000  0.80750000  0.21972000  1.0
  C  C174  1  0.05942000  0.72949000  0.24456000  1.0
  C  C175  1  0.08006000  0.75375000  0.28244000  1.0
  C  C176  1  0.19104000  0.84822000  0.29496000  1.0
  C  C177  1  0.51315000  0.30006000  0.18318000  1.0
  C  C178  1  0.56579000  0.12094000  0.16738000  1.0
  C  C179  1  0.69281000  0.19410000  0.17964000  1.0
  C  C180  1  0.75667000  0.41264000  0.20406000  1.0
  C  C181  1  0.88443000  0.45790000  0.18460000  1.0
  C  C182  1  0.98028000  0.56191000  0.19791000  1.0
  C  C183  1  0.95270000  0.62128000  0.23093000  1.0
  C  C184  1  0.82526000  0.57182000  0.25044000  1.0
  C  C185  1  0.72678000  0.46926000  0.23699000  1.0
  C  C186  1  0.88405000  0.25865000  0.44875000  1.0
  C  C187  1  0.99869000  0.24894000  0.47149000  1.0
  C  C188  1  0.98964000  0.11607000  0.42485000  1.0
  C  C189  1  0.19088000  0.11563000  0.46877000  1.0
  C  C190  1  0.29705000  0.09564000  0.44361000  1.0
  C  C191  1  0.41721000  0.04979000  0.45591000  1.0
  C  C192  1  0.43582000  0.02441000  0.49350000  1.0
  C  C193  1  0.32843000  0.04762000  0.51833000  1.0
  C  C194  1  0.20700000  0.09208000  0.50625000  1.0
  C  C195  1  0.82360000  0.60982000  0.87867000  1.0
  C  C196  1  0.84945000  0.48245000  0.88755000  1.0
  C  C197  1  0.96507000  0.44954000  0.90638000  1.0
  C  C198  1  0.96036000  0.31886000  0.90635000  1.0
  C  C199  1  0.83988000  0.25296000  0.88799000  1.0
  C  C200  1  0.80064000  0.11652000  0.88052000  1.0
  C  C201  1  0.91495000  0.82624000  0.78565000  1.0
  C  C202  1  0.02466000  0.88479000  0.76301000  1.0
  C  C203  1  0.02744000  0.98951000  0.81568000  1.0
  C  C204  1  0.21541000  0.07968000  0.76968000  1.0
  C  C205  1  0.23766000  0.09859000  0.73184000  1.0
  C  C206  1  0.34987000  0.19250000  0.71972000  1.0
  C  C207  1  0.44058000  0.27051000  0.74456000  1.0
  C  C208  1  0.41994000  0.24626000  0.78244000  1.0
  C  C209  1  0.30897000  0.15179000  0.79496000  1.0
  C  C210  1  0.98687000  0.69993000  0.68318000  1.0
  C  C211  1  0.93423000  0.87906000  0.66738000  1.0
  C  C212  1  0.80721000  0.80589000  0.67964000  1.0
  C  C213  1  0.74335000  0.58735000  0.70406000  1.0
  C  C214  1  0.61558000  0.54209000  0.68460000  1.0
  C  C215  1  0.51973000  0.43809000  0.69791000  1.0
  C  C216  1  0.54731000  0.37872000  0.73092000  1.0
  C  C217  1  0.67475000  0.42818000  0.75044000  1.0
  C  C218  1  0.77324000  0.53073000  0.73698000  1.0
  C  C219  1  0.61595000  0.74134000  0.94876000  1.0
  C  C220  1  0.50130000  0.75105000  0.97149000  1.0
  C  C221  1  0.51036000  0.88392000  0.92485000  1.0
  C  C222  1  0.30911000  0.88436000  0.96877000  1.0
  C  C223  1  0.20295000  0.90437000  0.94362000  1.0
  C  C224  1  0.08280000  0.95022000  0.95591000  1.0
  C  C225  1  0.06418000  0.97560000  0.99350000  1.0
  C  C226  1  0.17158000  0.95238000  0.01833000  1.0
  C  C227  1  0.29300000  0.90791000  0.00625000  1.0
  S  S228  1  0.23259000  0.35210000  0.62907000  1.0
  S  S229  1  0.26738000  0.64789000  0.12907000  1.0
  S  S230  1  0.76741000  0.64790000  0.37092000  1.0
  S  S231  1  0.73260000  0.35212000  0.87093000  1.0
  N  N232  1  0.41817000  0.89236000  0.68183000  1.0
  N  N233  1  0.59601000  0.98871000  0.71763000  1.0
  N  N234  1  0.54481000  0.81168000  0.83057000  1.0
  N  N235  1  0.34239000  0.69279000  0.80997000  1.0
  N  N236  1  0.12016000  0.82484000  0.58004000  1.0
  N  N237  1  0.93437000  0.84162000  0.54417000  1.0
  N  N238  1  0.08182000  0.10763000  0.18183000  1.0
  N  N239  1  0.90399000  0.01127000  0.21762000  1.0
  N  N240  1  0.95519000  0.18831000  0.33056000  1.0
  N  N241  1  0.15761000  0.30721000  0.30997000  1.0
  N  N242  1  0.37983000  0.17516000  0.08004000  1.0
  N  N243  1  0.56562000  0.15838000  0.04417000  1.0
  N  N244  1  0.58184000  0.10762000  0.31817000  1.0
  N  N245  1  0.40401000  0.01128000  0.28238000  1.0
  N  N246  1  0.45519000  0.18831000  0.16943000  1.0
  N  N247  1  0.65762000  0.30720000  0.19003000  1.0
  N  N248  1  0.87984000  0.17517000  0.41995000  1.0
  N  N249  1  0.06563000  0.15839000  0.45583000  1.0
  N  N250  1  0.91817000  0.89239000  0.81818000  1.0
  N  N251  1  0.09600000  0.98873000  0.78238000  1.0
  N  N252  1  0.04483000  0.81168000  0.66944000  1.0
  N  N253  1  0.84240000  0.69279000  0.69004000  1.0
  N  N254  1  0.62016000  0.82483000  0.91996000  1.0
  N  N255  1  0.43436000  0.84160000  0.95583000  1.0
  O  O256  1  0.39928000  0.70354000  0.60477000  1.0
  O  O257  1  0.22672000  0.61781000  0.64547000  1.0
  O  O258  1  0.17958000  0.07396000  0.63489000  1.0
  O  O259  1  0.39386000  0.04936000  0.61065000  1.0
  O  O260  1  0.10070000  0.29645000  0.10477000  1.0
  O  O261  1  0.27326000  0.38217000  0.14546000  1.0
  O  O262  1  0.32040000  0.92603000  0.13490000  1.0
  O  O263  1  0.10614000  0.95063000  0.11065000  1.0
  O  O264  1  0.60072000  0.29648000  0.39521000  1.0
  O  O265  1  0.77331000  0.38221000  0.35452000  1.0
  O  O266  1  0.82041000  0.92606000  0.36510000  1.0
  O  O267  1  0.60614000  0.95064000  0.38935000  1.0
  O  O268  1  0.89931000  0.70354000  0.89523000  1.0
  O  O269  1  0.72673000  0.61782000  0.85453000  1.0
  O  O270  1  0.67955000  0.07397000  0.86511000  1.0
  O  O271  1  0.89382000  0.04936000  0.88936000  1.0
