# generated using pymatgen
data_YH8C7NO8
_symmetry_space_group_name_H-M   'P 1'
_cell_length_a   7.43198000
_cell_length_b   9.15126000
_cell_length_c   15.64770000
_cell_angle_alpha   103.44900000
_cell_angle_beta   89.99910000
_cell_angle_gamma   89.99780000
_symmetry_Int_Tables_number   1
_chemical_formula_structural   YH8C7NO8
_chemical_formula_sum   'Y4 H32 C28 N4 O32'
_cell_volume   1035.04701991
_cell_formula_units_Z   4
loop_
 _symmetry_equiv_pos_site_id
 _symmetry_equiv_pos_as_xyz
  1  'x, y, z'
loop_
 _atom_site_type_symbol
 _atom_site_label
 _atom_site_symmetry_multiplicity
 _atom_site_fract_x
 _atom_site_fract_y
 _atom_site_fract_z
 _atom_site_occupancy
  Y  Y0  1  0.68362000  0.99148000  0.74894000  1.0
  Y  Y1  1  0.18362000  0.50853000  0.75106000  1.0
  Y  Y2  1  0.31637000  0.00852000  0.25106000  1.0
  Y  Y3  1  0.81637000  0.49146000  0.24893000  1.0
  H  H4  1  0.02148000  0.82698000  0.69799000  1.0
  H  H5  1  0.52146000  0.67304000  0.80201000  1.0
  H  H6  1  0.97852000  0.17301000  0.30201000  1.0
  H  H7  1  0.47853000  0.32695000  0.19799000  1.0
  H  H8  1  0.99903000  0.83902000  0.79600000  1.0
  H  H9  1  0.49903000  0.66102000  0.70400000  1.0
  H  H10  1  0.00098000  0.16099000  0.20399000  1.0
  H  H11  1  0.50098000  0.33898000  0.29600000  1.0
  H  H12  1  0.42926000  0.15135000  0.89759000  1.0
  H  H13  1  0.92927000  0.34866000  0.60241000  1.0
  H  H14  1  0.57074000  0.84866000  0.10241000  1.0
  H  H15  1  0.07073000  0.65134000  0.39759000  1.0
  H  H16  1  0.38431000  0.18706000  0.80254000  1.0
  H  H17  1  0.88432000  0.31297000  0.69747000  1.0
  H  H18  1  0.61568000  0.81295000  0.19747000  1.0
  H  H19  1  0.11568000  0.68702000  0.30252000  1.0
  H  H20  1  0.80004000  0.01968000  0.56142000  1.0
  H  H21  1  0.30004000  0.48033000  0.93859000  1.0
  H  H22  1  0.19994000  0.98032000  0.43859000  1.0
  H  H23  1  0.69995000  0.51967000  0.06141000  1.0
  H  H24  1  0.94100000  0.89667000  0.57176000  1.0
  H  H25  1  0.44100000  0.60333000  0.92824000  1.0
  H  H26  1  0.05898000  0.10334000  0.42824000  1.0
  H  H27  1  0.55900000  0.39667000  0.07177000  1.0
  H  H28  1  0.01521000  0.38561000  0.01784000  1.0
  H  H29  1  0.51520000  0.11437000  0.48216000  1.0
  H  H30  1  0.98480000  0.61438000  0.98216000  1.0
  H  H31  1  0.48481000  0.88560000  0.51784000  1.0
  H  H32  1  0.76178000  0.02049000  0.10422000  1.0
  H  H33  1  0.26176000  0.47950000  0.39578000  1.0
  H  H34  1  0.23823000  0.97951000  0.89578000  1.0
  H  H35  1  0.73824000  0.52050000  0.60422000  1.0
  C  C36  1  0.92113000  0.27982000  0.84231000  1.0
  C  C37  1  0.42114000  0.22020000  0.65768000  1.0
  C  C38  1  0.07887000  0.72018000  0.15769000  1.0
  C  C39  1  0.57886000  0.77979000  0.34232000  1.0
  C  C40  1  0.88755000  0.21171000  0.91940000  1.0
  C  C41  1  0.38756000  0.28832000  0.58059000  1.0
  C  C42  1  0.11245000  0.78830000  0.08060000  1.0
  C  C43  1  0.61246000  0.71167000  0.41941000  1.0
  C  C44  1  0.94057000  0.28055000  0.00395000  1.0
  C  C45  1  0.44057000  0.21944000  0.49605000  1.0
  C  C46  1  0.05944000  0.71945000  0.99605000  1.0
  C  C47  1  0.55944000  0.78054000  0.50394000  1.0
  C  C48  1  0.89016000  0.21527000  0.07385000  1.0
  C  C49  1  0.39016000  0.28473000  0.42615000  1.0
  C  C50  1  0.10984000  0.78473000  0.92615000  1.0
  C  C51  1  0.60985000  0.71527000  0.57385000  1.0
  C  C52  1  0.79971000  0.07518000  0.05211000  1.0
  C  C53  1  0.29972000  0.42482000  0.44789000  1.0
  C  C54  1  0.20028000  0.92482000  0.94789000  1.0
  C  C55  1  0.70029000  0.57518000  0.55211000  1.0
  C  C56  1  0.75550000  0.01308000  0.96506000  1.0
  C  C57  1  0.25552000  0.48692000  0.53494000  1.0
  C  C58  1  0.24450000  0.98692000  0.03494000  1.0
  C  C59  1  0.74450000  0.51308000  0.46506000  1.0
  C  C60  1  0.65268000  0.86717000  0.93378000  1.0
  C  C61  1  0.15271000  0.63282000  0.56621000  1.0
  C  C62  1  0.34732000  0.13284000  0.06622000  1.0
  C  C63  1  0.84730000  0.36718000  0.43379000  1.0
  N  N64  1  0.79554000  0.08163000  0.89997000  1.0
  N  N65  1  0.29557000  0.41839000  0.60003000  1.0
  N  N66  1  0.20446000  0.91838000  0.10003000  1.0
  N  N67  1  0.70445000  0.58160000  0.39996000  1.0
  O  O68  1  0.83158000  0.22275000  0.77244000  1.0
  O  O69  1  0.33158000  0.27725000  0.72756000  1.0
  O  O70  1  0.16843000  0.77724000  0.22756000  1.0
  O  O71  1  0.66840000  0.72276000  0.27244000  1.0
  O  O72  1  0.03090000  0.38755000  0.84975000  1.0
  O  O73  1  0.53090000  0.11246000  0.65025000  1.0
  O  O74  1  0.96909000  0.61246000  0.15025000  1.0
  O  O75  1  0.46911000  0.88753000  0.34974000  1.0
  O  O76  1  0.92630000  0.28238000  0.15585000  1.0
  O  O77  1  0.42630000  0.21762000  0.34416000  1.0
  O  O78  1  0.07368000  0.71763000  0.84415000  1.0
  O  O79  1  0.57370000  0.78238000  0.65584000  1.0
  O  O80  1  0.62208000  0.83252000  0.85060000  1.0
  O  O81  1  0.12207000  0.66750000  0.64940000  1.0
  O  O82  1  0.37791000  0.16748000  0.14940000  1.0
  O  O83  1  0.87792000  0.33248000  0.35061000  1.0
  O  O84  1  0.60160000  0.78965000  0.98631000  1.0
  O  O85  1  0.10158000  0.71037000  0.51371000  1.0
  O  O86  1  0.39842000  0.21034000  0.01370000  1.0
  O  O87  1  0.89842000  0.28963000  0.48629000  1.0
  O  O88  1  0.96505000  0.89554000  0.75030000  1.0
  O  O89  1  0.46503000  0.60449000  0.74969000  1.0
  O  O90  1  0.03495000  0.10446000  0.24969000  1.0
  O  O91  1  0.53496000  0.39551000  0.25031000  1.0
  O  O92  1  0.44088000  0.11331000  0.83291000  1.0
  O  O93  1  0.94089000  0.38671000  0.66709000  1.0
  O  O94  1  0.55912000  0.88670000  0.16709000  1.0
  O  O95  1  0.05911000  0.61328000  0.33291000  1.0
  O  O96  1  0.87027000  0.98298000  0.60459000  1.0
  O  O97  1  0.37027000  0.51703000  0.89541000  1.0
  O  O98  1  0.12973000  0.01702000  0.39541000  1.0
  O  O99  1  0.62972000  0.48298000  0.10459000  1.0
