# generated using pymatgen
data_ZnH10C14N4O3
_symmetry_space_group_name_H-M   'P 1'
_cell_length_a   5.46841000
_cell_length_b   7.96203000
_cell_length_c   28.51820000
_cell_angle_alpha   90.00040000
_cell_angle_beta   90.00010000
_cell_angle_gamma   92.71100000
_symmetry_Int_Tables_number   1
_chemical_formula_structural   ZnH10C14N4O3
_chemical_formula_sum   'Zn4 H40 C56 N16 O12'
_cell_volume   1240.28262518
_cell_formula_units_Z   4
loop_
 _symmetry_equiv_pos_site_id
 _symmetry_equiv_pos_as_xyz
  1  'x, y, z'
loop_
 _atom_site_type_symbol
 _atom_site_label
 _atom_site_symmetry_multiplicity
 _atom_site_fract_x
 _atom_site_fract_y
 _atom_site_fract_z
 _atom_site_occupancy
  Zn  Zn0  1  0.96985000  0.70457000  0.69228000  1.0
  Zn  Zn1  1  0.53016000  0.79543000  0.19228000  1.0
  Zn  Zn2  1  0.03015000  0.29544000  0.30772000  1.0
  Zn  Zn3  1  0.46984000  0.20457000  0.80772000  1.0
  H  H4  1  0.71531000  0.98020000  0.70260000  1.0
  H  H5  1  0.78469000  0.51981000  0.20260000  1.0
  H  H6  1  0.28468000  0.01980000  0.29740000  1.0
  H  H7  1  0.21531000  0.48021000  0.79740000  1.0
  H  H8  1  0.54321000  0.83753000  0.67420000  1.0
  H  H9  1  0.95679000  0.66247000  0.17420000  1.0
  H  H10  1  0.45678000  0.16247000  0.32580000  1.0
  H  H11  1  0.04322000  0.33754000  0.82580000  1.0
  H  H12  1  0.60764000  0.87759000  0.59031000  1.0
  H  H13  1  0.89236000  0.62239000  0.09031000  1.0
  H  H14  1  0.39235000  0.12240000  0.40969000  1.0
  H  H15  1  0.10764000  0.37760000  0.90969000  1.0
  H  H16  1  0.99290000  0.60485000  0.52921000  1.0
  H  H17  1  0.50710000  0.89515000  0.02921000  1.0
  H  H18  1  0.00710000  0.39514000  0.47079000  1.0
  H  H19  1  0.49289000  0.10486000  0.97079000  1.0
  H  H20  1  0.81049000  0.89196000  0.51357000  1.0
  H  H21  1  0.68952000  0.60804000  0.01357000  1.0
  H  H22  1  0.18952000  0.10803000  0.48643000  1.0
  H  H23  1  0.31048000  0.39195000  0.98643000  1.0
  H  H24  1  0.19591000  0.61411000  0.45189000  1.0
  H  H25  1  0.30408000  0.88589000  0.95190000  1.0
  H  H26  1  0.80410000  0.38587000  0.54811000  1.0
  H  H27  1  0.69591000  0.11411000  0.04810000  1.0
  H  H28  1  0.92389000  0.94571000  0.44916000  1.0
  H  H29  1  0.57610000  0.55430000  0.94916000  1.0
  H  H30  1  0.07613000  0.05428000  0.55084000  1.0
  H  H31  1  0.42389000  0.44570000  0.05084000  1.0
  H  H32  1  0.40569000  0.56143000  0.39836000  1.0
  H  H33  1  0.09431000  0.93857000  0.89836000  1.0
  H  H34  1  0.59432000  0.43857000  0.60164000  1.0
  H  H35  1  0.90569000  0.06142000  0.10164000  1.0
  H  H36  1  0.16908000  0.91669000  0.37786000  1.0
  H  H37  1  0.33091000  0.58332000  0.87786000  1.0
  H  H38  1  0.83094000  0.08331000  0.62214000  1.0
  H  H39  1  0.66908000  0.41668000  0.12214000  1.0
  H  H40  1  0.64358000  0.54120000  0.32633000  1.0
  H  H41  1  0.85642000  0.95880000  0.82633000  1.0
  H  H42  1  0.35644000  0.45880000  0.67367000  1.0
  H  H43  1  0.14357000  0.04120000  0.17367000  1.0
  C  C44  1  0.15958000  0.72563000  0.61084000  1.0
  C  C45  1  0.34042000  0.77437000  0.11084000  1.0
  C  C46  1  0.84041000  0.27437000  0.38916000  1.0
  C  C47  1  0.65957000  0.22564000  0.88916000  1.0
  C  C48  1  0.28659000  0.73890000  0.56497000  1.0
  C  C49  1  0.21341000  0.76110000  0.06497000  1.0
  C  C50  1  0.71341000  0.26109000  0.43503000  1.0
  C  C51  1  0.78659000  0.23891000  0.93503000  1.0
  C  C52  1  0.51700000  0.82109000  0.55986000  1.0
  C  C53  1  0.98300000  0.67890000  0.05986000  1.0
  C  C54  1  0.48300000  0.17890000  0.44014000  1.0
  C  C55  1  0.01700000  0.32110000  0.94014000  1.0
  C  C56  1  0.17353000  0.66592000  0.52530000  1.0
  C  C57  1  0.32647000  0.83408000  0.02530000  1.0
  C  C58  1  0.82647000  0.33407000  0.47470000  1.0
  C  C59  1  0.67352000  0.16593000  0.97470000  1.0
  C  C60  1  0.63063000  0.82856000  0.51630000  1.0
  C  C61  1  0.86937000  0.67143000  0.01630000  1.0
  C  C62  1  0.36936000  0.17143000  0.48370000  1.0
  C  C63  1  0.13063000  0.32857000  0.98370000  1.0
  C  C64  1  0.28879000  0.67202000  0.48195000  1.0
  C  C65  1  0.21121000  0.82799000  0.98196000  1.0
  C  C66  1  0.71122000  0.32797000  0.51805000  1.0
  C  C67  1  0.78878000  0.17202000  0.01805000  1.0
  C  C68  1  0.52147000  0.75270000  0.47638000  1.0
  C  C69  1  0.97853000  0.74731000  0.97638000  1.0
  C  C70  1  0.47854000  0.24730000  0.52362000  1.0
  C  C71  1  0.02146000  0.25270000  0.02362000  1.0
  C  C72  1  0.64928000  0.75225000  0.43072000  1.0
  C  C73  1  0.85072000  0.74776000  0.93072000  1.0
  C  C74  1  0.35072000  0.24774000  0.56928000  1.0
  C  C75  1  0.14928000  0.25224000  0.06928000  1.0
  C  C76  1  0.86161000  0.85506000  0.42273000  1.0
  C  C77  1  0.63838000  0.64496000  0.92273000  1.0
  C  C78  1  0.13840000  0.14494000  0.57728000  1.0
  C  C79  1  0.36161000  0.35505000  0.07727000  1.0
  C  C80  1  0.57022000  0.64283000  0.39431000  1.0
  C  C81  1  0.92978000  0.85718000  0.89431000  1.0
  C  C82  1  0.42979000  0.35717000  0.60569000  1.0
  C  C83  1  0.07022000  0.14282000  0.10569000  1.0
  C  C84  1  0.99948000  0.84108000  0.38215000  1.0
  C  C85  1  0.50051000  0.65894000  0.88215000  1.0
  C  C86  1  0.00053000  0.15892000  0.61785000  1.0
  C  C87  1  0.49948000  0.34106000  0.11785000  1.0
  C  C88  1  0.70647000  0.62938000  0.35347000  1.0
  C  C89  1  0.79353000  0.87063000  0.85347000  1.0
  C  C90  1  0.29354000  0.37063000  0.64653000  1.0
  C  C91  1  0.20646000  0.12937000  0.14653000  1.0
  C  C92  1  0.92782000  0.72354000  0.34764000  1.0
  C  C93  1  0.57217000  0.77647000  0.84764000  1.0
  C  C94  1  0.07219000  0.27647000  0.65236000  1.0
  C  C95  1  0.42782000  0.22353000  0.15236000  1.0
  C  C96  1  0.08888000  0.69124000  0.30820000  1.0
  C  C97  1  0.41112000  0.80876000  0.80821000  1.0
  C  C98  1  0.91113000  0.30876000  0.69179000  1.0
  C  C99  1  0.58887000  0.19124000  0.19180000  1.0
  N  N100  1  0.34607000  0.71625000  0.25225000  1.0
  N  N101  1  0.15393000  0.78375000  0.75224000  1.0
  N  N102  1  0.65393000  0.28375000  0.74775000  1.0
  N  N103  1  0.84607000  0.21626000  0.24775000  1.0
  N  N104  1  0.28521000  0.55538000  0.25521000  1.0
  N  N105  1  0.21479000  0.94462000  0.75521000  1.0
  N  N106  1  0.71479000  0.44463000  0.74479000  1.0
  N  N107  1  0.78521000  0.05538000  0.24479000  1.0
  N  N108  1  0.12465000  0.53599000  0.29041000  1.0
  N  N109  1  0.37535000  0.96401000  0.79041000  1.0
  N  N110  1  0.87535000  0.46401000  0.70959000  1.0
  N  N111  1  0.62465000  0.03599000  0.20959000  1.0
  N  N112  1  0.22913000  0.80555000  0.28466000  1.0
  N  N113  1  0.27087000  0.69446000  0.78466000  1.0
  N  N114  1  0.77088000  0.19446000  0.71534000  1.0
  N  N115  1  0.72912000  0.30555000  0.21534000  1.0
  O  O116  1  0.94362000  0.66114000  0.61354000  1.0
  O  O117  1  0.55639000  0.83885000  0.11354000  1.0
  O  O118  1  0.05638000  0.33885000  0.38646000  1.0
  O  O119  1  0.44360000  0.16116000  0.88645000  1.0
  O  O120  1  0.69044000  0.85746000  0.69444000  1.0
  O  O121  1  0.80956000  0.64254000  0.19445000  1.0
  O  O122  1  0.30955000  0.14254000  0.30556000  1.0
  O  O123  1  0.19045000  0.35747000  0.80555000  1.0
  O  O124  1  0.26866000  0.77872000  0.64893000  1.0
  O  O125  1  0.23134000  0.72128000  0.14893000  1.0
  O  O126  1  0.73132000  0.22128000  0.35107000  1.0
  O  O127  1  0.76867000  0.27872000  0.85106000  1.0
