# generated using pymatgen
data_ZnCu2H24C12(NO6)2
_symmetry_space_group_name_H-M   'P 1'
_cell_length_a   8.23116000
_cell_length_b   12.06240000
_cell_length_c   12.06650000
_cell_angle_alpha   88.35200000
_cell_angle_beta   74.51230000
_cell_angle_gamma   74.43980000
_symmetry_Int_Tables_number   1
_chemical_formula_structural   ZnCu2H24C12(NO6)2
_chemical_formula_sum   'Zn2 Cu4 H48 C24 N4 O24'
_cell_volume   1111.04736388
_cell_formula_units_Z   2
loop_
 _symmetry_equiv_pos_site_id
 _symmetry_equiv_pos_as_xyz
  1  'x, y, z'
loop_
 _atom_site_type_symbol
 _atom_site_label
 _atom_site_symmetry_multiplicity
 _atom_site_fract_x
 _atom_site_fract_y
 _atom_site_fract_z
 _atom_site_occupancy
  Zn  Zn0  1  0.75009000  0.45380000  0.54603000  1.0
  Zn  Zn1  1  0.24992000  0.54620000  0.45397000  1.0
  Cu  Cu2  1  0.93645000  0.09874000  0.46274000  1.0
  Cu  Cu3  1  0.56331000  0.53734000  0.90125000  1.0
  Cu  Cu4  1  0.06355000  0.90127000  0.53727000  1.0
  Cu  Cu5  1  0.43667000  0.46265000  0.09875000  1.0
  H  H6  1  0.43626000  0.82758000  0.17395000  1.0
  H  H7  1  0.06374000  0.82547000  0.17239000  1.0
  H  H8  1  0.56372000  0.17244000  0.82603000  1.0
  H  H9  1  0.93629000  0.17452000  0.82761000  1.0
  H  H10  1  0.48293000  0.95875000  0.20147000  1.0
  H  H11  1  0.01751000  0.79874000  0.04084000  1.0
  H  H12  1  0.51707000  0.04127000  0.79853000  1.0
  H  H13  1  0.98249000  0.20126000  0.95918000  1.0
  H  H14  1  0.33091000  0.96157000  0.12145000  1.0
  H  H15  1  0.16946000  0.87850000  0.03901000  1.0
  H  H16  1  0.66906000  0.03846000  0.87856000  1.0
  H  H17  1  0.83057000  0.12148000  0.96098000  1.0
  H  H18  1  0.53038000  0.91189000  0.42827000  1.0
  H  H19  1  0.96975000  0.57159000  0.08823000  1.0
  H  H20  1  0.46959000  0.08815000  0.57176000  1.0
  H  H21  1  0.03022000  0.42842000  0.91176000  1.0
  H  H22  1  0.69111000  0.77729000  0.39161000  1.0
  H  H23  1  0.80919000  0.60916000  0.22251000  1.0
  H  H24  1  0.30884000  0.22273000  0.60842000  1.0
  H  H25  1  0.19079000  0.39086000  0.77748000  1.0
  H  H26  1  0.68191000  0.88998000  0.29009000  1.0
  H  H27  1  0.81866000  0.71009000  0.10934000  1.0
  H  H28  1  0.31806000  0.11003000  0.70994000  1.0
  H  H29  1  0.18131000  0.28992000  0.89065000  1.0
  H  H30  1  0.02980000  0.21515000  0.20117000  1.0
  H  H31  1  0.47094000  0.79869000  0.78499000  1.0
  H  H32  1  0.97021000  0.78484000  0.79884000  1.0
  H  H33  1  0.52907000  0.20130000  0.21500000  1.0
  H  H34  1  0.04564000  0.35942000  0.17052000  1.0
  H  H35  1  0.45412000  0.82996000  0.64108000  1.0
  H  H36  1  0.95437000  0.64057000  0.82947000  1.0
  H  H37  1  0.54589000  0.17003000  0.35892000  1.0
  H  H38  1  0.85117000  0.32061000  0.17014000  1.0
  H  H39  1  0.64907000  0.82987000  0.67956000  1.0
  H  H40  1  0.14884000  0.67938000  0.82986000  1.0
  H  H41  1  0.35094000  0.17011000  0.32043000  1.0
  H  H42  1  0.48284000  0.37395000  0.55353000  1.0
  H  H43  1  0.01713000  0.44646000  0.62602000  1.0
  H  H44  1  0.51718000  0.62604000  0.44646000  1.0
  H  H45  1  0.98289000  0.55353000  0.37398000  1.0
  H  H46  1  0.47034000  0.42095000  0.68631000  1.0
  H  H47  1  0.03018000  0.31338000  0.57934000  1.0
  H  H48  1  0.52968000  0.57904000  0.31368000  1.0
  H  H49  1  0.96982000  0.68660000  0.42066000  1.0
  H  H50  1  0.61199000  0.29659000  0.62708000  1.0
  H  H51  1  0.88821000  0.37292000  0.70335000  1.0
  H  H52  1  0.38803000  0.70341000  0.37292000  1.0
  H  H53  1  0.11180000  0.62707000  0.29665000  1.0
  C  C54  1  0.23555000  0.94582000  0.30433000  1.0
  C  C55  1  0.26458000  0.69543000  0.05413000  1.0
  C  C56  1  0.76444000  0.05420000  0.69567000  1.0
  C  C57  1  0.73541000  0.30456000  0.94587000  1.0
  C  C58  1  0.37988000  0.92042000  0.19257000  1.0
  C  C59  1  0.12036000  0.80728000  0.07960000  1.0
  C  C60  1  0.62010000  0.07960000  0.80743000  1.0
  C  C61  1  0.87967000  0.19271000  0.92039000  1.0
  C  C62  1  0.78861000  0.91869000  0.42594000  1.0
  C  C63  1  0.71141000  0.57430000  0.08136000  1.0
  C  C64  1  0.21138000  0.08132000  0.57408000  1.0
  C  C65  1  0.28858000  0.42569000  0.91864000  1.0
  C  C66  1  0.66634000  0.87014000  0.38100000  1.0
  C  C67  1  0.83389000  0.61927000  0.12967000  1.0
  C  C68  1  0.33363000  0.12988000  0.61903000  1.0
  C  C69  1  0.16609000  0.38074000  0.87032000  1.0
  C  C70  1  0.87780000  0.34011000  0.33754000  1.0
  C  C71  1  0.62222000  0.66247000  0.65975000  1.0
  C  C72  1  0.12223000  0.65989000  0.66245000  1.0
  C  C73  1  0.37777000  0.33753000  0.34024000  1.0
  C  C74  1  0.95861000  0.30671000  0.21161000  1.0
  C  C75  1  0.54164000  0.78848000  0.69344000  1.0
  C  C76  1  0.04140000  0.69328000  0.78839000  1.0
  C  C77  1  0.45838000  0.21151000  0.30655000  1.0
  N  N78  1  0.55336000  0.37971000  0.61086000  1.0
  N  N79  1  0.94691000  0.38896000  0.62030000  1.0
  N  N80  1  0.44666000  0.62028000  0.38914000  1.0
  N  N81  1  0.05310000  0.61103000  0.37970000  1.0
  O  O82  1  0.12501000  0.04416000  0.31601000  1.0
  O  O83  1  0.37490000  0.68382000  0.95588000  1.0
  O  O84  1  0.87495000  0.95585000  0.68400000  1.0
  O  O85  1  0.62507000  0.31616000  0.04411000  1.0
  O  O86  1  0.23798000  0.86848000  0.37891000  1.0
  O  O87  1  0.26221000  0.62072000  0.13137000  1.0
  O  O88  1  0.76206000  0.13155000  0.62109000  1.0
  O  O89  1  0.73782000  0.37927000  0.86863000  1.0
  O  O90  1  0.77810000  0.02519000  0.41208000  1.0
  O  O91  1  0.72164000  0.58816000  0.97495000  1.0
  O  O92  1  0.22187000  0.97482000  0.58795000  1.0
  O  O93  1  0.27834000  0.41184000  0.02504000  1.0
  O  O94  1  0.89365000  0.84968000  0.47404000  1.0
  O  O95  1  0.60667000  0.52616000  0.15039000  1.0
  O  O96  1  0.10637000  0.15032000  0.52594000  1.0
  O  O97  1  0.39334000  0.47383000  0.84961000  1.0
  O  O98  1  0.83672000  0.26712000  0.40895000  1.0
  O  O99  1  0.66265000  0.59069000  0.73266000  1.0
  O  O100  1  0.16332000  0.73288000  0.59106000  1.0
  O  O101  1  0.33733000  0.40929000  0.26733000  1.0
  O  O102  1  0.84587000  0.44686000  0.37072000  1.0
  O  O103  1  0.65447000  0.62951000  0.55295000  1.0
  O  O104  1  0.15415000  0.55314000  0.62927000  1.0
  O  O105  1  0.34556000  0.37048000  0.44703000  1.0
