# generated using pymatgen
data_CdH18C22(NO)4
_symmetry_space_group_name_H-M   'P 1'
_cell_length_a   8.29506000
_cell_length_b   18.71730000
_cell_length_c   18.71730000
_cell_angle_alpha   90.00040000
_cell_angle_beta   90.00000000
_cell_angle_gamma   90.00000000
_symmetry_Int_Tables_number   1
_chemical_formula_structural   CdH18C22(NO)4
_chemical_formula_sum   'Cd4 H72 C88 N16 O16'
_cell_volume   2906.06908368
_cell_formula_units_Z   4
loop_
 _symmetry_equiv_pos_site_id
 _symmetry_equiv_pos_as_xyz
  1  'x, y, z'
loop_
 _atom_site_type_symbol
 _atom_site_label
 _atom_site_symmetry_multiplicity
 _atom_site_fract_x
 _atom_site_fract_y
 _atom_site_fract_z
 _atom_site_occupancy
  Cd  Cd0  1  0.00000000  0.26517000  0.26517000  1.0
  Cd  Cd1  1  0.00000000  0.23483000  0.76517000  1.0
  Cd  Cd2  1  0.00000000  0.73483000  0.73483000  1.0
  Cd  Cd3  1  0.00000000  0.76517000  0.23483000  1.0
  H  H4  1  0.07781000  0.62266000  0.12561000  1.0
  H  H5  1  0.07781000  0.37439000  0.12265000  1.0
  H  H6  1  0.07781000  0.37734000  0.87439000  1.0
  H  H7  1  0.07781000  0.62561000  0.87735000  1.0
  H  H8  1  0.92219000  0.12266000  0.37439000  1.0
  H  H9  1  0.92219000  0.87734000  0.62561000  1.0
  H  H10  1  0.92219000  0.12561000  0.62266000  1.0
  H  H11  1  0.92219000  0.87439000  0.37734000  1.0
  H  H12  1  0.86903000  0.50571000  0.11449000  1.0
  H  H13  1  0.86902000  0.38551000  0.00571000  1.0
  H  H14  1  0.86902000  0.49429000  0.88551000  1.0
  H  H15  1  0.86902000  0.61449000  0.99429000  1.0
  H  H16  1  0.13098000  0.00571000  0.38551000  1.0
  H  H17  1  0.13098000  0.99429000  0.61449000  1.0
  H  H18  1  0.13098000  0.11448000  0.50571000  1.0
  H  H19  1  0.13098000  0.88551000  0.49429000  1.0
  H  H20  1  0.60237000  0.61108000  0.31889000  1.0
  H  H21  1  0.60237000  0.18111000  0.11108000  1.0
  H  H22  1  0.60237000  0.38892000  0.68111000  1.0
  H  H23  1  0.60237000  0.81889000  0.88892000  1.0
  H  H24  1  0.39763000  0.11108000  0.18111000  1.0
  H  H25  1  0.39763000  0.88892000  0.81889000  1.0
  H  H26  1  0.39763000  0.31889000  0.61108000  1.0
  H  H27  1  0.39763000  0.68111000  0.38892000  1.0
  H  H28  1  0.69717000  0.69649000  0.31175000  1.0
  H  H29  1  0.69717000  0.18825000  0.19649000  1.0
  H  H30  1  0.69717000  0.30351000  0.68825000  1.0
  H  H31  1  0.69717000  0.81175000  0.80351000  1.0
  H  H32  1  0.30283000  0.19649000  0.18825000  1.0
  H  H33  1  0.30283000  0.80351000  0.81175000  1.0
  H  H34  1  0.30283000  0.31175000  0.69649000  1.0
  H  H35  1  0.30283000  0.68825000  0.30351000  1.0
  H  H36  1  0.79389000  0.62548000  0.35858000  1.0
  H  H37  1  0.79389000  0.14142000  0.12548000  1.0
  H  H38  1  0.79389000  0.37452000  0.64141000  1.0
  H  H39  1  0.79389000  0.85858000  0.87452000  1.0
  H  H40  1  0.20611000  0.12548000  0.14141000  1.0
  H  H41  1  0.20611000  0.87452000  0.85859000  1.0
  H  H42  1  0.20611000  0.35858000  0.62548000  1.0
  H  H43  1  0.20611000  0.64142000  0.37452000  1.0
  H  H44  1  0.45012000  0.59215000  0.20730000  1.0
  H  H45  1  0.45012000  0.29270000  0.09215000  1.0
  H  H46  1  0.45011000  0.40785000  0.79270000  1.0
  H  H47  1  0.45012000  0.70730000  0.90785000  1.0
  H  H48  1  0.54988000  0.09215000  0.29270000  1.0
  H  H49  1  0.54988000  0.90785000  0.70730000  1.0
  H  H50  1  0.54988000  0.20730000  0.59215000  1.0
  H  H51  1  0.54988000  0.79270000  0.40785000  1.0
  H  H52  1  0.22062000  0.50747000  0.23095000  1.0
  H  H53  1  0.22062000  0.26905000  0.00747000  1.0
  H  H54  1  0.22062000  0.49253000  0.76905000  1.0
  H  H55  1  0.22062000  0.73095000  0.99253000  1.0
  H  H56  1  0.77938000  0.00747000  0.26905000  1.0
  H  H57  1  0.77938000  0.99253000  0.73095000  1.0
  H  H58  1  0.77938000  0.23095000  0.50747000  1.0
  H  H59  1  0.77938000  0.76905000  0.49253000  1.0
  H  H60  1  0.55793000  0.33325000  0.24748000  1.0
  H  H61  1  0.55793000  0.25252000  0.83325000  1.0
  H  H62  1  0.55793000  0.66675000  0.75252000  1.0
  H  H63  1  0.55793000  0.74748000  0.16675000  1.0
  H  H64  1  0.44207000  0.83325000  0.25252000  1.0
  H  H65  1  0.44207000  0.16675000  0.74748000  1.0
  H  H66  1  0.44207000  0.24748000  0.33325000  1.0
  H  H67  1  0.44207000  0.75252000  0.66675000  1.0
  H  H68  1  0.78706000  0.41811000  0.22927000  1.0
  H  H69  1  0.78706000  0.27073000  0.91812000  1.0
  H  H70  1  0.78706000  0.58188000  0.77073000  1.0
  H  H71  1  0.78706000  0.72927000  0.08188000  1.0
  H  H72  1  0.21294000  0.91812000  0.27073000  1.0
  H  H73  1  0.21294000  0.08189000  0.72926000  1.0
  H  H74  1  0.21294000  0.22926000  0.41812000  1.0
  H  H75  1  0.21294000  0.77073000  0.58189000  1.0
  C  C76  1  0.97654000  0.60705000  0.15871000  1.0
  C  C77  1  0.97654000  0.34129000  0.10704000  1.0
  C  C78  1  0.97654000  0.39296000  0.84129000  1.0
  C  C79  1  0.97654000  0.65871000  0.89296000  1.0
  C  C80  1  0.02346000  0.10705000  0.34129000  1.0
  C  C81  1  0.02346000  0.89295000  0.65871000  1.0
  C  C82  1  0.02346000  0.15871000  0.60704000  1.0
  C  C83  1  0.02346000  0.84129000  0.39296000  1.0
  C  C84  1  0.87456000  0.54994000  0.15174000  1.0
  C  C85  1  0.87455000  0.34826000  0.04994000  1.0
  C  C86  1  0.87455000  0.45006000  0.84825000  1.0
  C  C87  1  0.87455000  0.65175000  0.95006000  1.0
  C  C88  1  0.12545000  0.04994000  0.34825000  1.0
  C  C89  1  0.12544000  0.95006000  0.65174000  1.0
  C  C90  1  0.12544000  0.15174000  0.54994000  1.0
  C  C91  1  0.12545000  0.84826000  0.45006000  1.0
  C  C92  1  0.79941000  0.61637000  0.24515000  1.0
  C  C93  1  0.79940000  0.25485000  0.11637000  1.0
  C  C94  1  0.79940000  0.38363000  0.75485000  1.0
  C  C95  1  0.79941000  0.74515000  0.88363000  1.0
  C  C96  1  0.20060000  0.11637000  0.25485000  1.0
  C  C97  1  0.20059000  0.88363000  0.74515000  1.0
  C  C98  1  0.20060000  0.24515000  0.61637000  1.0
  C  C99  1  0.20060000  0.75485000  0.38363000  1.0
  C  C100  1  0.71778000  0.63857000  0.31223000  1.0
  C  C101  1  0.71778000  0.18778000  0.13857000  1.0
  C  C102  1  0.71777000  0.36142000  0.68777000  1.0
  C  C103  1  0.71778000  0.81223000  0.86143000  1.0
  C  C104  1  0.28223000  0.13858000  0.18777000  1.0
  C  C105  1  0.28222000  0.86143000  0.81223000  1.0
  C  C106  1  0.28222000  0.31223000  0.63857000  1.0
  C  C107  1  0.28223000  0.68777000  0.36143000  1.0
  C  C108  1  0.63006000  0.50917000  0.21764000  1.0
  C  C109  1  0.63005000  0.28236000  0.00918000  1.0
  C  C110  1  0.63006000  0.49082000  0.78236000  1.0
  C  C111  1  0.63005000  0.71764000  0.99082000  1.0
  C  C112  1  0.36995000  0.00918000  0.28236000  1.0
  C  C113  1  0.36994000  0.99082000  0.71765000  1.0
  C  C114  1  0.36995000  0.21764000  0.50918000  1.0
  C  C115  1  0.36995000  0.78236000  0.49083000  1.0
  C  C116  1  0.47216000  0.53559000  0.21750000  1.0
  C  C117  1  0.47215000  0.28249000  0.03559000  1.0
  C  C118  1  0.47215000  0.46441000  0.78250000  1.0
  C  C119  1  0.47215000  0.71750000  0.96441000  1.0
  C  C120  1  0.52785000  0.03559000  0.28249000  1.0
  C  C121  1  0.52784000  0.96441000  0.71751000  1.0
  C  C122  1  0.52785000  0.21750000  0.53559000  1.0
  C  C123  1  0.52785000  0.78249000  0.46441000  1.0
  C  C124  1  0.34505000  0.48858000  0.22980000  1.0
  C  C125  1  0.34504000  0.27020000  0.98858000  1.0
  C  C126  1  0.34504000  0.51142000  0.77020000  1.0
  C  C127  1  0.34504000  0.72980000  0.01142000  1.0
  C  C128  1  0.65496000  0.98858000  0.27020000  1.0
  C  C129  1  0.65496000  0.01142000  0.72980000  1.0
  C  C130  1  0.65496000  0.22980000  0.48858000  1.0
  C  C131  1  0.65496000  0.77020000  0.51142000  1.0
  C  C132  1  0.37557000  0.41560000  0.24003000  1.0
  C  C133  1  0.37556000  0.25997000  0.91560000  1.0
  C  C134  1  0.37556000  0.58440000  0.75997000  1.0
  C  C135  1  0.37556000  0.74003000  0.08440000  1.0
  C  C136  1  0.62444000  0.91560000  0.25997000  1.0
  C  C137  1  0.62443000  0.08440000  0.74003000  1.0
  C  C138  1  0.62444000  0.24002000  0.41560000  1.0
  C  C139  1  0.62444000  0.75997000  0.58440000  1.0
  C  C140  1  0.53431000  0.38981000  0.23846000  1.0
  C  C141  1  0.53430000  0.26154000  0.88981000  1.0
  C  C142  1  0.53431000  0.61018000  0.76154000  1.0
  C  C143  1  0.53430000  0.73847000  0.11018000  1.0
  C  C144  1  0.46569000  0.88981000  0.26154000  1.0
  C  C145  1  0.46569000  0.11019000  0.73846000  1.0
  C  C146  1  0.46570000  0.23846000  0.38981000  1.0
  C  C147  1  0.46569000  0.76154000  0.61019000  1.0
  C  C148  1  0.66240000  0.43672000  0.22814000  1.0
  C  C149  1  0.66240000  0.27187000  0.93672000  1.0
  C  C150  1  0.66240000  0.56328000  0.77186000  1.0
  C  C151  1  0.66240000  0.72814000  0.06328000  1.0
  C  C152  1  0.33760000  0.93672000  0.27186000  1.0
  C  C153  1  0.33760000  0.06328000  0.72814000  1.0
  C  C154  1  0.33760000  0.22813000  0.43672000  1.0
  C  C155  1  0.33760000  0.77186000  0.56328000  1.0
  C  C156  1  0.23866000  0.36495000  0.25212000  1.0
  C  C157  1  0.23865000  0.24788000  0.86495000  1.0
  C  C158  1  0.23866000  0.63505000  0.74787000  1.0
  C  C159  1  0.23865000  0.75213000  0.13505000  1.0
  C  C160  1  0.76134000  0.86495000  0.24788000  1.0
  C  C161  1  0.76134000  0.13505000  0.75213000  1.0
  C  C162  1  0.76134000  0.25212000  0.36495000  1.0
  C  C163  1  0.76134000  0.74787000  0.63505000  1.0
  N  N164  1  0.92881000  0.64772000  0.21656000  1.0
  N  N165  1  0.92881000  0.28344000  0.14772000  1.0
  N  N166  1  0.92881000  0.35228000  0.78344000  1.0
  N  N167  1  0.92881000  0.71656000  0.85228000  1.0
  N  N168  1  0.07119000  0.14772000  0.28344000  1.0
  N  N169  1  0.07119000  0.85228000  0.71656000  1.0
  N  N170  1  0.07119000  0.21656000  0.64772000  1.0
  N  N171  1  0.07119000  0.78344000  0.35228000  1.0
  N  N172  1  0.76178000  0.55675000  0.20610000  1.0
  N  N173  1  0.76178000  0.29390000  0.05675000  1.0
  N  N174  1  0.76178000  0.44325000  0.79390000  1.0
  N  N175  1  0.76178000  0.70610000  0.94325000  1.0
  N  N176  1  0.23822000  0.05675000  0.29390000  1.0
  N  N177  1  0.23822000  0.94325000  0.70610000  1.0
  N  N178  1  0.23822000  0.20610000  0.55675000  1.0
  N  N179  1  0.23822000  0.79390000  0.44325000  1.0
  O  O180  1  0.09740000  0.38916000  0.26255000  1.0
  O  O181  1  0.09739000  0.23745000  0.88916000  1.0
  O  O182  1  0.09740000  0.61085000  0.73745000  1.0
  O  O183  1  0.09739000  0.76255000  0.11084000  1.0
  O  O184  1  0.90261000  0.88915000  0.23745000  1.0
  O  O185  1  0.90260000  0.11085000  0.76255000  1.0
  O  O186  1  0.90261000  0.26255000  0.38916000  1.0
  O  O187  1  0.90261000  0.73745000  0.61085000  1.0
  O  O188  1  0.27032000  0.29781000  0.25011000  1.0
  O  O189  1  0.27032000  0.24989000  0.79781000  1.0
  O  O190  1  0.27032000  0.70219000  0.74989000  1.0
  O  O191  1  0.27032000  0.75011000  0.20219000  1.0
  O  O192  1  0.72968000  0.79781000  0.24989000  1.0
  O  O193  1  0.72968000  0.20219000  0.75011000  1.0
  O  O194  1  0.72968000  0.25011000  0.29781000  1.0
  O  O195  1  0.72968000  0.74989000  0.70219000  1.0
