# generated using pymatgen
data_CdH8(C5N7)2
_symmetry_space_group_name_H-M   'P 1'
_cell_length_a   8.23488000
_cell_length_b   8.50128000
_cell_length_c   12.07720000
_cell_angle_alpha   82.61160000
_cell_angle_beta   70.47670000
_cell_angle_gamma   79.98140000
_symmetry_Int_Tables_number   1
_chemical_formula_structural   CdH8(C5N7)2
_chemical_formula_sum   'Cd2 H16 C20 N28'
_cell_volume   782.46233459
_cell_formula_units_Z   2
loop_
 _symmetry_equiv_pos_site_id
 _symmetry_equiv_pos_as_xyz
  1  'x, y, z'
loop_
 _atom_site_type_symbol
 _atom_site_label
 _atom_site_symmetry_multiplicity
 _atom_site_fract_x
 _atom_site_fract_y
 _atom_site_fract_z
 _atom_site_occupancy
  Cd  Cd0  1  0.03918000  0.79157000  0.47804000  1.0
  Cd  Cd1  1  0.96082000  0.20843000  0.52196000  1.0
  H  H2  1  0.16978000  0.82613000  0.19401000  1.0
  H  H3  1  0.83022000  0.17387000  0.80599000  1.0
  H  H4  1  0.43949000  0.84883000  0.02250000  1.0
  H  H5  1  0.56051000  0.15117000  0.97750000  1.0
  H  H6  1  0.72375000  0.80373000  0.27188000  1.0
  H  H7  1  0.27626000  0.19627000  0.72812000  1.0
  H  H8  1  0.43930000  0.78894000  0.43239000  1.0
  H  H9  1  0.56070000  0.21106000  0.56761000  1.0
  H  H10  1  0.90223000  0.70066000  0.76190000  1.0
  H  H11  1  0.09777000  0.29934000  0.23810000  1.0
  H  H12  1  0.64881000  0.59753000  0.91786000  1.0
  H  H13  1  0.35119000  0.40247000  0.08214000  1.0
  H  H14  1  0.38215000  0.66194000  0.65714000  1.0
  H  H15  1  0.61785000  0.33806000  0.34286000  1.0
  H  H16  1  0.64577000  0.76611000  0.51410000  1.0
  H  H17  1  0.35423000  0.23389000  0.48590000  1.0
  C  C18  1  0.29437000  0.82423000  0.20746000  1.0
  C  C19  1  0.70563000  0.17577000  0.79254000  1.0
  C  C20  1  0.44451000  0.83601000  0.11213000  1.0
  C  C21  1  0.55549000  0.16399000  0.88787000  1.0
  C  C22  1  0.60279000  0.82936000  0.13363000  1.0
  C  C23  1  0.39721000  0.17064000  0.86637000  1.0
  C  C24  1  0.60363000  0.81133000  0.25077000  1.0
  C  C25  1  0.39637000  0.18867000  0.74923000  1.0
  C  C26  1  0.44642000  0.80204000  0.34000000  1.0
  C  C27  1  0.55358000  0.19796000  0.66000000  1.0
  C  C28  1  0.78405000  0.69230000  0.74262000  1.0
  C  C29  1  0.21595000  0.30770000  0.25738000  1.0
  C  C30  1  0.64348000  0.63561000  0.82942000  1.0
  C  C31  1  0.35652000  0.36439000  0.17058000  1.0
  C  C32  1  0.49499000  0.62541000  0.80020000  1.0
  C  C33  1  0.50501000  0.37459000  0.19980000  1.0
  C  C34  1  0.49306000  0.67182000  0.68482000  1.0
  C  C35  1  0.50695000  0.32818000  0.31518000  1.0
  C  C36  1  0.63985000  0.72772000  0.60484000  1.0
  C  C37  1  0.36015000  0.27228000  0.39516000  1.0
  N  N38  1  0.12088000  0.96998000  0.58007000  1.0
  N  N39  1  0.87911000  0.03002000  0.41993000  1.0
  N  N40  1  0.12477000  0.93943000  0.67963000  1.0
  N  N41  1  0.87523000  0.06057000  0.32037000  1.0
  N  N42  1  0.13237000  0.90988000  0.77509000  1.0
  N  N43  1  0.86763000  0.09012000  0.22491000  1.0
  N  N44  1  0.19081000  0.57779000  0.57079000  1.0
  N  N45  1  0.80919000  0.42221000  0.42921000  1.0
  N  N46  1  0.12126000  0.46208000  0.60801000  1.0
  N  N47  1  0.87874000  0.53792000  0.39199000  1.0
  N  N48  1  0.05438000  0.34543000  0.64700000  1.0
  N  N49  1  0.94562000  0.65457000  0.35300000  1.0
  N  N50  1  0.29419000  0.80813000  0.31987000  1.0
  N  N51  1  0.70581000  0.19187000  0.68012000  1.0
  N  N52  1  0.75172000  0.83920000  0.03481000  1.0
  N  N53  1  0.24829000  0.16080000  0.96519000  1.0
  N  N54  1  0.89581000  0.82752000  0.04870000  1.0
  N  N55  1  0.10419000  0.17248000  0.95130000  1.0
  N  N56  1  0.03732000  0.81696000  0.04606000  1.0
  N  N57  1  0.96268000  0.18304000  0.95394000  1.0
  N  N58  1  0.78361000  0.73773000  0.63171000  1.0
  N  N59  1  0.21639000  0.26227000  0.36829000  1.0
  N  N60  1  0.35621000  0.56707000  0.89050000  1.0
  N  N61  1  0.64379000  0.43293000  0.10950000  1.0
  N  N62  1  0.22015000  0.55680000  0.87179000  1.0
  N  N63  1  0.77985000  0.44320000  0.12821000  1.0
  N  N64  1  0.08684000  0.53762000  0.86981000  1.0
  N  N65  1  0.91316000  0.46238000  0.13019000  1.0
