# generated using pymatgen
data_SmH4C8N2Cl3
_symmetry_space_group_name_H-M   'P 1'
_cell_length_a   6.30209000
_cell_length_b   7.15751000
_cell_length_c   22.15620000
_cell_angle_alpha   89.99950000
_cell_angle_beta   90.00030000
_cell_angle_gamma   89.99990000
_symmetry_Int_Tables_number   1
_chemical_formula_structural   SmH4C8N2Cl3
_chemical_formula_sum   'Sm4 H16 C32 N8 Cl12'
_cell_volume   999.40574417
_cell_formula_units_Z   4
loop_
 _symmetry_equiv_pos_site_id
 _symmetry_equiv_pos_as_xyz
  1  'x, y, z'
loop_
 _atom_site_type_symbol
 _atom_site_label
 _atom_site_symmetry_multiplicity
 _atom_site_fract_x
 _atom_site_fract_y
 _atom_site_fract_z
 _atom_site_occupancy
  Sm  Sm0  1  0.45106000  0.48959000  0.25000000  1.0
  Sm  Sm1  1  0.95106000  0.01042000  0.75000000  1.0
  Sm  Sm2  1  0.04894000  0.98959000  0.25000000  1.0
  Sm  Sm3  1  0.54894000  0.51041000  0.75000000  1.0
  H  H4  1  0.12276000  0.60959000  0.10132000  1.0
  H  H5  1  0.62281000  0.89041000  0.89868000  1.0
  H  H6  1  0.37723000  0.10958000  0.39869000  1.0
  H  H7  1  0.87722000  0.39042000  0.60131000  1.0
  H  H8  1  0.87721000  0.39042000  0.89868000  1.0
  H  H9  1  0.37721000  0.10957000  0.10131000  1.0
  H  H10  1  0.62279000  0.89041000  0.60132000  1.0
  H  H11  1  0.12279000  0.60960000  0.39869000  1.0
  H  H12  1  0.64303000  0.35437000  0.98783000  1.0
  H  H13  1  0.14301000  0.14560000  0.01216000  1.0
  H  H14  1  0.85698000  0.85438000  0.51217000  1.0
  H  H15  1  0.35699000  0.64563000  0.48784000  1.0
  H  H16  1  0.35697000  0.64561000  0.01217000  1.0
  H  H17  1  0.85696000  0.85439000  0.98784000  1.0
  H  H18  1  0.14303000  0.14562000  0.48783000  1.0
  H  H19  1  0.64306000  0.35439000  0.51217000  1.0
  C  C20  1  0.73408000  0.46249000  0.10137000  1.0
  C  C21  1  0.23412000  0.03750000  0.89863000  1.0
  C  C22  1  0.76591000  0.96250000  0.39863000  1.0
  C  C23  1  0.26589000  0.53752000  0.60138000  1.0
  C  C24  1  0.26589000  0.53750000  0.89863000  1.0
  C  C25  1  0.76591000  0.96250000  0.10138000  1.0
  C  C26  1  0.23412000  0.03750000  0.60137000  1.0
  C  C27  1  0.73410000  0.46248000  0.39863000  1.0
  C  C28  1  0.86843000  0.47939000  0.05000000  1.0
  C  C29  1  0.36845000  0.02060000  0.95000000  1.0
  C  C30  1  0.63156000  0.97939000  0.45000000  1.0
  C  C31  1  0.13153000  0.52058000  0.55000000  1.0
  C  C32  1  0.13155000  0.52061000  0.95001000  1.0
  C  C33  1  0.63155000  0.97940000  0.05000000  1.0
  C  C34  1  0.36843000  0.02062000  0.54999000  1.0
  C  C35  1  0.86841000  0.47941000  0.45001000  1.0
  C  C36  1  0.06988000  0.56173000  0.05708000  1.0
  C  C37  1  0.56990000  0.93824000  0.94292000  1.0
  C  C38  1  0.43009000  0.06177000  0.44292000  1.0
  C  C39  1  0.93011000  0.43824000  0.55708000  1.0
  C  C40  1  0.93012000  0.43823000  0.94291000  1.0
  C  C41  1  0.43011000  0.06174000  0.05708000  1.0
  C  C42  1  0.56991000  0.93824000  0.55709000  1.0
  C  C43  1  0.06989000  0.56176000  0.44292000  1.0
  C  C44  1  0.79919000  0.41784000  0.99292000  1.0
  C  C45  1  0.29920000  0.08216000  0.00707000  1.0
  C  C46  1  0.70076000  0.91784000  0.50708000  1.0
  C  C47  1  0.20078000  0.58217000  0.49292000  1.0
  C  C48  1  0.20078000  0.58218000  0.00707000  1.0
  C  C49  1  0.70079000  0.91784000  0.99292000  1.0
  C  C50  1  0.29922000  0.08216000  0.49293000  1.0
  C  C51  1  0.79921000  0.41784000  0.50707000  1.0
  N  N52  1  0.62584000  0.45532000  0.14387000  1.0
  N  N53  1  0.12586000  0.04468000  0.85613000  1.0
  N  N54  1  0.87417000  0.95531000  0.35613000  1.0
  N  N55  1  0.37417000  0.54468000  0.64387000  1.0
  N  N56  1  0.37416000  0.54469000  0.85613000  1.0
  N  N57  1  0.87417000  0.95533000  0.14388000  1.0
  N  N58  1  0.12586000  0.04469000  0.64387000  1.0
  N  N59  1  0.62585000  0.45534000  0.35613000  1.0
  Cl  Cl60  1  0.32604000  0.78507000  0.17583000  1.0
  Cl  Cl61  1  0.82604000  0.71493000  0.82417000  1.0
  Cl  Cl62  1  0.17396000  0.28507000  0.32417000  1.0
  Cl  Cl63  1  0.67396000  0.21493000  0.67583000  1.0
  Cl  Cl64  1  0.67396000  0.21492000  0.82417000  1.0
  Cl  Cl65  1  0.17396000  0.28508000  0.17583000  1.0
  Cl  Cl66  1  0.82604000  0.71493000  0.67583000  1.0
  Cl  Cl67  1  0.32604000  0.78508000  0.32417000  1.0
  Cl  Cl68  1  0.84687000  0.65176000  0.25000000  1.0
  Cl  Cl69  1  0.34687000  0.84825000  0.75000000  1.0
  Cl  Cl70  1  0.65313000  0.15175000  0.25000000  1.0
  Cl  Cl71  1  0.15313000  0.34826000  0.75000000  1.0
