# generated using pymatgen
data_LiH2(C2O)2
_symmetry_space_group_name_H-M   'P 1'
_cell_length_a   5.02037000
_cell_length_b   8.45196000
_cell_length_c   8.50204000
_cell_angle_alpha   86.48940000
_cell_angle_beta   89.99940000
_cell_angle_gamma   89.99970000
_symmetry_Int_Tables_number   1
_chemical_formula_structural   LiH2(C2O)2
_chemical_formula_sum   'Li4 H8 C16 O8'
_cell_volume   360.08130823
_cell_formula_units_Z   4
loop_
 _symmetry_equiv_pos_site_id
 _symmetry_equiv_pos_as_xyz
  1  'x, y, z'
loop_
 _atom_site_type_symbol
 _atom_site_label
 _atom_site_symmetry_multiplicity
 _atom_site_fract_x
 _atom_site_fract_y
 _atom_site_fract_z
 _atom_site_occupancy
  Li  Li0  1  0.39615000  0.99180000  0.64640000  1.0
  Li  Li1  1  0.89615000  0.00821000  0.85361000  1.0
  Li  Li2  1  0.60385000  0.00820000  0.35360000  1.0
  Li  Li3  1  0.10385000  0.99179000  0.14641000  1.0
  H  H4  1  0.30479000  0.61958000  0.69074000  1.0
  H  H5  1  0.80481000  0.38041000  0.80926000  1.0
  H  H6  1  0.69518000  0.38041000  0.30924000  1.0
  H  H7  1  0.19519000  0.61959000  0.19073000  1.0
  H  H8  1  0.61446000  0.65514000  0.39178000  1.0
  H  H9  1  0.11445000  0.34485000  0.10821000  1.0
  H  H10  1  0.38554000  0.34484000  0.60822000  1.0
  H  H11  1  0.88553000  0.65516000  0.89179000  1.0
  C  C12  1  0.17239000  0.56669000  0.60715000  1.0
  C  C13  1  0.67243000  0.43333000  0.89285000  1.0
  C  C14  1  0.82759000  0.43334000  0.39284000  1.0
  C  C15  1  0.32759000  0.56669000  0.10716000  1.0
  C  C16  1  0.95637000  0.65465000  0.54470000  1.0
  C  C17  1  0.45638000  0.34534000  0.95530000  1.0
  C  C18  1  0.04365000  0.34529000  0.45527000  1.0
  C  C19  1  0.54365000  0.65469000  0.04472000  1.0
  C  C20  1  0.78439000  0.58683000  0.43742000  1.0
  C  C21  1  0.28442000  0.41319000  0.06257000  1.0
  C  C22  1  0.21559000  0.41320000  0.56257000  1.0
  C  C23  1  0.71562000  0.58681000  0.93742000  1.0
  C  C24  1  0.89781000  0.81669000  0.59833000  1.0
  C  C25  1  0.39781000  0.18328000  0.90168000  1.0
  C  C26  1  0.10219000  0.18329000  0.40166000  1.0
  C  C27  1  0.60218000  0.81667000  0.09833000  1.0
  O  O28  1  0.05876000  0.87936000  0.69303000  1.0
  O  O29  1  0.55874000  0.12064000  0.80699000  1.0
  O  O30  1  0.94125000  0.12064000  0.30698000  1.0
  O  O31  1  0.44125000  0.87936000  0.19303000  1.0
  O  O32  1  0.68180000  0.88257000  0.55080000  1.0
  O  O33  1  0.18181000  0.11745000  0.94922000  1.0
  O  O34  1  0.31818000  0.11743000  0.44919000  1.0
  O  O35  1  0.81820000  0.88257000  0.05081000  1.0
