# generated using pymatgen
data_NiH14C15N10O3
_symmetry_space_group_name_H-M   'P 1'
_cell_length_a   8.64880000
_cell_length_b   10.76250000
_cell_length_c   11.03580000
_cell_angle_alpha   82.88010000
_cell_angle_beta   69.76230000
_cell_angle_gamma   72.73930000
_symmetry_Int_Tables_number   1
_chemical_formula_structural   NiH14C15N10O3
_chemical_formula_sum   'Ni2 H28 C30 N20 O6'
_cell_volume   920.15941598
_cell_formula_units_Z   2
loop_
 _symmetry_equiv_pos_site_id
 _symmetry_equiv_pos_as_xyz
  1  'x, y, z'
loop_
 _atom_site_type_symbol
 _atom_site_label
 _atom_site_symmetry_multiplicity
 _atom_site_fract_x
 _atom_site_fract_y
 _atom_site_fract_z
 _atom_site_occupancy
  Ni  Ni0  1  0.39273000  0.25713000  0.29497000  1.0
  Ni  Ni1  1  0.60727000  0.74287000  0.70503000  1.0
  H  H2  1  0.14575000  0.17663000  0.58002000  1.0
  H  H3  1  0.85425000  0.82337000  0.41997000  1.0
  H  H4  1  0.80315000  0.14454000  0.39668000  1.0
  H  H5  1  0.19684000  0.85546000  0.60332000  1.0
  H  H6  1  0.08813000  0.20172000  0.21251000  1.0
  H  H7  1  0.91187000  0.79828000  0.78749000  1.0
  H  H8  1  0.47929000  0.52459000  0.13447000  1.0
  H  H9  1  0.52071000  0.47541000  0.86553000  1.0
  H  H10  1  0.94541000  0.69999000  0.24873000  1.0
  H  H11  1  0.05459000  0.30001000  0.75127000  1.0
  H  H12  1  0.00759000  0.44513000  0.34752000  1.0
  H  H13  1  0.99241000  0.55487000  0.65248000  1.0
  H  H14  1  0.28176000  0.52370000  0.45020000  1.0
  H  H15  1  0.71825000  0.47630000  0.54980000  1.0
  H  H16  1  0.30580000  0.52528000  0.69427000  1.0
  H  H17  1  0.69421000  0.47472000  0.30573000  1.0
  H  H18  1  0.47467000  0.13691000  0.56709000  1.0
  H  H19  1  0.52533000  0.86309000  0.43291000  1.0
  H  H20  1  0.86640000  0.12760000  0.61016000  1.0
  H  H21  1  0.13359000  0.87240000  0.38984000  1.0
  H  H22  1  0.23794000  0.73264000  0.12629000  1.0
  H  H23  1  0.76206000  0.26736000  0.87371000  1.0
  H  H24  1  0.40524000  0.28978000  0.75580000  1.0
  H  H25  1  0.59476000  0.71022000  0.24419000  1.0
  H  H26  1  0.36189000  0.25983000  0.05571000  1.0
  H  H27  1  0.63811000  0.74016000  0.94429000  1.0
  H  H28  1  0.53438000  0.15913000  0.06163000  1.0
  H  H29  1  0.46562000  0.84087000  0.93837000  1.0
  C  C30  1  0.67789000  0.01264000  0.26423000  1.0
  C  C31  1  0.32211000  0.98736000  0.73577000  1.0
  C  C32  1  0.92701000  0.98015000  0.09269000  1.0
  C  C33  1  0.07299000  0.01985000  0.90731000  1.0
  C  C34  1  0.11061000  0.94472000  0.01969000  1.0
  C  C35  1  0.88938000  0.05529000  0.98031000  1.0
  C  C36  1  0.75677000  0.31060000  0.14771000  1.0
  C  C37  1  0.24324000  0.68940000  0.85228000  1.0
  C  C38  1  0.95992000  0.41790000  0.03863000  1.0
  C  C39  1  0.04009000  0.58209000  0.96137000  1.0
  C  C40  1  0.12752000  0.44328000  0.97440000  1.0
  C  C41  1  0.87249000  0.55671000  0.02560000  1.0
  C  C42  1  0.09420000  0.17861000  0.50333000  1.0
  C  C43  1  0.90580000  0.82139000  0.49667000  1.0
  C  C44  1  0.91648000  0.16031000  0.40595000  1.0
  C  C45  1  0.08352000  0.83969000  0.59405000  1.0
  C  C46  1  0.05836000  0.18913000  0.31610000  1.0
  C  C47  1  0.94164000  0.81087000  0.68390000  1.0
  C  C48  1  0.34328000  0.53463000  0.18006000  1.0
  C  C49  1  0.65672000  0.46537000  0.81994000  1.0
  C  C50  1  0.06323000  0.62509000  0.24271000  1.0
  C  C51  1  0.93677000  0.37491000  0.75729000  1.0
  C  C52  1  0.09626000  0.49882000  0.28914000  1.0
  C  C53  1  0.90375000  0.50118000  0.71086000  1.0
  C  C54  1  0.32430000  0.44336000  0.51092000  1.0
  C  C55  1  0.67570000  0.55664000  0.48908000  1.0
  C  C56  1  0.33389000  0.44586000  0.63204000  1.0
  C  C57  1  0.66611000  0.55414000  0.36796000  1.0
  C  C58  1  0.42587000  0.24216000  0.56641000  1.0
  C  C59  1  0.57413000  0.75784000  0.43359000  1.0
  N  N60  1  0.53307000  0.06224000  0.32392000  1.0
  N  N61  1  0.46694000  0.93776000  0.67608000  1.0
  N  N62  1  0.83940000  0.95469000  0.21358000  1.0
  N  N63  1  0.16059000  0.04532000  0.78641000  1.0
  N  N64  1  0.62080000  0.29645000  0.20834000  1.0
  N  N65  1  0.37920000  0.70355000  0.79166000  1.0
  N  N66  1  0.91483000  0.31011000  0.08611000  1.0
  N  N67  1  0.08517000  0.68989000  0.91389000  1.0
  N  N68  1  0.16701000  0.20161000  0.37830000  1.0
  N  N69  1  0.83299000  0.79839000  0.62169000  1.0
  N  N70  1  0.94182000  0.15422000  0.52370000  1.0
  N  N71  1  0.05817000  0.84578000  0.47630000  1.0
  N  N72  1  0.27102000  0.44323000  0.24917000  1.0
  N  N73  1  0.72899000  0.55676000  0.75083000  1.0
  N  N74  1  0.22043000  0.64598000  0.17496000  1.0
  N  N75  1  0.77957000  0.35402000  0.82504000  1.0
  N  N76  1  0.38134000  0.31621000  0.47116000  1.0
  N  N77  1  0.61867000  0.68379000  0.52884000  1.0
  N  N78  1  0.39803000  0.31834000  0.66571000  1.0
  N  N79  1  0.60197000  0.68166000  0.33429000  1.0
  O  O80  1  0.24405000  0.87936000  0.04336000  1.0
  O  O81  1  0.75594000  0.12064000  0.95663000  1.0
  O  O82  1  0.28154000  0.37718000  0.94294000  1.0
  O  O83  1  0.71847000  0.62282000  0.05706000  1.0
  O  O84  1  0.41124000  0.19208000  0.11178000  1.0
  O  O85  1  0.58876000  0.80791000  0.88823000  1.0
