# generated using pymatgen
data_PrPH15C7NO7
_symmetry_space_group_name_H-M   'P 1'
_cell_length_a   5.05207000
_cell_length_b   12.63220000
_cell_length_c   20.71798670
_cell_angle_alpha   89.99981942
_cell_angle_beta   95.02415050
_cell_angle_gamma   89.99950000
_symmetry_Int_Tables_number   1
_chemical_formula_structural   PrPH15C7NO7
_chemical_formula_sum   'Pr4 P4 H60 C28 N4 O28'
_cell_volume   1317.11614703
_cell_formula_units_Z   4
loop_
 _symmetry_equiv_pos_site_id
 _symmetry_equiv_pos_as_xyz
  1  'x, y, z'
loop_
 _atom_site_type_symbol
 _atom_site_label
 _atom_site_symmetry_multiplicity
 _atom_site_fract_x
 _atom_site_fract_y
 _atom_site_fract_z
 _atom_site_occupancy
  Pr  Pr0  1  0.48466000  0.85039000  0.97811000  1.0
  Pr  Pr1  1  0.01534000  0.35038000  0.52189000  1.0
  Pr  Pr2  1  0.51537000  0.14961000  0.02189000  1.0
  Pr  Pr3  1  0.98465000  0.64962000  0.47812000  1.0
  P  P4  1  0.01585000  0.97255000  0.08520000  1.0
  P  P5  1  0.48415000  0.47254000  0.41480000  1.0
  P  P6  1  0.98416000  0.02746000  0.91480000  1.0
  P  P7  1  0.51584000  0.52746000  0.58521000  1.0
  H  H8  1  0.55308000  0.81048000  0.11731000  1.0
  H  H9  1  0.94690000  0.31049000  0.38269000  1.0
  H  H10  1  0.44691000  0.18951000  0.88269000  1.0
  H  H11  1  0.05308000  0.68951000  0.61731000  1.0
  H  H12  1  0.80836000  0.75829000  0.09324000  1.0
  H  H13  1  0.69164000  0.25829000  0.40676000  1.0
  H  H14  1  0.19163000  0.24171000  0.90676000  1.0
  H  H15  1  0.30835000  0.74171000  0.59324000  1.0
  H  H16  1  0.61945000  0.62309000  0.94999000  1.0
  H  H17  1  0.88057000  0.12308000  0.55002000  1.0
  H  H18  1  0.38059000  0.37692000  0.05002000  1.0
  H  H19  1  0.11943000  0.87692000  0.44998000  1.0
  H  H20  1  0.91469000  0.67528000  0.95289000  1.0
  H  H21  1  0.58532000  0.17528000  0.54710000  1.0
  H  H22  1  0.08534000  0.32472000  0.04710000  1.0
  H  H23  1  0.41469000  0.82472000  0.45289000  1.0
  H  H24  1  0.92799000  0.03687000  0.18703000  1.0
  H  H25  1  0.57203000  0.53687000  0.31296000  1.0
  H  H26  1  0.07203000  0.96313000  0.81297000  1.0
  H  H27  1  0.42798000  0.46313000  0.68704000  1.0
  H  H28  1  0.79665000  0.90955000  0.17786000  1.0
  H  H29  1  0.70336000  0.40954000  0.32214000  1.0
  H  H30  1  0.20335000  0.09045000  0.82213000  1.0
  H  H31  1  0.29665000  0.59046000  0.67786000  1.0
  H  H32  1  0.03343000  0.94170000  0.30016000  1.0
  H  H33  1  0.46657000  0.44170000  0.19984000  1.0
  H  H34  1  0.96655000  0.05830000  0.69984000  1.0
  H  H35  1  0.53347000  0.55830000  0.80016000  1.0
  H  H36  1  0.22295000  0.04850000  0.27233000  1.0
  H  H37  1  0.27706000  0.54849000  0.22768000  1.0
  H  H38  1  0.77705000  0.95150000  0.72768000  1.0
  H  H39  1  0.72298000  0.45150000  0.77232000  1.0
  H  H40  1  0.44899000  0.95886000  0.36909000  1.0
  H  H41  1  0.05101000  0.45887000  0.13091000  1.0
  H  H42  1  0.55100000  0.04113000  0.63091000  1.0
  H  H43  1  0.94903000  0.54113000  0.86908000  1.0
  H  H44  1  0.63879000  0.95327000  0.30117000  1.0
  H  H45  1  0.86122000  0.45328000  0.19884000  1.0
  H  H46  1  0.36120000  0.04672000  0.69883000  1.0
  H  H47  1  0.13881000  0.54673000  0.80116000  1.0
  H  H48  1  0.27516000  0.77656000  0.34334000  1.0
  H  H49  1  0.22483000  0.27656000  0.15666000  1.0
  H  H50  1  0.72481000  0.22344000  0.65665000  1.0
  H  H51  1  0.77520000  0.72343000  0.84335000  1.0
  H  H52  1  0.45697000  0.67310000  0.25543000  1.0
  H  H53  1  0.04299000  0.17311000  0.24457000  1.0
  H  H54  1  0.54301000  0.32689000  0.74456000  1.0
  H  H55  1  0.95699000  0.82690000  0.75544000  1.0
  H  H56  1  0.64027000  0.78366000  0.23341000  1.0
  H  H57  1  0.85972000  0.28366000  0.26659000  1.0
  H  H58  1  0.35973000  0.21634000  0.76659000  1.0
  H  H59  1  0.14028000  0.71635000  0.73341000  1.0
  H  H60  1  0.21026000  0.77121000  0.16375000  1.0
  H  H61  1  0.28973000  0.27121000  0.33625000  1.0
  H  H62  1  0.78973000  0.22879000  0.83624000  1.0
  H  H63  1  0.71026000  0.72880000  0.66375000  1.0
  H  H64  1  0.03408000  0.76965000  0.23447000  1.0
  H  H65  1  0.46590000  0.26965000  0.26553000  1.0
  H  H66  1  0.96589000  0.23035000  0.76552000  1.0
  H  H67  1  0.53411000  0.73035000  0.73447000  1.0
  C  C68  1  0.97808000  0.95659000  0.17169000  1.0
  C  C69  1  0.52193000  0.45659000  0.32832000  1.0
  C  C70  1  0.02192000  0.04341000  0.82831000  1.0
  C  C71  1  0.47808000  0.54342000  0.67169000  1.0
  C  C72  1  0.21730000  0.96203000  0.27683000  1.0
  C  C73  1  0.28270000  0.46204000  0.22317000  1.0
  C  C74  1  0.78269000  0.03796000  0.72316000  1.0
  C  C75  1  0.71732000  0.53796000  0.77683000  1.0
  C  C76  1  0.45592000  0.92456000  0.32052000  1.0
  C  C77  1  0.04408000  0.42457000  0.17948000  1.0
  C  C78  1  0.54406000  0.07544000  0.67947000  1.0
  C  C79  1  0.95595000  0.57544000  0.82052000  1.0
  C  C80  1  0.46013000  0.80335000  0.32345000  1.0
  C  C81  1  0.03987000  0.30335000  0.17656000  1.0
  C  C82  1  0.53985000  0.19665000  0.67655000  1.0
  C  C83  1  0.96014000  0.69665000  0.82344000  1.0
  C  C84  1  0.45812000  0.75978000  0.25486000  1.0
  C  C85  1  0.04186000  0.25978000  0.24514000  1.0
  C  C86  1  0.54187000  0.24022000  0.74514000  1.0
  C  C87  1  0.95814000  0.74022000  0.75486000  1.0
  C  C88  1  0.21445000  0.80088000  0.21374000  1.0
  C  C89  1  0.28553000  0.30088000  0.28626000  1.0
  C  C90  1  0.78553000  0.19911000  0.78625000  1.0
  C  C91  1  0.71447000  0.69912000  0.71374000  1.0
  C  C92  1  0.67917000  0.76201000  0.37125000  1.0
  C  C93  1  0.82083000  0.26202000  0.12876000  1.0
  C  C94  1  0.32083000  0.23798000  0.62876000  1.0
  C  C95  1  0.17917000  0.73798000  0.87124000  1.0
  N  N96  1  0.21017000  0.91704000  0.21152000  1.0
  N  N97  1  0.28983000  0.41704000  0.28848000  1.0
  N  N98  1  0.78982000  0.08295000  0.78848000  1.0
  N  N99  1  0.71018000  0.58296000  0.71152000  1.0
  O  O100  1  0.72104000  0.98132000  0.05470000  1.0
  O  O101  1  0.77896000  0.48132000  0.44531000  1.0
  O  O102  1  0.27897000  0.01868000  0.94530000  1.0
  O  O103  1  0.22103000  0.51867000  0.55470000  1.0
  O  O104  1  0.15141000  0.87408000  0.05897000  1.0
  O  O105  1  0.34857000  0.37409000  0.44103000  1.0
  O  O106  1  0.84860000  0.12592000  0.94102000  1.0
  O  O107  1  0.65141000  0.62592000  0.55898000  1.0
  O  O108  1  0.16212000  0.07734000  0.07650000  1.0
  O  O109  1  0.33786000  0.57734000  0.42349000  1.0
  O  O110  1  0.83786000  0.92266000  0.92349000  1.0
  O  O111  1  0.66211000  0.42266000  0.57651000  1.0
  O  O112  1  0.69056000  0.79963000  0.43000000  1.0
  O  O113  1  0.80944000  0.29963000  0.07001000  1.0
  O  O114  1  0.30942000  0.20036000  0.57000000  1.0
  O  O115  1  0.19057000  0.70037000  0.92999000  1.0
  O  O116  1  0.84147000  0.69168000  0.35687000  1.0
  O  O117  1  0.65851000  0.19170000  0.14314000  1.0
  O  O118  1  0.15850000  0.30831000  0.64313000  1.0
  O  O119  1  0.34148000  0.80831000  0.85686000  1.0
  O  O120  1  0.61398000  0.75613000  0.08844000  1.0
  O  O121  1  0.88603000  0.25613000  0.41156000  1.0
  O  O122  1  0.38601000  0.24387000  0.91155000  1.0
  O  O123  1  0.11396000  0.74388000  0.58845000  1.0
  O  O124  1  0.73312000  0.67761000  0.97057000  1.0
  O  O125  1  0.76690000  0.17761000  0.52943000  1.0
  O  O126  1  0.26692000  0.32239000  0.02943000  1.0
  O  O127  1  0.23311000  0.82239000  0.47057000  1.0
