# generated using pymatgen
data_CuH10C10(N2O3)2
_symmetry_space_group_name_H-M   'P 1'
_cell_length_a   5.07502000
_cell_length_b   9.85977000
_cell_length_c   13.31300000
_cell_angle_alpha   101.12500000
_cell_angle_beta   89.99980000
_cell_angle_gamma   89.99980000
_symmetry_Int_Tables_number   1
_chemical_formula_structural   CuH10C10(N2O3)2
_chemical_formula_sum   'Cu2 H20 C20 N8 O12'
_cell_volume   653.64479275
_cell_formula_units_Z   2
loop_
 _symmetry_equiv_pos_site_id
 _symmetry_equiv_pos_as_xyz
  1  'x, y, z'
loop_
 _atom_site_type_symbol
 _atom_site_label
 _atom_site_symmetry_multiplicity
 _atom_site_fract_x
 _atom_site_fract_y
 _atom_site_fract_z
 _atom_site_occupancy
  Cu  Cu0  1  0.50000000  0.00000000  0.00000000  1.0
  Cu  Cu1  1  0.00000000  0.50000000  0.50000000  1.0
  H  H2  1  0.77208000  0.77874000  0.01139000  1.0
  H  H3  1  0.27207000  0.72126000  0.48861000  1.0
  H  H4  1  0.22793000  0.22126000  0.98861000  1.0
  H  H5  1  0.72793000  0.27874000  0.51139000  1.0
  H  H6  1  0.89611000  0.91271000  0.08762000  1.0
  H  H7  1  0.39610000  0.58729000  0.41237000  1.0
  H  H8  1  0.10389000  0.08729000  0.91237000  1.0
  H  H9  1  0.60390000  0.41271000  0.58762000  1.0
  H  H10  1  0.53134000  0.57608000  0.12238000  1.0
  H  H11  1  0.03135000  0.92392000  0.37762000  1.0
  H  H12  1  0.46866000  0.42392000  0.87762000  1.0
  H  H13  1  0.96866000  0.07608000  0.62238000  1.0
  H  H14  1  0.39038000  0.73592000  0.19014000  1.0
  H  H15  1  0.89037000  0.76408000  0.30985000  1.0
  H  H16  1  0.60962000  0.26408000  0.80986000  1.0
  H  H17  1  0.10962000  0.23592000  0.69015000  1.0
  H  H18  1  0.28627000  0.66250000  0.06197000  1.0
  H  H19  1  0.78627000  0.83750000  0.43803000  1.0
  H  H20  1  0.71373000  0.33750000  0.93803000  1.0
  H  H21  1  0.21372000  0.16250000  0.56197000  1.0
  C  C22  1  0.76181000  0.25800000  0.12790000  1.0
  C  C23  1  0.26184000  0.24201000  0.37209000  1.0
  C  C24  1  0.23819000  0.74200000  0.87209000  1.0
  C  C25  1  0.73816000  0.75799000  0.62791000  1.0
  C  C26  1  0.75840000  0.44906000  0.27059000  1.0
  C  C27  1  0.25842000  0.05094000  0.22940000  1.0
  C  C28  1  0.24160000  0.55094000  0.72941000  1.0
  C  C29  1  0.74159000  0.94906000  0.77059000  1.0
  C  C30  1  0.86792000  0.38250000  0.17808000  1.0
  C  C31  1  0.36793000  0.11751000  0.32192000  1.0
  C  C32  1  0.13207000  0.61750000  0.82192000  1.0
  C  C33  1  0.63207000  0.88249000  0.67808000  1.0
  C  C34  1  0.08308000  0.44269000  0.12940000  1.0
  C  C35  1  0.58309000  0.05731000  0.37060000  1.0
  C  C36  1  0.91692000  0.55731000  0.87060000  1.0
  C  C37  1  0.41691000  0.94269000  0.62940000  1.0
  C  C38  1  0.35400000  0.64027000  0.13518000  1.0
  C  C39  1  0.85400000  0.85973000  0.36482000  1.0
  C  C40  1  0.64600000  0.35973000  0.86481000  1.0
  C  C41  1  0.14600000  0.14027000  0.63519000  1.0
  N  N42  1  0.67831000  0.15242000  0.08425000  1.0
  N  N43  1  0.17831000  0.34758000  0.41574000  1.0
  N  N44  1  0.32170000  0.84757000  0.91575000  1.0
  N  N45  1  0.82168000  0.65242000  0.58426000  1.0
  N  N46  1  0.67217000  0.50502000  0.34966000  1.0
  N  N47  1  0.17218000  0.99499000  0.15034000  1.0
  N  N48  1  0.32782000  0.49498000  0.65034000  1.0
  N  N49  1  0.82783000  0.00502000  0.84967000  1.0
  O  O50  1  0.19609000  0.38507000  0.04973000  1.0
  O  O51  1  0.69609000  0.11494000  0.45027000  1.0
  O  O52  1  0.80391000  0.61493000  0.95026000  1.0
  O  O53  1  0.30391000  0.88507000  0.54973000  1.0
  O  O54  1  0.14692000  0.56974000  0.18011000  1.0
  O  O55  1  0.64693000  0.93027000  0.31989000  1.0
  O  O56  1  0.85307000  0.43026000  0.81988000  1.0
  O  O57  1  0.35307000  0.06973000  0.68011000  1.0
  O  O58  1  0.72879000  0.86863000  0.05771000  1.0
  O  O59  1  0.22879000  0.63137000  0.44229000  1.0
  O  O60  1  0.27121000  0.13137000  0.94229000  1.0
  O  O61  1  0.77121000  0.36863000  0.55771000  1.0
