# generated using pymatgen
data_MnH15C23N(O2F3)2
_symmetry_space_group_name_H-M   'P 1'
_cell_length_a   7.37341000
_cell_length_b   12.28090000
_cell_length_c   14.44465664
_cell_angle_alpha   105.68982669
_cell_angle_beta   104.71611265
_cell_angle_gamma   90.00570000
_symmetry_Int_Tables_number   1
_chemical_formula_structural   MnH15C23N(O2F3)2
_chemical_formula_sum   'Mn2 H30 C46 N2 O8 F12'
_cell_volume   1214.62099397
_cell_formula_units_Z   2
loop_
 _symmetry_equiv_pos_site_id
 _symmetry_equiv_pos_as_xyz
  1  'x, y, z'
loop_
 _atom_site_type_symbol
 _atom_site_label
 _atom_site_symmetry_multiplicity
 _atom_site_fract_x
 _atom_site_fract_y
 _atom_site_fract_z
 _atom_site_occupancy
  Mn  Mn0  1  0.16540000  0.99993000  0.99990000  1.0
  Mn  Mn1  1  0.68055000  0.99973000  0.00006000  1.0
  H  H2  1  0.74385000  0.32228000  0.24575000  1.0
  H  H3  1  0.49799000  0.67743000  0.75356000  1.0
  H  H4  1  0.68919000  0.50171000  0.35867000  1.0
  H  H5  1  0.33012000  0.49814000  0.64093000  1.0
  H  H6  1  0.11242000  0.47157000  0.18263000  1.0
  H  H7  1  0.93027000  0.52870000  0.81796000  1.0
  H  H8  1  0.16764000  0.28793000  0.07417000  1.0
  H  H9  1  0.09427000  0.71227000  0.92617000  1.0
  H  H10  1  0.41447000  0.65766000  0.18399000  1.0
  H  H11  1  0.23006000  0.34258000  0.81611000  1.0
  H  H12  1  0.24039000  0.77337000  0.07975000  1.0
  H  H13  1  0.16029000  0.22691000  0.92048000  1.0
  H  H14  1  0.83568000  0.82817000  0.25254000  1.0
  H  H15  1  0.58339000  0.17176000  0.74798000  1.0
  H  H16  1  0.01369000  0.71900000  0.36142000  1.0
  H  H17  1  0.65248000  0.28100000  0.63899000  1.0
  H  H18  1  0.00552000  0.14610000  0.16704000  1.0
  H  H19  1  0.83893000  0.85397000  0.83306000  1.0
  H  H20  1  0.08985000  0.21846000  0.35272000  1.0
  H  H21  1  0.73766000  0.78156000  0.64743000  1.0
  H  H22  1  0.39185000  0.16588000  0.45192000  1.0
  H  H23  1  0.94029000  0.83411000  0.54787000  1.0
  H  H24  1  0.49012000  0.97263000  0.17433000  1.0
  H  H25  1  0.31621000  0.02708000  0.82519000  1.0
  H  H26  1  0.76372000  0.04514000  0.34436000  1.0
  H  H27  1  0.41937000  0.95466000  0.65482000  1.0
  H  H28  1  0.63817000  0.93811000  0.36910000  1.0
  H  H29  1  0.26916000  0.06174000  0.63029000  1.0
  H  H30  1  0.68618000  0.07519000  0.45541000  1.0
  H  H31  1  0.23086000  0.92464000  0.54397000  1.0
  C  C32  1  0.49708000  0.18575000  0.08526000  1.0
  C  C33  1  0.41241000  0.81412000  0.91443000  1.0
  C  C34  1  0.46120000  0.29518000  0.15134000  1.0
  C  C35  1  0.31018000  0.70481000  0.84844000  1.0
  C  C36  1  0.60596000  0.35610000  0.23238000  1.0
  C  C37  1  0.37355000  0.64379000  0.76719000  1.0
  C  C38  1  0.57419000  0.45768000  0.29568000  1.0
  C  C39  1  0.27832000  0.54225000  0.70407000  1.0
  C  C40  1  0.39688000  0.50107000  0.27785000  1.0
  C  C41  1  0.11904000  0.49903000  0.72226000  1.0
  C  C42  1  0.25135000  0.43923000  0.19714000  1.0
  C  C43  1  0.05454000  0.56095000  0.80318000  1.0
  C  C44  1  0.28246000  0.33695000  0.13499000  1.0
  C  C45  1  0.14799000  0.66319000  0.86517000  1.0
  C  C46  1  0.34893000  0.61172000  0.34484000  1.0
  C  C47  1  0.00423000  0.38842000  0.65536000  1.0
  C  C48  1  0.52633000  0.69142000  0.40997000  1.0
  C  C49  1  0.11654000  0.30863000  0.59011000  1.0
  C  C50  1  0.24903000  0.57576000  0.41639000  1.0
  C  C51  1  0.83301000  0.42449000  0.58393000  1.0
  C  C52  1  0.22771000  0.68000000  0.28060000  1.0
  C  C53  1  0.94702000  0.32015000  0.71966000  1.0
  C  C54  1  0.28858000  0.69576000  0.20021000  1.0
  C  C55  1  0.08805000  0.30445000  0.79999000  1.0
  C  C56  1  0.18913000  0.75886000  0.14016000  1.0
  C  C57  1  0.04869000  0.24137000  0.86015000  1.0
  C  C58  1  0.02421000  0.80595000  0.15838000  1.0
  C  C59  1  0.86574000  0.19413000  0.84201000  1.0
  C  C60  1  0.96337000  0.79061000  0.23855000  1.0
  C  C61  1  0.72495000  0.20934000  0.76184000  1.0
  C  C62  1  0.06474000  0.72898000  0.29970000  1.0
  C  C63  1  0.76513000  0.27106000  0.70066000  1.0
  C  C64  1  0.91470000  0.87371000  0.09524000  1.0
  C  C65  1  0.81905000  0.12616000  0.90505000  1.0
  C  C66  1  0.13437000  0.12413000  0.21278000  1.0
  C  C67  1  0.92203000  0.87588000  0.78720000  1.0
  C  C68  1  0.18239000  0.16418000  0.31609000  1.0
  C  C69  1  0.86678000  0.83581000  0.68390000  1.0
  C  C70  1  0.35021000  0.13452000  0.37072000  1.0
  C  C71  1  0.97983000  0.86547000  0.62908000  1.0
  C  C72  1  0.46634000  0.06452000  0.32143000  1.0
  C  C73  1  0.14521000  0.93536000  0.67821000  1.0
  C  C74  1  0.40577000  0.02737000  0.21721000  1.0
  C  C75  1  0.18894000  0.97246000  0.78244000  1.0
  C  C76  1  0.64852000  0.02939000  0.37581000  1.0
  C  C77  1  0.27282000  0.97046000  0.62355000  1.0
  N  N78  1  0.24475000  0.05661000  0.16424000  1.0
  N  N79  1  0.08091000  0.94333000  0.83557000  1.0
  O  O80  1  0.36562000  0.13181000  0.00958000  1.0
  O  O81  1  0.35665000  0.86826000  0.99020000  1.0
  O  O82  1  0.65948000  0.14892000  0.10776000  1.0
  O  O83  1  0.55255000  0.85070000  0.89189000  1.0
  O  O84  1  0.96142000  0.88238000  0.01714000  1.0
  O  O85  1  0.94362000  0.11722000  0.98300000  1.0
  O  O86  1  0.77583000  0.92297000  0.12036000  1.0
  O  O87  1  0.65515000  0.07693000  0.87991000  1.0
  F  F88  1  0.47985000  0.79627000  0.45479000  1.0
  F  F89  1  0.02510000  0.20383000  0.54533000  1.0
  F  F90  1  0.64272000  0.70755000  0.35410000  1.0
  F  F91  1  0.28857000  0.29235000  0.64582000  1.0
  F  F92  1  0.63193000  0.65134000  0.48415000  1.0
  F  F93  1  0.14814000  0.34863000  0.51586000  1.0
  F  F94  1  0.22303000  0.66492000  0.49120000  1.0
  F  F95  1  0.73212000  0.33540000  0.50922000  1.0
  F  F96  1  0.34999000  0.50246000  0.46086000  1.0
  F  F97  1  0.88950000  0.49768000  0.53931000  1.0
  F  F98  1  0.07646000  0.52189000  0.36589000  1.0
  F  F99  1  0.71112000  0.47852000  0.63466000  1.0
