# generated using pymatgen
data_SmH13C15(NO2)4
_symmetry_space_group_name_H-M   'P 1'
_cell_length_a   9.30301000
_cell_length_b   10.02040000
_cell_length_c   12.20360000
_cell_angle_alpha   100.07600000
_cell_angle_beta   91.72080000
_cell_angle_gamma   110.85900000
_symmetry_Int_Tables_number   1
_chemical_formula_structural   SmH13C15(NO2)4
_chemical_formula_sum   'Sm2 H26 C30 N8 O16'
_cell_volume   1041.37892809
_cell_formula_units_Z   2
loop_
 _symmetry_equiv_pos_site_id
 _symmetry_equiv_pos_as_xyz
  1  'x, y, z'
loop_
 _atom_site_type_symbol
 _atom_site_label
 _atom_site_symmetry_multiplicity
 _atom_site_fract_x
 _atom_site_fract_y
 _atom_site_fract_z
 _atom_site_occupancy
  Sm  Sm0  1  0.19259000  0.44330000  0.01644000  1.0
  Sm  Sm1  1  0.80742000  0.55670000  0.98356000  1.0
  H  H2  1  0.19392000  0.31131000  0.23912000  1.0
  H  H3  1  0.80608000  0.68869000  0.76088000  1.0
  H  H4  1  0.07486000  0.19627000  0.14250000  1.0
  H  H5  1  0.92515000  0.80374000  0.85750000  1.0
  H  H6  1  0.40155000  0.53394000  0.22536000  1.0
  H  H7  1  0.59845000  0.46606000  0.77464000  1.0
  H  H8  1  0.27847000  0.60831000  0.26032000  1.0
  H  H9  1  0.72154000  0.39169000  0.73968000  1.0
  H  H10  1  0.11646000  0.29262000  0.77749000  1.0
  H  H11  1  0.88358000  0.70735000  0.22253000  1.0
  H  H12  1  0.24344000  0.44754000  0.76589000  1.0
  H  H13  1  0.75656000  0.55244000  0.23411000  1.0
  H  H14  1  0.77663000  0.75662000  0.49190000  1.0
  H  H15  1  0.22334000  0.24338000  0.50812000  1.0
  H  H16  1  0.82413000  0.89931000  0.33817000  1.0
  H  H17  1  0.17586000  0.10070000  0.66184000  1.0
  H  H18  1  0.37116000  0.91986000  0.35358000  1.0
  H  H19  1  0.62884000  0.08017000  0.64642000  1.0
  H  H20  1  0.32305000  0.77617000  0.50354000  1.0
  H  H21  1  0.67692000  0.22384000  0.49646000  1.0
  H  H22  1  0.66051000  0.22329000  0.17207000  1.0
  H  H23  1  0.33948000  0.77670000  0.82794000  1.0
  H  H24  1  0.19766000  0.05731000  0.00562000  1.0
  H  H25  1  0.80235000  0.94267000  0.99436000  1.0
  H  H26  1  0.36375000  0.78122000  0.16639000  1.0
  H  H27  1  0.63626000  0.21879000  0.83361000  1.0
  C  C28  1  0.50965000  0.66832000  0.59368000  1.0
  C  C29  1  0.49033000  0.33169000  0.40633000  1.0
  C  C30  1  0.54573000  0.75559000  0.50713000  1.0
  C  C31  1  0.45425000  0.24441000  0.49288000  1.0
  C  C32  1  0.68820000  0.79285000  0.46147000  1.0
  C  C33  1  0.31177000  0.20715000  0.53854000  1.0
  C  C34  1  0.71442000  0.87031000  0.37500000  1.0
  C  C35  1  0.28556000  0.12969000  0.62501000  1.0
  C  C36  1  0.59881000  0.91243000  0.33355000  1.0
  C  C37  1  0.40118000  0.08758000  0.66647000  1.0
  C  C38  1  0.45820000  0.88031000  0.38096000  1.0
  C  C39  1  0.54179000  0.11972000  0.61905000  1.0
  C  C40  1  0.43202000  0.80128000  0.46593000  1.0
  C  C41  1  0.56796000  0.19874000  0.53407000  1.0
  C  C42  1  0.51847000  0.00404000  0.18386000  1.0
  C  C43  1  0.48154000  0.99596000  0.81614000  1.0
  C  C44  1  0.54856000  0.13519000  0.14859000  1.0
  C  C45  1  0.45146000  0.86482000  0.85141000  1.0
  C  C46  1  0.43336000  0.15278000  0.08241000  1.0
  C  C47  1  0.56664000  0.84721000  0.91758000  1.0
  C  C48  1  0.47070000  0.29186000  0.04005000  1.0
  C  C49  1  0.52931000  0.70814000  0.95995000  1.0
  C  C50  1  0.28781000  0.04125000  0.05470000  1.0
  C  C51  1  0.71220000  0.95873000  0.94529000  1.0
  C  C52  1  0.26313000  0.90657000  0.08493000  1.0
  C  C53  1  0.73689000  0.09343000  0.91506000  1.0
  C  C54  1  0.11099000  0.78462000  0.05330000  1.0
  C  C55  1  0.88902000  0.21538000  0.94669000  1.0
  C  C56  1  0.37996000  0.88704000  0.14703000  1.0
  C  C57  1  0.62005000  0.11295000  0.85296000  1.0
  N  N58  1  0.36247000  0.60142000  0.61655000  1.0
  N  N59  1  0.63751000  0.39858000  0.38346000  1.0
  N  N60  1  0.37462000  0.52947000  0.69579000  1.0
  N  N61  1  0.62537000  0.47052000  0.30421000  1.0
  N  N62  1  0.52153000  0.55140000  0.72097000  1.0
  N  N63  1  0.47847000  0.44860000  0.27902000  1.0
  N  N64  1  0.61092000  0.63885000  0.65853000  1.0
  N  N65  1  0.38906000  0.36115000  0.34146000  1.0
  O  O66  1  0.61216000  0.36946000  0.04131000  1.0
  O  O67  1  0.38784000  0.63055000  0.95869000  1.0
  O  O68  1  0.11770000  0.29979000  0.17608000  1.0
  O  O69  1  0.88232000  0.70021000  0.82391000  1.0
  O  O70  1  0.35940000  0.32302000  0.00329000  1.0
  O  O71  1  0.64060000  0.67697000  0.99670000  1.0
  O  O72  1  0.32749000  0.58136000  0.19521000  1.0
  O  O73  1  0.67252000  0.41865000  0.80479000  1.0
  O  O74  1  0.09845000  0.64910000  0.03825000  1.0
  O  O75  1  0.90156000  0.35089000  0.96175000  1.0
  O  O76  1  0.15921000  0.39453000  0.81423000  1.0
  O  O77  1  0.84079000  0.60544000  0.18577000  1.0
  O  O78  1  0.99022000  0.81456000  0.04265000  1.0
  O  O79  1  0.00979000  0.18544000  0.95735000  1.0
  O  O80  1  0.63561000  0.99186000  0.24954000  1.0
  O  O81  1  0.36440000  0.00815000  0.75047000  1.0
