# generated using pymatgen
data_H12PbC13N4Cl2O
_symmetry_space_group_name_H-M   'P 1'
_cell_length_a   7.83721000
_cell_length_b   8.69683000
_cell_length_c   11.04770000
_cell_angle_alpha   100.84400000
_cell_angle_beta   93.06560000
_cell_angle_gamma   95.10530000
_symmetry_Int_Tables_number   1
_chemical_formula_structural   H12PbC13N4Cl2O
_chemical_formula_sum   'H24 Pb2 C26 N8 Cl4 O2'
_cell_volume   734.71847485
_cell_formula_units_Z   2
loop_
 _symmetry_equiv_pos_site_id
 _symmetry_equiv_pos_as_xyz
  1  'x, y, z'
loop_
 _atom_site_type_symbol
 _atom_site_label
 _atom_site_symmetry_multiplicity
 _atom_site_fract_x
 _atom_site_fract_y
 _atom_site_fract_z
 _atom_site_occupancy
  H  H0  1  0.19773000  0.85156000  0.31816000  1.0
  H  H1  1  0.80227000  0.14844000  0.68184000  1.0
  H  H2  1  0.77953000  0.74597000  0.53920000  1.0
  H  H3  1  0.22047000  0.25403000  0.46079000  1.0
  H  H4  1  0.59936000  0.89578000  0.41878000  1.0
  H  H5  1  0.40064000  0.10422000  0.58122000  1.0
  H  H6  1  0.72867000  0.01548000  0.25160000  1.0
  H  H7  1  0.27133000  0.98452000  0.74840000  1.0
  H  H8  1  0.31297000  0.63016000  0.67640000  1.0
  H  H9  1  0.68703000  0.36984000  0.32360000  1.0
  H  H10  1  0.50194000  0.19951000  0.01442000  1.0
  H  H11  1  0.49806000  0.80049000  0.98558000  1.0
  H  H12  1  0.64415000  0.33407000  0.86136000  1.0
  H  H13  1  0.35585000  0.66593000  0.13864000  1.0
  H  H14  1  0.04046000  0.37869000  0.94769000  1.0
  H  H15  1  0.95954000  0.62131000  0.05232000  1.0
  H  H16  1  0.47638000  0.50156000  0.74840000  1.0
  H  H17  1  0.52362000  0.49845000  0.25161000  1.0
  H  H18  1  0.38847000  0.72696000  0.47497000  1.0
  H  H19  1  0.61153000  0.27304000  0.52502000  1.0
  H  H20  1  0.25345000  0.61276000  0.34709000  1.0
  H  H21  1  0.74655000  0.38724000  0.65291000  1.0
  H  H22  1  0.30748000  0.53181000  0.47807000  1.0
  H  H23  1  0.69252000  0.46819000  0.52193000  1.0
  Pb  Pb24  1  0.12442000  0.15623000  0.15967000  1.0
  Pb  Pb25  1  0.87559000  0.84377000  0.84033000  1.0
  C  C26  1  0.06504000  0.85584000  0.34310000  1.0
  C  C27  1  0.93496000  0.14415000  0.65690000  1.0
  C  C28  1  0.00457000  0.78312000  0.43795000  1.0
  C  C29  1  0.99542000  0.21689000  0.56205000  1.0
  C  C30  1  0.83326000  0.79859000  0.46573000  1.0
  C  C31  1  0.16675000  0.20142000  0.53427000  1.0
  C  C32  1  0.73247000  0.88188000  0.39906000  1.0
  C  C33  1  0.26753000  0.11812000  0.60094000  1.0
  C  C34  1  0.80414000  0.94955000  0.30619000  1.0
  C  C35  1  0.19587000  0.05045000  0.69381000  1.0
  C  C36  1  0.43118000  0.27224000  0.96332000  1.0
  C  C37  1  0.56882000  0.72776000  0.03668000  1.0
  C  C38  1  0.50971000  0.34735000  0.87690000  1.0
  C  C39  1  0.49028000  0.65265000  0.12310000  1.0
  C  C40  1  0.24238000  0.45285000  0.83873000  1.0
  C  C41  1  0.75762000  0.54715000  0.16127000  1.0
  C  C42  1  0.17452000  0.37356000  0.92733000  1.0
  C  C43  1  0.82548000  0.62645000  0.07266000  1.0
  C  C44  1  0.41489000  0.43955000  0.81417000  1.0
  C  C45  1  0.58511000  0.56045000  0.18583000  1.0
  C  C46  1  0.12067000  0.53767000  0.77393000  1.0
  C  C47  1  0.87933000  0.46233000  0.22607000  1.0
  C  C48  1  0.11909000  0.69768000  0.50592000  1.0
  C  C49  1  0.88091000  0.30232000  0.49408000  1.0
  C  C50  1  0.27592000  0.63976000  0.44781000  1.0
  C  C51  1  0.72408000  0.36024000  0.55219000  1.0
  N  N52  1  0.96819000  0.93738000  0.27976000  1.0
  N  N53  1  0.03181000  0.06263000  0.72024000  1.0
  N  N54  1  0.26684000  0.28667000  0.98847000  1.0
  N  N55  1  0.73316000  0.71333000  0.01153000  1.0
  N  N56  1  0.07275000  0.67664000  0.61357000  1.0
  N  N57  1  0.92725000  0.32336000  0.38643000  1.0
  N  N58  1  0.18206000  0.60350000  0.67993000  1.0
  N  N59  1  0.81795000  0.39650000  0.32006000  1.0
  Cl  Cl60  1  0.19266000  0.88249000  0.99847000  1.0
  Cl  Cl61  1  0.80734000  0.11751000  0.00153000  1.0
  Cl  Cl62  1  0.44979000  0.20210000  0.29475000  1.0
  Cl  Cl63  1  0.55021000  0.79790000  0.70524000  1.0
  O  O64  1  0.96749000  0.53899000  0.80010000  1.0
  O  O65  1  0.03251000  0.46101000  0.19990000  1.0
