# generated using pymatgen
data_HgH12C13(N2O3)2
_symmetry_space_group_name_H-M   'P 1'
_cell_length_a   10.39450000
_cell_length_b   10.64400000
_cell_length_c   14.21190000
_cell_angle_alpha   90.00000000
_cell_angle_beta   90.00000000
_cell_angle_gamma   97.32520000
_symmetry_Int_Tables_number   1
_chemical_formula_structural   HgH12C13(N2O3)2
_chemical_formula_sum   'Hg4 H48 C52 N16 O24'
_cell_volume   1559.55809562
_cell_formula_units_Z   4
loop_
 _symmetry_equiv_pos_site_id
 _symmetry_equiv_pos_as_xyz
  1  'x, y, z'
loop_
 _atom_site_type_symbol
 _atom_site_label
 _atom_site_symmetry_multiplicity
 _atom_site_fract_x
 _atom_site_fract_y
 _atom_site_fract_z
 _atom_site_occupancy
  Hg  Hg0  1  0.16185000  0.22583000  0.24313000  1.0
  Hg  Hg1  1  0.33815000  0.77417000  0.74313000  1.0
  Hg  Hg2  1  0.83815000  0.77417000  0.75687000  1.0
  Hg  Hg3  1  0.66185000  0.22583000  0.25687000  1.0
  H  H4  1  0.12606000  0.42244000  0.90827000  1.0
  H  H5  1  0.37394000  0.57756000  0.40828000  1.0
  H  H6  1  0.87394000  0.57756000  0.09173000  1.0
  H  H7  1  0.62606000  0.42244000  0.59172000  1.0
  H  H8  1  0.12555000  0.22073000  0.81477000  1.0
  H  H9  1  0.37445000  0.77927000  0.31477000  1.0
  H  H10  1  0.87445000  0.77927000  0.18523000  1.0
  H  H11  1  0.62555000  0.22073000  0.68523000  1.0
  H  H12  1  0.15008000  0.01966000  0.90088000  1.0
  H  H13  1  0.34992000  0.98034000  0.40088000  1.0
  H  H14  1  0.84992000  0.98034000  0.09912000  1.0
  H  H15  1  0.65008000  0.01966000  0.59912000  1.0
  H  H16  1  0.16932000  0.02532000  0.07654000  1.0
  H  H17  1  0.33068000  0.97468000  0.57654000  1.0
  H  H18  1  0.83069000  0.97468000  0.92346000  1.0
  H  H19  1  0.66932000  0.02532000  0.42346000  1.0
  H  H20  1  0.11559000  0.52663000  0.06112000  1.0
  H  H21  1  0.38441000  0.47337000  0.56112000  1.0
  H  H22  1  0.88441000  0.47337000  0.93888000  1.0
  H  H23  1  0.61559000  0.52663000  0.43888000  1.0
  H  H24  1  0.18543000  0.68122000  0.16340000  1.0
  H  H25  1  0.31457000  0.31878000  0.66340000  1.0
  H  H26  1  0.81457000  0.31878000  0.83660000  1.0
  H  H27  1  0.68543000  0.68122000  0.33660000  1.0
  H  H28  1  0.13176000  0.84832000  0.27036000  1.0
  H  H29  1  0.36824000  0.15168000  0.77036000  1.0
  H  H30  1  0.86824000  0.15168000  0.72964000  1.0
  H  H31  1  0.63176000  0.84832000  0.22964000  1.0
  H  H32  1  0.93024000  0.56805000  0.45413000  1.0
  H  H33  1  0.56976000  0.43195000  0.95413000  1.0
  H  H34  1  0.06976000  0.43195000  0.54587000  1.0
  H  H35  1  0.43024000  0.56805000  0.04587000  1.0
  H  H36  1  0.98576000  0.39810000  0.34738000  1.0
  H  H37  1  0.51424000  0.60190000  0.84738000  1.0
  H  H38  1  0.01424000  0.60190000  0.65262000  1.0
  H  H39  1  0.48576000  0.39810000  0.15262000  1.0
  H  H40  1  0.89493000  0.84591000  0.42242000  1.0
  H  H41  1  0.60507000  0.15409000  0.92242000  1.0
  H  H42  1  0.10507000  0.15409000  0.57758000  1.0
  H  H43  1  0.39493000  0.84591000  0.07758000  1.0
  H  H44  1  0.05982000  0.91271000  0.42206000  1.0
  H  H45  1  0.44018000  0.08729000  0.92206000  1.0
  H  H46  1  0.94018000  0.08729000  0.57794000  1.0
  H  H47  1  0.55982000  0.91271000  0.07794000  1.0
  H  H48  1  0.00191000  0.79809000  0.50861000  1.0
  H  H49  1  0.49809000  0.20191000  0.00861000  1.0
  H  H50  1  0.99809000  0.20191000  0.49139000  1.0
  H  H51  1  0.50191000  0.79809000  0.99139000  1.0
  C  C52  1  0.14021000  0.32688000  0.04058000  1.0
  C  C53  1  0.35979000  0.67312000  0.54058000  1.0
  C  C54  1  0.85979000  0.67312000  0.95942000  1.0
  C  C55  1  0.64021000  0.32688000  0.45942000  1.0
  C  C56  1  0.13329000  0.33203000  0.94244000  1.0
  C  C57  1  0.36671000  0.66797000  0.44244000  1.0
  C  C58  1  0.86671000  0.66797000  0.05756000  1.0
  C  C59  1  0.63329000  0.33203000  0.55756000  1.0
  C  C60  1  0.13468000  0.22069000  0.89097000  1.0
  C  C61  1  0.36532000  0.77930000  0.39097000  1.0
  C  C62  1  0.86532000  0.77930000  0.10903000  1.0
  C  C63  1  0.63468000  0.22069000  0.60903000  1.0
  C  C64  1  0.14654000  0.10819000  0.93830000  1.0
  C  C65  1  0.35346000  0.89181000  0.43830000  1.0
  C  C66  1  0.85346000  0.89181000  0.06170000  1.0
  C  C67  1  0.64654000  0.10819000  0.56170000  1.0
  C  C68  1  0.15682000  0.10990000  0.03609000  1.0
  C  C69  1  0.34318000  0.89010000  0.53609000  1.0
  C  C70  1  0.84318000  0.89010000  0.96391000  1.0
  C  C71  1  0.65682000  0.10990000  0.46391000  1.0
  C  C72  1  0.12406000  0.43779000  0.09855000  1.0
  C  C73  1  0.37594000  0.56221000  0.59855000  1.0
  C  C74  1  0.87594000  0.56221000  0.90145000  1.0
  C  C75  1  0.62406000  0.43779000  0.40145000  1.0
  C  C76  1  0.08737000  0.52781000  0.24766000  1.0
  C  C77  1  0.41263000  0.47219000  0.74766000  1.0
  C  C78  1  0.91263000  0.47219000  0.75234000  1.0
  C  C79  1  0.58737000  0.52781000  0.25234000  1.0
  C  C80  1  0.12816000  0.65551000  0.22634000  1.0
  C  C81  1  0.37184000  0.34450000  0.72634000  1.0
  C  C82  1  0.87184000  0.34450000  0.77366000  1.0
  C  C83  1  0.62816000  0.65551000  0.27366000  1.0
  C  C84  1  0.09780000  0.74995000  0.28699000  1.0
  C  C85  1  0.40220000  0.25005000  0.78699000  1.0
  C  C86  1  0.90220000  0.25005000  0.71301000  1.0
  C  C87  1  0.59780000  0.74995000  0.21301000  1.0
  C  C88  1  0.02591000  0.72128000  0.36964000  1.0
  C  C89  1  0.47409000  0.27872000  0.86964000  1.0
  C  C90  1  0.97409000  0.27872000  0.63036000  1.0
  C  C91  1  0.52591000  0.72128000  0.13036000  1.0
  C  C92  1  0.98582000  0.59314000  0.39012000  1.0
  C  C93  1  0.51418000  0.40686000  0.89013000  1.0
  C  C94  1  0.01418000  0.40686000  0.60987000  1.0
  C  C95  1  0.48582000  0.59314000  0.10988000  1.0
  C  C96  1  0.01728000  0.49731000  0.33102000  1.0
  C  C97  1  0.48272000  0.50269000  0.83102000  1.0
  C  C98  1  0.98272000  0.50269000  0.66898000  1.0
  C  C99  1  0.51728000  0.49731000  0.16898000  1.0
  C  C100  1  0.99468000  0.82479000  0.43428000  1.0
  C  C101  1  0.50532000  0.17521000  0.93428000  1.0
  C  C102  1  0.00532000  0.17521000  0.56572000  1.0
  C  C103  1  0.49468000  0.82479000  0.06572000  1.0
  N  N104  1  0.15281000  0.21681000  0.08482000  1.0
  N  N105  1  0.34719000  0.78319000  0.58482000  1.0
  N  N106  1  0.84719000  0.78319000  0.91518000  1.0
  N  N107  1  0.65281000  0.21681000  0.41518000  1.0
  N  N108  1  0.11238000  0.42789000  0.18864000  1.0
  N  N109  1  0.38762000  0.57211000  0.68864000  1.0
  N  N110  1  0.88762000  0.57211000  0.81136000  1.0
  N  N111  1  0.61238000  0.42789000  0.31136000  1.0
  N  N112  1  0.90346000  0.06479000  0.27926000  1.0
  N  N113  1  0.59654000  0.93521000  0.77926000  1.0
  N  N114  1  0.09654000  0.93521000  0.72074000  1.0
  N  N115  1  0.40346000  0.06479000  0.22074000  1.0
  N  N116  1  0.28694000  0.26013000  0.42774000  1.0
  N  N117  1  0.21306000  0.73987000  0.92774000  1.0
  N  N118  1  0.71306000  0.73987000  0.57226000  1.0
  N  N119  1  0.78694000  0.26013000  0.07226000  1.0
  O  O120  1  0.00118000  0.01743000  0.24825000  1.0
  O  O121  1  0.49882000  0.98257000  0.74826000  1.0
  O  O122  1  0.99882000  0.98257000  0.75175000  1.0
  O  O123  1  0.50118000  0.01743000  0.25174000  1.0
  O  O124  1  0.91511000  0.18458000  0.29674000  1.0
  O  O125  1  0.58489000  0.81542000  0.79674000  1.0
  O  O126  1  0.08489000  0.81542000  0.70326000  1.0
  O  O127  1  0.41511000  0.18458000  0.20326000  1.0
  O  O128  1  0.79686000  0.99749000  0.29163000  1.0
  O  O129  1  0.70314000  0.00251000  0.79163000  1.0
  O  O130  1  0.20314000  0.00251000  0.70837000  1.0
  O  O131  1  0.29686000  0.99749000  0.20837000  1.0
  O  O132  1  0.22701000  0.16179000  0.38157000  1.0
  O  O133  1  0.27299000  0.83820000  0.88157000  1.0
  O  O134  1  0.77299000  0.83820000  0.61843000  1.0
  O  O135  1  0.72701000  0.16180000  0.11843000  1.0
  O  O136  1  0.29277000  0.36783000  0.39087000  1.0
  O  O137  1  0.20723000  0.63217000  0.89087000  1.0
  O  O138  1  0.70723000  0.63218000  0.60913000  1.0
  O  O139  1  0.79277000  0.36783000  0.10912000  1.0
  O  O140  1  0.33400000  0.23950000  0.50568000  1.0
  O  O141  1  0.16601000  0.76050000  0.00568000  1.0
  O  O142  1  0.66601000  0.76050000  0.49432000  1.0
  O  O143  1  0.83400000  0.23950000  0.99432000  1.0
