# generated using pymatgen
data_AlH6C14BrClO5
_symmetry_space_group_name_H-M   'P 1'
_cell_length_a   6.60759000
_cell_length_b   11.11402935
_cell_length_c   17.47720000
_cell_angle_alpha   86.92794647
_cell_angle_beta   80.12090000
_cell_angle_gamma   72.84995593
_symmetry_Int_Tables_number   1
_chemical_formula_structural   AlH6C14BrClO5
_chemical_formula_sum   'Al2 H12 C28 Br2 Cl2 O10'
_cell_volume   1208.21243429
_cell_formula_units_Z   2
loop_
 _symmetry_equiv_pos_site_id
 _symmetry_equiv_pos_as_xyz
  1  'x, y, z'
loop_
 _atom_site_type_symbol
 _atom_site_label
 _atom_site_symmetry_multiplicity
 _atom_site_fract_x
 _atom_site_fract_y
 _atom_site_fract_z
 _atom_site_occupancy
  Al  Al0  1  0.01938000  0.46548000  0.49643000  1.0
  Al  Al1  1  0.51696000  0.46994000  0.49704000  1.0
  H  H2  1  0.36632000  0.32035000  0.45496000  1.0
  H  H3  1  0.69926000  0.51768000  0.59196000  1.0
  H  H4  1  0.84579000  0.60739000  0.71319000  1.0
  H  H5  1  0.74466000  0.67497000  0.85083000  1.0
  H  H6  1  0.37239000  0.45071000  0.89255000  1.0
  H  H7  1  0.58435000  0.70602000  0.12977000  1.0
  H  H8  1  0.16890000  0.44577000  0.26409000  1.0
  H  H9  1  0.24424000  0.48140000  0.12120000  1.0
  H  H10  1  0.54575000  0.19890000  0.59759000  1.0
  H  H11  1  0.76135000  0.73177000  0.58371000  1.0
  H  H12  1  0.37189000  0.84764000  0.44698000  1.0
  H  H13  1  0.25770000  0.08333000  0.44910000  1.0
  C  C14  1  0.88260000  0.23835000  0.50259000  1.0
  C  C15  1  0.80530000  0.50920000  0.35998000  1.0
  C  C16  1  0.14468000  0.69380000  0.49903000  1.0
  C  C17  1  0.21261000  0.46600000  0.63886000  1.0
  C  C18  1  0.16478000  0.49404000  0.72367000  1.0
  C  C19  1  0.96051000  0.57418000  0.75310000  1.0
  C  C20  1  0.90351000  0.61199000  0.83004000  1.0
  C  C21  1  0.05146000  0.56686000  0.88177000  1.0
  C  C22  1  0.25700000  0.48687000  0.85320000  1.0
  C  C23  1  0.31356000  0.45162000  0.77540000  1.0
  C  C24  1  0.99672000  0.59290000  0.96229000  1.0
  C  C25  1  0.95568000  0.60123000  0.03299000  1.0
  C  C26  1  0.91741000  0.59275000  0.11499000  1.0
  C  C27  1  0.71310000  0.64716000  0.15842000  1.0
  C  C28  1  0.67204000  0.62460000  0.23805000  1.0
  C  C29  1  0.83531000  0.54771000  0.27667000  1.0
  C  C30  1  0.04208000  0.50097000  0.23321000  1.0
  C  C31  1  0.08436000  0.52157000  0.15408000  1.0
  C  C32  1  0.94233000  0.09853000  0.51033000  1.0
  C  C33  1  0.79594000  0.03352000  0.54913000  1.0
  C  C34  1  0.14728000  0.03163000  0.47614000  1.0
  C  C35  1  0.59538000  0.09681000  0.59388000  1.0
  C  C36  1  0.46355000  0.03111000  0.63459000  1.0
  C  C37  1  0.06912000  0.83353000  0.50646000  1.0
  C  C38  1  0.21113000  0.89967000  0.47453000  1.0
  C  C39  1  0.85993000  0.89825000  0.54631000  1.0
  C  C40  1  0.71831000  0.83365000  0.58730000  1.0
  C  C41  1  0.52601000  0.89765000  0.63119000  1.0
  Br  Br42  1  0.20153000  0.12299000  0.69491000  1.0
  Br  Br43  1  0.35305000  0.80214000  0.68718000  1.0
  Cl  Cl44  1  0.56848000  0.35035000  0.74802000  1.0
  Cl  Cl45  1  0.41614000  0.69833000  0.28549000  1.0
  O  O46  1  0.02939000  0.29031000  0.50546000  1.0
  O  O47  1  0.61881000  0.50918000  0.39325000  1.0
  O  O48  1  0.33884000  0.63993000  0.50624000  1.0
  O  O49  1  0.05291000  0.47248000  0.60531000  1.0
  O  O50  1  0.01102000  0.63834000  0.48601000  1.0
  O  O51  1  0.40660000  0.44383000  0.60525000  1.0
  O  O52  1  0.69252000  0.29530000  0.49070000  1.0
  O  O53  1  0.97352000  0.47386000  0.39149000  1.0
  O  O54  1  0.31295000  0.41056000  0.46352000  1.0
  O  O55  1  0.72766000  0.51568000  0.53557000  1.0
