# generated using pymatgen
data_CuH19C22N5O3
_symmetry_space_group_name_H-M   'P 1'
_cell_length_a   9.55309000
_cell_length_b   10.23070000
_cell_length_c   10.88750000
_cell_angle_alpha   72.02000000
_cell_angle_beta   90.00050000
_cell_angle_gamma   90.00010000
_symmetry_Int_Tables_number   1
_chemical_formula_structural   CuH19C22N5O3
_chemical_formula_sum   'Cu2 H38 C44 N10 O6'
_cell_volume   1012.12217559
_cell_formula_units_Z   2
loop_
 _symmetry_equiv_pos_site_id
 _symmetry_equiv_pos_as_xyz
  1  'x, y, z'
loop_
 _atom_site_type_symbol
 _atom_site_label
 _atom_site_symmetry_multiplicity
 _atom_site_fract_x
 _atom_site_fract_y
 _atom_site_fract_z
 _atom_site_occupancy
  Cu  Cu0  1  0.15523000  0.32025000  0.68552000  1.0
  Cu  Cu1  1  0.65522000  0.67976000  0.31448000  1.0
  H  H2  1  0.88809000  0.93505000  0.53769000  1.0
  H  H3  1  0.38808000  0.06494000  0.46231000  1.0
  H  H4  1  0.86716000  0.65524000  0.52532000  1.0
  H  H5  1  0.36716000  0.34476000  0.47467000  1.0
  H  H6  1  0.98014000  0.54640000  0.64649000  1.0
  H  H7  1  0.48013000  0.45361000  0.35350000  1.0
  H  H8  1  0.29605000  0.13026000  0.03157000  1.0
  H  H9  1  0.79604000  0.86975000  0.96843000  1.0
  H  H10  1  0.26603000  0.24265000  0.18108000  1.0
  H  H11  1  0.76603000  0.75736000  0.81892000  1.0
  H  H12  1  0.17321000  0.43260000  0.25511000  1.0
  H  H13  1  0.67322000  0.56740000  0.74490000  1.0
  H  H14  1  0.02702000  0.61608000  0.10371000  1.0
  H  H15  1  0.52703000  0.38392000  0.89629000  1.0
  H  H16  1  0.98210000  0.61237000  0.88121000  1.0
  H  H17  1  0.48210000  0.38763000  0.11879000  1.0
  H  H18  1  0.39327000  0.03989000  0.87346000  1.0
  H  H19  1  0.89326000  0.96012000  0.12654000  1.0
  H  H20  1  0.24986000  0.85509000  0.86108000  1.0
  H  H21  1  0.74985000  0.14492000  0.13892000  1.0
  H  H22  1  0.16639000  0.93307000  0.96511000  1.0
  H  H23  1  0.66638000  0.06694000  0.03489000  1.0
  H  H24  1  0.10803000  0.83361000  0.65446000  1.0
  H  H25  1  0.60802000  0.16640000  0.34554000  1.0
  H  H26  1  0.65205000  0.08501000  0.58096000  1.0
  H  H27  1  0.15204000  0.91498000  0.41904000  1.0
  H  H28  1  0.59162000  0.25162000  0.69751000  1.0
  H  H29  1  0.09162000  0.74836000  0.30248000  1.0
  H  H30  1  0.74918000  0.28368000  0.86794000  1.0
  H  H31  1  0.24919000  0.71632000  0.13205000  1.0
  H  H32  1  0.96794000  0.15131000  0.92645000  1.0
  H  H33  1  0.46794000  0.84869000  0.07355000  1.0
  H  H34  1  0.06902000  0.17946000  0.51292000  1.0
  H  H35  1  0.56902000  0.82055000  0.48708000  1.0
  H  H36  1  0.90381000  0.20037000  0.32922000  1.0
  H  H37  1  0.40382000  0.79963000  0.67078000  1.0
  H  H38  1  0.75733000  0.41892000  0.25636000  1.0
  H  H39  1  0.25734000  0.58108000  0.74363000  1.0
  C  C40  1  0.24215000  0.20928000  0.95370000  1.0
  C  C41  1  0.74215000  0.79073000  0.04630000  1.0
  C  C42  1  0.18144000  0.32112000  0.98841000  1.0
  C  C43  1  0.68143000  0.67888000  0.01158000  1.0
  C  C44  1  0.20473000  0.32534000  0.11572000  1.0
  C  C45  1  0.70473000  0.67467000  0.88428000  1.0
  C  C46  1  0.15249000  0.43026000  0.15747000  1.0
  C  C47  1  0.65250000  0.56974000  0.84253000  1.0
  C  C48  1  0.07139000  0.53364000  0.07181000  1.0
  C  C49  1  0.57140000  0.46636000  0.92819000  1.0
  C  C50  1  0.04505000  0.53220000  0.94715000  1.0
  C  C51  1  0.54506000  0.46780000  0.05285000  1.0
  C  C52  1  0.09907000  0.42702000  0.90081000  1.0
  C  C53  1  0.59907000  0.57299000  0.09918000  1.0
  C  C54  1  0.29498000  0.07038000  0.81916000  1.0
  C  C55  1  0.79497000  0.92963000  0.18084000  1.0
  C  C56  1  0.19125000  0.94688000  0.86323000  1.0
  C  C57  1  0.69124000  0.05313000  0.13677000  1.0
  C  C58  1  0.06196000  0.96132000  0.78297000  1.0
  C  C59  1  0.56196000  0.03868000  0.21704000  1.0
  C  C60  1  0.03955000  0.90107000  0.68700000  1.0
  C  C61  1  0.53954000  0.09892000  0.31301000  1.0
  C  C62  1  0.84854000  0.02903000  0.68453000  1.0
  C  C63  1  0.34854000  0.97094000  0.31548000  1.0
  C  C64  1  0.72197000  0.10045000  0.65420000  1.0
  C  C65  1  0.22197000  0.89952000  0.34581000  1.0
  C  C66  1  0.68814000  0.19204000  0.72126000  1.0
  C  C67  1  0.18814000  0.80795000  0.27874000  1.0
  C  C68  1  0.77708000  0.20973000  0.81834000  1.0
  C  C69  1  0.27708000  0.79027000  0.18166000  1.0
  C  C70  1  0.90100000  0.13583000  0.85112000  1.0
  C  C71  1  0.40101000  0.86416000  0.14888000  1.0
  C  C72  1  0.94019000  0.04484000  0.78294000  1.0
  C  C73  1  0.44019000  0.95514000  0.21707000  1.0
  C  C74  1  0.32498000  0.10074000  0.67535000  1.0
  C  C75  1  0.82498000  0.89927000  0.32466000  1.0
  C  C76  1  0.99987000  0.26758000  0.47808000  1.0
  C  C77  1  0.49988000  0.73242000  0.52192000  1.0
  C  C78  1  0.90949000  0.28024000  0.37566000  1.0
  C  C79  1  0.40949000  0.71977000  0.62434000  1.0
  C  C80  1  0.82960000  0.39932000  0.33737000  1.0
  C  C81  1  0.32960000  0.60068000  0.66263000  1.0
  C  C82  1  0.92419000  0.47549000  0.49780000  1.0
  C  C83  1  0.42419000  0.52452000  0.50220000  1.0
  N  N84  1  0.23740000  0.19389000  0.83986000  1.0
  N  N85  1  0.73739000  0.80611000  0.16014000  1.0
  N  N86  1  0.91064000  0.93849000  0.62972000  1.0
  N  N87  1  0.41063000  0.06150000  0.37028000  1.0
  N  N88  1  0.01148000  0.36391000  0.53819000  1.0
  N  N89  1  0.51148000  0.63610000  0.46181000  1.0
  N  N90  1  0.83424000  0.49564000  0.39672000  1.0
  N  N91  1  0.33424000  0.50437000  0.60328000  1.0
  N  N92  1  0.92866000  0.56997000  0.55966000  1.0
  N  N93  1  0.42866000  0.43004000  0.44033000  1.0
  O  O94  1  0.07205000  0.43346000  0.78049000  1.0
  O  O95  1  0.57204000  0.56654000  0.21951000  1.0
  O  O96  1  0.39796000  0.02035000  0.63669000  1.0
  O  O97  1  0.89795000  0.97966000  0.36331000  1.0
  O  O98  1  0.26655000  0.20958000  0.59810000  1.0
  O  O99  1  0.76655000  0.79042000  0.40190000  1.0
