# generated using pymatgen
data_Zr6H26C57S10(ClO8)4
_symmetry_space_group_name_H-M   'P 1'
_cell_length_a   16.43770000
_cell_length_b   16.46680000
_cell_length_c   16.46590000
_cell_angle_alpha   61.91230000
_cell_angle_beta   60.05470000
_cell_angle_gamma   60.05330000
_symmetry_Int_Tables_number   1
_chemical_formula_structural   Zr6H26C57S10(ClO8)4
_chemical_formula_sum   'Zr6 H26 C57 S10 Cl4 O32'
_cell_volume   3197.20850559
_cell_formula_units_Z   1
loop_
 _symmetry_equiv_pos_site_id
 _symmetry_equiv_pos_as_xyz
  1  'x, y, z'
loop_
 _atom_site_type_symbol
 _atom_site_label
 _atom_site_symmetry_multiplicity
 _atom_site_fract_x
 _atom_site_fract_y
 _atom_site_fract_z
 _atom_site_occupancy
  Zr  Zr0  1  0.88580000  0.90237000  0.60861000  1.0
  Zr  Zr1  1  0.10055000  0.11113000  0.40038000  1.0
  Zr  Zr2  1  0.10101000  0.90184000  0.60873000  1.0
  Zr  Zr3  1  0.88640000  0.11009000  0.39976000  1.0
  Zr  Zr4  1  0.10346000  0.89677000  0.39545000  1.0
  Zr  Zr5  1  0.88432000  0.11546000  0.61382000  1.0
  H  H6  1  0.08230000  0.75617000  0.57893000  1.0
  H  H7  1  0.08137000  0.08066000  0.25463000  1.0
  H  H8  1  0.07630000  0.09263000  0.59066000  1.0
  H  H9  1  0.73800000  0.09256000  0.59027000  1.0
  H  H10  1  0.11762000  0.61625000  0.36770000  1.0
  H  H11  1  0.60109000  0.13510000  0.90337000  1.0
  H  H12  1  0.85814000  0.12148000  0.13009000  1.0
  H  H13  1  0.60922000  0.39126000  0.37643000  1.0
  H  H14  1  0.89683000  0.63435000  0.79725000  1.0
  H  H15  1  0.17280000  0.28696000  0.12148000  1.0
  H  H16  1  0.60537000  0.87918000  0.62804000  1.0
  H  H17  1  0.85326000  0.33400000  0.71052000  1.0
  H  H18  1  0.78887000  0.46234000  0.69593000  1.0
  H  H19  1  0.77752000  0.40256000  0.63725000  1.0
  H  H20  1  0.32572000  0.85906000  0.11730000  1.0
  H  H21  1  0.45705000  0.79659000  0.06936000  1.0
  H  H22  1  0.39563000  0.79171000  0.19592000  1.0
  H  H23  1  0.19907000  0.88054000  0.80434000  1.0
  H  H24  1  0.20012000  0.82188000  0.92700000  1.0
  H  H25  1  0.13381000  0.79814000  0.88631000  1.0
  H  H26  1  0.33660000  0.62234000  0.70368000  1.0
  H  H27  1  0.46478000  0.60907000  0.65901000  1.0
  H  H28  1  0.37524000  0.72309000  0.61721000  1.0
  H  H29  1  0.32203000  0.20444000  0.36205000  1.0
  H  H30  1  0.45315000  0.17735000  0.29567000  1.0
  H  H31  1  0.38576000  0.11999000  0.29480000  1.0
  C  C32  1  0.99164000  0.73865000  0.49561000  1.0
  C  C33  1  0.27246000  0.99823000  0.23711000  1.0
  C  C34  1  0.98692000  0.28178000  0.50605000  1.0
  C  C35  1  0.72348000  0.00787000  0.78000000  1.0
  C  C36  1  0.99782000  0.73538000  0.76337000  1.0
  C  C37  1  0.72445000  0.00202000  0.50131000  1.0
  C  C38  1  0.99942000  0.26504000  0.23385000  1.0
  C  C39  1  0.26951000  0.00352000  0.50088000  1.0
  C  C40  1  0.27391000  0.73975000  0.49551000  1.0
  C  C41  1  0.98934000  0.00541000  0.77977000  1.0
  C  C42  1  0.72520000  0.28256000  0.50214000  1.0
  C  C43  1  0.99309000  0.99740000  0.23612000  1.0
  C  C44  1  0.91692000  0.42752000  0.57049000  1.0
  C  C45  1  0.05506000  0.59647000  0.42996000  1.0
  C  C46  1  0.98436000  0.37259000  0.50452000  1.0
  C  C47  1  0.98910000  0.65080000  0.49558000  1.0
  C  C48  1  0.02938000  0.51521000  0.45629000  1.0
  C  C49  1  0.94401000  0.50894000  0.54168000  1.0
  C  C50  1  0.41869000  0.92834000  0.09725000  1.0
  C  C51  1  0.58261000  0.07124000  0.92500000  1.0
  C  C52  1  0.36301000  0.99643000  0.14991000  1.0
  C  C53  1  0.63703000  0.00470000  0.87157000  1.0
  C  C54  1  0.50300000  0.04419000  0.00739000  1.0
  C  C55  1  0.49839000  0.95708000  0.01571000  1.0
  C  C56  1  0.06236000  0.93745000  0.91440000  1.0
  C  C57  1  0.92226000  0.06271000  0.10166000  1.0
  C  C58  1  0.99105000  0.00293000  0.86893000  1.0
  C  C59  1  0.99244000  0.99736000  0.14732000  1.0
  C  C60  1  0.94672000  0.04170000  0.01678000  1.0
  C  C61  1  0.03547000  0.96064000  0.99907000  1.0
  C  C62  1  0.41949000  0.60975000  0.55731000  1.0
  C  C63  1  0.58822000  0.42061000  0.43378000  1.0
  C  C64  1  0.36586000  0.65395000  0.49414000  1.0
  C  C65  1  0.63950000  0.37474000  0.49849000  1.0
  C  C66  1  0.50795000  0.50628000  0.45434000  1.0
  C  C67  1  0.50003000  0.52487000  0.53383000  1.0
  C  C68  1  0.07457000  0.57484000  0.88290000  1.0
  C  C69  1  0.94043000  0.59419000  0.84547000  1.0
  C  C70  1  0.92822000  0.50958000  0.91788000  1.0
  C  C71  1  0.98299000  0.45769000  0.98397000  1.0
  C  C72  1  0.95541000  0.38945000  0.07899000  1.0
  C  C73  1  0.11802000  0.33914000  0.08539000  1.0
  C  C74  1  0.14305000  0.40953000  0.99880000  1.0
  C  C75  1  0.07017000  0.48120000  0.95256000  1.0
  C  C76  1  0.00696000  0.63336000  0.83271000  1.0
  C  C77  1  0.02093000  0.33367000  0.13147000  1.0
  C  C78  1  0.41540000  0.06432000  0.42837000  1.0
  C  C79  1  0.58485000  0.93678000  0.56546000  1.0
  C  C80  1  0.36095000  0.00200000  0.49709000  1.0
  C  C81  1  0.63779000  0.99985000  0.49864000  1.0
  C  C82  1  0.50388000  0.95931000  0.54048000  1.0
  C  C83  1  0.49687000  0.03890000  0.45467000  1.0
  C  C84  1  0.82933000  0.40581000  0.65833000  1.0
  C  C85  1  0.39868000  0.83898000  0.12091000  1.0
  C  C86  1  0.15399000  0.85508000  0.88138000  1.0
  C  C87  1  0.39819000  0.64314000  0.63838000  1.0
  C  C88  1  0.39329000  0.14586000  0.34034000  1.0
  S  S89  1  0.07761000  0.41980000  0.40989000  1.0
  S  S90  1  0.89559000  0.60389000  0.58917000  1.0
  S  S91  1  0.40754000  0.09239000  0.10112000  1.0
  S  S92  1  0.59248000  0.90895000  0.92129000  1.0
  S  S93  1  0.89472000  0.09078000  0.92796000  1.0
  S  S94  1  0.08820000  0.91024000  0.08779000  1.0
  S  S95  1  0.41448000  0.59420000  0.40732000  1.0
  S  S96  1  0.59112000  0.43557000  0.58392000  1.0
  S  S97  1  0.40889000  0.91435000  0.59026000  1.0
  S  S98  1  0.59036000  0.08605000  0.40525000  1.0
  Cl  Cl99  1  0.26760000  0.39980000  0.94485000  1.0
  Cl  Cl100  1  0.15456000  0.61944000  0.87419000  1.0
  Cl  Cl101  1  0.85276000  0.46501000  0.91751000  1.0
  Cl  Cl102  1  0.83484000  0.38942000  0.13310000  1.0
  O  O103  1  0.92249000  0.77500000  0.56576000  1.0
  O  O104  1  0.23454000  0.06955000  0.27222000  1.0
  O  O105  1  0.05820000  0.24408000  0.43732000  1.0
  O  O106  1  0.75885000  0.93949000  0.74202000  1.0
  O  O107  1  0.06303000  0.77193000  0.73532000  1.0
  O  O108  1  0.75863000  0.07051000  0.43470000  1.0
  O  O109  1  0.92631000  0.23579000  0.27153000  1.0
  O  O110  1  0.23312000  0.93744000  0.57084000  1.0
  O  O111  1  0.23810000  0.76984000  0.42855000  1.0
  O  O112  1  0.92040000  0.07593000  0.74618000  1.0
  O  O113  1  0.75704000  0.24816000  0.57287000  1.0
  O  O114  1  0.06471000  0.93019000  0.26753000  1.0
  O  O115  1  0.05833000  0.93661000  0.74136000  1.0
  O  O116  1  0.76000000  0.24355000  0.43484000  1.0
  O  O117  1  0.92278000  0.06585000  0.27376000  1.0
  O  O118  1  0.23474000  0.77702000  0.56519000  1.0
  O  O119  1  0.92271000  0.77780000  0.73504000  1.0
  O  O120  1  0.23203000  0.07136000  0.43520000  1.0
  O  O121  1  0.06115000  0.23805000  0.27488000  1.0
  O  O122  1  0.75777000  0.93650000  0.57042000  1.0
  O  O123  1  0.75549000  0.07848000  0.74488000  1.0
  O  O124  1  0.06239000  0.77058000  0.42796000  1.0
  O  O125  1  0.23691000  0.93046000  0.27069000  1.0
  O  O126  1  0.91952000  0.24588000  0.57590000  1.0
  O  O127  1  0.81054000  0.06829000  0.56593000  1.0
  O  O128  1  0.05256000  0.06795000  0.56656000  1.0
  O  O129  1  0.05562000  0.06138000  0.32571000  1.0
  O  O130  1  0.05566000  0.82725000  0.55956000  1.0
  O  O131  1  0.12834000  0.96119000  0.45924000  1.0
  O  O132  1  0.94986000  0.96062000  0.45902000  1.0
  O  O133  1  0.94832000  0.13737000  0.46329000  1.0
  O  O134  1  0.94844000  0.96519000  0.63550000  1.0
