# generated using pymatgen
data_ZnH5C5S2NO4
_symmetry_space_group_name_H-M   'P 1'
_cell_length_a   8.42707000
_cell_length_b   9.04530000
_cell_length_c   11.05690000
_cell_angle_alpha   89.99990000
_cell_angle_beta   89.99980000
_cell_angle_gamma   90.00000000
_symmetry_Int_Tables_number   1
_chemical_formula_structural   ZnH5C5S2NO4
_chemical_formula_sum   'Zn4 H20 C20 S8 N4 O16'
_cell_volume   842.81636288
_cell_formula_units_Z   4
loop_
 _symmetry_equiv_pos_site_id
 _symmetry_equiv_pos_as_xyz
  1  'x, y, z'
loop_
 _atom_site_type_symbol
 _atom_site_label
 _atom_site_symmetry_multiplicity
 _atom_site_fract_x
 _atom_site_fract_y
 _atom_site_fract_z
 _atom_site_occupancy
  Zn  Zn0  1  0.33271000  0.68038000  0.75000000  1.0
  Zn  Zn1  1  0.16729000  0.18038000  0.25000000  1.0
  Zn  Zn2  1  0.83271000  0.81962000  0.75000000  1.0
  Zn  Zn3  1  0.66729000  0.31962000  0.25000000  1.0
  H  H4  1  0.15902000  0.50780000  0.93746000  1.0
  H  H5  1  0.34098000  0.00780000  0.06254000  1.0
  H  H6  1  0.65902000  0.99220000  0.56254000  1.0
  H  H7  1  0.84098000  0.49220000  0.43746000  1.0
  H  H8  1  0.84098000  0.49220000  0.06254000  1.0
  H  H9  1  0.65902000  0.99220000  0.93746000  1.0
  H  H10  1  0.34098000  0.00780000  0.43746000  1.0
  H  H11  1  0.15902000  0.50780000  0.56254000  1.0
  H  H12  1  0.98383000  0.28468000  0.94607000  1.0
  H  H13  1  0.51617000  0.78468000  0.05393000  1.0
  H  H14  1  0.48383000  0.21532000  0.55393000  1.0
  H  H15  1  0.01617000  0.71532000  0.44607000  1.0
  H  H16  1  0.01617000  0.71532000  0.05393000  1.0
  H  H17  1  0.48383000  0.21532000  0.94607000  1.0
  H  H18  1  0.51617000  0.78468000  0.44607000  1.0
  H  H19  1  0.98383000  0.28468000  0.55393000  1.0
  H  H20  1  0.89080000  0.17267000  0.75000000  1.0
  H  H21  1  0.60919000  0.67267000  0.25000000  1.0
  H  H22  1  0.39081000  0.32734000  0.75000000  1.0
  H  H23  1  0.10920000  0.82733000  0.25000000  1.0
  C  C24  1  0.11443000  0.45618000  0.85520000  1.0
  C  C25  1  0.38556000  0.95618000  0.14480000  1.0
  C  C26  1  0.61444000  0.04381000  0.64480000  1.0
  C  C27  1  0.88556000  0.54382000  0.35520000  1.0
  C  C28  1  0.88556000  0.54382000  0.14480000  1.0
  C  C29  1  0.61443000  0.04381000  0.85520000  1.0
  C  C30  1  0.38556000  0.95618000  0.35520000  1.0
  C  C31  1  0.11444000  0.45618000  0.64480000  1.0
  C  C32  1  0.01651000  0.33254000  0.85910000  1.0
  C  C33  1  0.48348000  0.83254000  0.14091000  1.0
  C  C34  1  0.51652000  0.16746000  0.64091000  1.0
  C  C35  1  0.98349000  0.66747000  0.35909000  1.0
  C  C36  1  0.98348000  0.66746000  0.14091000  1.0
  C  C37  1  0.51651000  0.16746000  0.85909000  1.0
  C  C38  1  0.48348000  0.83253000  0.35909000  1.0
  C  C39  1  0.01652000  0.33254000  0.64091000  1.0
  C  C40  1  0.96628000  0.27033000  0.75000000  1.0
  C  C41  1  0.53372000  0.77032000  0.25000000  1.0
  C  C42  1  0.46628000  0.22967000  0.75000000  1.0
  C  C43  1  0.03372000  0.72968000  0.25000000  1.0
  S  S44  1  0.65485000  0.53752000  0.86155000  1.0
  S  S45  1  0.84515000  0.03752000  0.13845000  1.0
  S  S46  1  0.15485000  0.96248000  0.63845000  1.0
  S  S47  1  0.34515000  0.46247000  0.36155000  1.0
  S  S48  1  0.34515000  0.46248000  0.13845000  1.0
  S  S49  1  0.15485000  0.96248000  0.86155000  1.0
  S  S50  1  0.84515000  0.03752000  0.36155000  1.0
  S  S51  1  0.65485000  0.53752000  0.63845000  1.0
  N  N52  1  0.16247000  0.51694000  0.75000000  1.0
  N  N53  1  0.33753000  0.01694000  0.25000000  1.0
  N  N54  1  0.66246000  0.98306000  0.75000000  1.0
  N  N55  1  0.83753000  0.48307000  0.25000000  1.0
  O  O56  1  0.48479000  0.59146000  0.87656000  1.0
  O  O57  1  0.01522000  0.09146000  0.12343000  1.0
  O  O58  1  0.98478000  0.90855000  0.62344000  1.0
  O  O59  1  0.51521000  0.40854000  0.37656000  1.0
  O  O60  1  0.51522000  0.40854000  0.12344000  1.0
  O  O61  1  0.98478000  0.90855000  0.87656000  1.0
  O  O62  1  0.01522000  0.09145000  0.37656000  1.0
  O  O63  1  0.48479000  0.59146000  0.62344000  1.0
  O  O64  1  0.77142000  0.66558000  0.87710000  1.0
  O  O65  1  0.72858000  0.16559000  0.12290000  1.0
  O  O66  1  0.27142000  0.83442000  0.62290000  1.0
  O  O67  1  0.22858000  0.33441000  0.37710000  1.0
  O  O68  1  0.22858000  0.33442000  0.12290000  1.0
  O  O69  1  0.27142000  0.83442000  0.87710000  1.0
  O  O70  1  0.72858000  0.16558000  0.37710000  1.0
  O  O71  1  0.77142000  0.66559000  0.62290000  1.0
