# generated using pymatgen
data_SnH15C12N2O3
_symmetry_space_group_name_H-M   'P 1'
_cell_length_a   8.30873000
_cell_length_b   8.83033000
_cell_length_c   9.65265000
_cell_angle_alpha   67.76110000
_cell_angle_beta   80.24450000
_cell_angle_gamma   74.72700000
_symmetry_Int_Tables_number   1
_chemical_formula_structural   SnH15C12N2O3
_chemical_formula_sum   'Sn2 H30 C24 N4 O6'
_cell_volume   630.43891164
_cell_formula_units_Z   2
loop_
 _symmetry_equiv_pos_site_id
 _symmetry_equiv_pos_as_xyz
  1  'x, y, z'
loop_
 _atom_site_type_symbol
 _atom_site_label
 _atom_site_symmetry_multiplicity
 _atom_site_fract_x
 _atom_site_fract_y
 _atom_site_fract_z
 _atom_site_occupancy
  Sn  Sn0  1  0.35034000  0.03043000  0.85138000  1.0
  Sn  Sn1  1  0.64966000  0.96957000  0.14862000  1.0
  H  H2  1  0.17019000  0.59766000  0.94536000  1.0
  H  H3  1  0.82981000  0.40234000  0.05465000  1.0
  H  H4  1  0.09574000  0.14030000  0.41268000  1.0
  H  H5  1  0.90426000  0.85970000  0.58732000  1.0
  H  H6  1  0.91619000  0.16119000  0.53363000  1.0
  H  H7  1  0.08382000  0.83881000  0.46637000  1.0
  H  H8  1  0.58524000  0.35616000  0.44761000  1.0
  H  H9  1  0.41476000  0.64384000  0.55239000  1.0
  H  H10  1  0.62379000  0.14152000  0.69251000  1.0
  H  H11  1  0.37621000  0.85848000  0.30750000  1.0
  H  H12  1  0.53934000  0.04763000  0.59352000  1.0
  H  H13  1  0.46066000  0.95237000  0.40648000  1.0
  H  H14  1  0.66192000  0.91755000  0.75022000  1.0
  H  H15  1  0.33807000  0.08245000  0.24978000  1.0
  H  H16  1  0.35380000  0.25008000  0.40906000  1.0
  H  H17  1  0.64619000  0.74992000  0.59094000  1.0
  H  H18  1  0.20485000  0.40077000  0.17460000  1.0
  H  H19  1  0.79515000  0.59923000  0.82541000  1.0
  H  H20  1  0.77498000  0.49063000  0.47088000  1.0
  H  H21  1  0.22503000  0.50937000  0.52913000  1.0
  H  H22  1  0.91624000  0.58686000  0.32327000  1.0
  H  H23  1  0.08376000  0.41314000  0.67673000  1.0
  H  H24  1  0.85147000  0.40721000  0.32152000  1.0
  H  H25  1  0.14853000  0.59279000  0.67849000  1.0
  H  H26  1  0.18831000  0.20494000  0.02856000  1.0
  H  H27  1  0.81169000  0.79506000  0.97144000  1.0
  H  H28  1  0.13546000  0.00331000  0.09817000  1.0
  H  H29  1  0.86454000  0.99668000  0.90183000  1.0
  H  H30  1  0.04122000  0.16514000  0.93704000  1.0
  H  H31  1  0.95878000  0.83486000  0.06297000  1.0
  C  C32  1  0.13243000  0.01069000  0.64376000  1.0
  C  C33  1  0.86757000  0.98931000  0.35624000  1.0
  C  C34  1  0.24747000  0.67379000  0.95887000  1.0
  C  C35  1  0.75253000  0.32621000  0.04114000  1.0
  C  C36  1  0.45628000  0.67474000  0.12106000  1.0
  C  C37  1  0.54372000  0.32526000  0.87894000  1.0
  C  C38  1  0.33429000  0.60422000  0.09327000  1.0
  C  C39  1  0.66571000  0.39578000  0.90674000  1.0
  C  C40  1  0.55107000  0.57520000  0.24806000  1.0
  C  C41  1  0.44893000  0.42480000  0.75195000  1.0
  C  C42  1  0.02687000  0.06882000  0.51344000  1.0
  C  C43  1  0.97314000  0.93118000  0.48656000  1.0
  C  C44  1  0.51354000  0.42620000  0.34987000  1.0
  C  C45  1  0.48646000  0.57380000  0.65013000  1.0
  C  C46  1  0.57221000  0.03539000  0.70294000  1.0
  C  C47  1  0.42779000  0.96461000  0.29706000  1.0
  C  C48  1  0.38520000  0.36453000  0.32636000  1.0
  C  C49  1  0.61480000  0.63547000  0.67364000  1.0
  C  C50  1  0.30036000  0.45040000  0.19813000  1.0
  C  C51  1  0.69964000  0.54959000  0.80187000  1.0
  C  C52  1  0.81403000  0.52120000  0.35059000  1.0
  C  C53  1  0.18597000  0.47880000  0.64941000  1.0
  C  C54  1  0.15445000  0.11102000  0.99785000  1.0
  C  C55  1  0.84555000  0.88898000  0.00215000  1.0
  N  N56  1  0.15462000  0.85153000  0.73309000  1.0
  N  N57  1  0.84538000  0.14847000  0.26691000  1.0
  N  N58  1  0.24912000  0.81718000  0.85042000  1.0
  N  N59  1  0.75088000  0.18283000  0.14958000  1.0
  O  O60  1  0.49087000  0.82129000  0.03411000  1.0
  O  O61  1  0.50913000  0.17871000  0.96590000  1.0
  O  O62  1  0.19117000  0.12489000  0.66056000  1.0
  O  O63  1  0.80884000  0.87511000  0.33944000  1.0
  O  O64  1  0.68075000  0.63793000  0.26107000  1.0
  O  O65  1  0.31925000  0.36207000  0.73893000  1.0
