# generated using pymatgen
data_ZnH4(CN2)4
_symmetry_space_group_name_H-M   'P 1'
_cell_length_a   8.50616000
_cell_length_b   11.02570000
_cell_length_c   15.08220000
_cell_angle_alpha   90.00000000
_cell_angle_beta   90.00000000
_cell_angle_gamma   90.00000000
_symmetry_Int_Tables_number   1
_chemical_formula_structural   ZnH4(CN2)4
_chemical_formula_sum   'Zn8 H32 C32 N64'
_cell_volume   1414.50476416
_cell_formula_units_Z   8
loop_
 _symmetry_equiv_pos_site_id
 _symmetry_equiv_pos_as_xyz
  1  'x, y, z'
loop_
 _atom_site_type_symbol
 _atom_site_label
 _atom_site_symmetry_multiplicity
 _atom_site_fract_x
 _atom_site_fract_y
 _atom_site_fract_z
 _atom_site_occupancy
  Zn  Zn0  1  0.89311000  0.88605000  0.90555000  1.0
  Zn  Zn1  1  0.60689000  0.11395000  0.40555000  1.0
  Zn  Zn2  1  0.10689000  0.38605000  0.59445000  1.0
  Zn  Zn3  1  0.39311000  0.61395000  0.09445000  1.0
  Zn  Zn4  1  0.10689000  0.11395000  0.09445000  1.0
  Zn  Zn5  1  0.39311000  0.88605000  0.59445000  1.0
  Zn  Zn6  1  0.89311000  0.61395000  0.40555000  1.0
  Zn  Zn7  1  0.60689000  0.38605000  0.90555000  1.0
  H  H8  1  0.92380000  0.63180000  0.75913000  1.0
  H  H9  1  0.57620000  0.36820000  0.25913000  1.0
  H  H10  1  0.07620000  0.13180000  0.74087000  1.0
  H  H11  1  0.42380000  0.86820000  0.24087000  1.0
  H  H12  1  0.07620000  0.36820000  0.24087000  1.0
  H  H13  1  0.42380000  0.63180000  0.74087000  1.0
  H  H14  1  0.92380000  0.86820000  0.25913000  1.0
  H  H15  1  0.57620000  0.13180000  0.75913000  1.0
  H  H16  1  0.09257000  0.54099000  0.77095000  1.0
  H  H17  1  0.40743000  0.45901000  0.27095000  1.0
  H  H18  1  0.90743000  0.04099000  0.72905000  1.0
  H  H19  1  0.59257000  0.95901000  0.22905000  1.0
  H  H20  1  0.90743000  0.45901000  0.22905000  1.0
  H  H21  1  0.59257000  0.54099000  0.72905000  1.0
  H  H22  1  0.09257000  0.95901000  0.27095000  1.0
  H  H23  1  0.40743000  0.04099000  0.77095000  1.0
  H  H24  1  0.97135000  0.46595000  0.92074000  1.0
  H  H25  1  0.52865000  0.53405000  0.42074000  1.0
  H  H26  1  0.02865000  0.96595000  0.57926000  1.0
  H  H27  1  0.47135000  0.03405000  0.07926000  1.0
  H  H28  1  0.02865000  0.53405000  0.07926000  1.0
  H  H29  1  0.47135000  0.46595000  0.57926000  1.0
  H  H30  1  0.97135000  0.03405000  0.42074000  1.0
  H  H31  1  0.52865000  0.96595000  0.92074000  1.0
  H  H32  1  0.05448000  0.61378000  0.91470000  1.0
  H  H33  1  0.44552000  0.38622000  0.41470000  1.0
  H  H34  1  0.94552000  0.11378000  0.58530000  1.0
  H  H35  1  0.55448000  0.88622000  0.08530000  1.0
  H  H36  1  0.94552000  0.38622000  0.08530000  1.0
  H  H37  1  0.55448000  0.61378000  0.58530000  1.0
  H  H38  1  0.05448000  0.88622000  0.41470000  1.0
  H  H39  1  0.44552000  0.11378000  0.91470000  1.0
  C  C40  1  0.96832000  0.54747000  0.78946000  1.0
  C  C41  1  0.53168000  0.45253000  0.28946000  1.0
  C  C42  1  0.03168000  0.04747000  0.71054000  1.0
  C  C43  1  0.46832000  0.95253000  0.21054000  1.0
  C  C44  1  0.03168000  0.45253000  0.21054000  1.0
  C  C45  1  0.46832000  0.54747000  0.71054000  1.0
  C  C46  1  0.96832000  0.95253000  0.28946000  1.0
  C  C47  1  0.53168000  0.04747000  0.78946000  1.0
  C  C48  1  0.80863000  0.61122000  0.92527000  1.0
  C  C49  1  0.69137000  0.38878000  0.42527000  1.0
  C  C50  1  0.19137000  0.11122000  0.57473000  1.0
  C  C51  1  0.30863000  0.88878000  0.07473000  1.0
  C  C52  1  0.19137000  0.38878000  0.07473000  1.0
  C  C53  1  0.30863000  0.61122000  0.57473000  1.0
  C  C54  1  0.80863000  0.88878000  0.42527000  1.0
  C  C55  1  0.69137000  0.11122000  0.92527000  1.0
  C  C56  1  0.95734000  0.55650000  0.89134000  1.0
  C  C57  1  0.54266000  0.44350000  0.39134000  1.0
  C  C58  1  0.04266000  0.05650000  0.60866000  1.0
  C  C59  1  0.45734000  0.94350000  0.10866000  1.0
  C  C60  1  0.04266000  0.44350000  0.10866000  1.0
  C  C61  1  0.45734000  0.55650000  0.60866000  1.0
  C  C62  1  0.95734000  0.94350000  0.39134000  1.0
  C  C63  1  0.54266000  0.05650000  0.89134000  1.0
  C  C64  1  0.88339000  0.44172000  0.75128000  1.0
  C  C65  1  0.61662000  0.55828000  0.25128000  1.0
  C  C66  1  0.11661000  0.94172000  0.74872000  1.0
  C  C67  1  0.38339000  0.05828000  0.24872000  1.0
  C  C68  1  0.11661000  0.55828000  0.24872000  1.0
  C  C69  1  0.38339000  0.44172000  0.74872000  1.0
  C  C70  1  0.88339000  0.05828000  0.25128000  1.0
  C  C71  1  0.61662000  0.94172000  0.75128000  1.0
  N  N72  1  0.78308000  0.73013000  0.93981000  1.0
  N  N73  1  0.71692000  0.26987000  0.43981000  1.0
  N  N74  1  0.21692000  0.23013000  0.56019000  1.0
  N  N75  1  0.28308000  0.76987000  0.06019000  1.0
  N  N76  1  0.21692000  0.26987000  0.06019000  1.0
  N  N77  1  0.28308000  0.73013000  0.56019000  1.0
  N  N78  1  0.78308000  0.76987000  0.43981000  1.0
  N  N79  1  0.71692000  0.23013000  0.93981000  1.0
  N  N80  1  0.67690000  0.55089000  0.94704000  1.0
  N  N81  1  0.82310000  0.44911000  0.44704000  1.0
  N  N82  1  0.32310000  0.05089000  0.55296000  1.0
  N  N83  1  0.17690000  0.94910000  0.05296000  1.0
  N  N84  1  0.32310000  0.44910000  0.05296000  1.0
  N  N85  1  0.17690000  0.55089000  0.55296000  1.0
  N  N86  1  0.67690000  0.94910000  0.44704000  1.0
  N  N87  1  0.82310000  0.05089000  0.94704000  1.0
  N  N88  1  0.57090000  0.63511000  0.97429000  1.0
  N  N89  1  0.92910000  0.36489000  0.47429000  1.0
  N  N90  1  0.42910000  0.13511000  0.52571000  1.0
  N  N91  1  0.07090000  0.86489000  0.02571000  1.0
  N  N92  1  0.42910000  0.36489000  0.02571000  1.0
  N  N93  1  0.07090000  0.63511000  0.52571000  1.0
  N  N94  1  0.57090000  0.86489000  0.47429000  1.0
  N  N95  1  0.92910000  0.13511000  0.97429000  1.0
  N  N96  1  0.63460000  0.74230000  0.96941000  1.0
  N  N97  1  0.86540000  0.25770000  0.46941000  1.0
  N  N98  1  0.36540000  0.24230000  0.53059000  1.0
  N  N99  1  0.13460000  0.75770000  0.03059000  1.0
  N  N100  1  0.36540000  0.25770000  0.03059000  1.0
  N  N101  1  0.13460000  0.74230000  0.53059000  1.0
  N  N102  1  0.63460000  0.75770000  0.46941000  1.0
  N  N103  1  0.86540000  0.24230000  0.96941000  1.0
  N  N104  1  0.91599000  0.38682000  0.67337000  1.0
  N  N105  1  0.58401000  0.61318000  0.17337000  1.0
  N  N106  1  0.08401000  0.88682000  0.82663000  1.0
  N  N107  1  0.41599000  0.11318000  0.32663000  1.0
  N  N108  1  0.08401000  0.61318000  0.32663000  1.0
  N  N109  1  0.41599000  0.38682000  0.82663000  1.0
  N  N110  1  0.91599000  0.11318000  0.17337000  1.0
  N  N111  1  0.58401000  0.88682000  0.67337000  1.0
  N  N112  1  0.75941000  0.38595000  0.78792000  1.0
  N  N113  1  0.74059000  0.61405000  0.28792000  1.0
  N  N114  1  0.24059000  0.88595000  0.71208000  1.0
  N  N115  1  0.25941000  0.11405000  0.21208000  1.0
  N  N116  1  0.24059000  0.61405000  0.21208000  1.0
  N  N117  1  0.25941000  0.38595000  0.71208000  1.0
  N  N118  1  0.75941000  0.11405000  0.28792000  1.0
  N  N119  1  0.74059000  0.88595000  0.78792000  1.0
  N  N120  1  0.80990000  0.29601000  0.66325000  1.0
  N  N121  1  0.69010000  0.70399000  0.16325000  1.0
  N  N122  1  0.19010000  0.79601000  0.83675000  1.0
  N  N123  1  0.30990000  0.20399000  0.33675000  1.0
  N  N124  1  0.19010000  0.70399000  0.33675000  1.0
  N  N125  1  0.30990000  0.29601000  0.83675000  1.0
  N  N126  1  0.80990000  0.20399000  0.16325000  1.0
  N  N127  1  0.69010000  0.79601000  0.66325000  1.0
  N  N128  1  0.71683000  0.29570000  0.73151000  1.0
  N  N129  1  0.78317000  0.70430000  0.23151000  1.0
  N  N130  1  0.28316000  0.79570000  0.76849000  1.0
  N  N131  1  0.21684000  0.20430000  0.26849000  1.0
  N  N132  1  0.28317000  0.70430000  0.26849000  1.0
  N  N133  1  0.21684000  0.29570000  0.76849000  1.0
  N  N134  1  0.71684000  0.20430000  0.23151000  1.0
  N  N135  1  0.78317000  0.79570000  0.73151000  1.0
