# generated using pymatgen
data_Zn8H37C66NO28
_symmetry_space_group_name_H-M   'P 1'
_cell_length_a   18.47570000
_cell_length_b   18.47990000
_cell_length_c   18.48670000
_cell_angle_alpha   89.89550000
_cell_angle_beta   60.03710000
_cell_angle_gamma   119.87010000
_symmetry_Int_Tables_number   1
_chemical_formula_structural   Zn8H37C66NO28
_chemical_formula_sum   'Zn8 H37 C66 N1 O28'
_cell_volume   4470.36859881
_cell_formula_units_Z   1
loop_
 _symmetry_equiv_pos_site_id
 _symmetry_equiv_pos_as_xyz
  1  'x, y, z'
loop_
 _atom_site_type_symbol
 _atom_site_label
 _atom_site_symmetry_multiplicity
 _atom_site_fract_x
 _atom_site_fract_y
 _atom_site_fract_z
 _atom_site_occupancy
  Zn  Zn0  1  0.08573000  0.54359000  0.04447000  1.0
  Zn  Zn1  1  0.08745000  0.54473000  0.86999000  1.0
  Zn  Zn2  1  0.91242000  0.54302000  0.04471000  1.0
  Zn  Zn3  1  0.91305000  0.37050000  0.04286000  1.0
  Zn  Zn4  1  0.91175000  0.95719000  0.45786000  1.0
  Zn  Zn5  1  0.08665000  0.95796000  0.45613000  1.0
  Zn  Zn6  1  0.91351000  0.95945000  0.62984000  1.0
  Zn  Zn7  1  0.08661000  0.13129000  0.45608000  1.0
  H  H8  1  0.87530000  0.40124000  0.42966000  1.0
  H  H9  1  0.06514000  0.28870000  0.03181000  1.0
  H  H10  1  0.12519000  0.19583000  0.97424000  1.0
  H  H11  1  0.12500000  0.09988000  0.07012000  1.0
  H  H12  1  0.06504000  0.09771000  0.22291000  1.0
  H  H13  1  0.93378000  0.21136000  0.46784000  1.0
  H  H14  1  0.87589000  0.30568000  0.52508000  1.0
  H  H15  1  0.93320000  0.40232000  0.27741000  1.0
  H  H16  1  0.88953000  0.70952000  0.19699000  1.0
  H  H17  1  0.89056000  0.80548000  0.29110000  1.0
  H  H18  1  0.20995000  0.83702000  0.25999000  1.0
  H  H19  1  0.10809000  0.74112000  0.35642000  1.0
  H  H20  1  0.20916000  0.74005000  0.16393000  1.0
  H  H21  1  0.10771000  0.64418000  0.26044000  1.0
  H  H22  1  0.59416000  0.41333000  0.20397000  1.0
  H  H23  1  0.40416000  0.31822000  0.29879000  1.0
  H  H24  1  0.40404000  0.03210000  0.34501000  1.0
  H  H25  1  0.40383000  0.03291000  0.24871000  1.0
  H  H26  1  0.59698000  0.12869000  0.24836000  1.0
  H  H27  1  0.59680000  0.12965000  0.15206000  1.0
  H  H28  1  0.10922000  0.41575000  0.68094000  1.0
  H  H29  1  0.10922000  0.32093000  0.58580000  1.0
  H  H30  1  0.78964000  0.03257000  0.87260000  1.0
  H  H31  1  0.89085000  0.03712000  0.86734000  1.0
  H  H32  1  0.79020000  0.12908000  0.96903000  1.0
  H  H33  1  0.89113000  0.13341000  0.96409000  1.0
  H  H34  1  0.88259000  0.70298000  0.91375000  1.0
  H  H35  1  0.88450000  0.79933000  0.81748000  1.0
  H  H36  1  0.11789000  0.74559000  0.53537000  1.0
  H  H37  1  0.21699000  0.84406000  0.53142000  1.0
  H  H38  1  0.21634000  0.74826000  0.63049000  1.0
  H  H39  1  0.40446000  0.70091000  0.91488000  1.0
  H  H40  1  0.59449000  0.79578000  0.81985000  1.0
  H  H41  1  0.59612000  0.84846000  0.53404000  1.0
  H  H42  1  0.59587000  0.75191000  0.53326000  1.0
  H  H43  1  0.40303000  0.75220000  0.63043000  1.0
  H  H44  1  0.40288000  0.65590000  0.62969000  1.0
  C  C45  1  0.00149000  0.36386000  0.86087000  1.0
  C  C46  1  0.99787000  0.63800000  0.13972000  1.0
  C  C47  1  0.27607000  0.63954000  0.86341000  1.0
  C  C48  1  0.72306000  0.36234000  0.13859000  1.0
  C  C49  1  0.99814000  0.63804000  0.86315000  1.0
  C  C50  1  0.99881000  0.36129000  0.13879000  1.0
  C  C51  1  0.06521000  0.24756000  0.07402000  1.0
  C  C52  1  0.09836000  0.19538000  0.04196000  1.0
  C  C53  1  0.09835000  0.14096000  0.09636000  1.0
  C  C54  1  0.06525000  0.14004000  0.18158000  1.0
  C  C55  1  0.03040000  0.19351000  0.21759000  1.0
  C  C56  1  0.03031000  0.24884000  0.16228000  1.0
  C  C57  1  0.99877000  0.19575000  0.30397000  1.0
  C  C58  1  0.96730000  0.25066000  0.33784000  1.0
  C  C59  1  0.96727000  0.30605000  0.28256000  1.0
  C  C60  1  0.99866000  0.30368000  0.19619000  1.0
  C  C61  1  0.93334000  0.25237000  0.42585000  1.0
  C  C62  1  0.90125000  0.30523000  0.45778000  1.0
  C  C63  1  0.90108000  0.35959000  0.40351000  1.0
  C  C64  1  0.93309000  0.35996000  0.31857000  1.0
  C  C65  1  0.05941000  0.72010000  0.22758000  1.0
  C  C66  1  0.99884000  0.69529000  0.19606000  1.0
  C  C67  1  0.93782000  0.72765000  0.22050000  1.0
  C  C68  1  0.93838000  0.78142000  0.27324000  1.0
  C  C69  1  0.99998000  0.80621000  0.30493000  1.0
  C  C70  1  0.05993000  0.77399000  0.28051000  1.0
  C  C71  1  0.13676000  0.77245000  0.28884000  1.0
  C  C72  1  0.13630000  0.71161000  0.22879000  1.0
  C  C73  1  0.55332000  0.21282000  0.22291000  1.0
  C  C74  1  0.60950000  0.30493000  0.19537000  1.0
  C  C75  1  0.55260000  0.34150000  0.22435000  1.0
  C  C76  1  0.44613000  0.28821000  0.27752000  1.0
  C  C77  1  0.38980000  0.19491000  0.30518000  1.0
  C  C78  1  0.44655000  0.15937000  0.27632000  1.0
  C  C79  1  0.43988000  0.07414000  0.27903000  1.0
  C  C80  1  0.56075000  0.13468000  0.21854000  1.0
  C  C81  1  0.94025000  0.21499000  0.83968000  1.0
  C  C82  1  0.00076000  0.30704000  0.80415000  1.0
  C  C83  1  0.06178000  0.34397000  0.71090000  1.0
  C  C84  1  0.06148000  0.29074000  0.65757000  1.0
  C  C85  1  0.00013000  0.19747000  0.69412000  1.0
  C  C86  1  0.93993000  0.16170000  0.78622000  1.0
  C  C87  1  0.86268000  0.07644000  0.86439000  1.0
  C  C88  1  0.86301000  0.13682000  0.92489000  1.0
  C  C89  1  0.06202000  0.72350000  0.71391000  1.0
  C  C90  1  0.99835000  0.69507000  0.80600000  1.0
  C  C91  1  0.93401000  0.72395000  0.84192000  1.0
  C  C92  1  0.93523000  0.77805000  0.78787000  1.0
  C  C93  1  0.00052000  0.80660000  0.69468000  1.0
  C  C94  1  0.06327000  0.77704000  0.65971000  1.0
  C  C95  1  0.14414000  0.77904000  0.57479000  1.0
  C  C96  1  0.14474000  0.72035000  0.63673000  1.0
  C  C97  1  0.44611000  0.72440000  0.71403000  1.0
  C  C98  1  0.38967000  0.69558000  0.80622000  1.0
  C  C99  1  0.44626000  0.72269000  0.84299000  1.0
  C  C100  1  0.55273000  0.77577000  0.78974000  1.0
  C  C101  1  0.60937000  0.80495000  0.69635000  1.0
  C  C102  1  0.55292000  0.77752000  0.66062000  1.0
  C  C103  1  0.55994000  0.78198000  0.57528000  1.0
  C  C104  1  0.43909000  0.72179000  0.63570000  1.0
  C  C105  1  0.27624000  0.13860000  0.36194000  1.0
  C  C106  1  0.72296000  0.86209000  0.63994000  1.0
  C  C107  1  0.99984000  0.86329000  0.36150000  1.0
  C  C108  1  0.00012000  0.14102000  0.63702000  1.0
  C  C109  1  0.00069000  0.86394000  0.63786000  1.0
  C  C110  1  0.99894000  0.13849000  0.36138000  1.0
  N  N111  1  0.11190000  0.62930000  0.62817000  1.0
  O  O112  1  0.99991000  0.50066000  0.00019000  1.0
  O  O113  1  0.94087000  0.32345000  0.94460000  1.0
  O  O114  1  0.05668000  0.61304000  0.12074000  1.0
  O  O115  1  0.23263000  0.61870000  0.82318000  1.0
  O  O116  1  0.76689000  0.44595000  0.11795000  1.0
  O  O117  1  0.06114000  0.61751000  0.82237000  1.0
  O  O118  1  0.93618000  0.32196000  0.11793000  1.0
  O  O119  1  0.93625000  0.61537000  0.94658000  1.0
  O  O120  1  0.06156000  0.44464000  0.11588000  1.0
  O  O121  1  0.23154000  0.61720000  0.94716000  1.0
  O  O122  1  0.76722000  0.32269000  0.11524000  1.0
  O  O123  1  0.06214000  0.44749000  0.82193000  1.0
  O  O124  1  0.93886000  0.61851000  0.11510000  1.0
  O  O125  1  0.99981000  0.00117000  0.49990000  1.0
  O  O126  1  0.23188000  0.17796000  0.38498000  1.0
  O  O127  1  0.76656000  0.88294000  0.55625000  1.0
  O  O128  1  0.05963000  0.88292000  0.38539000  1.0
  O  O129  1  0.94077000  0.05738000  0.67723000  1.0
  O  O130  1  0.06293000  0.88558000  0.55433000  1.0
  O  O131  1  0.06358000  0.17823000  0.38003000  1.0
  O  O132  1  0.93929000  0.88611000  0.67717000  1.0
  O  O133  1  0.93439000  0.05514000  0.38657000  1.0
  O  O134  1  0.94063000  0.88784000  0.38144000  1.0
  O  O135  1  0.05861000  0.17992000  0.55329000  1.0
  O  O136  1  0.23263000  0.05487000  0.38289000  1.0
  O  O137  1  0.76747000  0.88569000  0.67918000  1.0
  O  O138  1  0.17191000  0.60871000  0.60920000  1.0
  O  O139  1  0.02819000  0.58268000  0.63941000  1.0
