# generated using pymatgen
data_CuH20C14SN4O7
_symmetry_space_group_name_H-M   'P 1'
_cell_length_a   7.77757000
_cell_length_b   10.04240000
_cell_length_c   12.45610000
_cell_angle_alpha   66.88890000
_cell_angle_beta   87.83010000
_cell_angle_gamma   80.56550000
_symmetry_Int_Tables_number   1
_chemical_formula_structural   CuH20C14SN4O7
_chemical_formula_sum   'Cu2 H40 C28 S2 N8 O14'
_cell_volume   882.33123902
_cell_formula_units_Z   2
loop_
 _symmetry_equiv_pos_site_id
 _symmetry_equiv_pos_as_xyz
  1  'x, y, z'
loop_
 _atom_site_type_symbol
 _atom_site_label
 _atom_site_symmetry_multiplicity
 _atom_site_fract_x
 _atom_site_fract_y
 _atom_site_fract_z
 _atom_site_occupancy
  Cu  Cu0  1  0.69624000  0.34275000  0.84999000  1.0
  Cu  Cu1  1  0.30201000  0.65825000  0.14936000  1.0
  H  H2  1  0.47160000  0.34051000  0.99663000  1.0
  H  H3  1  0.52816000  0.65978000  0.00334000  1.0
  H  H4  1  0.66182000  0.31950000  0.06406000  1.0
  H  H5  1  0.33830000  0.68086000  0.93554000  1.0
  H  H6  1  0.77996000  0.53101000  0.93090000  1.0
  H  H7  1  0.22047000  0.46900000  0.06919000  1.0
  H  H8  1  0.91186000  0.51450000  0.82968000  1.0
  H  H9  1  0.08862000  0.48521000  0.17042000  1.0
  H  H10  1  0.05918000  0.26882000  0.72887000  1.0
  H  H11  1  0.94003000  0.73153000  0.27109000  1.0
  H  H12  1  0.61407000  0.15787000  0.58233000  1.0
  H  H13  1  0.38601000  0.84223000  0.41767000  1.0
  H  H14  1  0.12327000  0.00316000  0.67979000  1.0
  H  H15  1  0.87647000  0.99680000  0.32018000  1.0
  H  H16  1  0.75428000  0.43941000  0.41428000  1.0
  H  H17  1  0.24565000  0.56058000  0.58544000  1.0
  H  H18  1  0.31174000  0.97122000  0.84557000  1.0
  H  H19  1  0.68749000  0.02940000  0.15342000  1.0
  H  H20  1  0.54662000  0.78231000  0.79438000  1.0
  H  H21  1  0.45352000  0.21781000  0.20563000  1.0
  H  H22  1  0.75357000  0.83377000  0.75361000  1.0
  H  H23  1  0.24647000  0.16665000  0.24647000  1.0
  H  H24  1  0.47525000  0.74149000  0.62657000  1.0
  H  H25  1  0.52479000  0.25865000  0.37342000  1.0
  H  H26  1  0.20761000  0.25530000  0.54596000  1.0
  H  H27  1  0.79195000  0.74454000  0.45427000  1.0
  H  H28  1  0.09415000  0.35224000  0.40889000  1.0
  H  H29  1  0.90569000  0.64771000  0.59121000  1.0
  H  H30  1  0.55738000  0.49030000  0.59328000  1.0
  H  H31  1  0.44206000  0.51026000  0.40600000  1.0
  H  H32  1  0.35171000  0.20934000  0.89924000  1.0
  H  H33  1  0.64646000  0.79209000  0.09907000  1.0
  H  H34  1  0.95425000  0.22552000  0.31814000  1.0
  H  H35  1  0.04541000  0.77446000  0.68185000  1.0
  H  H36  1  0.82533000  0.06170000  0.77367000  1.0
  H  H37  1  0.17434000  0.93835000  0.22705000  1.0
  H  H38  1  0.08623000  0.24950000  0.96301000  1.0
  H  H39  1  0.91099000  0.74863000  0.03806000  1.0
  H  H40  1  0.10460000  0.08018000  0.01330000  1.0
  H  H41  1  0.90809000  0.91709000  0.98966000  1.0
  C  C42  1  0.04421000  0.13064000  0.49872000  1.0
  C  C43  1  0.95542000  0.86935000  0.50128000  1.0
  C  C44  1  0.94804000  0.32073000  0.66867000  1.0
  C  C45  1  0.05120000  0.67958000  0.33125000  1.0
  C  C46  1  0.55220000  0.94204000  0.61845000  1.0
  C  C47  1  0.44786000  0.05808000  0.38157000  1.0
  C  C48  1  0.56299000  0.08801000  0.54703000  1.0
  C  C49  1  0.43709000  0.91211000  0.45296000  1.0
  C  C50  1  0.06679000  0.00307000  0.60085000  1.0
  C  C51  1  0.93287000  0.99691000  0.39914000  1.0
  C  C52  1  0.78428000  0.41108000  0.50586000  1.0
  C  C53  1  0.21542000  0.58905000  0.49387000  1.0
  C  C54  1  0.42117000  0.02832000  0.83702000  1.0
  C  C55  1  0.57798000  0.97228000  0.16226000  1.0
  C  C56  1  0.61282000  0.87545000  0.74520000  1.0
  C  C57  1  0.38717000  0.12477000  0.25482000  1.0
  C  C58  1  0.48780000  0.85448000  0.57063000  1.0
  C  C59  1  0.51225000  0.14565000  0.42938000  1.0
  C  C60  1  0.08475000  0.27271000  0.49834000  1.0
  C  C61  1  0.91492000  0.72724000  0.50174000  1.0
  C  C62  1  0.68982000  0.43635000  0.59346000  1.0
  C  C63  1  0.30963000  0.56408000  0.40606000  1.0
  C  C64  1  0.44345000  0.14371000  0.86506000  1.0
  C  C65  1  0.55514000  0.85729000  0.13385000  1.0
  C  C66  1  0.97671000  0.12656000  0.39778000  1.0
  C  C67  1  0.02287000  0.87344000  0.60223000  1.0
  C  C68  1  0.69290000  0.06950000  0.80391000  1.0
  C  C69  1  0.30639000  0.93095000  0.19612000  1.0
  S  S70  1  0.25110000  0.52026000  0.83460000  1.0
  S  S71  1  0.74919000  0.47996000  0.16522000  1.0
  N  N72  1  0.58028000  0.98173000  0.79959000  1.0
  N  N73  1  0.41931000  0.01855000  0.20036000  1.0
  N  N74  1  0.79361000  0.37999000  0.69394000  1.0
  N  N75  1  0.20557000  0.62055000  0.30572000  1.0
  N  N76  1  0.61295000  0.16847000  0.84369000  1.0
  N  N77  1  0.38576000  0.83239000  0.15569000  1.0
  N  N78  1  0.94674000  0.33798000  0.55515000  1.0
  N  N79  1  0.05279000  0.66206000  0.44481000  1.0
  O  O80  1  0.59757000  0.29398000  0.00671000  1.0
  O  O81  1  0.40222000  0.70633000  0.99303000  1.0
  O  O82  1  0.78771000  0.51293000  0.85746000  1.0
  O  O83  1  0.21287000  0.48662000  0.14283000  1.0
  O  O84  1  0.22781000  0.66678000  0.84181000  1.0
  O  O85  1  0.77248000  0.33372000  0.15747000  1.0
  O  O86  1  0.41113000  0.49483000  0.77290000  1.0
  O  O87  1  0.58910000  0.50525000  0.22684000  1.0
  O  O88  1  0.26128000  0.40339000  0.95898000  1.0
  O  O89  1  0.73922000  0.59727000  0.04090000  1.0
  O  O90  1  0.09698000  0.50895000  0.77317000  1.0
  O  O91  1  0.90333000  0.49074000  0.22689000  1.0
  O  O92  1  0.03795000  0.16883000  0.95586000  1.0
  O  O93  1  0.96523000  0.82474000  0.04835000  1.0
