# generated using pymatgen
data_CdH12C12(BrN)2
_symmetry_space_group_name_H-M   'P 1'
_cell_length_a   7.40615000
_cell_length_b   10.16800000
_cell_length_c   10.16800000
_cell_angle_alpha   62.35070000
_cell_angle_beta   76.20350000
_cell_angle_gamma   76.20320000
_symmetry_Int_Tables_number   1
_chemical_formula_structural   CdH12C12(BrN)2
_chemical_formula_sum   'Cd2 H24 C24 Br4 N4'
_cell_volume   651.38843730
_cell_formula_units_Z   2
loop_
 _symmetry_equiv_pos_site_id
 _symmetry_equiv_pos_as_xyz
  1  'x, y, z'
loop_
 _atom_site_type_symbol
 _atom_site_label
 _atom_site_symmetry_multiplicity
 _atom_site_fract_x
 _atom_site_fract_y
 _atom_site_fract_z
 _atom_site_occupancy
  Cd  Cd0  1  0.25000000  0.92767000  0.07233000  1.0
  Cd  Cd1  1  0.75000000  0.07233000  0.92766000  1.0
  H  H2  1  0.16119000  0.47849000  0.63400000  1.0
  H  H3  1  0.33879000  0.36601000  0.52152000  1.0
  H  H4  1  0.83881000  0.52152000  0.36600000  1.0
  H  H5  1  0.66121000  0.63400000  0.47848000  1.0
  H  H6  1  0.93217000  0.00307000  0.31615000  1.0
  H  H7  1  0.56783000  0.68386000  0.99694000  1.0
  H  H8  1  0.06782000  0.99693000  0.68386000  1.0
  H  H9  1  0.43217000  0.31614000  0.00306000  1.0
  H  H10  1  0.01789000  0.56235000  0.86413000  1.0
  H  H11  1  0.48210000  0.13587000  0.43766000  1.0
  H  H12  1  0.98211000  0.43765000  0.13587000  1.0
  H  H13  1  0.51790000  0.86413000  0.56235000  1.0
  H  H14  1  0.83610000  0.50562000  0.82844000  1.0
  H  H15  1  0.66390000  0.17156000  0.49439000  1.0
  H  H16  1  0.16390000  0.49438000  0.17156000  1.0
  H  H17  1  0.33611000  0.82844000  0.50562000  1.0
  H  H18  1  0.80085000  0.68464000  0.83286000  1.0
  H  H19  1  0.69914000  0.16715000  0.31536000  1.0
  H  H20  1  0.19915000  0.31535000  0.16714000  1.0
  H  H21  1  0.30086000  0.83285000  0.68464000  1.0
  H  H22  1  0.80393000  0.89246000  0.59278000  1.0
  H  H23  1  0.69608000  0.40722000  0.10756000  1.0
  H  H24  1  0.19607000  0.10754000  0.40722000  1.0
  H  H25  1  0.30392000  0.59278000  0.89245000  1.0
  C  C26  1  0.17580000  0.66543000  0.41241000  1.0
  C  C27  1  0.32419000  0.58759000  0.33457000  1.0
  C  C28  1  0.82420000  0.33457000  0.58759000  1.0
  C  C29  1  0.67581000  0.41241000  0.66542000  1.0
  C  C30  1  0.10779000  0.59507000  0.56565000  1.0
  C  C31  1  0.39220000  0.43435000  0.40495000  1.0
  C  C32  1  0.89221000  0.40494000  0.43435000  1.0
  C  C33  1  0.60780000  0.56565000  0.59506000  1.0
  C  C34  1  0.97876000  0.88714000  0.39180000  1.0
  C  C35  1  0.52125000  0.60820000  0.11288000  1.0
  C  C36  1  0.02124000  0.11286000  0.60820000  1.0
  C  C37  1  0.47876000  0.39179000  0.88713000  1.0
  C  C38  1  0.97241000  0.67520000  0.63452000  1.0
  C  C39  1  0.52758000  0.36549000  0.32480000  1.0
  C  C40  1  0.02759000  0.32480000  0.36548000  1.0
  C  C41  1  0.47242000  0.63451000  0.67520000  1.0
  C  C42  1  0.90140000  0.60394000  0.79874000  1.0
  C  C43  1  0.59859000  0.20126000  0.39607000  1.0
  C  C44  1  0.09860000  0.39605000  0.20126000  1.0
  C  C45  1  0.40141000  0.79874000  0.60394000  1.0
  C  C46  1  0.90785000  0.82506000  0.54406000  1.0
  C  C47  1  0.59214000  0.45594000  0.17496000  1.0
  C  C48  1  0.09214000  0.17495000  0.45594000  1.0
  C  C49  1  0.40786000  0.54406000  0.82505000  1.0
  Br  Br50  1  0.49411000  0.99093000  0.81214000  1.0
  Br  Br51  1  0.00588000  0.18785000  0.00906000  1.0
  Br  Br52  1  0.50590000  0.00906000  0.18785000  1.0
  Br  Br53  1  0.99412000  0.81214000  0.99094000  1.0
  N  N54  1  0.10988000  0.81014000  0.32783000  1.0
  N  N55  1  0.39012000  0.67217000  0.18987000  1.0
  N  N56  1  0.89012000  0.18986000  0.67217000  1.0
  N  N57  1  0.60988000  0.32783000  0.81013000  1.0
