# generated using pymatgen
data_SrCoH18C14(NO7)2
_symmetry_space_group_name_H-M   'P 1'
_cell_length_a   7.34683000
_cell_length_b   9.82766000
_cell_length_c   16.21697476
_cell_angle_alpha   78.15987943
_cell_angle_beta   76.94015190
_cell_angle_gamma   68.05680000
_symmetry_Int_Tables_number   1
_chemical_formula_structural   SrCoH18C14(NO7)2
_chemical_formula_sum   'Sr2 Co2 H36 C28 N4 O28'
_cell_volume   1048.49424846
_cell_formula_units_Z   2
loop_
 _symmetry_equiv_pos_site_id
 _symmetry_equiv_pos_as_xyz
  1  'x, y, z'
loop_
 _atom_site_type_symbol
 _atom_site_label
 _atom_site_symmetry_multiplicity
 _atom_site_fract_x
 _atom_site_fract_y
 _atom_site_fract_z
 _atom_site_occupancy
  Sr  Sr0  1  0.01919000  0.25006000  0.75003000  1.0
  Sr  Sr1  1  0.98080000  0.74994000  0.24998000  1.0
  Co  Co2  1  0.49999000  0.50000000  0.50000000  1.0
  Co  Co3  1  0.50001000  0.00000000  0.00000000  1.0
  H  H4  1  0.19384000  0.40166000  0.56767000  1.0
  H  H5  1  0.10171000  0.58229000  0.54755000  1.0
  H  H6  1  0.72361000  0.47938000  0.65892000  1.0
  H  H7  1  0.83992000  0.59045000  0.64088000  1.0
  H  H8  1  0.38057000  0.02698000  0.82365000  1.0
  H  H9  1  0.51304000  0.09316000  0.74956000  1.0
  H  H10  1  0.82868000  0.96027000  0.59842000  1.0
  H  H11  1  0.65900000  0.03063000  0.35036000  1.0
  H  H12  1  0.52660000  0.30160000  0.35950000  1.0
  H  H13  1  0.16298000  0.09847000  0.93236000  1.0
  H  H14  1  0.23135000  0.91782000  0.95242000  1.0
  H  H15  1  0.86179000  0.02079000  0.84103000  1.0
  H  H16  1  0.07115000  0.90971000  0.85905000  1.0
  H  H17  1  0.23141000  0.47295000  0.67652000  1.0
  H  H18  1  0.35595000  0.40671000  0.75064000  1.0
  H  H19  1  0.38768000  0.53965000  0.90152000  1.0
  H  H20  1  0.03980000  0.46957000  0.14940000  1.0
  H  H21  1  0.18740000  0.19858000  0.14033000  1.0
  H  H22  1  0.80613000  0.59834000  0.43234000  1.0
  H  H23  1  0.89826000  0.41771000  0.45246000  1.0
  H  H24  1  0.27637000  0.52061000  0.34109000  1.0
  H  H25  1  0.16007000  0.40953000  0.35912000  1.0
  H  H26  1  0.61946000  0.97303000  0.17635000  1.0
  H  H27  1  0.48698000  0.90685000  0.25043000  1.0
  H  H28  1  0.17130000  0.03973000  0.40158000  1.0
  H  H29  1  0.34099000  0.96937000  0.64965000  1.0
  H  H30  1  0.47338000  0.69839000  0.64051000  1.0
  H  H31  1  0.83705000  0.90154000  0.06763000  1.0
  H  H32  1  0.76869000  0.08219000  0.04757000  1.0
  H  H33  1  0.13821000  0.97921000  0.15898000  1.0
  H  H34  1  0.92887000  0.09029000  0.14096000  1.0
  H  H35  1  0.76857000  0.52705000  0.32349000  1.0
  H  H36  1  0.64405000  0.59328000  0.24936000  1.0
  H  H37  1  0.61233000  0.46036000  0.09847000  1.0
  H  H38  1  0.96023000  0.53044000  0.85059000  1.0
  H  H39  1  0.81262000  0.80143000  0.85966000  1.0
  C  C40  1  0.68387000  0.18435000  0.54449000  1.0
  C  C41  1  0.76144000  0.03192000  0.54463000  1.0
  C  C42  1  0.75319000  0.97311000  0.47469000  1.0
  C  C43  1  0.66947000  0.07091000  0.40637000  1.0
  C  C44  1  0.59419000  0.22251000  0.41136000  1.0
  C  C45  1  0.70042000  0.25408000  0.61534000  1.0
  C  C46  1  0.83212000  0.80766000  0.47526000  1.0
  C  C47  1  0.41294000  0.31563000  0.95553000  1.0
  C  C48  1  0.33819000  0.46807000  0.95533000  1.0
  C  C49  1  0.20105000  0.52698000  0.02518000  1.0
  C  C50  1  0.14664000  0.42924000  0.09344000  1.0
  C  C51  1  0.22797000  0.27760000  0.08853000  1.0
  C  C52  1  0.57005000  0.24584000  0.88474000  1.0
  C  C53  1  0.11508000  0.69239000  0.02461000  1.0
  C  C54  1  0.31611000  0.81565000  0.45551000  1.0
  C  C55  1  0.23854000  0.96807000  0.45538000  1.0
  C  C56  1  0.24680000  0.02689000  0.52531000  1.0
  C  C57  1  0.33052000  0.92909000  0.59363000  1.0
  C  C58  1  0.40579000  0.77748000  0.58865000  1.0
  C  C59  1  0.29956000  0.74591000  0.38467000  1.0
  C  C60  1  0.16786000  0.19233000  0.52474000  1.0
  C  C61  1  0.58707000  0.68438000  0.04446000  1.0
  C  C62  1  0.66182000  0.53193000  0.04466000  1.0
  C  C63  1  0.79897000  0.47302000  0.97481000  1.0
  C  C64  1  0.85338000  0.57077000  0.90655000  1.0
  C  C65  1  0.77204000  0.72241000  0.91147000  1.0
  C  C66  1  0.42997000  0.75416000  0.11525000  1.0
  C  C67  1  0.88494000  0.30761000  0.97538000  1.0
  N  N68  1  0.59845000  0.27887000  0.47952000  1.0
  N  N69  1  0.35702000  0.22117000  0.02048000  1.0
  N  N70  1  0.40152000  0.72113000  0.52049000  1.0
  N  N71  1  0.64300000  0.77884000  0.97951000  1.0
  O  O72  1  0.61627000  0.39655000  0.61021000  1.0
  O  O73  1  0.79709000  0.17395000  0.67264000  1.0
  O  O74  1  0.82218000  0.75864000  0.40988000  1.0
  O  O75  1  0.90098000  0.72847000  0.54095000  1.0
  O  O76  1  0.22121000  0.49687000  0.56388000  1.0
  O  O77  1  0.80802000  0.51353000  0.68420000  1.0
  O  O78  1  0.39181000  0.06848000  0.76230000  1.0
  O  O79  1  0.62318000  0.10337000  0.88984000  1.0
  O  O80  1  0.64381000  0.32600000  0.82747000  1.0
  O  O81  1  0.99083000  0.74140000  0.08998000  1.0
  O  O82  1  0.17033000  0.77157000  0.95892000  1.0
  O  O83  1  0.28176000  0.00322000  0.93614000  1.0
  O  O84  1  0.00558000  0.98673000  0.81576000  1.0
  O  O85  1  0.22278000  0.43145000  0.73787000  1.0
  O  O86  1  0.38369000  0.60345000  0.38980000  1.0
  O  O87  1  0.20289000  0.82604000  0.32737000  1.0
  O  O88  1  0.17781000  0.24135000  0.59012000  1.0
  O  O89  1  0.09900000  0.27153000  0.45905000  1.0
  O  O90  1  0.77876000  0.50313000  0.43613000  1.0
  O  O91  1  0.19198000  0.48645000  0.31580000  1.0
  O  O92  1  0.60821000  0.93152000  0.23770000  1.0
  O  O93  1  0.37685000  0.89664000  0.11016000  1.0
  O  O94  1  0.35619000  0.67401000  0.17252000  1.0
  O  O95  1  0.00919000  0.25860000  0.91001000  1.0
  O  O96  1  0.82969000  0.22843000  0.04108000  1.0
  O  O97  1  0.71826000  0.99679000  0.06386000  1.0
  O  O98  1  0.99444000  0.01326000  0.18424000  1.0
  O  O99  1  0.77721000  0.56855000  0.26214000  1.0
