# generated using pymatgen
data_KCoH12C12(NO4)2
_symmetry_space_group_name_H-M   'P 1'
_cell_length_a   7.39211000
_cell_length_b   13.89190000
_cell_length_c   14.02680000
_cell_angle_alpha   89.99960000
_cell_angle_beta   95.51810000
_cell_angle_gamma   89.99960000
_symmetry_Int_Tables_number   1
_chemical_formula_structural   KCoH12C12(NO4)2
_chemical_formula_sum   'K4 Co4 H48 C48 N8 O32'
_cell_volume   1433.74335930
_cell_formula_units_Z   4
loop_
 _symmetry_equiv_pos_site_id
 _symmetry_equiv_pos_as_xyz
  1  'x, y, z'
loop_
 _atom_site_type_symbol
 _atom_site_label
 _atom_site_symmetry_multiplicity
 _atom_site_fract_x
 _atom_site_fract_y
 _atom_site_fract_z
 _atom_site_occupancy
  K  K0  1  0.25074000  0.06522000  0.05277000  1.0
  K  K1  1  0.24926000  0.56522000  0.44723000  1.0
  K  K2  1  0.74926000  0.93478000  0.94723000  1.0
  K  K3  1  0.75074000  0.43478000  0.55277000  1.0
  Co  Co4  1  0.22549000  0.18404000  0.37567000  1.0
  Co  Co5  1  0.27451000  0.68403000  0.12434000  1.0
  Co  Co6  1  0.77450000  0.81596000  0.62434000  1.0
  Co  Co7  1  0.72550000  0.31596000  0.87566000  1.0
  H  H8  1  0.64883000  0.94969000  0.13324000  1.0
  H  H9  1  0.85118000  0.44968000  0.36677000  1.0
  H  H10  1  0.35118000  0.05032000  0.86677000  1.0
  H  H11  1  0.14883000  0.55032000  0.63324000  1.0
  H  H12  1  0.73547000  0.05390000  0.14424000  1.0
  H  H13  1  0.76454000  0.55390000  0.35577000  1.0
  H  H14  1  0.26453000  0.94610000  0.85577000  1.0
  H  H15  1  0.23548000  0.44610000  0.64423000  1.0
  H  H16  1  0.18572000  0.20932000  0.89034000  1.0
  H  H17  1  0.31427000  0.70932000  0.60966000  1.0
  H  H18  1  0.81428000  0.79069000  0.10966000  1.0
  H  H19  1  0.68572000  0.29069000  0.39034000  1.0
  H  H20  1  0.38484000  0.23092000  0.86810000  1.0
  H  H21  1  0.11516000  0.73092000  0.63190000  1.0
  H  H22  1  0.61516000  0.76909000  0.13190000  1.0
  H  H23  1  0.88484000  0.26909000  0.36810000  1.0
  H  H24  1  0.12321000  0.31269000  0.53418000  1.0
  H  H25  1  0.37680000  0.81269000  0.96582000  1.0
  H  H26  1  0.87679000  0.68731000  0.46582000  1.0
  H  H27  1  0.62320000  0.18731000  0.03418000  1.0
  H  H28  1  0.03580000  0.27905000  0.69971000  1.0
  H  H29  1  0.46421000  0.77905000  0.80029000  1.0
  H  H30  1  0.96420000  0.72094000  0.30029000  1.0
  H  H31  1  0.53578000  0.22095000  0.19971000  1.0
  H  H32  1  0.04583000  0.10762000  0.75918000  1.0
  H  H33  1  0.45417000  0.60762000  0.74082000  1.0
  H  H34  1  0.95417000  0.89238000  0.24082000  1.0
  H  H35  1  0.54582000  0.39238000  0.25918000  1.0
  H  H36  1  0.14751000  0.97900000  0.65318000  1.0
  H  H37  1  0.35250000  0.47900000  0.84682000  1.0
  H  H38  1  0.85250000  0.02099000  0.34682000  1.0
  H  H39  1  0.64750000  0.52100000  0.15318000  1.0
  H  H40  1  0.26417000  0.88097000  0.55641000  1.0
  H  H41  1  0.23581000  0.38098000  0.94358000  1.0
  H  H42  1  0.73583000  0.11902000  0.44358000  1.0
  H  H43  1  0.76418000  0.61902000  0.05641000  1.0
  H  H44  1  0.39746000  0.78242000  0.43138000  1.0
  H  H45  1  0.10250000  0.28242000  0.06861000  1.0
  H  H46  1  0.60254000  0.21759000  0.56861000  1.0
  H  H47  1  0.89748000  0.71758000  0.93139000  1.0
  H  H48  1  0.46679000  0.86331000  0.27833000  1.0
  H  H49  1  0.03319000  0.36331000  0.22166000  1.0
  H  H50  1  0.53321000  0.13669000  0.72166000  1.0
  H  H51  1  0.96681000  0.63669000  0.77834000  1.0
  H  H52  1  0.40379000  0.03804000  0.25741000  1.0
  H  H53  1  0.09621000  0.53803000  0.24259000  1.0
  H  H54  1  0.59621000  0.96197000  0.74259000  1.0
  H  H55  1  0.90379000  0.46197000  0.75741000  1.0
  C  C56  1  0.12672000  0.24036000  0.56385000  1.0
  C  C57  1  0.37329000  0.74035000  0.93615000  1.0
  C  C58  1  0.87329000  0.75964000  0.43615000  1.0
  C  C59  1  0.62671000  0.25965000  0.06385000  1.0
  C  C60  1  0.07883000  0.22064000  0.65545000  1.0
  C  C61  1  0.42118000  0.72064000  0.84455000  1.0
  C  C62  1  0.92117000  0.77936000  0.34455000  1.0
  C  C63  1  0.57882000  0.27936000  0.15545000  1.0
  C  C64  1  0.08467000  0.12589000  0.68845000  1.0
  C  C65  1  0.41533000  0.62588000  0.81155000  1.0
  C  C66  1  0.91533000  0.87411000  0.31155000  1.0
  C  C67  1  0.58466000  0.37412000  0.18845000  1.0
  C  C68  1  0.14238000  0.05376000  0.62962000  1.0
  C  C69  1  0.35762000  0.55376000  0.87038000  1.0
  C  C70  1  0.85762000  0.94624000  0.37038000  1.0
  C  C71  1  0.64237000  0.44624000  0.12962000  1.0
  C  C72  1  0.18991000  0.07778000  0.53890000  1.0
  C  C73  1  0.31009000  0.57778000  0.96110000  1.0
  C  C74  1  0.81008000  0.92222000  0.46110000  1.0
  C  C75  1  0.68991000  0.42222000  0.03890000  1.0
  C  C76  1  0.25884000  0.01049000  0.47150000  1.0
  C  C77  1  0.24116000  0.51048000  0.02850000  1.0
  C  C78  1  0.74116000  0.98951000  0.52850000  1.0
  C  C79  1  0.75884000  0.48951000  0.97150000  1.0
  C  C80  1  0.29394000  0.91308000  0.48891000  1.0
  C  C81  1  0.20604000  0.41308000  0.01108000  1.0
  C  C82  1  0.70606000  0.08692000  0.51108000  1.0
  C  C83  1  0.79395000  0.58692000  0.98892000  1.0
  C  C84  1  0.36749000  0.85828000  0.41914000  1.0
  C  C85  1  0.13249000  0.35828000  0.08085000  1.0
  C  C86  1  0.63251000  0.14172000  0.58085000  1.0
  C  C87  1  0.86751000  0.64172000  0.91915000  1.0
  C  C88  1  0.40819000  0.90281000  0.33473000  1.0
  C  C89  1  0.09180000  0.40280000  0.16526000  1.0
  C  C90  1  0.59182000  0.09720000  0.66526000  1.0
  C  C91  1  0.90820000  0.59719000  0.83474000  1.0
  C  C92  1  0.37086000  0.00022000  0.32139000  1.0
  C  C93  1  0.12914000  0.50022000  0.17861000  1.0
  C  C94  1  0.62914000  0.99978000  0.67861000  1.0
  C  C95  1  0.87087000  0.49978000  0.82139000  1.0
  C  C96  1  0.03900000  0.15410000  0.23266000  1.0
  C  C97  1  0.46100000  0.65410000  0.26734000  1.0
  C  C98  1  0.96099000  0.84590000  0.76734000  1.0
  C  C99  1  0.53901000  0.34590000  0.73266000  1.0
  C  C100  1  0.37032000  0.33401000  0.39585000  1.0
  C  C101  1  0.12968000  0.83400000  0.10415000  1.0
  C  C102  1  0.62967000  0.66599000  0.60415000  1.0
  C  C103  1  0.87033000  0.16599000  0.89585000  1.0
  N  N104  1  0.17953000  0.17034000  0.50632000  1.0
  N  N105  1  0.32047000  0.67034000  0.99368000  1.0
  N  N106  1  0.82046000  0.82966000  0.49368000  1.0
  N  N107  1  0.67953000  0.32966000  0.00632000  1.0
  N  N108  1  0.29471000  0.05262000  0.38756000  1.0
  N  N109  1  0.20529000  0.55261000  0.11244000  1.0
  N  N110  1  0.70529000  0.94739000  0.61244000  1.0
  N  N111  1  0.79471000  0.44739000  0.88756000  1.0
  O  O112  1  0.98216000  0.15518000  0.32017000  1.0
  O  O113  1  0.51784000  0.65518000  0.17984000  1.0
  O  O114  1  0.01783000  0.84482000  0.67983000  1.0
  O  O115  1  0.48217000  0.34482000  0.82016000  1.0
  O  O116  1  0.21280000  0.17803000  0.23695000  1.0
  O  O117  1  0.28721000  0.67803000  0.26305000  1.0
  O  O118  1  0.78719000  0.82197000  0.76305000  1.0
  O  O119  1  0.71281000  0.32197000  0.73695000  1.0
  O  O120  1  0.94346000  0.13196000  0.15784000  1.0
  O  O121  1  0.55655000  0.63196000  0.34216000  1.0
  O  O122  1  0.05654000  0.86804000  0.84216000  1.0
  O  O123  1  0.44347000  0.36804000  0.65784000  1.0
  O  O124  1  0.45667000  0.24981000  0.39907000  1.0
  O  O125  1  0.04333000  0.74981000  0.10093000  1.0
  O  O126  1  0.54333000  0.75019000  0.60093000  1.0
  O  O127  1  0.95667000  0.25019000  0.89908000  1.0
  O  O128  1  0.19406000  0.32143000  0.37716000  1.0
  O  O129  1  0.30593000  0.82142000  0.12284000  1.0
  O  O130  1  0.80593000  0.67857000  0.62285000  1.0
  O  O131  1  0.69407000  0.17858000  0.87716000  1.0
  O  O132  1  0.44797000  0.41331000  0.40893000  1.0
  O  O133  1  0.05203000  0.91330000  0.09106000  1.0
  O  O134  1  0.55203000  0.58670000  0.59106000  1.0
  O  O135  1  0.94798000  0.08670000  0.90894000  1.0
  O  O136  1  0.62101000  0.01896000  0.12532000  1.0
  O  O137  1  0.87900000  0.51895000  0.37468000  1.0
  O  O138  1  0.37899000  0.98105000  0.87468000  1.0
  O  O139  1  0.12101000  0.48105000  0.62532000  1.0
  O  O140  1  0.30986000  0.18221000  0.89648000  1.0
  O  O141  1  0.19014000  0.68221000  0.60352000  1.0
  O  O142  1  0.69014000  0.81780000  0.10352000  1.0
  O  O143  1  0.80986000  0.31780000  0.39649000  1.0
