# generated using pymatgen
data_ZnH10C19SNO6
_symmetry_space_group_name_H-M   'P 1'
_cell_length_a   13.92040000
_cell_length_b   18.96420000
_cell_length_c   23.48180000
_cell_angle_alpha   90.00000000
_cell_angle_beta   89.99990000
_cell_angle_gamma   103.32400000
_symmetry_Int_Tables_number   1
_chemical_formula_structural   ZnH10C19SNO6
_chemical_formula_sum   'Zn8 H80 C152 S8 N8 O48'
_cell_volume   6032.08225263
_cell_formula_units_Z   8
loop_
 _symmetry_equiv_pos_site_id
 _symmetry_equiv_pos_as_xyz
  1  'x, y, z'
loop_
 _atom_site_type_symbol
 _atom_site_label
 _atom_site_symmetry_multiplicity
 _atom_site_fract_x
 _atom_site_fract_y
 _atom_site_fract_z
 _atom_site_occupancy
  Zn  Zn0  1  0.66385000  0.32506000  0.99019000  1.0
  Zn  Zn1  1  0.33615000  0.17494000  0.49019000  1.0
  Zn  Zn2  1  0.33615000  0.67494000  0.00981000  1.0
  Zn  Zn3  1  0.66385000  0.82506000  0.50981000  1.0
  Zn  Zn4  1  0.87551000  0.35813000  0.00791000  1.0
  Zn  Zn5  1  0.12449000  0.14187000  0.50791000  1.0
  Zn  Zn6  1  0.12449000  0.64187000  0.99210000  1.0
  Zn  Zn7  1  0.87551000  0.85813000  0.49210000  1.0
  H  H8  1  0.90570000  0.49808000  0.16569000  1.0
  H  H9  1  0.09430000  0.00192000  0.66569000  1.0
  H  H10  1  0.09430000  0.50192000  0.83431000  1.0
  H  H11  1  0.90570000  0.99808000  0.33431000  1.0
  H  H12  1  0.59576000  0.44533000  0.12484000  1.0
  H  H13  1  0.40424000  0.05467000  0.62484000  1.0
  H  H14  1  0.40425000  0.55467000  0.87516000  1.0
  H  H15  1  0.59576000  0.94533000  0.37516000  1.0
  H  H16  1  0.55944000  0.51688000  0.20801000  1.0
  H  H17  1  0.44056000  0.98312000  0.70801000  1.0
  H  H18  1  0.44056000  0.48312000  0.79199000  1.0
  H  H19  1  0.55944000  0.01688000  0.29199000  1.0
  H  H20  1  0.55045000  0.58374000  0.29355000  1.0
  H  H21  1  0.44954000  0.91626000  0.79355000  1.0
  H  H22  1  0.44955000  0.41626000  0.70645000  1.0
  H  H23  1  0.55045000  0.08374000  0.20645000  1.0
  H  H24  1  0.88689000  0.68874000  0.37336000  1.0
  H  H25  1  0.11311000  0.81126000  0.87336000  1.0
  H  H26  1  0.11311000  0.31126000  0.62664000  1.0
  H  H27  1  0.88689000  0.18874000  0.12664000  1.0
  H  H28  1  0.57208000  0.66366000  0.37969000  1.0
  H  H29  1  0.42792000  0.83634000  0.87969000  1.0
  H  H30  1  0.42792000  0.33634000  0.62031000  1.0
  H  H31  1  0.57208000  0.16366000  0.12031000  1.0
  H  H32  1  0.62896000  0.18153000  0.83530000  1.0
  H  H33  1  0.37104000  0.31847000  0.33530000  1.0
  H  H34  1  0.37104000  0.81847000  0.16470000  1.0
  H  H35  1  0.62896000  0.68154000  0.66469000  1.0
  H  H36  1  0.94081000  0.26443000  0.85990000  1.0
  H  H37  1  0.05920000  0.23557000  0.35990000  1.0
  H  H38  1  0.05919000  0.73557000  0.14010000  1.0
  H  H39  1  0.94080000  0.76443000  0.64010000  1.0
  H  H40  1  0.97859000  0.20075000  0.77308000  1.0
  H  H41  1  0.02141000  0.29925000  0.27308000  1.0
  H  H42  1  0.02141000  0.79925000  0.22692000  1.0
  H  H43  1  0.97859000  0.70075000  0.72692000  1.0
  H  H44  1  0.98829000  0.12493000  0.69132000  1.0
  H  H45  1  0.01172000  0.37507000  0.19132000  1.0
  H  H46  1  0.01171000  0.87507000  0.30868000  1.0
  H  H47  1  0.98828000  0.62493000  0.80868000  1.0
  H  H48  1  0.65208000  0.99369000  0.62597000  1.0
  H  H49  1  0.34792000  0.50631000  0.12597000  1.0
  H  H50  1  0.34792000  0.00631000  0.37403000  1.0
  H  H51  1  0.65208000  0.49369000  0.87403000  1.0
  H  H52  1  0.96846000  0.03863000  0.61015000  1.0
  H  H53  1  0.03154000  0.46137000  0.11016000  1.0
  H  H54  1  0.03154000  0.96137000  0.38985000  1.0
  H  H55  1  0.96846000  0.53863000  0.88984000  1.0
  H  H56  1  0.51121000  0.30297000  0.07928000  1.0
  H  H57  1  0.48879000  0.19703000  0.57928000  1.0
  H  H58  1  0.48879000  0.69703000  0.92072000  1.0
  H  H59  1  0.51121000  0.80297000  0.42072000  1.0
  H  H60  1  0.51358000  0.35404000  0.90780000  1.0
  H  H61  1  0.48642000  0.14596000  0.40780000  1.0
  H  H62  1  0.48642000  0.64596000  0.09220000  1.0
  H  H63  1  0.51358000  0.85404000  0.59220000  1.0
  H  H64  1  0.33857000  0.31608000  0.09119000  1.0
  H  H65  1  0.66143000  0.18392000  0.59119000  1.0
  H  H66  1  0.66143000  0.68392000  0.90880000  1.0
  H  H67  1  0.33857000  0.81608000  0.40881000  1.0
  H  H68  1  0.33943000  0.36819000  0.91128000  1.0
  H  H69  1  0.66056000  0.13181000  0.41129000  1.0
  H  H70  1  0.66056000  0.63181000  0.08872000  1.0
  H  H71  1  0.33944000  0.86819000  0.58872000  1.0
  H  H72  1  0.17407000  0.26295000  0.06799000  1.0
  H  H73  1  0.82592000  0.23704000  0.56799000  1.0
  H  H74  1  0.82593000  0.73705000  0.93201000  1.0
  H  H75  1  0.17407000  0.76295000  0.43201000  1.0
  H  H76  1  0.23551000  0.43714000  0.94465000  1.0
  H  H77  1  0.76449000  0.06286000  0.44465000  1.0
  H  H78  1  0.76449000  0.56287000  0.05535000  1.0
  H  H79  1  0.23551000  0.93714000  0.55535000  1.0
  H  H80  1  0.99880000  0.27515000  0.06857000  1.0
  H  H81  1  0.00120000  0.22485000  0.56857000  1.0
  H  H82  1  0.00120000  0.72485000  0.93143000  1.0
  H  H83  1  0.99880000  0.77515000  0.43143000  1.0
  H  H84  1  0.05843000  0.44228000  0.95112000  1.0
  H  H85  1  0.94157000  0.05772000  0.45112000  1.0
  H  H86  1  0.94157000  0.55772000  0.04888000  1.0
  H  H87  1  0.05843000  0.94228000  0.54888000  1.0
  C  C88  1  0.76938000  0.42274000  0.09024000  1.0
  C  C89  1  0.23063000  0.07726000  0.59024000  1.0
  C  C90  1  0.23063000  0.57727000  0.90976000  1.0
  C  C91  1  0.76938000  0.92274000  0.40977000  1.0
  C  C92  1  0.75187000  0.46734000  0.14029000  1.0
  C  C93  1  0.24814000  0.03267000  0.64029000  1.0
  C  C94  1  0.24814000  0.53267000  0.85971000  1.0
  C  C95  1  0.75187000  0.96734000  0.35971000  1.0
  C  C96  1  0.83064000  0.50257000  0.17489000  1.0
  C  C97  1  0.16937000  0.99743000  0.67489000  1.0
  C  C98  1  0.16937000  0.49743000  0.82511000  1.0
  C  C99  1  0.83063000  0.00257000  0.32512000  1.0
  C  C100  1  0.65526000  0.47363000  0.15229000  1.0
  C  C101  1  0.34474000  0.02637000  0.65229000  1.0
  C  C102  1  0.34474000  0.52637000  0.84771000  1.0
  C  C103  1  0.65526000  0.97363000  0.34771000  1.0
  C  C104  1  0.80914000  0.54228000  0.22063000  1.0
  C  C105  1  0.19086000  0.95772000  0.72063000  1.0
  C  C106  1  0.19086000  0.45772000  0.77937000  1.0
  C  C107  1  0.80914000  0.04228000  0.27937000  1.0
  C  C108  1  0.63501000  0.51390000  0.19847000  1.0
  C  C109  1  0.36499000  0.98610000  0.69847000  1.0
  C  C110  1  0.36499000  0.48610000  0.80153000  1.0
  C  C111  1  0.63501000  0.01390000  0.30153000  1.0
  C  C112  1  0.71273000  0.54832000  0.23365000  1.0
  C  C113  1  0.28727000  0.95168000  0.73365000  1.0
  C  C114  1  0.28727000  0.45168000  0.76635000  1.0
  C  C115  1  0.71273000  0.04832000  0.26635000  1.0
  C  C116  1  0.70764000  0.59201000  0.28469000  1.0
  C  C117  1  0.29237000  0.90799000  0.78469000  1.0
  C  C118  1  0.29237000  0.40799000  0.71531000  1.0
  C  C119  1  0.70763000  0.09201000  0.21531000  1.0
  C  C120  1  0.80087000  0.62084000  0.30875000  1.0
  C  C121  1  0.19913000  0.87916000  0.80875000  1.0
  C  C122  1  0.19913000  0.37916000  0.69125000  1.0
  C  C123  1  0.80087000  0.12084000  0.19125000  1.0
  C  C124  1  0.62392000  0.60690000  0.31054000  1.0
  C  C125  1  0.37608000  0.89310000  0.81054000  1.0
  C  C126  1  0.37608000  0.39310000  0.68946000  1.0
  C  C127  1  0.62392000  0.10690000  0.18946000  1.0
  C  C128  1  0.81404000  0.66569000  0.35584000  1.0
  C  C129  1  0.18596000  0.83431000  0.85584000  1.0
  C  C130  1  0.18596000  0.33431000  0.64416000  1.0
  C  C131  1  0.81404000  0.16569000  0.14416000  1.0
  C  C132  1  0.63592000  0.65121000  0.35867000  1.0
  C  C133  1  0.36408000  0.84879000  0.85866000  1.0
  C  C134  1  0.36408000  0.34879000  0.64133000  1.0
  C  C135  1  0.63592000  0.15121000  0.14133000  1.0
  C  C136  1  0.72998000  0.68160000  0.38092000  1.0
  C  C137  1  0.27002000  0.81841000  0.88092000  1.0
  C  C138  1  0.27002000  0.31841000  0.61908000  1.0
  C  C139  1  0.72998000  0.18159000  0.11908000  1.0
  C  C140  1  0.74173000  0.73368000  0.42985000  1.0
  C  C141  1  0.25827000  0.76632000  0.92986000  1.0
  C  C142  1  0.25827000  0.26632000  0.57014000  1.0
  C  C143  1  0.74173000  0.23368000  0.07014000  1.0
  C  C144  1  0.76623000  0.26509000  0.90639000  1.0
  C  C145  1  0.23377000  0.23491000  0.40639000  1.0
  C  C146  1  0.23377000  0.73492000  0.09361000  1.0
  C  C147  1  0.76623000  0.76508000  0.59361000  1.0
  C  C148  1  0.78388000  0.22617000  0.85306000  1.0
  C  C149  1  0.21612000  0.27383000  0.35306000  1.0
  C  C150  1  0.21612000  0.77383000  0.14694000  1.0
  C  C151  1  0.78388000  0.72617000  0.64694000  1.0
  C  C152  1  0.70467000  0.18519000  0.82148000  1.0
  C  C153  1  0.29533000  0.31481000  0.32148000  1.0
  C  C154  1  0.29533000  0.81481000  0.17852000  1.0
  C  C155  1  0.70467000  0.68519000  0.67852000  1.0
  C  C156  1  0.88135000  0.23123000  0.83501000  1.0
  C  C157  1  0.11866000  0.26877000  0.33501000  1.0
  C  C158  1  0.11865000  0.76877000  0.16499000  1.0
  C  C159  1  0.88135000  0.73123000  0.66499000  1.0
  C  C160  1  0.72708000  0.14966000  0.77346000  1.0
  C  C161  1  0.27292000  0.35034000  0.27346000  1.0
  C  C162  1  0.27292000  0.85034000  0.22654000  1.0
  C  C163  1  0.72708000  0.64966000  0.72654000  1.0
  C  C164  1  0.90236000  0.19532000  0.78651000  1.0
  C  C165  1  0.09764000  0.30467000  0.28651000  1.0
  C  C166  1  0.09764000  0.80467000  0.21349000  1.0
  C  C167  1  0.90235000  0.69533000  0.71349000  1.0
  C  C168  1  0.82458000  0.15316000  0.75540000  1.0
  C  C169  1  0.17542000  0.34684000  0.25540000  1.0
  C  C170  1  0.17542000  0.84684000  0.24460000  1.0
  C  C171  1  0.82458000  0.65316000  0.74460000  1.0
  C  C172  1  0.83059000  0.10846000  0.70503000  1.0
  C  C173  1  0.16941000  0.39154000  0.20503000  1.0
  C  C174  1  0.16941000  0.89154000  0.29497000  1.0
  C  C175  1  0.83059000  0.60846000  0.79497000  1.0
  C  C176  1  0.73735000  0.07147000  0.68513000  1.0
  C  C177  1  0.26265000  0.42853000  0.18513000  1.0
  C  C178  1  0.26265000  0.92853000  0.31487000  1.0
  C  C179  1  0.73735000  0.57147000  0.81487000  1.0
  C  C180  1  0.91463000  0.09703000  0.67727000  1.0
  C  C181  1  0.08537000  0.40298000  0.17727000  1.0
  C  C182  1  0.08537000  0.90297000  0.32273000  1.0
  C  C183  1  0.91463000  0.59703000  0.82273000  1.0
  C  C184  1  0.72472000  0.02308000  0.64028000  1.0
  C  C185  1  0.27528000  0.47692000  0.14029000  1.0
  C  C186  1  0.27528000  0.97692000  0.35971000  1.0
  C  C187  1  0.72472000  0.52308000  0.85972000  1.0
  C  C188  1  0.90352000  0.04826000  0.63191000  1.0
  C  C189  1  0.09648000  0.45175000  0.13191000  1.0
  C  C190  1  0.09648000  0.95174000  0.36809000  1.0
  C  C191  1  0.90352000  0.54826000  0.86809000  1.0
  C  C192  1  0.80960000  0.01066000  0.61369000  1.0
  C  C193  1  0.19040000  0.48934000  0.11370000  1.0
  C  C194  1  0.19040000  0.98934000  0.38630000  1.0
  C  C195  1  0.80960000  0.51066000  0.88630000  1.0
  C  C196  1  0.79848000  0.95416000  0.56801000  1.0
  C  C197  1  0.20152000  0.54584000  0.06802000  1.0
  C  C198  1  0.20152000  0.04584000  0.43199000  1.0
  C  C199  1  0.79848000  0.45416000  0.93198000  1.0
  C  C200  1  0.46960000  0.31666000  0.04326000  1.0
  C  C201  1  0.53040000  0.18333000  0.54326000  1.0
  C  C202  1  0.53040000  0.68334000  0.95674000  1.0
  C  C203  1  0.46960000  0.81666000  0.45674000  1.0
  C  C204  1  0.47109000  0.34580000  0.94724000  1.0
  C  C205  1  0.52891000  0.15420000  0.44724000  1.0
  C  C206  1  0.52891000  0.65420000  0.05276000  1.0
  C  C207  1  0.47109000  0.84580000  0.55276000  1.0
  C  C208  1  0.37289000  0.32356000  0.04924000  1.0
  C  C209  1  0.62710000  0.17644000  0.54924000  1.0
  C  C210  1  0.62710000  0.67644000  0.95076000  1.0
  C  C211  1  0.37290000  0.82356000  0.45076000  1.0
  C  C212  1  0.37457000  0.35401000  0.94975000  1.0
  C  C213  1  0.62542000  0.14599000  0.44975000  1.0
  C  C214  1  0.62542000  0.64599000  0.05025000  1.0
  C  C215  1  0.37458000  0.85401000  0.55025000  1.0
  C  C216  1  0.32320000  0.34238000  0.00164000  1.0
  C  C217  1  0.67680000  0.15761000  0.50165000  1.0
  C  C218  1  0.67680000  0.65762000  0.99835000  1.0
  C  C219  1  0.32320000  0.84238000  0.49835000  1.0
  C  C220  1  0.21984000  0.34893000  0.00546000  1.0
  C  C221  1  0.78016000  0.15107000  0.50546000  1.0
  C  C222  1  0.78016000  0.65107000  0.99454000  1.0
  C  C223  1  0.21984000  0.84892000  0.49454000  1.0
  C  C224  1  0.15209000  0.30375000  0.04153000  1.0
  C  C225  1  0.84790000  0.19625000  0.54153000  1.0
  C  C226  1  0.84790000  0.69625000  0.95847000  1.0
  C  C227  1  0.15210000  0.80375000  0.45847000  1.0
  C  C228  1  0.18565000  0.39959000  0.97237000  1.0
  C  C229  1  0.81435000  0.10041000  0.47237000  1.0
  C  C230  1  0.81435000  0.60042000  0.02763000  1.0
  C  C231  1  0.18565000  0.89959000  0.52763000  1.0
  C  C232  1  0.05467000  0.30983000  0.04212000  1.0
  C  C233  1  0.94533000  0.19017000  0.54212000  1.0
  C  C234  1  0.94533000  0.69017000  0.95788000  1.0
  C  C235  1  0.05467000  0.80983000  0.45788000  1.0
  C  C236  1  0.08718000  0.40290000  0.97565000  1.0
  C  C237  1  0.91283000  0.09710000  0.47565000  1.0
  C  C238  1  0.91283000  0.59710000  0.02435000  1.0
  C  C239  1  0.08718000  0.90290000  0.52435000  1.0
  S  S240  1  0.89558000  0.59216000  0.27032000  1.0
  S  S241  1  0.10441000  0.90784000  0.77032000  1.0
  S  S242  1  0.10442000  0.40784000  0.72968000  1.0
  S  S243  1  0.89558000  0.09216000  0.22968000  1.0
  S  S244  1  0.64152000  0.09279000  0.72715000  1.0
  S  S245  1  0.35848000  0.40721000  0.22715000  1.0
  S  S246  1  0.35848000  0.90721000  0.27285000  1.0
  S  S247  1  0.64152000  0.59279000  0.77285000  1.0
  N  N248  1  0.51771000  0.32727000  0.99312000  1.0
  N  N249  1  0.48229000  0.17272000  0.49312000  1.0
  N  N250  1  0.48229000  0.67272000  0.00688000  1.0
  N  N251  1  0.51771000  0.82727000  0.50688000  1.0
  N  N252  1  0.02251000  0.35820000  0.00960000  1.0
  N  N253  1  0.97749000  0.14180000  0.50960000  1.0
  N  N254  1  0.97749000  0.64180000  0.99041000  1.0
  N  N255  1  0.02251000  0.85820000  0.49040000  1.0
  O  O256  1  0.69298000  0.38969000  0.06352000  1.0
  O  O257  1  0.30703000  0.11031000  0.56352000  1.0
  O  O258  1  0.30703000  0.61031000  0.93648000  1.0
  O  O259  1  0.69297000  0.88970000  0.43648000  1.0
  O  O260  1  0.85841000  0.42181000  0.07800000  1.0
  O  O261  1  0.14159000  0.07819000  0.57800000  1.0
  O  O262  1  0.14160000  0.57820000  0.92200000  1.0
  O  O263  1  0.85841000  0.92181000  0.42200000  1.0
  O  O264  1  0.82951000  0.76874000  0.44069000  1.0
  O  O265  1  0.17048000  0.73127000  0.94069000  1.0
  O  O266  1  0.17049000  0.23127000  0.55931000  1.0
  O  O267  1  0.82951000  0.26874000  0.05931000  1.0
  O  O268  1  0.66389000  0.74015000  0.45558000  1.0
  O  O269  1  0.33611000  0.75986000  0.95558000  1.0
  O  O270  1  0.33612000  0.25986000  0.54441000  1.0
  O  O271  1  0.66389000  0.24014000  0.04441000  1.0
  O  O272  1  0.67742000  0.26660000  0.91863000  1.0
  O  O273  1  0.32258000  0.23340000  0.41863000  1.0
  O  O274  1  0.32257000  0.73340000  0.08137000  1.0
  O  O275  1  0.67742000  0.76659000  0.58137000  1.0
  O  O276  1  0.84238000  0.29383000  0.93532000  1.0
  O  O277  1  0.15762000  0.20617000  0.43532000  1.0
  O  O278  1  0.15762000  0.70617000  0.06468000  1.0
  O  O279  1  0.84238000  0.79383000  0.56468000  1.0
  O  O280  1  0.87714000  0.94524000  0.54431000  1.0
  O  O281  1  0.12286000  0.55477000  0.04431000  1.0
  O  O282  1  0.12286000  0.05476000  0.45569000  1.0
  O  O283  1  0.87714000  0.44523000  0.95568000  1.0
  O  O284  1  0.71097000  0.91891000  0.55734000  1.0
  O  O285  1  0.28904000  0.58109000  0.05734000  1.0
  O  O286  1  0.28904000  0.08109000  0.44266000  1.0
  O  O287  1  0.71096000  0.41891000  0.94265000  1.0
  O  O288  1  0.96040000  0.65337000  0.24236000  1.0
  O  O289  1  0.03960000  0.84663000  0.74236000  1.0
  O  O290  1  0.03961000  0.34663000  0.75764000  1.0
  O  O291  1  0.96040000  0.15337000  0.25763000  1.0
  O  O292  1  0.93937000  0.54424000  0.30460000  1.0
  O  O293  1  0.06064000  0.95576000  0.80460000  1.0
  O  O294  1  0.06063000  0.45576000  0.69540000  1.0
  O  O295  1  0.93936000  0.04424000  0.19540000  1.0
  O  O296  1  0.58692000  0.02874000  0.75688000  1.0
  O  O297  1  0.41308000  0.47127000  0.25689000  1.0
  O  O298  1  0.41308000  0.97126000  0.24311000  1.0
  O  O299  1  0.58692000  0.52873000  0.74312000  1.0
  O  O300  1  0.58540000  0.13404000  0.69377000  1.0
  O  O301  1  0.41460000  0.36596000  0.19377000  1.0
  O  O302  1  0.41460000  0.86595000  0.30623000  1.0
  O  O303  1  0.58540000  0.63404000  0.80623000  1.0
