# generated using pymatgen
data_SmH8(CO)8
_symmetry_space_group_name_H-M   'P 1'
_cell_length_a   8.94711000
_cell_length_b   10.51980000
_cell_length_c   12.25240000
_cell_angle_alpha   90.00040000
_cell_angle_beta   90.00050000
_cell_angle_gamma   77.40300000
_symmetry_Int_Tables_number   1
_chemical_formula_structural   SmH8(CO)8
_chemical_formula_sum   'Sm4 H32 C32 O32'
_cell_volume   1125.45798348
_cell_formula_units_Z   4
loop_
 _symmetry_equiv_pos_site_id
 _symmetry_equiv_pos_as_xyz
  1  'x, y, z'
loop_
 _atom_site_type_symbol
 _atom_site_label
 _atom_site_symmetry_multiplicity
 _atom_site_fract_x
 _atom_site_fract_y
 _atom_site_fract_z
 _atom_site_occupancy
  Sm  Sm0  1  0.38202000  0.31509000  0.59751000  1.0
  Sm  Sm1  1  0.61797000  0.68491000  0.09751000  1.0
  Sm  Sm2  1  0.06510000  0.11951000  0.49734000  1.0
  Sm  Sm3  1  0.93490000  0.88050000  0.99734000  1.0
  H  H4  1  0.34190000  0.35236000  0.86013000  1.0
  H  H5  1  0.65810000  0.64764000  0.36013000  1.0
  H  H6  1  0.43694000  0.44184000  0.80286000  1.0
  H  H7  1  0.56306000  0.55816000  0.30286000  1.0
  H  H8  1  0.70083000  0.12797000  0.62424000  1.0
  H  H9  1  0.29917000  0.87203000  0.12424000  1.0
  H  H10  1  0.68730000  0.23030000  0.71967000  1.0
  H  H11  1  0.31269000  0.76970000  0.21967000  1.0
  H  H12  1  0.98525000  0.06796000  0.24994000  1.0
  H  H13  1  0.01475000  0.93204000  0.74994000  1.0
  H  H14  1  0.16189000  0.04326000  0.27458000  1.0
  H  H15  1  0.83811000  0.95674000  0.77458000  1.0
  H  H16  1  0.74974000  0.32164000  0.45162000  1.0
  H  H17  1  0.25026000  0.67836000  0.95162000  1.0
  H  H18  1  0.83937000  0.29775000  0.33795000  1.0
  H  H19  1  0.16063000  0.70225000  0.83795000  1.0
  H  H20  1  0.47816000  0.75565000  0.64512000  1.0
  H  H21  1  0.52184000  0.24434000  0.14512000  1.0
  H  H22  1  0.61342000  0.93772000  0.61893000  1.0
  H  H23  1  0.38659000  0.06228000  0.11892000  1.0
  H  H24  1  0.98723000  0.67408000  0.46370000  1.0
  H  H25  1  0.01277000  0.32592000  0.96370000  1.0
  H  H26  1  0.85075000  0.49210000  0.48681000  1.0
  H  H27  1  0.14925000  0.50790000  0.98681000  1.0
  H  H28  1  0.83890000  0.36783000  0.81457000  1.0
  H  H29  1  0.16110000  0.63217000  0.31457000  1.0
  H  H30  1  0.96015000  0.61600000  0.77028000  1.0
  H  H31  1  0.03985000  0.38400000  0.27028000  1.0
  H  H32  1  0.50212000  0.90595000  0.29564000  1.0
  H  H33  1  0.49789000  0.09404000  0.79564000  1.0
  H  H34  1  0.70556000  0.10323000  0.33989000  1.0
  H  H35  1  0.29444000  0.89678000  0.83989000  1.0
  C  C36  1  0.65452000  0.61385000  0.56604000  1.0
  C  C37  1  0.34549000  0.38615000  0.06604000  1.0
  C  C38  1  0.58947000  0.73892000  0.60521000  1.0
  C  C39  1  0.41053000  0.26107000  0.10521000  1.0
  C  C40  1  0.66548000  0.83988000  0.59087000  1.0
  C  C41  1  0.33453000  0.16012000  0.09087000  1.0
  C  C42  1  0.80793000  0.81657000  0.53815000  1.0
  C  C43  1  0.19208000  0.18343000  0.03815000  1.0
  C  C44  1  0.87486000  0.69081000  0.50177000  1.0
  C  C45  1  0.12514000  0.30919000  0.00177000  1.0
  C  C46  1  0.79837000  0.59004000  0.51473000  1.0
  C  C47  1  0.20164000  0.40995000  0.01473000  1.0
  C  C48  1  0.56926000  0.50757000  0.57812000  1.0
  C  C49  1  0.43075000  0.49244000  0.07812000  1.0
  C  C50  1  0.89029000  0.92326000  0.51795000  1.0
  C  C51  1  0.10971000  0.07674000  0.01795000  1.0
  C  C52  1  0.00891000  0.36746000  0.68427000  1.0
  C  C53  1  0.99108000  0.63254000  0.18427000  1.0
  C  C54  1  0.90776000  0.42845000  0.77485000  1.0
  C  C55  1  0.09223000  0.57156000  0.27485000  1.0
  C  C56  1  0.89612000  0.55115000  0.80898000  1.0
  C  C57  1  0.10387000  0.44885000  0.30898000  1.0
  C  C58  1  0.79967000  0.60079000  0.90410000  1.0
  C  C59  1  0.20032000  0.39921000  0.40410000  1.0
  C  C60  1  0.44166000  0.05523000  0.42259000  1.0
  C  C61  1  0.55834000  0.94477000  0.92259000  1.0
  C  C62  1  0.54213000  0.98516000  0.33515000  1.0
  C  C63  1  0.45787000  0.01485000  0.83515000  1.0
  C  C64  1  0.66816000  0.02238000  0.30058000  1.0
  C  C65  1  0.33184000  0.97762000  0.80058000  1.0
  C  C66  1  0.75598000  0.96179000  0.20495000  1.0
  C  C67  1  0.24402000  0.03821000  0.70495000  1.0
  O  O68  1  0.45996000  0.52051000  0.64692000  1.0
  O  O69  1  0.54005000  0.47950000  0.14692000  1.0
  O  O70  1  0.60416000  0.40497000  0.51861000  1.0
  O  O71  1  0.39584000  0.59504000  0.01861000  1.0
  O  O72  1  0.84014000  0.03681000  0.56031000  1.0
  O  O73  1  0.15986000  0.96318000  0.06031000  1.0
  O  O74  1  0.01023000  0.90202000  0.45933000  1.0
  O  O75  1  0.98977000  0.09798000  0.95933000  1.0
  O  O76  1  0.12958000  0.40884000  0.66474000  1.0
  O  O77  1  0.87041000  0.59116000  0.16474000  1.0
  O  O78  1  0.96406000  0.27600000  0.63434000  1.0
  O  O79  1  0.03594000  0.72400000  0.13434000  1.0
  O  O80  1  0.81667000  0.70772000  0.94882000  1.0
  O  O81  1  0.18333000  0.29228000  0.44882000  1.0
  O  O82  1  0.70602000  0.53847000  0.94345000  1.0
  O  O83  1  0.29397000  0.46153000  0.44346000  1.0
  O  O84  1  0.48540000  0.14537000  0.47427000  1.0
  O  O85  1  0.51460000  0.85463000  0.97427000  1.0
  O  O86  1  0.31541000  0.01918000  0.43629000  1.0
  O  O87  1  0.68460000  0.98082000  0.93629000  1.0
  O  O88  1  0.86406000  0.01203000  0.16825000  1.0
  O  O89  1  0.13594000  0.98797000  0.66825000  1.0
  O  O90  1  0.72229000  0.86420000  0.15647000  1.0
  O  O91  1  0.27771000  0.13580000  0.65647000  1.0
  O  O92  1  0.41504000  0.35472000  0.80134000  1.0
  O  O93  1  0.58495000  0.64528000  0.30134000  1.0
  O  O94  1  0.62596000  0.18590000  0.67388000  1.0
  O  O95  1  0.37403000  0.81410000  0.17388000  1.0
  O  O96  1  0.06408000  0.09990000  0.29405000  1.0
  O  O97  1  0.93592000  0.90010000  0.79405000  1.0
  O  O98  1  0.83849000  0.26498000  0.41196000  1.0
  O  O99  1  0.16151000  0.73502000  0.91196000  1.0
