# generated using pymatgen
data_SnPH4C5NO3
_symmetry_space_group_name_H-M   'P 1'
_cell_length_a   4.98162000
_cell_length_b   10.77180000
_cell_length_c   14.06510000
_cell_angle_alpha   90.00000000
_cell_angle_beta   94.06830000
_cell_angle_gamma   89.99990000
_symmetry_Int_Tables_number   1
_chemical_formula_structural   SnPH4C5NO3
_chemical_formula_sum   'Sn4 P4 H16 C20 N4 O12'
_cell_volume   752.84571027
_cell_formula_units_Z   4
loop_
 _symmetry_equiv_pos_site_id
 _symmetry_equiv_pos_as_xyz
  1  'x, y, z'
loop_
 _atom_site_type_symbol
 _atom_site_label
 _atom_site_symmetry_multiplicity
 _atom_site_fract_x
 _atom_site_fract_y
 _atom_site_fract_z
 _atom_site_occupancy
  Sn  Sn0  1  0.72924000  0.14930000  0.61413000  1.0
  Sn  Sn1  1  0.27077000  0.64930000  0.88587000  1.0
  Sn  Sn2  1  0.27077000  0.85070000  0.38587000  1.0
  Sn  Sn3  1  0.72923000  0.35070000  0.11413000  1.0
  P  P4  1  0.17372000  0.15272000  0.44956000  1.0
  P  P5  1  0.82628000  0.65272000  0.05044000  1.0
  P  P6  1  0.82628000  0.84728000  0.55044000  1.0
  P  P7  1  0.17372000  0.34728000  0.94956000  1.0
  H  H8  1  0.51629000  0.21961000  0.29608000  1.0
  H  H9  1  0.48371000  0.71961000  0.20392000  1.0
  H  H10  1  0.48371000  0.78039000  0.70392000  1.0
  H  H11  1  0.51629000  0.28039000  0.79608000  1.0
  H  H12  1  0.93194000  0.58007000  0.33661000  1.0
  H  H13  1  0.06806000  0.08007000  0.16339000  1.0
  H  H14  1  0.06806000  0.41993000  0.66339000  1.0
  H  H15  1  0.93194000  0.91993000  0.83661000  1.0
  H  H16  1  0.88796000  0.39443000  0.44317000  1.0
  H  H17  1  0.11203000  0.89443000  0.05683000  1.0
  H  H18  1  0.11204000  0.60557000  0.55684000  1.0
  H  H19  1  0.88796000  0.10557000  0.94316000  1.0
  H  H20  1  0.25907000  0.56842000  0.20829000  1.0
  H  H21  1  0.74094000  0.06841000  0.29171000  1.0
  H  H22  1  0.74093000  0.43158000  0.79171000  1.0
  H  H23  1  0.25906000  0.93158000  0.70829000  1.0
  C  C24  1  0.19890000  0.29145000  0.37753000  1.0
  C  C25  1  0.80110000  0.79144000  0.12247000  1.0
  C  C26  1  0.80110000  0.70856000  0.62247000  1.0
  C  C27  1  0.19890000  0.20855000  0.87753000  1.0
  C  C28  1  0.38262000  0.29772000  0.30710000  1.0
  C  C29  1  0.61737000  0.79772000  0.19290000  1.0
  C  C30  1  0.61738000  0.70228000  0.69290000  1.0
  C  C31  1  0.38262000  0.20228000  0.80710000  1.0
  C  C32  1  0.05863000  0.49835000  0.33034000  1.0
  C  C33  1  0.94137000  0.99835000  0.16966000  1.0
  C  C34  1  0.94137000  0.50165000  0.66966000  1.0
  C  C35  1  0.05862000  0.00165000  0.83034000  1.0
  C  C36  1  0.03560000  0.39553000  0.38945000  1.0
  C  C37  1  0.96440000  0.89553000  0.11055000  1.0
  C  C38  1  0.96440000  0.60447000  0.61055000  1.0
  C  C39  1  0.03560000  0.10447000  0.88945000  1.0
  C  C40  1  0.24297000  0.49391000  0.26006000  1.0
  C  C41  1  0.75703000  0.99391000  0.23994000  1.0
  C  C42  1  0.75703000  0.50609000  0.73994000  1.0
  C  C43  1  0.24297000  0.00609000  0.76006000  1.0
  N  N44  1  0.40444000  0.39587000  0.24967000  1.0
  N  N45  1  0.59556000  0.89586000  0.25033000  1.0
  N  N46  1  0.59556000  0.60414000  0.75033000  1.0
  N  N47  1  0.40444000  0.10414000  0.74967000  1.0
  O  O48  1  0.33570000  0.17748000  0.54540000  1.0
  O  O49  1  0.66431000  0.67747000  0.95460000  1.0
  O  O50  1  0.66431000  0.82252000  0.45460000  1.0
  O  O51  1  0.33569000  0.32252000  0.04540000  1.0
  O  O52  1  0.29156000  0.04911000  0.38979000  1.0
  O  O53  1  0.70844000  0.54911000  0.11021000  1.0
  O  O54  1  0.70844000  0.95089000  0.61021000  1.0
  O  O55  1  0.29156000  0.45089000  0.88979000  1.0
  O  O56  1  0.87367000  0.13725000  0.46502000  1.0
  O  O57  1  0.12634000  0.63725000  0.03498000  1.0
  O  O58  1  0.12634000  0.86275000  0.53498000  1.0
  O  O59  1  0.87366000  0.36275000  0.96502000  1.0
