# generated using pymatgen
data_ZnH29C33NO22
_symmetry_space_group_name_H-M   'P 1'
_cell_length_a   14.48010000
_cell_length_b   15.15000000
_cell_length_c   15.81990000
_cell_angle_alpha   93.28670000
_cell_angle_beta   97.41980000
_cell_angle_gamma   93.13680000
_symmetry_Int_Tables_number   1
_chemical_formula_structural   ZnH29C33NO22
_chemical_formula_sum   'Zn2 H58 C66 N2 O44'
_cell_volume   3428.97556969
_cell_formula_units_Z   2
loop_
 _symmetry_equiv_pos_site_id
 _symmetry_equiv_pos_as_xyz
  1  'x, y, z'
loop_
 _atom_site_type_symbol
 _atom_site_label
 _atom_site_symmetry_multiplicity
 _atom_site_fract_x
 _atom_site_fract_y
 _atom_site_fract_z
 _atom_site_occupancy
  Zn  Zn0  1  0.39543000  0.49520000  0.49951000  1.0
  Zn  Zn1  1  0.60532000  0.50187000  0.50013000  1.0
  H  H2  1  0.75387000  0.58643000  0.18574000  1.0
  H  H3  1  0.72843000  0.48082000  0.22813000  1.0
  H  H4  1  0.74776000  0.57926000  0.29773000  1.0
  H  H5  1  0.28825000  0.45654000  0.79246000  1.0
  H  H6  1  0.32828000  0.44591000  0.68931000  1.0
  H  H7  1  0.27677000  0.54553000  0.72073000  1.0
  H  H8  1  0.01071000  0.49507000  0.32677000  1.0
  H  H9  1  0.89730000  0.47001000  0.26555000  1.0
  H  H10  1  0.98343000  0.38872000  0.27115000  1.0
  H  H11  1  0.01576000  0.65762000  0.35873000  1.0
  H  H12  1  0.13254000  0.70941000  0.38203000  1.0
  H  H13  1  0.03392000  0.76796000  0.40791000  1.0
  H  H14  1  0.65541000  0.27997000  0.41920000  1.0
  H  H15  1  0.28878000  0.78941000  0.54427000  1.0
  H  H16  1  0.68185000  0.71455000  0.63419000  1.0
  H  H17  1  0.23575000  0.22897000  0.51837000  1.0
  H  H18  1  0.97926000  0.54622000  0.70793000  1.0
  H  H19  1  0.87458000  0.60545000  0.70741000  1.0
  H  H20  1  0.98704000  0.66283000  0.73728000  1.0
  H  H21  1  0.99679000  0.38979000  0.63510000  1.0
  H  H22  1  0.09847000  0.32573000  0.63667000  1.0
  H  H23  1  0.98465000  0.27566000  0.59573000  1.0
  H  H24  1  0.82385000  0.42094000  0.72250000  1.0
  H  H25  1  0.23459000  0.37401000  0.30455000  1.0
  H  H26  1  0.64750000  0.20908000  0.02596000  1.0
  H  H27  1  0.63949000  0.12857000  0.93711000  1.0
  H  H28  1  0.56135000  0.11890000  0.01650000  1.0
  H  H29  1  0.32774000  0.20993000  0.00793000  1.0
  H  H30  1  0.37118000  0.12873000  0.07847000  1.0
  H  H31  1  0.41447000  0.13818000  0.97733000  1.0
  H  H32  1  0.23218000  0.45729000  0.09084000  1.0
  H  H33  1  0.17577000  0.35104000  0.05633000  1.0
  H  H34  1  0.24321000  0.40900000  0.98658000  1.0
  H  H35  1  0.71671000  0.35355000  0.00183000  1.0
  H  H36  1  0.78888000  0.39976000  0.92868000  1.0
  H  H37  1  0.79942000  0.28714000  0.95639000  1.0
  H  H38  1  0.44614000  0.57946000  0.94388000  1.0
  H  H39  1  0.37573000  0.53470000  0.01816000  1.0
  H  H40  1  0.32386000  0.55714000  0.91250000  1.0
  H  H41  1  0.63809000  0.59323000  0.07207000  1.0
  H  H42  1  0.59867000  0.53082000  0.97246000  1.0
  H  H43  1  0.71884000  0.53385000  0.01673000  1.0
  H  H44  1  0.42994000  0.03851000  0.75932000  1.0
  H  H45  1  0.32748000  0.92248000  0.24005000  1.0
  H  H46  1  0.31238000  0.23293000  0.71330000  1.0
  H  H47  1  0.30519000  0.65843000  0.29208000  1.0
  H  H48  1  0.44531000  0.30151000  0.32923000  1.0
  H  H49  1  0.45901000  0.20049000  0.26738000  1.0
  H  H50  1  0.54303000  0.29310000  0.27026000  1.0
  H  H51  1  0.56878000  0.72587000  0.74592000  1.0
  H  H52  1  0.47589000  0.69352000  0.66185000  1.0
  H  H53  1  0.48257000  0.80301000  0.71336000  1.0
  H  H54  1  0.64441000  0.98153000  0.42742000  1.0
  H  H55  1  0.67659000  0.08412000  0.38295000  1.0
  H  H56  1  0.63876000  0.98681000  0.31395000  1.0
  H  H57  1  0.71226000  0.91252000  0.61257000  1.0
  H  H58  1  0.67413000  0.91100000  0.71581000  1.0
  H  H59  1  0.71189000  0.01445000  0.67688000  1.0
  C  C60  1  0.47288000  0.33006000  0.50283000  1.0
  C  C61  1  0.49271000  0.66455000  0.49732000  1.0
  C  C62  1  0.44106000  0.09050000  0.56721000  1.0
  C  C63  1  0.43015000  0.88999000  0.42604000  1.0
  C  C64  1  0.44032000  0.18350000  0.56926000  1.0
  C  C65  1  0.43980000  0.79822000  0.42368000  1.0
  C  C66  1  0.47483000  0.23064000  0.50449000  1.0
  C  C67  1  0.49199000  0.76267000  0.49354000  1.0
  C  C68  1  0.51065000  0.18319000  0.43856000  1.0
  C  C69  1  0.53846000  0.81685000  0.56188000  1.0
  C  C70  1  0.50655000  0.09036000  0.43404000  1.0
  C  C71  1  0.53591000  0.90926000  0.56028000  1.0
  C  C72  1  0.47228000  0.04313000  0.49833000  1.0
  C  C73  1  0.47730000  0.94550000  0.49471000  1.0
  C  C74  1  0.88747000  0.46150000  0.43507000  1.0
  C  C75  1  0.10769000  0.59283000  0.49826000  1.0
  C  C76  1  0.79182000  0.45526000  0.44088000  1.0
  C  C77  1  0.20537000  0.58579000  0.51182000  1.0
  C  C78  1  0.80618000  0.57910000  0.53683000  1.0
  C  C79  1  0.18553000  0.43262000  0.50200000  1.0
  C  C80  1  0.90394000  0.57753000  0.54757000  1.0
  C  C81  1  0.09004000  0.43559000  0.50898000  1.0
  C  C82  1  0.49182000  0.50230000  0.33600000  1.0
  C  C83  1  0.54285000  0.49332000  0.66116000  1.0
  C  C84  1  0.94637000  0.51974000  0.49410000  1.0
  C  C85  1  0.04841000  0.51650000  0.50110000  1.0
  C  C86  1  0.47766000  0.49593000  0.24040000  1.0
  C  C87  1  0.54836000  0.46433000  0.75050000  1.0
  C  C88  1  0.55357000  0.50667000  0.19348000  1.0
  C  C89  1  0.47682000  0.47772000  0.80120000  1.0
  C  C90  1  0.55441000  0.45260000  0.11774000  1.0
  C  C91  1  0.47268000  0.43191000  0.87578000  1.0
  C  C92  1  0.47870000  0.39106000  0.08856000  1.0
  C  C93  1  0.53653000  0.36688000  0.89807000  1.0
  C  C94  1  0.39475000  0.39968000  0.12476000  1.0
  C  C95  1  0.61327000  0.36147000  0.85115000  1.0
  C  C96  1  0.39379000  0.45190000  0.20022000  1.0
  C  C97  1  0.61926000  0.40890000  0.77884000  1.0
  C  C98  1  0.48559000  0.31003000  0.03435000  1.0
  C  C99  1  0.52084000  0.29968000  0.95897000  1.0
  C  C100  1  0.71890000  0.55189000  0.23334000  1.0
  C  C101  1  0.31981000  0.49225000  0.74336000  1.0
  C  C102  1  0.95500000  0.44298000  0.30632000  1.0
  C  C103  1  0.06335000  0.70312000  0.40329000  1.0
  C  C104  1  0.73309000  0.37808000  0.39261000  1.0
  C  C105  1  0.26425000  0.66646000  0.55218000  1.0
  C  C106  1  0.76291000  0.66406000  0.56271000  1.0
  C  C107  1  0.21277000  0.34136000  0.47593000  1.0
  C  C108  1  0.94779000  0.60971000  0.69560000  1.0
  C  C109  1  0.02977000  0.33667000  0.60166000  1.0
  C  C110  1  0.69847000  0.38793000  0.72959000  1.0
  C  C111  1  0.30757000  0.45461000  0.24399000  1.0
  C  C112  1  0.59964000  0.16528000  0.98041000  1.0
  C  C113  1  0.38928000  0.17459000  0.03112000  1.0
  C  C114  1  0.23798000  0.39488000  0.05341000  1.0
  C  C115  1  0.75061000  0.33930000  0.94463000  1.0
  C  C116  1  0.38596000  0.53451000  0.95061000  1.0
  C  C117  1  0.64719000  0.53330000  0.03219000  1.0
  C  C118  1  0.41189000  0.03944000  0.63886000  1.0
  C  C119  1  0.36794000  0.93076000  0.35833000  1.0
  C  C120  1  0.40747000  0.23376000  0.64255000  1.0
  C  C121  1  0.40677000  0.73318000  0.34789000  1.0
  C  C122  1  0.49560000  0.25705000  0.30657000  1.0
  C  C123  1  0.52322000  0.74880000  0.69186000  1.0
  C  C124  1  0.62961000  0.02376000  0.37351000  1.0
  C  C125  1  0.67611000  0.94913000  0.65909000  1.0
  N  N126  1  0.75193000  0.51376000  0.49042000  1.0
  N  N127  1  0.24338000  0.50594000  0.50732000  1.0
  O  O128  1  0.39412000  0.36264000  0.50751000  1.0
  O  O129  1  0.57012000  0.63144000  0.51404000  1.0
  O  O130  1  0.54811000  0.37178000  0.49404000  1.0
  O  O131  1  0.41200000  0.62437000  0.48415000  1.0
  O  O132  1  0.42024000  0.48270000  0.37235000  1.0
  O  O133  1  0.61889000  0.49449000  0.62837000  1.0
  O  O134  1  0.57497000  0.51410000  0.37381000  1.0
  O  O135  1  0.46353000  0.50920000  0.62272000  1.0
  O  O136  1  0.62173000  0.57001000  0.22337000  1.0
  O  O137  1  0.40883000  0.53518000  0.77839000  1.0
  O  O138  1  0.92103000  0.40432000  0.37840000  1.0
  O  O139  1  0.06948000  0.67221000  0.48872000  1.0
  O  O140  1  0.71172000  0.37110000  0.31515000  1.0
  O  O141  1  0.71031000  0.31979000  0.44735000  1.0
  O  O142  1  0.30650000  0.66405000  0.62392000  1.0
  O  O143  1  0.25442000  0.73965000  0.50902000  1.0
  O  O144  1  0.76453000  0.72418000  0.51460000  1.0
  O  O145  1  0.72635000  0.66587000  0.63573000  1.0
  O  O146  1  0.21589000  0.31848000  0.40109000  1.0
  O  O147  1  0.21993000  0.28756000  0.54000000  1.0
  O  O148  1  0.95682000  0.63217000  0.60925000  1.0
  O  O149  1  0.03865000  0.35840000  0.51538000  1.0
  O  O150  1  0.69832000  0.32623000  0.67697000  1.0
  O  O151  1  0.77699000  0.44239000  0.75691000  1.0
  O  O152  1  0.26500000  0.52163000  0.25554000  1.0
  O  O153  1  0.27879000  0.37294000  0.26179000  1.0
  O  O154  1  0.53695000  0.21553000  0.92718000  1.0
  O  O155  1  0.46022000  0.23616000  0.07635000  1.0
  O  O156  1  0.31690000  0.34849000  0.08716000  1.0
  O  O157  1  0.68400000  0.30587000  0.87302000  1.0
  O  O158  1  0.40149000  0.44436000  0.92395000  1.0
  O  O159  1  0.63331000  0.45443000  0.07709000  1.0
  O  O160  1  0.35901000  0.97283000  0.62991000  1.0
  O  O161  1  0.45398000  0.07410000  0.71622000  1.0
  O  O162  1  0.31712000  0.99050000  0.37136000  1.0
  O  O163  1  0.37249000  0.89314000  0.27892000  1.0
  O  O164  1  0.44694000  0.30007000  0.68042000  1.0
  O  O165  1  0.32541000  0.19701000  0.66319000  1.0
  O  O166  1  0.46387000  0.70063000  0.30712000  1.0
  O  O167  1  0.31427000  0.71140000  0.33291000  1.0
  O  O168  1  0.55498000  0.22465000  0.37820000  1.0
  O  O169  1  0.58512000  0.78132000  0.63330000  1.0
  O  O170  1  0.53350000  0.04615000  0.36405000  1.0
  O  O171  1  0.58328000  0.96707000  0.62188000  1.0
