# generated using pymatgen
data_CuH10(C2N)3
_symmetry_space_group_name_H-M   'P 1'
_cell_length_a   11.88370000
_cell_length_b   12.26650000
_cell_length_c   13.11620000
_cell_angle_alpha   108.73900000
_cell_angle_beta   108.23000000
_cell_angle_gamma   104.24700000
_symmetry_Int_Tables_number   1
_chemical_formula_structural   CuH10(C2N)3
_chemical_formula_sum   'Cu6 H60 C36 N18'
_cell_volume   1586.92853293
_cell_formula_units_Z   6
loop_
 _symmetry_equiv_pos_site_id
 _symmetry_equiv_pos_as_xyz
  1  'x, y, z'
loop_
 _atom_site_type_symbol
 _atom_site_label
 _atom_site_symmetry_multiplicity
 _atom_site_fract_x
 _atom_site_fract_y
 _atom_site_fract_z
 _atom_site_occupancy
  Cu  Cu0  1  0.38232000  0.39483000  0.00931000  1.0
  Cu  Cu1  1  0.61768000  0.60517000  0.99069000  1.0
  Cu  Cu2  1  0.02282000  0.89629000  0.89141000  1.0
  Cu  Cu3  1  0.97718000  0.10371000  0.10859000  1.0
  Cu  Cu4  1  0.12541000  0.48424000  0.59374000  1.0
  Cu  Cu5  1  0.87458000  0.51576000  0.40626000  1.0
  H  H6  1  0.28754000  0.44123000  0.23407000  1.0
  H  H7  1  0.71246000  0.55877000  0.76593000  1.0
  H  H8  1  0.12287000  0.37183000  0.19879000  1.0
  H  H9  1  0.87713000  0.62816000  0.80121000  1.0
  H  H10  1  0.17117000  0.56753000  0.16732000  1.0
  H  H11  1  0.82884000  0.43247000  0.83268000  1.0
  H  H12  1  0.06655000  0.43561000  0.02897000  1.0
  H  H13  1  0.93346000  0.56439000  0.97104000  1.0
  H  H14  1  0.23252000  0.50319000  0.06514000  1.0
  H  H15  1  0.76749000  0.49681000  0.93487000  1.0
  H  H16  1  0.26899000  0.12886000  0.80579000  1.0
  H  H17  1  0.73101000  0.87114000  0.19421000  1.0
  H  H18  1  0.21226000  0.98534000  0.81423000  1.0
  H  H19  1  0.78774000  0.01466000  0.18577000  1.0
  H  H20  1  0.45203000  0.06306000  0.87645000  1.0
  H  H21  1  0.54797000  0.93694000  0.12355000  1.0
  H  H22  1  0.41912000  0.06242000  0.99983000  1.0
  H  H23  1  0.58088000  0.93758000  0.00017000  1.0
  H  H24  1  0.47293000  0.20488000  0.98859000  1.0
  H  H25  1  0.52707000  0.79512000  0.01141000  1.0
  H  H26  1  0.78033000  0.70250000  0.49879000  1.0
  H  H27  1  0.21967000  0.29750000  0.50121000  1.0
  H  H28  1  0.76511000  0.73978000  0.63476000  1.0
  H  H29  1  0.23489000  0.26023000  0.36523000  1.0
  H  H30  1  0.79944000  0.92520000  0.58839000  1.0
  H  H31  1  0.20056000  0.07480000  0.41161000  1.0
  H  H32  1  0.93066000  0.95739000  0.72102000  1.0
  H  H33  1  0.06934000  0.04262000  0.27898000  1.0
  H  H34  1  0.94715000  0.92175000  0.58542000  1.0
  H  H35  1  0.05284000  0.07825000  0.41458000  1.0
  H  H36  1  0.28386000  0.69765000  0.83861000  1.0
  H  H37  1  0.71614000  0.30235000  0.16139000  1.0
  H  H38  1  0.27604000  0.84270000  0.91170000  1.0
  H  H39  1  0.72395000  0.15730000  0.08830000  1.0
  H  H40  1  0.27378000  0.72030000  0.03152000  1.0
  H  H41  1  0.72621000  0.27970000  0.96848000  1.0
  H  H42  1  0.12626000  0.74162000  0.98419000  1.0
  H  H43  1  0.87373000  0.25838000  0.01581000  1.0
  H  H44  1  0.13390000  0.59552000  0.91093000  1.0
  H  H45  1  0.86609000  0.40448000  0.08907000  1.0
  H  H46  1  0.55162000  0.67768000  0.80081000  1.0
  H  H47  1  0.44838000  0.32232000  0.19919000  1.0
  H  H48  1  0.40801000  0.69541000  0.73079000  1.0
  H  H49  1  0.59199000  0.30459000  0.26921000  1.0
  H  H50  1  0.49978000  0.62568000  0.58570000  1.0
  H  H51  1  0.50022000  0.37432000  0.41430000  1.0
  H  H52  1  0.34795000  0.50980000  0.54140000  1.0
  H  H53  1  0.65205000  0.49020000  0.45860000  1.0
  H  H54  1  0.49143000  0.48986000  0.60980000  1.0
  H  H55  1  0.50856000  0.51014000  0.39021000  1.0
  H  H56  1  0.04365000  0.37752000  0.76323000  1.0
  H  H57  1  0.95635000  0.62248000  0.23677000  1.0
  H  H58  1  0.12100000  0.30068000  0.83749000  1.0
  H  H59  1  0.87900000  0.69932000  0.16251000  1.0
  H  H60  1  0.95231000  0.14917000  0.63111000  1.0
  H  H61  1  0.04769000  0.85083000  0.36889000  1.0
  H  H62  1  0.10666000  0.15485000  0.64210000  1.0
  H  H63  1  0.89334000  0.84515000  0.35790000  1.0
  H  H64  1  0.03096000  0.23468000  0.56939000  1.0
  H  H65  1  0.96904000  0.76532000  0.43061000  1.0
  C  C66  1  0.18180000  0.27281000  0.07549000  1.0
  C  C67  1  0.81820000  0.72719000  0.92451000  1.0
  C  C68  1  0.19041000  0.39320000  0.16022000  1.0
  C  C69  1  0.80959000  0.60680000  0.83979000  1.0
  C  C70  1  0.16346000  0.47989000  0.10206000  1.0
  C  C71  1  0.83655000  0.52011000  0.89795000  1.0
  C  C72  1  0.21606000  0.13989000  0.94760000  1.0
  C  C73  1  0.78394000  0.86011000  0.05240000  1.0
  C  C74  1  0.27273000  0.08517000  0.86759000  1.0
  C  C75  1  0.72727000  0.91483000  0.13241000  1.0
  C  C76  1  0.41241000  0.10481000  0.93706000  1.0
  C  C77  1  0.58759000  0.89519000  0.06294000  1.0
  C  C78  1  0.93960000  0.72038000  0.64083000  1.0
  C  C79  1  0.06040000  0.27962000  0.35918000  1.0
  C  C80  1  0.83276000  0.76014000  0.59547000  1.0
  C  C81  1  0.16724000  0.23986000  0.40453000  1.0
  C  C82  1  0.88015000  0.89922000  0.62422000  1.0
  C  C83  1  0.11985000  0.10078000  0.37578000  1.0
  C  C84  1  0.10805000  0.71214000  0.75724000  1.0
  C  C85  1  0.89195000  0.28785000  0.24276000  1.0
  C  C86  1  0.22156000  0.74103000  0.86622000  1.0
  C  C87  1  0.77844000  0.25897000  0.13378000  1.0
  C  C88  1  0.18663000  0.69703000  0.95334000  1.0
  C  C89  1  0.81336000  0.30297000  0.04666000  1.0
  C  C90  1  0.38429000  0.54079000  0.77301000  1.0
  C  C91  1  0.61571000  0.45921000  0.22699000  1.0
  C  C92  1  0.45187000  0.62624000  0.73301000  1.0
  C  C93  1  0.54812000  0.37376000  0.26699000  1.0
  C  C94  1  0.44744000  0.55892000  0.61031000  1.0
  C  C95  1  0.55256000  0.44108000  0.38969000  1.0
  C  C96  1  0.23585000  0.41217000  0.78635000  1.0
  C  C97  1  0.76415000  0.58783000  0.21365000  1.0
  C  C98  1  0.10804000  0.32634000  0.76294000  1.0
  C  C99  1  0.89196000  0.67366000  0.23706000  1.0
  C  C100  1  0.04588000  0.20937000  0.64430000  1.0
  C  C101  1  0.95412000  0.79063000  0.35570000  1.0
  N  N102  1  0.10283000  0.15928000  0.05056000  1.0
  N  N103  1  0.89717000  0.84072000  0.94944000  1.0
  N  N104  1  0.12510000  0.07378000  0.96831000  1.0
  N  N105  1  0.87490000  0.92622000  0.03169000  1.0
  N  N106  1  0.25381000  0.26451000  0.01257000  1.0
  N  N107  1  0.74620000  0.73549000  0.98743000  1.0
  N  N108  1  0.96367000  0.62912000  0.57326000  1.0
  N  N109  1  0.03633000  0.37088000  0.42674000  1.0
  N  N110  1  0.07185000  0.62340000  0.64826000  1.0
  N  N111  1  0.92815000  0.37660000  0.35174000  1.0
  N  N112  1  0.02742000  0.77410000  0.75643000  1.0
  N  N113  1  0.97258000  0.22590000  0.24357000  1.0
  N  N114  1  0.44208000  0.52269000  0.86823000  1.0
  N  N115  1  0.55792000  0.47731000  0.13177000  1.0
  N  N116  1  0.34655000  0.44000000  0.87685000  1.0
  N  N117  1  0.65345000  0.56000000  0.12314000  1.0
  N  N118  1  0.25543000  0.47336000  0.71943000  1.0
  N  N119  1  0.74457000  0.52665000  0.28057000  1.0
