# generated using pymatgen
data_DyH11C12(N3O4)2
_symmetry_space_group_name_H-M   'P 1'
_cell_length_a   6.27096000
_cell_length_b   12.40340000
_cell_length_c   12.89405581
_cell_angle_alpha   63.78646972
_cell_angle_beta   88.90974750
_cell_angle_gamma   83.46630000
_symmetry_Int_Tables_number   1
_chemical_formula_structural   DyH11C12(N3O4)2
_chemical_formula_sum   'Dy2 H22 C24 N12 O16'
_cell_volume   893.37674675
_cell_formula_units_Z   2
loop_
 _symmetry_equiv_pos_site_id
 _symmetry_equiv_pos_as_xyz
  1  'x, y, z'
loop_
 _atom_site_type_symbol
 _atom_site_label
 _atom_site_symmetry_multiplicity
 _atom_site_fract_x
 _atom_site_fract_y
 _atom_site_fract_z
 _atom_site_occupancy
  Dy  Dy0  1  0.54881000  0.60248000  0.25673000  1.0
  Dy  Dy1  1  0.45118000  0.39752000  0.74327000  1.0
  H  H2  1  0.28988000  0.97908000  0.26616000  1.0
  H  H3  1  0.71012000  0.02093000  0.73383000  1.0
  H  H4  1  0.27055000  0.80962000  0.69931000  1.0
  H  H5  1  0.72947000  0.19038000  0.30069000  1.0
  H  H6  1  0.18607000  0.25641000  0.46030000  1.0
  H  H7  1  0.81393000  0.74358000  0.53971000  1.0
  H  H8  1  0.21794000  0.20505000  0.28857000  1.0
  H  H9  1  0.78205000  0.79495000  0.71144000  1.0
  H  H10  1  0.10680000  0.71825000  0.90514000  1.0
  H  H11  1  0.89319000  0.28174000  0.09487000  1.0
  H  H12  1  0.35743000  0.59659000  0.98757000  1.0
  H  H13  1  0.64257000  0.40341000  0.01243000  1.0
  H  H14  1  0.42053000  0.63311000  0.84477000  1.0
  H  H15  1  0.57947000  0.36689000  0.15524000  1.0
  H  H16  1  0.32239000  0.43772000  0.46468000  1.0
  H  H17  1  0.67760000  0.56227000  0.53532000  1.0
  H  H18  1  0.13910000  0.52545000  0.36520000  1.0
  H  H19  1  0.86088000  0.47454000  0.63481000  1.0
  H  H20  1  0.49336000  0.85328000  0.16230000  1.0
  H  H21  1  0.50663000  0.14671000  0.83771000  1.0
  H  H22  1  0.74232000  0.83631000  0.18231000  1.0
  H  H23  1  0.25768000  0.16368000  0.81769000  1.0
  C  C24  1  0.31639000  0.81822000  0.42945000  1.0
  C  C25  1  0.68362000  0.18178000  0.57055000  1.0
  C  C26  1  0.28282000  0.94287000  0.35989000  1.0
  C  C27  1  0.71719000  0.05712000  0.64011000  1.0
  C  C28  1  0.25154000  0.01807000  0.41466000  1.0
  C  C29  1  0.74847000  0.98193000  0.58534000  1.0
  C  C30  1  0.25129000  0.97153000  0.53728000  1.0
  C  C31  1  0.74872000  0.02847000  0.46272000  1.0
  C  C32  1  0.27661000  0.84701000  0.60556000  1.0
  C  C33  1  0.72341000  0.15299000  0.39444000  1.0
  C  C34  1  0.30704000  0.77025000  0.55209000  1.0
  C  C35  1  0.69297000  0.22975000  0.44791000  1.0
  C  C36  1  0.31536000  0.63885000  0.62596000  1.0
  C  C37  1  0.68466000  0.36114000  0.37404000  1.0
  C  C38  1  0.39088000  0.74412000  0.36802000  1.0
  C  C39  1  0.60912000  0.25587000  0.63198000  1.0
  C  C40  1  0.90150000  0.65673000  0.04810000  1.0
  C  C41  1  0.09849000  0.34326000  0.95191000  1.0
  C  C42  1  0.63325000  0.66339000  0.94534000  1.0
  C  C43  1  0.36674000  0.33662000  0.05466000  1.0
  C  C44  1  0.20714000  0.16453000  0.46927000  1.0
  C  C45  1  0.79286000  0.83546000  0.53074000  1.0
  C  C46  1  0.03997000  0.63209000  0.15044000  1.0
  C  C47  1  0.96002000  0.36791000  0.84956000  1.0
  N  N48  1  0.22279000  0.06566000  0.56859000  1.0
  N  N49  1  0.77721000  0.93434000  0.43141000  1.0
  N  N50  1  0.22257000  0.14157000  0.37421000  1.0
  N  N51  1  0.77744000  0.85844000  0.62579000  1.0
  N  N52  1  0.69506000  0.63689000  0.05596000  1.0
  N  N53  1  0.30493000  0.36311000  0.94404000  1.0
  N  N54  1  0.95922000  0.69552000  0.93795000  1.0
  N  N55  1  0.04077000  0.30447000  0.06206000  1.0
  N  N56  1  0.43240000  0.65113000  0.91581000  1.0
  N  N57  1  0.56760000  0.34887000  0.08419000  1.0
  N  N58  1  0.79148000  0.70077000  0.86976000  1.0
  N  N59  1  0.20852000  0.29924000  0.13023000  1.0
  O  O60  1  0.36698000  0.59347000  0.73525000  1.0
  O  O61  1  0.63302000  0.40653000  0.26475000  1.0
  O  O62  1  0.27458000  0.56785000  0.58346000  1.0
  O  O63  1  0.72541000  0.43214000  0.41655000  1.0
  O  O64  1  0.56653000  0.67086000  0.40069000  1.0
  O  O65  1  0.43347000  0.32913000  0.59931000  1.0
  O  O66  1  0.29322000  0.76286000  0.27429000  1.0
  O  O67  1  0.70678000  0.23714000  0.72571000  1.0
  O  O68  1  0.29006000  0.48964000  0.38107000  1.0
  O  O69  1  0.70992000  0.51035000  0.61893000  1.0
  O  O70  1  0.93871000  0.61246000  0.24204000  1.0
  O  O71  1  0.06127000  0.38754000  0.75796000  1.0
  O  O72  1  0.24149000  0.62991000  0.13724000  1.0
  O  O73  1  0.75850000  0.37009000  0.86276000  1.0
  O  O74  1  0.62918000  0.82160000  0.14083000  1.0
  O  O75  1  0.37082000  0.17841000  0.85916000  1.0
