# generated using pymatgen
data_CuH18C22(SN6)2
_symmetry_space_group_name_H-M   'P 1'
_cell_length_a   9.61197000
_cell_length_b   9.61179000
_cell_length_c   13.57990000
_cell_angle_alpha   94.85400000
_cell_angle_beta   94.82750000
_cell_angle_gamma   100.84500000
_symmetry_Int_Tables_number   1
_chemical_formula_structural   CuH18C22(SN6)2
_chemical_formula_sum   'Cu2 H36 C44 S4 N24'
_cell_volume   1221.35896670
_cell_formula_units_Z   2
loop_
 _symmetry_equiv_pos_site_id
 _symmetry_equiv_pos_as_xyz
  1  'x, y, z'
loop_
 _atom_site_type_symbol
 _atom_site_label
 _atom_site_symmetry_multiplicity
 _atom_site_fract_x
 _atom_site_fract_y
 _atom_site_fract_z
 _atom_site_occupancy
  Cu  Cu0  1  0.50000000  0.00000000  1.00000000  1.0
  Cu  Cu1  1  0.00000000  0.50000000  0.50000000  1.0
  H  H2  1  0.28901000  0.72786000  0.10402000  1.0
  H  H3  1  0.27203000  0.71095000  0.39600000  1.0
  H  H4  1  0.71098000  0.27214000  0.89599000  1.0
  H  H5  1  0.72798000  0.28905000  0.60400000  1.0
  H  H6  1  0.18702000  0.47760000  0.13563000  1.0
  H  H7  1  0.52231000  0.81298000  0.36439000  1.0
  H  H8  1  0.81298000  0.52239000  0.86439000  1.0
  H  H9  1  0.47770000  0.18701000  0.63561000  1.0
  H  H10  1  0.33785000  0.29859000  0.14633000  1.0
  H  H11  1  0.70138000  0.66220000  0.35367000  1.0
  H  H12  1  0.66216000  0.70141000  0.85368000  1.0
  H  H13  1  0.29862000  0.33779000  0.64633000  1.0
  H  H14  1  0.59806000  0.35807000  0.13312000  1.0
  H  H15  1  0.64194000  0.40199000  0.36687000  1.0
  H  H16  1  0.40194000  0.64193000  0.86689000  1.0
  H  H17  1  0.35805000  0.59800000  0.63313000  1.0
  H  H18  1  0.93309000  0.67920000  0.07531000  1.0
  H  H19  1  0.32078000  0.06693000  0.42464000  1.0
  H  H20  1  0.06690000  0.32080000  0.92469000  1.0
  H  H21  1  0.67921000  0.93306000  0.57535000  1.0
  H  H22  1  0.85356000  0.50188000  0.09771000  1.0
  H  H23  1  0.49809000  0.14644000  0.40226000  1.0
  H  H24  1  0.14643000  0.49813000  0.90229000  1.0
  H  H25  1  0.50190000  0.85355000  0.59773000  1.0
  H  H26  1  0.92248000  0.87168000  0.24641000  1.0
  H  H27  1  0.12838000  0.07747000  0.25356000  1.0
  H  H28  1  0.07752000  0.12832000  0.75359000  1.0
  H  H29  1  0.87162000  0.92253000  0.74643000  1.0
  H  H30  1  0.99496000  0.82904000  0.44271000  1.0
  H  H31  1  0.17117000  0.00504000  0.05722000  1.0
  H  H32  1  0.00505000  0.17097000  0.55729000  1.0
  H  H33  1  0.82884000  0.99498000  0.94277000  1.0
  H  H34  1  0.92089000  0.43297000  0.26625000  1.0
  H  H35  1  0.56710000  0.07909000  0.23370000  1.0
  H  H36  1  0.07912000  0.56703000  0.73375000  1.0
  H  H37  1  0.43290000  0.92091000  0.76630000  1.0
  C  C38  1  0.50235000  0.68297000  0.10375000  1.0
  C  C39  1  0.31699000  0.49764000  0.39623000  1.0
  C  C40  1  0.49765000  0.31703000  0.89625000  1.0
  C  C41  1  0.68301000  0.50236000  0.60377000  1.0
  C  C42  1  0.35535000  0.64850000  0.11133000  1.0
  C  C43  1  0.35144000  0.64464000  0.38867000  1.0
  C  C44  1  0.64465000  0.35149000  0.88867000  1.0
  C  C45  1  0.64856000  0.35536000  0.61133000  1.0
  C  C46  1  0.30039000  0.50971000  0.12836000  1.0
  C  C47  1  0.49025000  0.69963000  0.37164000  1.0
  C  C48  1  0.69961000  0.49029000  0.87165000  1.0
  C  C49  1  0.50976000  0.30036000  0.62836000  1.0
  C  C50  1  0.38763000  0.40700000  0.13580000  1.0
  C  C51  1  0.59297000  0.61242000  0.36419000  1.0
  C  C52  1  0.61237000  0.59300000  0.86420000  1.0
  C  C53  1  0.40703000  0.38757000  0.63581000  1.0
  C  C54  1  0.53321000  0.43935000  0.12873000  1.0
  C  C55  1  0.56065000  0.46682000  0.37127000  1.0
  C  C56  1  0.46679000  0.56065000  0.87128000  1.0
  C  C57  1  0.43935000  0.53317000  0.62873000  1.0
  C  C58  1  0.58914000  0.58042000  0.11388000  1.0
  C  C59  1  0.41957000  0.41087000  0.38610000  1.0
  C  C60  1  0.41086000  0.41958000  0.88612000  1.0
  C  C61  1  0.58042000  0.58912000  0.61390000  1.0
  C  C62  1  0.86041000  0.61558000  0.12028000  1.0
  C  C63  1  0.38446000  0.13959000  0.37969000  1.0
  C  C64  1  0.13959000  0.38443000  0.87972000  1.0
  C  C65  1  0.61554000  0.86040000  0.62031000  1.0
  C  C66  1  0.93746000  0.77676000  0.28022000  1.0
  C  C67  1  0.22331000  0.06254000  0.21975000  1.0
  C  C68  1  0.06254000  0.22325000  0.71978000  1.0
  C  C69  1  0.77669000  0.93746000  0.78024000  1.0
  C  C70  1  0.97143000  0.75341000  0.37687000  1.0
  C  C71  1  0.24671000  0.02855000  0.12307000  1.0
  C  C72  1  0.02857000  0.24660000  0.62312000  1.0
  C  C73  1  0.75330000  0.97146000  0.87693000  1.0
  C  C74  1  0.93184000  0.54585000  0.28909000  1.0
  C  C75  1  0.45424000  0.06815000  0.21086000  1.0
  C  C76  1  0.06817000  0.45416000  0.71091000  1.0
  C  C77  1  0.54576000  0.93186000  0.78914000  1.0
  C  C78  1  0.79193000  0.18144000  0.08206000  1.0
  C  C79  1  0.81855000  0.20805000  0.41796000  1.0
  C  C80  1  0.20808000  0.81856000  0.91794000  1.0
  C  C81  1  0.18145000  0.79195000  0.58203000  1.0
  S  S82  1  0.96084000  0.24693000  0.10243000  1.0
  S  S83  1  0.75308000  0.03918000  0.39760000  1.0
  S  S84  1  0.03917000  0.75308000  0.89757000  1.0
  S  S85  1  0.24693000  0.96083000  0.60240000  1.0
  N  N86  1  0.58791000  0.80932000  0.08705000  1.0
  N  N87  1  0.19064000  0.41208000  0.41294000  1.0
  N  N88  1  0.41208000  0.19068000  0.91294000  1.0
  N  N89  1  0.80936000  0.58792000  0.58706000  1.0
  N  N90  1  0.71878000  0.79211000  0.08728000  1.0
  N  N91  1  0.20789000  0.28123000  0.41272000  1.0
  N  N92  1  0.28122000  0.20790000  0.91272000  1.0
  N  N93  1  0.79211000  0.71877000  0.58728000  1.0
  N  N94  1  0.72302000  0.65392000  0.10280000  1.0
  N  N95  1  0.34608000  0.27698000  0.39718000  1.0
  N  N96  1  0.27698000  0.34608000  0.89720000  1.0
  N  N97  1  0.65391000  0.72302000  0.60282000  1.0
  N  N98  1  0.91319000  0.64452000  0.22555000  1.0
  N  N99  1  0.35554000  0.08679000  0.27441000  1.0
  N  N100  1  0.08681000  0.35548000  0.77445000  1.0
  N  N101  1  0.64446000  0.91321000  0.72558000  1.0
  N  N102  1  0.96769000  0.60948000  0.38100000  1.0
  N  N103  1  0.39064000  0.03228000  0.11897000  1.0
  N  N104  1  0.03232000  0.39053000  0.61900000  1.0
  N  N105  1  0.60936000  0.96773000  0.88103000  1.0
  N  N106  1  0.66734000  0.13630000  0.06724000  1.0
  N  N107  1  0.86370000  0.33263000  0.43278000  1.0
  N  N108  1  0.33267000  0.86370000  0.93276000  1.0
  N  N109  1  0.13629000  0.66738000  0.56722000  1.0
