# generated using pymatgen
data_LiP2H39PdC37(N2Cl)2
_symmetry_space_group_name_H-M   'P 1'
_cell_length_a   10.38130000
_cell_length_b   13.72960000
_cell_length_c   15.74687570
_cell_angle_alpha   111.08624429
_cell_angle_beta   98.63043915
_cell_angle_gamma   107.77700000
_symmetry_Int_Tables_number   1
_chemical_formula_structural   LiP2H39PdC37(N2Cl)2
_chemical_formula_sum   'Li2 P4 H78 Pd2 C74 N8 Cl4'
_cell_volume   1906.91528699
_cell_formula_units_Z   2
loop_
 _symmetry_equiv_pos_site_id
 _symmetry_equiv_pos_as_xyz
  1  'x, y, z'
loop_
 _atom_site_type_symbol
 _atom_site_label
 _atom_site_symmetry_multiplicity
 _atom_site_fract_x
 _atom_site_fract_y
 _atom_site_fract_z
 _atom_site_occupancy
  Li  Li0  1  0.46048000  0.72548000  0.33644000  1.0
  Li  Li1  1  0.53953000  0.27453000  0.66357000  1.0
  P  P2  1  0.87233000  0.62265000  0.26713000  1.0
  P  P3  1  0.12767000  0.37735000  0.73287000  1.0
  P  P4  1  0.82118000  0.57891000  0.43614000  1.0
  P  P5  1  0.17883000  0.42109000  0.56386000  1.0
  H  H6  1  0.15578000  0.08782000  0.45025000  1.0
  H  H7  1  0.84418000  0.91218000  0.54974000  1.0
  H  H8  1  0.37208000  0.11144000  0.40145000  1.0
  H  H9  1  0.62789000  0.88857000  0.59855000  1.0
  H  H10  1  0.38184000  0.94971000  0.26484000  1.0
  H  H11  1  0.61816000  0.05032000  0.73518000  1.0
  H  H12  1  0.10846000  0.65994000  0.14378000  1.0
  H  H13  1  0.89156000  0.34008000  0.85624000  1.0
  H  H14  1  0.29110000  0.74527000  0.17601000  1.0
  H  H15  1  0.70892000  0.25474000  0.82401000  1.0
  H  H16  1  0.16700000  0.75573000  0.09317000  1.0
  H  H17  1  0.83303000  0.24428000  0.90684000  1.0
  H  H18  1  0.88019000  0.84581000  0.40457000  1.0
  H  H19  1  0.11979000  0.15419000  0.59542000  1.0
  H  H20  1  0.81312000  0.87289000  0.31098000  1.0
  H  H21  1  0.18686000  0.12710000  0.68901000  1.0
  H  H22  1  0.91579000  0.98864000  0.42472000  1.0
  H  H23  1  0.08418000  0.01134000  0.57526000  1.0
  H  H24  1  0.87658000  0.18653000  0.05215000  1.0
  H  H25  1  0.12343000  0.81348000  0.94786000  1.0
  H  H26  1  0.63455000  0.07182000  0.04612000  1.0
  H  H27  1  0.36546000  0.92818000  0.95388000  1.0
  H  H28  1  0.46873000  0.16557000  0.09068000  1.0
  H  H29  1  0.53129000  0.83443000  0.90932000  1.0
  H  H30  1  0.40626000  0.32058000  0.12947000  1.0
  H  H31  1  0.59375000  0.67942000  0.87052000  1.0
  H  H32  1  0.50735000  0.44313000  0.11642000  1.0
  H  H33  1  0.49266000  0.55686000  0.88357000  1.0
  H  H34  1  0.54312000  0.43873000  0.22687000  1.0
  H  H35  1  0.45688000  0.56126000  0.77312000  1.0
  H  H36  1  0.98409000  0.45855000  0.05685000  1.0
  H  H37  1  0.01593000  0.54146000  0.94316000  1.0
  H  H38  1  0.04392000  0.35475000  0.06835000  1.0
  H  H39  1  0.95609000  0.64525000  0.93165000  1.0
  H  H40  1  0.06022000  0.47323000  0.17099000  1.0
  H  H41  1  0.93978000  0.52677000  0.82901000  1.0
  H  H42  1  0.79148000  0.70346000  0.00299000  1.0
  H  H43  1  0.20852000  0.29653000  0.99701000  1.0
  H  H44  1  0.95921000  0.80618000  0.08352000  1.0
  H  H45  1  0.04079000  0.19382000  0.91648000  1.0
  H  H46  1  0.80130000  0.80659000  0.11411000  1.0
  H  H47  1  0.19870000  0.19340000  0.88589000  1.0
  H  H48  1  0.58016000  0.44589000  0.98326000  1.0
  H  H49  1  0.41984000  0.55410000  0.01673000  1.0
  H  H50  1  0.71995000  0.40603000  0.95555000  1.0
  H  H51  1  0.28006000  0.59397000  0.04445000  1.0
  H  H52  1  0.70046000  0.52166000  0.93842000  1.0
  H  H53  1  0.29954000  0.47833000  0.06158000  1.0
  H  H54  1  0.06672000  0.69604000  0.49522000  1.0
  H  H55  1  0.93328000  0.30396000  0.50478000  1.0
  H  H56  1  0.04336000  0.55294000  0.44367000  1.0
  H  H57  1  0.95665000  0.44705000  0.55633000  1.0
  H  H58  1  0.91642000  0.38839000  0.35471000  1.0
  H  H59  1  0.08358000  0.61161000  0.64530000  1.0
  H  H60  1  0.78609000  0.18193000  0.28074000  1.0
  H  H61  1  0.21389000  0.81806000  0.71926000  1.0
  H  H62  1  0.52918000  0.09909000  0.26543000  1.0
  H  H63  1  0.47080000  0.90090000  0.73456000  1.0
  H  H64  1  0.40427000  0.22694000  0.32678000  1.0
  H  H65  1  0.59572000  0.77307000  0.67322000  1.0
  H  H66  1  0.53453000  0.43458000  0.40194000  1.0
  H  H67  1  0.46547000  0.56543000  0.59806000  1.0
  H  H68  1  0.71405000  0.47253000  0.56207000  1.0
  H  H69  1  0.28597000  0.52747000  0.43793000  1.0
  H  H70  1  0.73429000  0.55458000  0.73183000  1.0
  H  H71  1  0.26573000  0.44543000  0.26818000  1.0
  H  H72  1  0.86148000  0.76379000  0.83179000  1.0
  H  H73  1  0.13852000  0.23621000  0.16821000  1.0
  H  H74  1  0.96767000  0.88882000  0.75685000  1.0
  H  H75  1  0.03234000  0.11118000  0.24315000  1.0
  H  H76  1  0.94803000  0.80600000  0.58562000  1.0
  H  H77  1  0.05198000  0.19400000  0.41438000  1.0
  H  H78  1  0.78343000  0.13442000  0.45336000  1.0
  H  H79  1  0.21656000  0.86559000  0.54664000  1.0
  H  H80  1  0.74719000  0.13676000  0.56174000  1.0
  H  H81  1  0.25281000  0.86325000  0.43826000  1.0
  H  H82  1  0.63448000  0.16232000  0.48213000  1.0
  H  H83  1  0.36551000  0.83768000  0.51787000  1.0
  Pd  Pd84  1  0.71209000  0.64034000  0.34625000  1.0
  Pd  Pd85  1  0.28791000  0.35965000  0.65375000  1.0
  C  C86  1  0.85774000  0.67241000  0.12229000  1.0
  C  C87  1  0.14226000  0.32758000  0.87771000  1.0
  C  C88  1  0.78547000  0.55810000  0.08418000  1.0
  C  C89  1  0.21453000  0.44189000  0.91582000  1.0
  C  C90  1  0.04691000  0.82431000  0.26896000  1.0
  C  C91  1  0.95309000  0.17569000  0.73104000  1.0
  C  C92  1  0.03901000  0.91562000  0.34397000  1.0
  C  C93  1  0.96097000  0.08437000  0.65602000  1.0
  C  C94  1  0.15840000  0.01740000  0.39066000  1.0
  C  C95  1  0.84158000  0.98260000  0.60934000  1.0
  C  C96  1  0.28133000  0.03100000  0.36268000  1.0
  C  C97  1  0.71865000  0.96901000  0.63732000  1.0
  C  C98  1  0.28589000  0.94158000  0.28689000  1.0
  C  C99  1  0.71410000  0.05843000  0.71312000  1.0
  C  C100  1  0.17040000  0.83703000  0.23922000  1.0
  C  C101  1  0.82960000  0.16298000  0.76078000  1.0
  C  C102  1  0.18390000  0.74390000  0.15886000  1.0
  C  C103  1  0.81612000  0.25611000  0.84115000  1.0
  C  C104  1  0.90595000  0.90622000  0.37243000  1.0
  C  C105  1  0.09403000  0.09378000  0.62756000  1.0
  C  C106  1  0.75347000  0.39652000  0.12760000  1.0
  C  C107  1  0.24654000  0.60348000  0.87240000  1.0
  C  C108  1  0.84811000  0.34431000  0.10101000  1.0
  C  C109  1  0.15191000  0.65570000  0.89900000  1.0
  C  C110  1  0.80358000  0.22726000  0.07246000  1.0
  C  C111  1  0.19642000  0.77274000  0.92754000  1.0
  C  C112  1  0.66797000  0.16300000  0.06863000  1.0
  C  C113  1  0.33205000  0.83701000  0.93137000  1.0
  C  C114  1  0.57508000  0.21551000  0.09356000  1.0
  C  C115  1  0.42493000  0.78449000  0.90644000  1.0
  C  C116  1  0.61546000  0.33260000  0.12364000  1.0
  C  C117  1  0.38454000  0.66739000  0.87635000  1.0
  C  C118  1  0.51227000  0.38596000  0.14957000  1.0
  C  C119  1  0.48773000  0.61404000  0.85042000  1.0
  C  C120  1  0.99148000  0.41113000  0.09943000  1.0
  C  C121  1  0.00853000  0.58888000  0.90058000  1.0
  C  C122  1  0.85300000  0.75120000  0.07827000  1.0
  C  C123  1  0.14700000  0.24880000  0.92173000  1.0
  C  C124  1  0.69214000  0.47967000  0.98587000  1.0
  C  C125  1  0.30786000  0.52032000  0.01413000  1.0
  C  C126  1  0.01345000  0.62006000  0.33918000  1.0
  C  C127  1  0.98655000  0.37994000  0.66082000  1.0
  C  C128  1  0.00434000  0.61478000  0.43246000  1.0
  C  C129  1  0.99566000  0.38521000  0.56754000  1.0
  C  C130  1  0.14244000  0.63633000  0.32076000  1.0
  C  C131  1  0.85757000  0.36367000  0.67924000  1.0
  C  C132  1  0.73511000  0.42582000  0.38585000  1.0
  C  C133  1  0.26488000  0.57418000  0.61415000  1.0
  C  C134  1  0.80509000  0.35403000  0.35081000  1.0
  C  C135  1  0.19490000  0.64597000  0.64919000  1.0
  C  C136  1  0.73103000  0.23683000  0.30869000  1.0
  C  C137  1  0.26896000  0.76316000  0.69131000  1.0
  C  C138  1  0.58713000  0.19073000  0.30003000  1.0
  C  C139  1  0.41286000  0.80926000  0.69996000  1.0
  C  C140  1  0.51668000  0.26190000  0.33370000  1.0
  C  C141  1  0.48331000  0.73811000  0.66630000  1.0
  C  C142  1  0.59011000  0.37912000  0.37647000  1.0
  C  C143  1  0.40989000  0.62089000  0.62353000  1.0
  C  C144  1  0.83312000  0.63319000  0.56211000  1.0
  C  C145  1  0.16689000  0.36681000  0.43789000  1.0
  C  C146  1  0.77202000  0.56349000  0.60407000  1.0
  C  C147  1  0.22800000  0.43651000  0.39593000  1.0
  C  C148  1  0.78255000  0.61068000  0.70093000  1.0
  C  C149  1  0.21746000  0.38932000  0.29907000  1.0
  C  C150  1  0.85368000  0.72720000  0.75623000  1.0
  C  C151  1  0.14633000  0.27280000  0.24377000  1.0
  C  C152  1  0.91411000  0.79736000  0.71462000  1.0
  C  C153  1  0.08590000  0.20264000  0.28538000  1.0
  C  C154  1  0.90350000  0.75061000  0.61810000  1.0
  C  C155  1  0.09652000  0.24940000  0.38191000  1.0
  C  C156  1  0.61402000  0.99360000  0.43774000  1.0
  C  C157  1  0.38597000  0.00640000  0.56226000  1.0
  C  C158  1  0.69949000  0.11347000  0.48651000  1.0
  C  C159  1  0.30049000  0.88652000  0.51348000  1.0
  N  N160  1  0.92842000  0.71768000  0.22064000  1.0
  N  N161  1  0.07159000  0.28232000  0.77936000  1.0
  N  N162  1  0.79914000  0.51572000  0.15320000  1.0
  N  N163  1  0.20086000  0.48427000  0.84680000  1.0
  N  N164  1  0.25546000  0.65253000  0.30950000  1.0
  N  N165  1  0.74455000  0.34747000  0.69051000  1.0
  N  N166  1  0.54514000  0.89704000  0.39821000  1.0
  N  N167  1  0.45485000  0.10296000  0.60179000  1.0
  Cl  Cl168  1  0.55469000  0.66894000  0.44602000  1.0
  Cl  Cl169  1  0.44532000  0.33107000  0.55399000  1.0
  Cl  Cl170  1  0.58265000  0.67944000  0.22715000  1.0
  Cl  Cl171  1  0.41734000  0.32055000  0.77285000  1.0
