# generated using pymatgen
data_CoH29C41N3O4
_symmetry_space_group_name_H-M   'P 1'
_cell_length_a   11.67820000
_cell_length_b   12.00370000
_cell_length_c   25.03430000
_cell_angle_alpha   89.80430000
_cell_angle_beta   94.06680000
_cell_angle_gamma   89.95660000
_symmetry_Int_Tables_number   1
_chemical_formula_structural   CoH29C41N3O4
_chemical_formula_sum   'Co4 H116 C164 N12 O16'
_cell_volume   3500.48990264
_cell_formula_units_Z   4
loop_
 _symmetry_equiv_pos_site_id
 _symmetry_equiv_pos_as_xyz
  1  'x, y, z'
loop_
 _atom_site_type_symbol
 _atom_site_label
 _atom_site_symmetry_multiplicity
 _atom_site_fract_x
 _atom_site_fract_y
 _atom_site_fract_z
 _atom_site_occupancy
  Co  Co0  1  0.87714000  0.69870000  0.33827000  1.0
  Co  Co1  1  0.12390000  0.20094000  0.16098000  1.0
  Co  Co2  1  0.11811000  0.29457000  0.66071000  1.0
  Co  Co3  1  0.87837000  0.80159000  0.83819000  1.0
  H  H4  1  0.91785000  0.59183000  0.77278000  1.0
  H  H5  1  0.07931000  0.09261000  0.72321000  1.0
  H  H6  1  0.08881000  0.40908000  0.22795000  1.0
  H  H7  1  0.91426000  0.90670000  0.27253000  1.0
  H  H8  1  0.81030000  0.47219000  0.70699000  1.0
  H  H9  1  0.18624000  0.97879000  0.79114000  1.0
  H  H10  1  0.19544000  0.52489000  0.29580000  1.0
  H  H11  1  0.80740000  0.02577000  0.20567000  1.0
  H  H12  1  0.53269000  0.71251000  0.70539000  1.0
  H  H13  1  0.45999000  0.22249000  0.79050000  1.0
  H  H14  1  0.47312000  0.28521000  0.29446000  1.0
  H  H15  1  0.52945000  0.78633000  0.20554000  1.0
  H  H16  1  0.65302000  0.82129000  0.77249000  1.0
  H  H17  1  0.34036000  0.32601000  0.72168000  1.0
  H  H18  1  0.35291000  0.17981000  0.22610000  1.0
  H  H19  1  0.64996000  0.67762000  0.27302000  1.0
  H  H20  1  0.51097000  0.56064000  0.64400000  1.0
  H  H21  1  0.48442000  0.07052000  0.85401000  1.0
  H  H22  1  0.49562000  0.43565000  0.35747000  1.0
  H  H23  1  0.50752000  0.93966000  0.14355000  1.0
  H  H24  1  0.71743000  0.39960000  0.64427000  1.0
  H  H25  1  0.28169000  0.90507000  0.85292000  1.0
  H  H26  1  0.28959000  0.59696000  0.35806000  1.0
  H  H27  1  0.71521000  0.09909000  0.14391000  1.0
  H  H28  1  0.71808000  0.26257000  0.58184000  1.0
  H  H29  1  0.27903000  0.77060000  0.91646000  1.0
  H  H30  1  0.28847000  0.73280000  0.42030000  1.0
  H  H31  1  0.71746000  0.23599000  0.08116000  1.0
  H  H32  1  0.45213000  0.23304000  0.45440000  1.0
  H  H33  1  0.54506000  0.73806000  0.04377000  1.0
  H  H34  1  0.55484000  0.76496000  0.54741000  1.0
  H  H35  1  0.45211000  0.26784000  0.95343000  1.0
  H  H36  1  0.42443000  0.47998000  0.57693000  1.0
  H  H37  1  0.57516000  0.98432000  0.92029000  1.0
  H  H38  1  0.58431000  0.51846000  0.42468000  1.0
  H  H39  1  0.42121000  0.02269000  0.07725000  1.0
  H  H40  1  0.74457000  0.13678000  0.50886000  1.0
  H  H41  1  0.25188000  0.64445000  0.99025000  1.0
  H  H42  1  0.26211000  0.86002000  0.49184000  1.0
  H  H43  1  0.74457000  0.36215000  0.00780000  1.0
  H  H44  1  0.51451000  0.05924000  0.45316000  1.0
  H  H45  1  0.48259000  0.56500000  0.04490000  1.0
  H  H46  1  0.48974000  0.93788000  0.54977000  1.0
  H  H47  1  0.51418000  0.44157000  0.95275000  1.0
  H  H48  1  0.84287000  0.04400000  0.45541000  1.0
  H  H49  1  0.15386000  0.54744000  0.04308000  1.0
  H  H50  1  0.16168000  0.94909000  0.54452000  1.0
  H  H51  1  0.84229000  0.45535000  0.95481000  1.0
  H  H52  1  0.93998000  0.89527000  0.40691000  1.0
  H  H53  1  0.05883000  0.39687000  0.09153000  1.0
  H  H54  1  0.05899000  0.10001000  0.58841000  1.0
  H  H55  1  0.94010000  0.60497000  0.90683000  1.0
  H  H56  1  0.63430000  0.73306000  0.36673000  1.0
  H  H57  1  0.36657000  0.23746000  0.13178000  1.0
  H  H58  1  0.35985000  0.26884000  0.63047000  1.0
  H  H59  1  0.63513000  0.76928000  0.86677000  1.0
  H  H60  1  0.52090000  0.88116000  0.40870000  1.0
  H  H61  1  0.47795000  0.38719000  0.08962000  1.0
  H  H62  1  0.47845000  0.11977000  0.59259000  1.0
  H  H63  1  0.52097000  0.62088000  0.90847000  1.0
  H  H64  1  0.30311000  0.35541000  0.44508000  1.0
  H  H65  1  0.69282000  0.86100000  0.05368000  1.0
  H  H66  1  0.70358000  0.64182000  0.55740000  1.0
  H  H67  1  0.30341000  0.14379000  0.94385000  1.0
  H  H68  1  0.25759000  0.51083000  0.53887000  1.0
  H  H69  1  0.74398000  0.01249000  0.95886000  1.0
  H  H70  1  0.75022000  0.48765000  0.46330000  1.0
  H  H71  1  0.25512000  0.99354000  0.03963000  1.0
  H  H72  1  0.15661000  0.39301000  0.40018000  1.0
  H  H73  1  0.84157000  0.89624000  0.09888000  1.0
  H  H74  1  0.85092000  0.59931000  0.60371000  1.0
  H  H75  1  0.15478000  0.10896000  0.90018000  1.0
  H  H76  1  0.00585000  0.48574000  0.34211000  1.0
  H  H77  1  0.99237000  0.98798000  0.15694000  1.0
  H  H78  1  0.99508000  0.49979000  0.66237000  1.0
  H  H79  1  0.00477000  0.01588000  0.84218000  1.0
  H  H80  1  0.94982000  0.72243000  0.45724000  1.0
  H  H81  1  0.04912000  0.22536000  0.04154000  1.0
  H  H82  1  0.04670000  0.26424000  0.54587000  1.0
  H  H83  1  0.95154000  0.77697000  0.95738000  1.0
  H  H84  1  0.10377000  0.64362000  0.52006000  1.0
  H  H85  1  0.89571000  0.14734000  0.97870000  1.0
  H  H86  1  0.89995000  0.35092000  0.48240000  1.0
  H  H87  1  0.10453000  0.85646000  0.02020000  1.0
  H  H88  1  0.72886000  0.37663000  0.39210000  1.0
  H  H89  1  0.27180000  0.87830000  0.10758000  1.0
  H  H90  1  0.25505000  0.60466000  0.61201000  1.0
  H  H91  1  0.72726000  0.12281000  0.89143000  1.0
  H  H92  1  0.67044000  0.17755000  0.38875000  1.0
  H  H93  1  0.33000000  0.67926000  0.11131000  1.0
  H  H94  1  0.32551000  0.80043000  0.60776000  1.0
  H  H95  1  0.66714000  0.32155000  0.88731000  1.0
  H  H96  1  0.63640000  0.08359000  0.29983000  1.0
  H  H97  1  0.36410000  0.58467000  0.20039000  1.0
  H  H98  1  0.37065000  0.90564000  0.69263000  1.0
  H  H99  1  0.63305000  0.41520000  0.79800000  1.0
  H  H100  1  0.65974000  0.19109000  0.21662000  1.0
  H  H101  1  0.34075000  0.69171000  0.28342000  1.0
  H  H102  1  0.35209000  0.81183000  0.78022000  1.0
  H  H103  1  0.65860000  0.30809000  0.71525000  1.0
  H  H104  1  0.58039000  0.50947000  0.22308000  1.0
  H  H105  1  0.41849000  0.01146000  0.27620000  1.0
  H  H106  1  0.42487000  0.49463000  0.78154000  1.0
  H  H107  1  0.58154000  0.99121000  0.72285000  1.0
  H  H108  1  0.58191000  0.62140000  0.13984000  1.0
  H  H109  1  0.41732000  0.12171000  0.35956000  1.0
  H  H110  1  0.41901000  0.38121000  0.86415000  1.0
  H  H111  1  0.58365000  0.87849000  0.64026000  1.0
  H  H112  1  0.72760000  0.57952000  0.07347000  1.0
  H  H113  1  0.27352000  0.07712000  0.42661000  1.0
  H  H114  1  0.26933000  0.42173000  0.92882000  1.0
  H  H115  1  0.72968000  0.91958000  0.57381000  1.0
  H  H116  1  0.87070000  0.42922000  0.09378000  1.0
  H  H117  1  0.13194000  0.92573000  0.40678000  1.0
  H  H118  1  0.12774000  0.57312000  0.90772000  1.0
  H  H119  1  0.87332000  0.06908000  0.59380000  1.0
  C  C120  1  0.83259000  0.61607000  0.75628000  1.0
  C  C121  1  0.16315000  0.11962000  0.73988000  1.0
  C  C122  1  0.17374000  0.38398000  0.24452000  1.0
  C  C123  1  0.82927000  0.88254000  0.25584000  1.0
  C  C124  1  0.77161000  0.55000000  0.71898000  1.0
  C  C125  1  0.22446000  0.05638000  0.77836000  1.0
  C  C126  1  0.23434000  0.44796000  0.28281000  1.0
  C  C127  1  0.76854000  0.94830000  0.21817000  1.0
  C  C128  1  0.66160000  0.58396000  0.69824000  1.0
  C  C129  1  0.33392000  0.09163000  0.79920000  1.0
  C  C130  1  0.34446000  0.41343000  0.30319000  1.0
  C  C131  1  0.65837000  0.91459000  0.19772000  1.0
  C  C132  1  0.61825000  0.68302000  0.71881000  1.0
  C  C133  1  0.37518000  0.19072000  0.77739000  1.0
  C  C134  1  0.38762000  0.31543000  0.28141000  1.0
  C  C135  1  0.61503000  0.81574000  0.21875000  1.0
  C  C136  1  0.68502000  0.74416000  0.75621000  1.0
  C  C137  1  0.30878000  0.24961000  0.73879000  1.0
  C  C138  1  0.32088000  0.25612000  0.24319000  1.0
  C  C139  1  0.68191000  0.75464000  0.25640000  1.0
  C  C140  1  0.59492000  0.52461000  0.65615000  1.0
  C  C141  1  0.40123000  0.03334000  0.84170000  1.0
  C  C142  1  0.41151000  0.47164000  0.34567000  1.0
  C  C143  1  0.59181000  0.97460000  0.15564000  1.0
  C  C144  1  0.63343000  0.43399000  0.63089000  1.0
  C  C145  1  0.36445000  0.94124000  0.86682000  1.0
  C  C146  1  0.37350000  0.56208000  0.37129000  1.0
  C  C147  1  0.63110000  0.06530000  0.13048000  1.0
  C  C148  1  0.57683000  0.37769000  0.58495000  1.0
  C  C149  1  0.42113000  0.88457000  0.91294000  1.0
  C  C150  1  0.43036000  0.61844000  0.41722000  1.0
  C  C151  1  0.57508000  0.12244000  0.08451000  1.0
  C  C152  1  0.63572000  0.28891000  0.56265000  1.0
  C  C153  1  0.36161000  0.79615000  0.93553000  1.0
  C  C154  1  0.37108000  0.70707000  0.43948000  1.0
  C  C155  1  0.63484000  0.21057000  0.06203000  1.0
  C  C156  1  0.59069000  0.23354000  0.51661000  1.0
  C  C157  1  0.40630000  0.74020000  0.98169000  1.0
  C  C158  1  0.41607000  0.76317000  0.48533000  1.0
  C  C159  1  0.59022000  0.26629000  0.01584000  1.0
  C  C160  1  0.48616000  0.27099000  0.49176000  1.0
  C  C161  1  0.51117000  0.77669000  0.00639000  1.0
  C  C162  1  0.52094000  0.72646000  0.51016000  1.0
  C  C163  1  0.48561000  0.22964000  0.99096000  1.0
  C  C164  1  0.42481000  0.35857000  0.51339000  1.0
  C  C165  1  0.57312000  0.86397000  0.98463000  1.0
  C  C166  1  0.58274000  0.63902000  0.48864000  1.0
  C  C167  1  0.42360000  0.14260000  0.01280000  1.0
  C  C168  1  0.47058000  0.41083000  0.56030000  1.0
  C  C169  1  0.52773000  0.91669000  0.93753000  1.0
  C  C170  1  0.53707000  0.58620000  0.44179000  1.0
  C  C171  1  0.46863000  0.09024000  0.05998000  1.0
  C  C172  1  0.65338000  0.14067000  0.49571000  1.0
  C  C173  1  0.34332000  0.64757000  0.00299000  1.0
  C  C174  1  0.35284000  0.85599000  0.50586000  1.0
  C  C175  1  0.65323000  0.35892000  0.99486000  1.0
  C  C176  1  0.60725000  0.06071000  0.46284000  1.0
  C  C177  1  0.38973000  0.56681000  0.03564000  1.0
  C  C178  1  0.39736000  0.93602000  0.53918000  1.0
  C  C179  1  0.60694000  0.43965000  0.96221000  1.0
  C  C180  1  0.67176000  0.97413000  0.43808000  1.0
  C  C181  1  0.32600000  0.47942000  0.06048000  1.0
  C  C182  1  0.33079000  0.02266000  0.56271000  1.0
  C  C183  1  0.67152000  0.52645000  0.93757000  1.0
  C  C184  1  0.79237000  0.97575000  0.43741000  1.0
  C  C185  1  0.20538000  0.47964000  0.06119000  1.0
  C  C186  1  0.21002000  0.01931000  0.56193000  1.0
  C  C187  1  0.79210000  0.52425000  0.93696000  1.0
  C  C188  1  0.84776000  0.89287000  0.41100000  1.0
  C  C189  1  0.15110000  0.39568000  0.08759000  1.0
  C  C190  1  0.15158000  0.10354000  0.58581000  1.0
  C  C191  1  0.84788000  0.60752000  0.91085000  1.0
  C  C192  1  0.67630000  0.80397000  0.38671000  1.0
  C  C193  1  0.32361000  0.30825000  0.11185000  1.0
  C  C194  1  0.31979000  0.19624000  0.61101000  1.0
  C  C195  1  0.67671000  0.69773000  0.88663000  1.0
  C  C196  1  0.61423000  0.88589000  0.41091000  1.0
  C  C197  1  0.38457000  0.39113000  0.08755000  1.0
  C  C198  1  0.38518000  0.11345000  0.58927000  1.0
  C  C199  1  0.61429000  0.61564000  0.91067000  1.0
  C  C200  1  0.31896000  0.39398000  0.48440000  1.0
  C  C201  1  0.67880000  0.89878000  0.01395000  1.0
  C  C202  1  0.68841000  0.60354000  0.51795000  1.0
  C  C203  1  0.31813000  0.10693000  0.98374000  1.0
  C  C204  1  0.24390000  0.47127000  0.49972000  1.0
  C  C205  1  0.75544000  0.97472000  0.99863000  1.0
  C  C206  1  0.76329000  0.52571000  0.50283000  1.0
  C  C207  1  0.24259000  0.03068000  0.99977000  1.0
  C  C208  1  0.14770000  0.51240000  0.46552000  1.0
  C  C209  1  0.85094000  0.01579000  0.03327000  1.0
  C  C210  1  0.85755000  0.48182000  0.53741000  1.0
  C  C211  1  0.14718000  0.98863000  0.96554000  1.0
  C  C212  1  0.11463000  0.46660000  0.41498000  1.0
  C  C213  1  0.88364000  0.96991000  0.08402000  1.0
  C  C214  1  0.89077000  0.52488000  0.58852000  1.0
  C  C215  1  0.11374000  0.03465000  0.91493000  1.0
  C  C216  1  0.02962000  0.51710000  0.38213000  1.0
  C  C217  1  0.96873000  0.01994000  0.11690000  1.0
  C  C218  1  0.97233000  0.47072000  0.62188000  1.0
  C  C219  1  0.02909000  0.98398000  0.88216000  1.0
  C  C220  1  0.99946000  0.65047000  0.44585000  1.0
  C  C221  1  0.99932000  0.15353000  0.05308000  1.0
  C  C222  1  0.99966000  0.33744000  0.55740000  1.0
  C  C223  1  0.00043000  0.84953000  0.94595000  1.0
  C  C224  1  0.08505000  0.60579000  0.48084000  1.0
  C  C225  1  0.91392000  0.10920000  0.01802000  1.0
  C  C226  1  0.91792000  0.38697000  0.52207000  1.0
  C  C227  1  0.08548000  0.89454000  0.98093000  1.0
  C  C228  1  0.77273000  0.51264000  0.31523000  1.0
  C  C229  1  0.22780000  0.01430000  0.18415000  1.0
  C  C230  1  0.20160000  0.48842000  0.69789000  1.0
  C  C231  1  0.77321000  0.98728000  0.81477000  1.0
  C  C232  1  0.73167000  0.39498000  0.30693000  1.0
  C  C233  1  0.26887000  0.89643000  0.19274000  1.0
  C  C234  1  0.26174000  0.59924000  0.69790000  1.0
  C  C235  1  0.73184000  0.10484000  0.80636000  1.0
  C  C236  1  0.71430000  0.33428000  0.35378000  1.0
  C  C237  1  0.28630000  0.83587000  0.14603000  1.0
  C  C238  1  0.27751000  0.65104000  0.64863000  1.0
  C  C239  1  0.71302000  0.16519000  0.85296000  1.0
  C  C240  1  0.68160000  0.22292000  0.35179000  1.0
  C  C241  1  0.31894000  0.72440000  0.14821000  1.0
  C  C242  1  0.31624000  0.76065000  0.64638000  1.0
  C  C243  1  0.67911000  0.27626000  0.85053000  1.0
  C  C244  1  0.66243000  0.17082000  0.30214000  1.0
  C  C245  1  0.33811000  0.67196000  0.19794000  1.0
  C  C246  1  0.34201000  0.81922000  0.69388000  1.0
  C  C247  1  0.65992000  0.32819000  0.80066000  1.0
  C  C248  1  0.67682000  0.23074000  0.25532000  1.0
  C  C249  1  0.32372000  0.73163000  0.24463000  1.0
  C  C250  1  0.33049000  0.76716000  0.74313000  1.0
  C  C251  1  0.67580000  0.26856000  0.75411000  1.0
  C  C252  1  0.71326000  0.34229000  0.25666000  1.0
  C  C253  1  0.28725000  0.84329000  0.24311000  1.0
  C  C254  1  0.28981000  0.65765000  0.74592000  1.0
  C  C255  1  0.71386000  0.15751000  0.75595000  1.0
  C  C256  1  0.72190000  0.40441000  0.20544000  1.0
  C  C257  1  0.27866000  0.90462000  0.29434000  1.0
  C  C258  1  0.28282000  0.59976000  0.79832000  1.0
  C  C259  1  0.72377000  0.09516000  0.70510000  1.0
  C  C260  1  0.64365000  0.49171000  0.19416000  1.0
  C  C261  1  0.35603000  0.99251000  0.30539000  1.0
  C  C262  1  0.36078000  0.51249000  0.81005000  1.0
  C  C263  1  0.64519000  0.00833000  0.69399000  1.0
  C  C264  1  0.64432000  0.55446000  0.14723000  1.0
  C  C265  1  0.35559000  0.05432000  0.35241000  1.0
  C  C266  1  0.35731000  0.44868000  0.85654000  1.0
  C  C267  1  0.64622000  0.94518000  0.64741000  1.0
  C  C268  1  0.72576000  0.53157000  0.11054000  1.0
  C  C269  1  0.27525000  0.02988000  0.38947000  1.0
  C  C270  1  0.27368000  0.47083000  0.89223000  1.0
  C  C271  1  0.72797000  0.96745000  0.61076000  1.0
  C  C272  1  0.80532000  0.44649000  0.12167000  1.0
  C  C273  1  0.19655000  0.94419000  0.37861000  1.0
  C  C274  1  0.19502000  0.55654000  0.88072000  1.0
  C  C275  1  0.80789000  0.05198000  0.62170000  1.0
  C  C276  1  0.80407000  0.38081000  0.16812000  1.0
  C  C277  1  0.19762000  0.87945000  0.33206000  1.0
  C  C278  1  0.19893000  0.62296000  0.83470000  1.0
  C  C279  1  0.80684000  0.11762000  0.66798000  1.0
  C  C280  1  0.89104000  0.28712000  0.17534000  1.0
  C  C281  1  0.11164000  0.78501000  0.32530000  1.0
  C  C282  1  0.11192000  0.71581000  0.82566000  1.0
  C  C283  1  0.89389000  0.21071000  0.67512000  1.0
  N  N284  1  0.97282000  0.60923000  0.39654000  1.0
  N  N285  1  0.02593000  0.11198000  0.10250000  1.0
  N  N286  1  0.02532000  0.37594000  0.60747000  1.0
  N  N287  1  0.97320000  0.89125000  0.89662000  1.0
  N  N288  1  0.79141000  0.71298000  0.77459000  1.0
  N  N289  1  0.20270000  0.21655000  0.71991000  1.0
  N  N290  1  0.21465000  0.28813000  0.22496000  1.0
  N  N291  1  0.78822000  0.78589000  0.27466000  1.0
  N  N292  1  0.79158000  0.80676000  0.38627000  1.0
  N  N293  1  0.20831000  0.30985000  0.11244000  1.0
  N  N294  1  0.20427000  0.19251000  0.60967000  1.0
  N  N295  1  0.79197000  0.69435000  0.88623000  1.0
  O  O296  1  0.73153000  0.56980000  0.35224000  1.0
  O  O297  1  0.26900000  0.07155000  0.14699000  1.0
  O  O298  1  0.22944000  0.41677000  0.66175000  1.0
  O  O299  1  0.73179000  0.92966000  0.85169000  1.0
  O  O300  1  0.85222000  0.55275000  0.28824000  1.0
  O  O301  1  0.14836000  0.05447000  0.21105000  1.0
  O  O302  1  0.12455000  0.47081000  0.72902000  1.0
  O  O303  1  0.85290000  0.94751000  0.78785000  1.0
  O  O304  1  0.86082000  0.19232000  0.18925000  1.0
  O  O305  1  0.14326000  0.69010000  0.31251000  1.0
  O  O306  1  0.14177000  0.80916000  0.80951000  1.0
  O  O307  1  0.86644000  0.30361000  0.69208000  1.0
  O  O308  1  0.99442000  0.31405000  0.16458000  1.0
  O  O309  1  0.00767000  0.81155000  0.33527000  1.0
  O  O310  1  0.00868000  0.68979000  0.83700000  1.0
  O  O311  1  0.99524000  0.18422000  0.66032000  1.0
