# generated using pymatgen
data_TbH16C12N3O11
_symmetry_space_group_name_H-M   'P 1'
_cell_length_a   12.40200000
_cell_length_b   12.74490000
_cell_length_c   17.57190000
_cell_angle_alpha   70.06450000
_cell_angle_beta   70.79970000
_cell_angle_gamma   63.86850000
_symmetry_Int_Tables_number   1
_chemical_formula_structural   TbH16C12N3O11
_chemical_formula_sum   'Tb4 H64 C48 N12 O44'
_cell_volume   2290.98907325
_cell_formula_units_Z   4
loop_
 _symmetry_equiv_pos_site_id
 _symmetry_equiv_pos_as_xyz
  1  'x, y, z'
loop_
 _atom_site_type_symbol
 _atom_site_label
 _atom_site_symmetry_multiplicity
 _atom_site_fract_x
 _atom_site_fract_y
 _atom_site_fract_z
 _atom_site_occupancy
  Tb  Tb0  1  0.00318000  0.88618000  0.14446000  1.0
  Tb  Tb1  1  0.99682000  0.11382000  0.85555000  1.0
  Tb  Tb2  1  0.02969000  0.58845000  0.37610000  1.0
  Tb  Tb3  1  0.97031000  0.41155000  0.62390000  1.0
  H  H4  1  0.27373000  0.46293000  0.09923000  1.0
  H  H5  1  0.72625000  0.53707000  0.90078000  1.0
  H  H6  1  0.13629000  0.47618000  0.07706000  1.0
  H  H7  1  0.86370000  0.52382000  0.92295000  1.0
  H  H8  1  0.30080000  0.62031000  0.97311000  1.0
  H  H9  1  0.69921000  0.37968000  0.02689000  1.0
  H  H10  1  0.16735000  0.63188000  0.94638000  1.0
  H  H11  1  0.83265000  0.36812000  0.05362000  1.0
  H  H12  1  0.15702000  0.25136000  0.91459000  1.0
  H  H13  1  0.84298000  0.74864000  0.08542000  1.0
  H  H14  1  0.30116000  0.15978000  0.86432000  1.0
  H  H15  1  0.69884000  0.84022000  0.13568000  1.0
  H  H16  1  0.18827000  0.43358000  0.80107000  1.0
  H  H17  1  0.81173000  0.56641000  0.19893000  1.0
  H  H18  1  0.31384000  0.33240000  0.74606000  1.0
  H  H19  1  0.68616000  0.66760000  0.25394000  1.0
  H  H20  1  0.65962000  0.25467000  0.93657000  1.0
  H  H21  1  0.34037000  0.74535000  0.06343000  1.0
  H  H22  1  0.66041000  0.13809000  0.90249000  1.0
  H  H23  1  0.33959000  0.86192000  0.09750000  1.0
  H  H24  1  0.61825000  0.02374000  0.04779000  1.0
  H  H25  1  0.38175000  0.97627000  0.95221000  1.0
  H  H26  1  0.59758000  0.14380000  0.08621000  1.0
  H  H27  1  0.40243000  0.85620000  0.91379000  1.0
  H  H28  1  0.41056000  0.75758000  0.26820000  1.0
  H  H29  1  0.58944000  0.24241000  0.73180000  1.0
  H  H30  1  0.30901000  0.91093000  0.25350000  1.0
  H  H31  1  0.69100000  0.08906000  0.74649000  1.0
  H  H32  1  0.24821000  0.68948000  0.36310000  1.0
  H  H33  1  0.75178000  0.31053000  0.63690000  1.0
  H  H34  1  0.15534000  0.83497000  0.37991000  1.0
  H  H35  1  0.84467000  0.16504000  0.62008000  1.0
  H  H36  1  0.27354000  0.14479000  0.41615000  1.0
  H  H37  1  0.72647000  0.85521000  0.58385000  1.0
  H  H38  1  0.34330000  0.07882000  0.50439000  1.0
  H  H39  1  0.65671000  0.92118000  0.49560000  1.0
  H  H40  1  0.09708000  0.08099000  0.49731000  1.0
  H  H41  1  0.90292000  0.91901000  0.50268000  1.0
  H  H42  1  0.16782000  0.00986000  0.58548000  1.0
  H  H43  1  0.83219000  0.99014000  0.41451000  1.0
  H  H44  1  0.52610000  0.56775000  0.53652000  1.0
  H  H45  1  0.47390000  0.43225000  0.46348000  1.0
  H  H46  1  0.52523000  0.66592000  0.58894000  1.0
  H  H47  1  0.47477000  0.33408000  0.41106000  1.0
  H  H48  1  0.70552000  0.59543000  0.42912000  1.0
  H  H49  1  0.29448000  0.40457000  0.57088000  1.0
  H  H50  1  0.68824000  0.71945000  0.46002000  1.0
  H  H51  1  0.31177000  0.28054000  0.53998000  1.0
  H  H52  1  0.24332000  0.47310000  0.26310000  1.0
  H  H53  1  0.75667000  0.52690000  0.73690000  1.0
  H  H54  1  0.17073000  0.58249000  0.19865000  1.0
  H  H55  1  0.82926000  0.41751000  0.80135000  1.0
  H  H56  1  0.01941000  0.39234000  0.34130000  1.0
  H  H57  1  0.98058000  0.60766000  0.65870000  1.0
  H  H58  1  0.02304000  0.34190000  0.43719000  1.0
  H  H59  1  0.97696000  0.65810000  0.56281000  1.0
  H  H60  1  0.03110000  0.09511000  0.14954000  1.0
  H  H61  1  0.96890000  0.90489000  0.85046000  1.0
  H  H62  1  0.97169000  0.14448000  0.07083000  1.0
  H  H63  1  0.02831000  0.85551000  0.92917000  1.0
  H  H64  1  0.83293000  0.89912000  0.31001000  1.0
  H  H65  1  0.16707000  0.10088000  0.68999000  1.0
  H  H66  1  0.77888000  0.01374000  0.23975000  1.0
  H  H67  1  0.22112000  0.98626000  0.76025000  1.0
  C  C68  1  0.23909000  0.37088000  0.95824000  1.0
  C  C69  1  0.76090000  0.62911000  0.04177000  1.0
  C  C70  1  0.43396000  0.20971000  0.91700000  1.0
  C  C71  1  0.56602000  0.79030000  0.08301000  1.0
  C  C72  1  0.42549000  0.33695000  0.99960000  1.0
  C  C73  1  0.57451000  0.66306000  0.00041000  1.0
  C  C74  1  0.22617000  0.48461000  0.05018000  1.0
  C  C75  1  0.77381000  0.51538000  0.94982000  1.0
  C  C76  1  0.21007000  0.61224000  0.99774000  1.0
  C  C77  1  0.78993000  0.38776000  0.00226000  1.0
  C  C78  1  0.13134000  0.70307000  0.05016000  1.0
  C  C79  1  0.86866000  0.29693000  0.94984000  1.0
  C  C80  1  0.24588000  0.25035000  0.87409000  1.0
  C  C81  1  0.75411000  0.74965000  0.12591000  1.0
  C  C82  1  0.22660000  0.34171000  0.79201000  1.0
  C  C83  1  0.77339000  0.65829000  0.20800000  1.0
  C  C84  1  0.13769000  0.33192000  0.75506000  1.0
  C  C85  1  0.86231000  0.66808000  0.24495000  1.0
  C  C86  1  0.62128000  0.18528000  0.95255000  1.0
  C  C87  1  0.37871000  0.81473000  0.04745000  1.0
  C  C88  1  0.64850000  0.09865000  0.03481000  1.0
  C  C89  1  0.35150000  0.90135000  0.96519000  1.0
  C  C90  1  0.78397000  0.04677000  0.03639000  1.0
  C  C91  1  0.21604000  0.95324000  0.96360000  1.0
  C  C92  1  0.30856000  0.94919000  0.38509000  1.0
  C  C93  1  0.69144000  0.05080000  0.61491000  1.0
  C  C94  1  0.41834000  0.86182000  0.49982000  1.0
  C  C95  1  0.58168000  0.13818000  0.50017000  1.0
  C  C96  1  0.44244000  0.73514000  0.41137000  1.0
  C  C97  1  0.55756000  0.26487000  0.58863000  1.0
  C  C98  1  0.33099000  0.82424000  0.29806000  1.0
  C  C99  1  0.66902000  0.17576000  0.70194000  1.0
  C  C100  1  0.22088000  0.78532000  0.33257000  1.0
  C  C101  1  0.77911000  0.21468000  0.66743000  1.0
  C  C102  1  0.14852000  0.81296000  0.26928000  1.0
  C  C103  1  0.85148000  0.18704000  0.73072000  1.0
  C  C104  1  0.28281000  0.07418000  0.47330000  1.0
  C  C105  1  0.71720000  0.92582000  0.52669000  1.0
  C  C106  1  0.15619000  0.08472000  0.53023000  1.0
  C  C107  1  0.84382000  0.91528000  0.46977000  1.0
  C  C108  1  0.09536000  0.19980000  0.55954000  1.0
  C  C109  1  0.90464000  0.80020000  0.44046000  1.0
  C  C110  1  0.54580000  0.64711000  0.52841000  1.0
  C  C111  1  0.45420000  0.35289000  0.47159000  1.0
  C  C112  1  0.67812000  0.63162000  0.48408000  1.0
  C  C113  1  0.32189000  0.36837000  0.51592000  1.0
  C  C114  1  0.77344000  0.55453000  0.53551000  1.0
  C  C115  1  0.22656000  0.44547000  0.46449000  1.0
  N  N116  1  0.29990000  0.39355000  0.00129000  1.0
  N  N117  1  0.70009000  0.60646000  0.99872000  1.0
  N  N118  1  0.30986000  0.27741000  0.91781000  1.0
  N  N119  1  0.69014000  0.72259000  0.08220000  1.0
  N  N120  1  0.48839000  0.24657000  0.95583000  1.0
  N  N121  1  0.51160000  0.75343000  0.04418000  1.0
  N  N122  1  0.36674000  0.83736000  0.36523000  1.0
  N  N123  1  0.63327000  0.16264000  0.63476000  1.0
  N  N124  1  0.34270000  0.95812000  0.45008000  1.0
  N  N125  1  0.65731000  0.04188000  0.54992000  1.0
  N  N126  1  0.46190000  0.75123000  0.47969000  1.0
  N  N127  1  0.53811000  0.24877000  0.52031000  1.0
  O  O128  1  0.16318000  0.69340000  0.11563000  1.0
  O  O129  1  0.83682000  0.30660000  0.88437000  1.0
  O  O130  1  0.16195000  0.51913000  0.25051000  1.0
  O  O131  1  0.83805000  0.48087000  0.74949000  1.0
  O  O132  1  0.03551000  0.79019000  0.02980000  1.0
  O  O133  1  0.96449000  0.20981000  0.97020000  1.0
  O  O134  1  0.06137000  0.38285000  0.38273000  1.0
  O  O135  1  0.93863000  0.61715000  0.61727000  1.0
  O  O136  1  0.11053000  0.40833000  0.68809000  1.0
  O  O137  1  0.88947000  0.59167000  0.31191000  1.0
  O  O138  1  0.96339000  0.10006000  0.13032000  1.0
  O  O139  1  0.03661000  0.89994000  0.86968000  1.0
  O  O140  1  0.09366000  0.25070000  0.79159000  1.0
  O  O141  1  0.90634000  0.74930000  0.20841000  1.0
  O  O142  1  0.85236000  0.96247000  0.26222000  1.0
  O  O143  1  0.14764000  0.03753000  0.73777000  1.0
  O  O144  1  0.86139000  0.05434000  0.96850000  1.0
  O  O145  1  0.13860000  0.94565000  0.03149000  1.0
  O  O146  1  0.81300000  0.99679000  0.10686000  1.0
  O  O147  1  0.18701000  0.00321000  0.89314000  1.0
  O  O148  1  0.13002000  0.42854000  0.95672000  1.0
  O  O149  1  0.86999000  0.57146000  0.04327000  1.0
  O  O150  1  0.49172000  0.12465000  0.88328000  1.0
  O  O151  1  0.50827000  0.87534000  0.11674000  1.0
  O  O152  1  0.47716000  0.36389000  0.03475000  1.0
  O  O153  1  0.52282000  0.63612000  0.96526000  1.0
  O  O154  1  0.08618000  0.74842000  0.28082000  1.0
  O  O155  1  0.91382000  0.25158000  0.71918000  1.0
  O  O156  1  0.14494000  0.90045000  0.20693000  1.0
  O  O157  1  0.85505000  0.09955000  0.79307000  1.0
  O  O158  1  0.99543000  0.27956000  0.53862000  1.0
  O  O159  1  0.00457000  0.72044000  0.46138000  1.0
  O  O160  1  0.14352000  0.21753000  0.60584000  1.0
  O  O161  1  0.85648000  0.78247000  0.39416000  1.0
  O  O162  1  0.88639000  0.54010000  0.49944000  1.0
  O  O163  1  0.11362000  0.45989000  0.50057000  1.0
  O  O164  1  0.74869000  0.50488000  0.61153000  1.0
  O  O165  1  0.25130000  0.49512000  0.38846000  1.0
  O  O166  1  0.23314000  0.03451000  0.34785000  1.0
  O  O167  1  0.76687000  0.96549000  0.65214000  1.0
  O  O168  1  0.44372000  0.87362000  0.55765000  1.0
  O  O169  1  0.55630000  0.12638000  0.44234000  1.0
  O  O170  1  0.48879000  0.63697000  0.39334000  1.0
  O  O171  1  0.51121000  0.36303000  0.60666000  1.0
