# generated using pymatgen
data_CdH12(CN)10
_symmetry_space_group_name_H-M   'P 1'
_cell_length_a   9.21055000
_cell_length_b   10.53210000
_cell_length_c   13.29330000
_cell_angle_alpha   89.99970000
_cell_angle_beta   89.99990000
_cell_angle_gamma   89.99940000
_symmetry_Int_Tables_number   1
_chemical_formula_structural   CdH12(CN)10
_chemical_formula_sum   'Cd4 H48 C40 N40'
_cell_volume   1289.53562442
_cell_formula_units_Z   4
loop_
 _symmetry_equiv_pos_site_id
 _symmetry_equiv_pos_as_xyz
  1  'x, y, z'
loop_
 _atom_site_type_symbol
 _atom_site_label
 _atom_site_symmetry_multiplicity
 _atom_site_fract_x
 _atom_site_fract_y
 _atom_site_fract_z
 _atom_site_occupancy
  Cd  Cd0  1  0.75000000  0.25263000  0.51696000  1.0
  Cd  Cd1  1  0.74999000  0.24740000  0.01695000  1.0
  Cd  Cd2  1  0.25000000  0.75260000  0.98304000  1.0
  Cd  Cd3  1  0.25000000  0.74738000  0.48305000  1.0
  H  H4  1  0.84778000  0.26887000  0.26478000  1.0
  H  H5  1  0.65222000  0.23113000  0.76477000  1.0
  H  H6  1  0.15222000  0.76887000  0.23522000  1.0
  H  H7  1  0.34778000  0.73112000  0.73522000  1.0
  H  H8  1  0.15222000  0.73112000  0.73522000  1.0
  H  H9  1  0.34779000  0.76887000  0.23523000  1.0
  H  H10  1  0.84778000  0.23113000  0.76477000  1.0
  H  H11  1  0.65222000  0.26888000  0.26478000  1.0
  H  H12  1  0.61715000  0.99122000  0.42578000  1.0
  H  H13  1  0.88285000  0.50878000  0.92577000  1.0
  H  H14  1  0.38286000  0.49122000  0.07423000  1.0
  H  H15  1  0.11715000  0.00878000  0.57422000  1.0
  H  H16  1  0.38285000  0.00878000  0.57423000  1.0
  H  H17  1  0.11715000  0.49123000  0.07423000  1.0
  H  H18  1  0.61714000  0.50878000  0.92577000  1.0
  H  H19  1  0.88285000  0.99122000  0.42578000  1.0
  H  H20  1  0.52192000  0.10936000  0.35559000  1.0
  H  H21  1  0.97808000  0.39065000  0.85559000  1.0
  H  H22  1  0.47809000  0.60935000  0.14441000  1.0
  H  H23  1  0.02193000  0.89065000  0.64441000  1.0
  H  H24  1  0.47808000  0.89065000  0.64441000  1.0
  H  H25  1  0.02193000  0.60936000  0.14442000  1.0
  H  H26  1  0.52192000  0.39064000  0.85559000  1.0
  H  H27  1  0.97807000  0.10936000  0.35559000  1.0
  H  H28  1  0.97783000  0.10581000  0.17748000  1.0
  H  H29  1  0.52216000  0.39419000  0.67747000  1.0
  H  H30  1  0.02216000  0.60581000  0.32253000  1.0
  H  H31  1  0.47784000  0.89418000  0.82252000  1.0
  H  H32  1  0.02217000  0.89419000  0.82252000  1.0
  H  H33  1  0.47784000  0.60581000  0.32253000  1.0
  H  H34  1  0.97784000  0.39419000  0.67747000  1.0
  H  H35  1  0.52216000  0.10582000  0.17748000  1.0
  H  H36  1  0.88167000  0.98533000  0.11058000  1.0
  H  H37  1  0.61833000  0.51468000  0.61058000  1.0
  H  H38  1  0.11834000  0.48532000  0.38942000  1.0
  H  H39  1  0.38167000  0.01466000  0.88942000  1.0
  H  H40  1  0.11834000  0.01467000  0.88942000  1.0
  H  H41  1  0.38167000  0.48532000  0.38943000  1.0
  H  H42  1  0.88167000  0.51468000  0.61058000  1.0
  H  H43  1  0.61834000  0.98533000  0.11058000  1.0
  H  H44  1  0.75000000  0.82437000  0.20449000  1.0
  H  H45  1  0.74999000  0.67564000  0.70449000  1.0
  H  H46  1  0.24999000  0.32437000  0.29551000  1.0
  H  H47  1  0.25000000  0.17563000  0.79552000  1.0
  H  H48  1  0.75000000  0.82915000  0.33860000  1.0
  H  H49  1  0.74999000  0.67085000  0.83860000  1.0
  H  H50  1  0.25000000  0.32915000  0.16140000  1.0
  H  H51  1  0.25000000  0.17086000  0.66141000  1.0
  C  C52  1  0.12269000  0.25589000  0.49503000  1.0
  C  C53  1  0.37731000  0.24409000  0.99502000  1.0
  C  C54  1  0.87731000  0.75590000  0.00498000  1.0
  C  C55  1  0.62269000  0.74410000  0.50498000  1.0
  C  C56  1  0.87732000  0.74411000  0.50498000  1.0
  C  C57  1  0.62268000  0.75590000  0.00498000  1.0
  C  C58  1  0.12268000  0.24410000  0.99503000  1.0
  C  C59  1  0.37732000  0.25589000  0.49503000  1.0
  C  C60  1  0.75000000  0.20892000  0.26572000  1.0
  C  C61  1  0.75000000  0.29108000  0.76572000  1.0
  C  C62  1  0.25001000  0.70892000  0.23428000  1.0
  C  C63  1  0.25000000  0.79108000  0.73428000  1.0
  C  C64  1  0.61834000  0.04824000  0.35674000  1.0
  C  C65  1  0.88165000  0.45177000  0.85674000  1.0
  C  C66  1  0.38166000  0.54824000  0.14327000  1.0
  C  C67  1  0.11835000  0.95177000  0.64326000  1.0
  C  C68  1  0.38166000  0.95177000  0.64326000  1.0
  C  C69  1  0.11835000  0.54824000  0.14326000  1.0
  C  C70  1  0.61834000  0.45176000  0.85674000  1.0
  C  C71  1  0.88166000  0.04823000  0.35674000  1.0
  C  C72  1  0.88134000  0.04479000  0.17830000  1.0
  C  C73  1  0.61865000  0.45522000  0.67830000  1.0
  C  C74  1  0.11866000  0.54479000  0.32170000  1.0
  C  C75  1  0.38135000  0.95520000  0.82170000  1.0
  C  C76  1  0.11866000  0.95521000  0.82170000  1.0
  C  C77  1  0.38134000  0.54478000  0.32171000  1.0
  C  C78  1  0.88134000  0.45521000  0.67830000  1.0
  C  C79  1  0.61866000  0.04479000  0.17830000  1.0
  C  C80  1  0.75000000  0.88712000  0.27010000  1.0
  C  C81  1  0.74999000  0.61289000  0.77009000  1.0
  C  C82  1  0.25000000  0.38712000  0.22990000  1.0
  C  C83  1  0.25001000  0.11289000  0.72991000  1.0
  C  C84  1  0.74999000  0.00936000  0.67739000  1.0
  C  C85  1  0.75000000  0.49067000  0.17739000  1.0
  C  C86  1  0.25000000  0.50934000  0.82261000  1.0
  C  C87  1  0.25000000  0.99063000  0.32259000  1.0
  C  C88  1  0.75001000  0.00838000  0.84968000  1.0
  C  C89  1  0.75000000  0.49163000  0.34967000  1.0
  C  C90  1  0.25000000  0.50836000  0.65032000  1.0
  C  C91  1  0.25000000  0.99162000  0.15030000  1.0
  N  N92  1  0.00012000  0.25554000  0.52051000  1.0
  N  N93  1  0.49987000  0.24447000  0.02052000  1.0
  N  N94  1  0.99988000  0.75553000  0.97948000  1.0
  N  N95  1  0.50013000  0.74445000  0.47948000  1.0
  N  N96  1  0.99989000  0.74445000  0.47949000  1.0
  N  N97  1  0.50012000  0.75552000  0.97948000  1.0
  N  N98  1  0.00011000  0.24448000  0.02052000  1.0
  N  N99  1  0.49989000  0.25555000  0.52051000  1.0
  N  N100  1  0.25001000  0.25543000  0.45582000  1.0
  N  N101  1  0.25000000  0.24453000  0.95581000  1.0
  N  N102  1  0.74999000  0.75548000  0.04419000  1.0
  N  N103  1  0.75000000  0.74457000  0.54419000  1.0
  N  N104  1  0.75000000  0.13188000  0.35902000  1.0
  N  N105  1  0.75000000  0.36812000  0.85901000  1.0
  N  N106  1  0.25001000  0.63187000  0.14099000  1.0
  N  N107  1  0.25000000  0.86813000  0.64099000  1.0
  N  N108  1  0.75000000  0.12819000  0.17454000  1.0
  N  N109  1  0.75000000  0.37182000  0.67454000  1.0
  N  N110  1  0.25000000  0.62819000  0.32546000  1.0
  N  N111  1  0.25000000  0.87181000  0.82546000  1.0
  N  N112  1  0.61735000  0.96551000  0.26864000  1.0
  N  N113  1  0.88264000  0.53449000  0.76864000  1.0
  N  N114  1  0.38265000  0.46551000  0.23137000  1.0
  N  N115  1  0.11736000  0.03449000  0.73137000  1.0
  N  N116  1  0.38264000  0.03449000  0.73136000  1.0
  N  N117  1  0.11736000  0.46551000  0.23137000  1.0
  N  N118  1  0.61735000  0.53449000  0.76863000  1.0
  N  N119  1  0.88264000  0.96551000  0.26864000  1.0
  N  N120  1  0.74999000  0.05184000  0.59519000  1.0
  N  N121  1  0.75000000  0.44819000  0.09519000  1.0
  N  N122  1  0.25000000  0.55180000  0.90481000  1.0
  N  N123  1  0.25000000  0.94816000  0.40479000  1.0
  N  N124  1  0.75001000  0.95182000  0.76336000  1.0
  N  N125  1  0.75000000  0.54819000  0.26335000  1.0
  N  N126  1  0.24999000  0.45180000  0.73665000  1.0
  N  N127  1  0.25000000  0.04817000  0.23663000  1.0
  N  N128  1  0.75000000  0.04970000  0.93234000  1.0
  N  N129  1  0.75001000  0.45032000  0.43233000  1.0
  N  N130  1  0.25000000  0.54967000  0.56766000  1.0
  N  N131  1  0.25001000  0.95030000  0.06764000  1.0
