# generated using pymatgen
data_CdH6C8N5ClO2
_symmetry_space_group_name_H-M   'P 1'
_cell_length_a   7.14891000
_cell_length_b   8.99049000
_cell_length_c   17.28730000
_cell_angle_alpha   90.00020000
_cell_angle_beta   90.00070000
_cell_angle_gamma   102.10100000
_symmetry_Int_Tables_number   1
_chemical_formula_structural   CdH6C8N5ClO2
_chemical_formula_sum   'Cd4 H24 C32 N20 Cl4 O8'
_cell_volume   1086.40391742
_cell_formula_units_Z   4
loop_
 _symmetry_equiv_pos_site_id
 _symmetry_equiv_pos_as_xyz
  1  'x, y, z'
loop_
 _atom_site_type_symbol
 _atom_site_label
 _atom_site_symmetry_multiplicity
 _atom_site_fract_x
 _atom_site_fract_y
 _atom_site_fract_z
 _atom_site_occupancy
  Cd  Cd0  1  0.20521000  0.71937000  0.68289000  1.0
  Cd  Cd1  1  0.29479000  0.28063000  0.18289000  1.0
  Cd  Cd2  1  0.79480000  0.28063000  0.31711000  1.0
  Cd  Cd3  1  0.70521000  0.71937000  0.81711000  1.0
  H  H4  1  0.72417000  0.91282000  0.56808000  1.0
  H  H5  1  0.77583000  0.08719000  0.06808000  1.0
  H  H6  1  0.27584000  0.08718000  0.43192000  1.0
  H  H7  1  0.22417000  0.91282000  0.93192000  1.0
  H  H8  1  0.88456000  0.69430000  0.36270000  1.0
  H  H9  1  0.61544000  0.30570000  0.86270000  1.0
  H  H10  1  0.11544000  0.30570000  0.63729000  1.0
  H  H11  1  0.38455000  0.69430000  0.13730000  1.0
  H  H12  1  0.80420000  0.68288000  0.50474000  1.0
  H  H13  1  0.69580000  0.31712000  0.00474000  1.0
  H  H14  1  0.19580000  0.31712000  0.49526000  1.0
  H  H15  1  0.30420000  0.68288000  0.99526000  1.0
  H  H16  1  0.52224000  0.50077000  0.62364000  1.0
  H  H17  1  0.97776000  0.49923000  0.12364000  1.0
  H  H18  1  0.47776000  0.49923000  0.37636000  1.0
  H  H19  1  0.02224000  0.50077000  0.87636000  1.0
  H  H20  1  0.52023000  0.33053000  0.67643000  1.0
  H  H21  1  0.97977000  0.66947000  0.17643000  1.0
  H  H22  1  0.47978000  0.66947000  0.32357000  1.0
  H  H23  1  0.02023000  0.33053000  0.82357000  1.0
  H  H24  1  0.89188000  0.93989000  0.29132000  1.0
  H  H25  1  0.60812000  0.06011000  0.79132000  1.0
  H  H26  1  0.10812000  0.06010000  0.70867000  1.0
  H  H27  1  0.39187000  0.93989000  0.20868000  1.0
  C  C28  1  0.78715000  0.50103000  0.68217000  1.0
  C  C29  1  0.71284000  0.49897000  0.18216000  1.0
  C  C30  1  0.21286000  0.49897000  0.31783000  1.0
  C  C31  1  0.28716000  0.50103000  0.81784000  1.0
  C  C32  1  0.72254000  0.18152000  0.49541000  1.0
  C  C33  1  0.77747000  0.81848000  0.99541000  1.0
  C  C34  1  0.27747000  0.81847000  0.50459000  1.0
  C  C35  1  0.22253000  0.18152000  0.00459000  1.0
  C  C36  1  0.76686000  0.04357000  0.46228000  1.0
  C  C37  1  0.73314000  0.95643000  0.96228000  1.0
  C  C38  1  0.23315000  0.95643000  0.53772000  1.0
  C  C39  1  0.26685000  0.04357000  0.03772000  1.0
  C  C40  1  0.76181000  0.91346000  0.50695000  1.0
  C  C41  1  0.73819000  0.08654000  0.00695000  1.0
  C  C42  1  0.23819000  0.08654000  0.49305000  1.0
  C  C43  1  0.26180000  0.91346000  0.99305000  1.0
  C  C44  1  0.85195000  0.79231000  0.39284000  1.0
  C  C45  1  0.64806000  0.20769000  0.89284000  1.0
  C  C46  1  0.14805000  0.20769000  0.60715000  1.0
  C  C47  1  0.35194000  0.79231000  0.10716000  1.0
  C  C48  1  0.80601000  0.78609000  0.47144000  1.0
  C  C49  1  0.69399000  0.21391000  0.97144000  1.0
  C  C50  1  0.19399000  0.21391000  0.52856000  1.0
  C  C51  1  0.30601000  0.78609000  0.02856000  1.0
  C  C52  1  0.60665000  0.41648000  0.63927000  1.0
  C  C53  1  0.89335000  0.58351000  0.13927000  1.0
  C  C54  1  0.39335000  0.58352000  0.36073000  1.0
  C  C55  1  0.10666000  0.41649000  0.86074000  1.0
  C  C56  1  0.85495000  0.92737000  0.35261000  1.0
  C  C57  1  0.64505000  0.07263000  0.85261000  1.0
  C  C58  1  0.14505000  0.07263000  0.64739000  1.0
  C  C59  1  0.35494000  0.92737000  0.14739000  1.0
  N  N60  1  0.68093000  0.20136000  0.56969000  1.0
  N  N61  1  0.81907000  0.79864000  0.06969000  1.0
  N  N62  1  0.31907000  0.79864000  0.43031000  1.0
  N  N63  1  0.18093000  0.20136000  0.93031000  1.0
  N  N64  1  0.71753000  0.30787000  0.45301000  1.0
  N  N65  1  0.78247000  0.69213000  0.95301000  1.0
  N  N66  1  0.28247000  0.69212000  0.54699000  1.0
  N  N67  1  0.21753000  0.30787000  0.04699000  1.0
  N  N68  1  0.67160000  0.40935000  0.50019000  1.0
  N  N69  1  0.82840000  0.59065000  0.00019000  1.0
  N  N70  1  0.32840000  0.59065000  0.49981000  1.0
  N  N71  1  0.17160000  0.40935000  0.99981000  1.0
  N  N72  1  0.64984000  0.34201000  0.56922000  1.0
  N  N73  1  0.85016000  0.65798000  0.06922000  1.0
  N  N74  1  0.35016000  0.65798000  0.43078000  1.0
  N  N75  1  0.14984000  0.34202000  0.93078000  1.0
  N  N76  1  0.81383000  0.05083000  0.38655000  1.0
  N  N77  1  0.68617000  0.94916000  0.88655000  1.0
  N  N78  1  0.18617000  0.94917000  0.61345000  1.0
  N  N79  1  0.31382000  0.05083000  0.11345000  1.0
  Cl  Cl80  1  0.07906000  0.83022000  0.80455000  1.0
  Cl  Cl81  1  0.42094000  0.16978000  0.30456000  1.0
  Cl  Cl82  1  0.92094000  0.16978000  0.19544000  1.0
  Cl  Cl83  1  0.57906000  0.83022000  0.69544000  1.0
  O  O84  1  0.92776000  0.56057000  0.64006000  1.0
  O  O85  1  0.57224000  0.43943000  0.14007000  1.0
  O  O86  1  0.07224000  0.43942000  0.35994000  1.0
  O  O87  1  0.42776000  0.56057000  0.85994000  1.0
  O  O88  1  0.77242000  0.50539000  0.75500000  1.0
  O  O89  1  0.72759000  0.49461000  0.25501000  1.0
  O  O90  1  0.22758000  0.49461000  0.24500000  1.0
  O  O91  1  0.27242000  0.50540000  0.74499000  1.0
