# generated using pymatgen
data_CuH6C7N4O5
_symmetry_space_group_name_H-M   'P 1'
_cell_length_a   7.25393000
_cell_length_b   8.21241000
_cell_length_c   15.90560000
_cell_angle_alpha   90.00020000
_cell_angle_beta   90.00000000
_cell_angle_gamma   105.36400000
_symmetry_Int_Tables_number   1
_chemical_formula_structural   CuH6C7N4O5
_chemical_formula_sum   'Cu4 H24 C28 N16 O20'
_cell_volume   913.66948975
_cell_formula_units_Z   4
loop_
 _symmetry_equiv_pos_site_id
 _symmetry_equiv_pos_as_xyz
  1  'x, y, z'
loop_
 _atom_site_type_symbol
 _atom_site_label
 _atom_site_symmetry_multiplicity
 _atom_site_fract_x
 _atom_site_fract_y
 _atom_site_fract_z
 _atom_site_occupancy
  Cu  Cu0  1  0.29765000  0.19998000  0.92187000  1.0
  Cu  Cu1  1  0.79767000  0.19998000  0.57813000  1.0
  Cu  Cu2  1  0.70231000  0.80000000  0.07813000  1.0
  Cu  Cu3  1  0.20233000  0.80002000  0.42187000  1.0
  H  H4  1  0.32629000  0.88327000  0.85256000  1.0
  H  H5  1  0.82629000  0.88327000  0.64743000  1.0
  H  H6  1  0.67372000  0.11672000  0.14744000  1.0
  H  H7  1  0.17372000  0.11673000  0.35257000  1.0
  H  H8  1  0.51433000  0.93683000  0.90930000  1.0
  H  H9  1  0.01433000  0.93683000  0.59070000  1.0
  H  H10  1  0.48567000  0.06317000  0.09070000  1.0
  H  H11  1  0.98567000  0.06317000  0.40930000  1.0
  H  H12  1  0.73841000  0.81895000  0.81102000  1.0
  H  H13  1  0.23842000  0.81895000  0.68898000  1.0
  H  H14  1  0.26159000  0.18105000  0.18899000  1.0
  H  H15  1  0.76159000  0.18105000  0.31102000  1.0
  H  H16  1  0.53048000  0.61215000  0.57879000  1.0
  H  H17  1  0.03049000  0.61216000  0.92121000  1.0
  H  H18  1  0.46952000  0.38785000  0.42121000  1.0
  H  H19  1  0.96952000  0.38785000  0.07879000  1.0
  H  H20  1  0.22596000  0.28737000  0.60969000  1.0
  H  H21  1  0.72596000  0.28738000  0.89031000  1.0
  H  H22  1  0.77405000  0.71263000  0.39031000  1.0
  H  H23  1  0.27404000  0.71263000  0.10969000  1.0
  H  H24  1  0.13461000  0.10050000  0.73788000  1.0
  H  H25  1  0.63462000  0.10051000  0.76212000  1.0
  H  H26  1  0.86538000  0.89950000  0.26212000  1.0
  H  H27  1  0.36539000  0.89950000  0.23788000  1.0
  C  C28  1  0.41125000  0.53507000  0.00504000  1.0
  C  C29  1  0.91129000  0.53507000  0.49495000  1.0
  C  C30  1  0.58868000  0.46492000  0.99495000  1.0
  C  C31  1  0.08872000  0.46492000  0.50505000  1.0
  C  C32  1  0.06047000  0.00204000  0.03960000  1.0
  C  C33  1  0.56046000  0.00203000  0.46040000  1.0
  C  C34  1  0.93956000  0.99797000  0.96039000  1.0
  C  C35  1  0.43956000  0.99796000  0.53961000  1.0
  C  C36  1  0.64607000  0.71262000  0.77719000  1.0
  C  C37  1  0.14607000  0.71262000  0.72281000  1.0
  C  C38  1  0.35393000  0.28738000  0.22281000  1.0
  C  C39  1  0.85394000  0.28738000  0.27719000  1.0
  C  C40  1  0.44069000  0.45521000  0.77866000  1.0
  C  C41  1  0.94070000  0.45522000  0.72135000  1.0
  C  C42  1  0.55931000  0.54478000  0.22135000  1.0
  C  C43  1  0.05930000  0.54478000  0.27865000  1.0
  C  C44  1  0.42403000  0.46061000  0.68991000  1.0
  C  C45  1  0.92403000  0.46062000  0.81009000  1.0
  C  C46  1  0.57598000  0.53939000  0.31009000  1.0
  C  C47  1  0.07597000  0.53939000  0.18991000  1.0
  C  C48  1  0.53222000  0.60103000  0.64705000  1.0
  C  C49  1  0.03222000  0.60104000  0.85295000  1.0
  C  C50  1  0.46778000  0.39897000  0.35295000  1.0
  C  C51  1  0.96778000  0.39897000  0.14705000  1.0
  C  C52  1  0.24072000  0.22192000  0.73864000  1.0
  C  C53  1  0.74073000  0.22192000  0.76136000  1.0
  C  C54  1  0.75927000  0.77808000  0.26136000  1.0
  C  C55  1  0.25927000  0.77808000  0.23865000  1.0
  N  N56  1  0.64419000  0.72674000  0.69246000  1.0
  N  N57  1  0.14420000  0.72675000  0.80754000  1.0
  N  N58  1  0.35581000  0.27326000  0.30754000  1.0
  N  N59  1  0.85581000  0.27326000  0.19246000  1.0
  N  N60  1  0.55012000  0.58200000  0.82361000  1.0
  N  N61  1  0.05013000  0.58201000  0.67639000  1.0
  N  N62  1  0.44988000  0.41800000  0.17639000  1.0
  N  N63  1  0.94988000  0.41800000  0.32361000  1.0
  N  N64  1  0.29556000  0.31141000  0.66743000  1.0
  N  N65  1  0.79556000  0.31141000  0.83257000  1.0
  N  N66  1  0.70444000  0.68859000  0.33257000  1.0
  N  N67  1  0.20444000  0.68859000  0.16743000  1.0
  N  N68  1  0.32622000  0.30242000  0.80722000  1.0
  N  N69  1  0.82623000  0.30243000  0.69278000  1.0
  N  N70  1  0.67378000  0.69757000  0.19278000  1.0
  N  N71  1  0.17378000  0.69758000  0.30722000  1.0
  O  O72  1  0.24997000  0.44682000  0.98409000  1.0
  O  O73  1  0.75001000  0.44682000  0.51592000  1.0
  O  O74  1  0.74997000  0.55317000  0.01592000  1.0
  O  O75  1  0.25000000  0.55318000  0.48409000  1.0
  O  O76  1  0.44160000  0.68619000  0.03497000  1.0
  O  O77  1  0.94165000  0.68619000  0.46502000  1.0
  O  O78  1  0.55831000  0.31381000  0.96501000  1.0
  O  O79  1  0.05835000  0.31380000  0.53498000  1.0
  O  O80  1  0.23511000  0.08283000  0.03531000  1.0
  O  O81  1  0.73511000  0.08282000  0.46469000  1.0
  O  O82  1  0.76490000  0.91718000  0.96468000  1.0
  O  O83  1  0.26490000  0.91718000  0.53532000  1.0
  O  O84  1  0.97800000  0.92498000  0.10375000  1.0
  O  O85  1  0.47799000  0.92498000  0.39625000  1.0
  O  O86  1  0.02204000  0.07502000  0.89625000  1.0
  O  O87  1  0.52203000  0.07501000  0.60375000  1.0
  O  O88  1  0.43327000  0.98159000  0.87147000  1.0
  O  O89  1  0.93327000  0.98159000  0.62853000  1.0
  O  O90  1  0.56674000  0.01840000  0.12853000  1.0
  O  O91  1  0.06674000  0.01841000  0.37147000  1.0
