# generated using pymatgen
data_Zn2H35C54N4Cl5O17
_symmetry_space_group_name_H-M   'P 1'
_cell_length_a   9.60117000
_cell_length_b   10.74200000
_cell_length_c   27.42280000
_cell_angle_alpha   90.53970000
_cell_angle_beta   90.85720000
_cell_angle_gamma   90.22110000
_symmetry_Int_Tables_number   1
_chemical_formula_structural   Zn2H35C54N4Cl5O17
_chemical_formula_sum   'Zn2 H35 C54 N4 Cl5 O17'
_cell_volume   2827.80693585
_cell_formula_units_Z   1
loop_
 _symmetry_equiv_pos_site_id
 _symmetry_equiv_pos_as_xyz
  1  'x, y, z'
loop_
 _atom_site_type_symbol
 _atom_site_label
 _atom_site_symmetry_multiplicity
 _atom_site_fract_x
 _atom_site_fract_y
 _atom_site_fract_z
 _atom_site_occupancy
  Zn  Zn0  1  0.63210000  0.48842000  0.50032000  1.0
  Zn  Zn1  1  0.33378000  0.47747000  0.50114000  1.0
  H  H2  1  0.63640000  0.67590000  0.37603000  1.0
  H  H3  1  0.26573000  0.85215000  0.12824000  1.0
  H  H4  1  0.65869000  0.66271000  0.63808000  1.0
  H  H5  1  0.68416000  0.72039000  0.72642000  1.0
  H  H6  1  0.25301000  0.82506000  0.87717000  1.0
  H  H7  1  0.26507000  0.85544000  0.96665000  1.0
  H  H8  1  0.26869000  0.86328000  0.03823000  1.0
  H  H9  1  0.87973000  0.55507000  0.13109000  1.0
  H  H10  1  0.87804000  0.54160000  0.97071000  1.0
  H  H11  1  0.85635000  0.51190000  0.88137000  1.0
  H  H12  1  0.34497000  0.47270000  0.75853000  1.0
  H  H13  1  0.89066000  0.56434000  0.04107000  1.0
  H  H14  1  0.69407000  0.86374000  0.47356000  1.0
  H  H15  1  0.28301000  0.89889000  0.52713000  1.0
  H  H16  1  0.70269000  0.08643000  0.53443000  1.0
  H  H17  1  0.48259000  0.07364000  0.57846000  1.0
  H  H18  1  0.70428000  0.07937000  0.47011000  1.0
  H  H19  1  0.32105000  0.10757000  0.54947000  1.0
  H  H20  1  0.49923000  0.88301000  0.42193000  1.0
  H  H21  1  0.32718000  0.87460000  0.44359000  1.0
  H  H22  1  0.47511000  0.09958000  0.42187000  1.0
  H  H23  1  0.31654000  0.09281000  0.45323000  1.0
  H  H24  1  0.12665000  0.66779000  0.47905000  1.0
  H  H25  1  0.88975000  0.68118000  0.49687000  1.0
  H  H26  1  0.11448000  0.44001000  0.57255000  1.0
  H  H27  1  0.86909000  0.40691000  0.56447000  1.0
  H  H28  1  0.09979000  0.59858000  0.55772000  1.0
  H  H29  1  0.85537000  0.57075000  0.56664000  1.0
  H  H30  1  0.07575000  0.29303000  0.51080000  1.0
  H  H31  1  0.83896000  0.29705000  0.49164000  1.0
  H  H32  1  0.24963000  0.37083000  0.69564000  1.0
  H  H33  1  0.19784000  0.54904000  0.41175000  1.0
  H  H34  1  0.90220000  0.59604000  0.40146000  1.0
  H  H35  1  0.06595000  0.33464000  0.41094000  1.0
  H  H36  1  0.76445000  0.38786000  0.41680000  1.0
  C  C37  1  0.47538000  0.71973000  0.49611000  1.0
  C  C38  1  0.48280000  0.48533000  0.40383000  1.0
  C  C39  1  0.49872000  0.24595000  0.50286000  1.0
  C  C40  1  0.48270000  0.51007000  0.59450000  1.0
  C  C41  1  0.44334000  0.73563000  0.18700000  1.0
  C  C42  1  0.67053000  0.62015000  0.18741000  1.0
  C  C43  1  0.44316000  0.51852000  0.26594000  1.0
  C  C44  1  0.42614000  0.47178000  0.31314000  1.0
  C  C45  1  0.58045000  0.63402000  0.34507000  1.0
  C  C46  1  0.59346000  0.68232000  0.29841000  1.0
  C  C47  1  0.52651000  0.62431000  0.25856000  1.0
  C  C48  1  0.57082000  0.70028000  0.10838000  1.0
  C  C49  1  0.45655000  0.75141000  0.13373000  1.0
  C  C50  1  0.35162000  0.81187000  0.10794000  1.0
  C  C51  1  0.68051000  0.64200000  0.13454000  1.0
  C  C52  1  0.49641000  0.52966000  0.35231000  1.0
  C  C53  1  0.48917000  0.53687000  0.64813000  1.0
  C  C54  1  0.45809000  0.75532000  0.97688000  1.0
  C  C55  1  0.68438000  0.64152000  0.97818000  1.0
  C  C56  1  0.56717000  0.69115000  0.95223000  1.0
  C  C57  1  0.34848000  0.80458000  0.94893000  1.0
  C  C58  1  0.34016000  0.78798000  0.89837000  1.0
  C  C59  1  0.44177000  0.72110000  0.87401000  1.0
  C  C60  1  0.55734000  0.67360000  0.90047000  1.0
  C  C61  1  0.66208000  0.60695000  0.87563000  1.0
  C  C62  1  0.64993000  0.58013000  0.82273000  1.0
  C  C63  1  0.42586000  0.69894000  0.82081000  1.0
  C  C64  1  0.60473000  0.65436000  0.71399000  1.0
  C  C65  1  0.59094000  0.62155000  0.66508000  1.0
  C  C66  1  0.39839000  0.48381000  0.68228000  1.0
  C  C67  1  0.41371000  0.51468000  0.73185000  1.0
  C  C68  1  0.51571000  0.59911000  0.74720000  1.0
  C  C69  1  0.46124000  0.76181000  0.03025000  1.0
  C  C70  1  0.57420000  0.70513000  0.05626000  1.0
  C  C71  1  0.68912000  0.65061000  0.03142000  1.0
  C  C72  1  0.35447000  0.81711000  0.05706000  1.0
  C  C73  1  0.79557000  0.59725000  0.10992000  1.0
  C  C74  1  0.78769000  0.58000000  0.95178000  1.0
  C  C75  1  0.77680000  0.56240000  0.90138000  1.0
  C  C76  1  0.79983000  0.60246000  0.05913000  1.0
  C  C77  1  0.63874000  0.90671000  0.50395000  1.0
  C  C78  1  0.39042000  0.91651000  0.53953000  1.0
  C  C79  1  0.64621000  0.05001000  0.50233000  1.0
  C  C80  1  0.41903000  0.05646000  0.54543000  1.0
  C  C81  1  0.43058000  0.91512000  0.45117000  1.0
  C  C82  1  0.48661000  0.86116000  0.50047000  1.0
  C  C83  1  0.49878000  0.10435000  0.50072000  1.0
  C  C84  1  0.42412000  0.05871000  0.45364000  1.0
  C  C85  1  0.06951000  0.58522000  0.46521000  1.0
  C  C86  1  0.90954000  0.60453000  0.47105000  1.0
  C  C87  1  0.05497000  0.35566000  0.48003000  1.0
  C  C88  1  0.89483000  0.37127000  0.47240000  1.0
  C  C89  1  0.06434000  0.50467000  0.54710000  1.0
  C  C90  1  0.90402000  0.49310000  0.54712000  1.0
  N  N91  1  0.54884000  0.66491000  0.20983000  1.0
  N  N92  1  0.53080000  0.62737000  0.79859000  1.0
  N  N93  1  0.11681000  0.47925000  0.49699000  1.0
  N  N94  1  0.84886000  0.49129000  0.49589000  1.0
  Cl  Cl95  1  0.36518000  0.44536000  0.21665000  1.0
  Cl  Cl96  1  0.73391000  0.84956000  0.55707000  1.0
  Cl  Cl97  1  0.39912000  0.84145000  0.59809000  1.0
  Cl  Cl98  1  0.69462000  0.81270000  0.28963000  1.0
  Cl  Cl99  1  0.32549000  0.34183000  0.32286000  1.0
  O  O100  1  0.58312000  0.66317000  0.48134000  1.0
  O  O101  1  0.35903000  0.66948000  0.50528000  1.0
  O  O102  1  0.58962000  0.43865000  0.42424000  1.0
  O  O103  1  0.36718000  0.50455000  0.42438000  1.0
  O  O104  1  0.61301000  0.30243000  0.51223000  1.0
  O  O105  1  0.38167000  0.29699000  0.49514000  1.0
  O  O106  1  0.59559000  0.52913000  0.57156000  1.0
  O  O107  1  0.36810000  0.47376000  0.57532000  1.0
  O  O108  1  0.34532000  0.77614000  0.21054000  1.0
  O  O109  1  0.32648000  0.73850000  0.79687000  1.0
  O  O110  1  0.75813000  0.56226000  0.21102000  1.0
  O  O111  1  0.73659000  0.51826000  0.80064000  1.0
  O  O112  1  0.29839000  0.40047000  0.66705000  1.0
  O  O113  1  0.09613000  0.56211000  0.41597000  1.0
  O  O114  1  0.84454000  0.63340000  0.42696000  1.0
  O  O115  1  0.11896000  0.30526000  0.43939000  1.0
  O  O116  1  0.86451000  0.36911000  0.42235000  1.0
