# generated using pymatgen
data_AgH3C4O3
_symmetry_space_group_name_H-M   'P 1'
_cell_length_a   6.70849000
_cell_length_b   8.44592255
_cell_length_c   9.77458000
_cell_angle_alpha   70.29667793
_cell_angle_beta   75.77800000
_cell_angle_gamma   67.14653868
_symmetry_Int_Tables_number   1
_chemical_formula_structural   AgH3C4O3
_chemical_formula_sum   'Ag4 H12 C16 O12'
_cell_volume   476.24637910
_cell_formula_units_Z   4
loop_
 _symmetry_equiv_pos_site_id
 _symmetry_equiv_pos_as_xyz
  1  'x, y, z'
loop_
 _atom_site_type_symbol
 _atom_site_label
 _atom_site_symmetry_multiplicity
 _atom_site_fract_x
 _atom_site_fract_y
 _atom_site_fract_z
 _atom_site_occupancy
  Ag  Ag0  1  0.95875000  0.64845000  0.05052000  1.0
  Ag  Ag1  1  0.04126000  0.35155000  0.94948000  1.0
  Ag  Ag2  1  0.39983000  0.37782000  0.09167000  1.0
  Ag  Ag3  1  0.60016000  0.62218000  0.90834000  1.0
  H  H4  1  0.28570000  0.24793000  0.43459000  1.0
  H  H5  1  0.71429000  0.75207000  0.56540000  1.0
  H  H6  1  0.73010000  0.03054000  0.04473000  1.0
  H  H7  1  0.26990000  0.96947000  0.95528000  1.0
  H  H8  1  0.89857000  0.00494000  0.13864000  1.0
  H  H9  1  0.10145000  0.99505000  0.86136000  1.0
  H  H10  1  0.21427000  0.00789000  0.63002000  1.0
  H  H11  1  0.78571000  0.99212000  0.36998000  1.0
  H  H12  1  0.38616000  0.01485000  0.17400000  1.0
  H  H13  1  0.61384000  0.98515000  0.82600000  1.0
  H  H14  1  0.25120000  0.56071000  0.49451000  1.0
  H  H15  1  0.74881000  0.43928000  0.50549000  1.0
  C  C16  1  0.15667000  0.68039000  0.73197000  1.0
  C  C17  1  0.84332000  0.31962000  0.26803000  1.0
  C  C18  1  0.22784000  0.77347000  0.57814000  1.0
  C  C19  1  0.77216000  0.22653000  0.42186000  1.0
  C  C20  1  0.24509000  0.94324000  0.54379000  1.0
  C  C21  1  0.75491000  0.05676000  0.45621000  1.0
  C  C22  1  0.29881000  0.02930000  0.39780000  1.0
  C  C23  1  0.70118000  0.97070000  0.60219000  1.0
  C  C24  1  0.34131000  0.94694000  0.28699000  1.0
  C  C25  1  0.65869000  0.05306000  0.71301000  1.0
  C  C26  1  0.32477000  0.77808000  0.32147000  1.0
  C  C27  1  0.67523000  0.22192000  0.67852000  1.0
  C  C28  1  0.26658000  0.69161000  0.46704000  1.0
  C  C29  1  0.73341000  0.30840000  0.53297000  1.0
  C  C30  1  0.37131000  0.68953000  0.20303000  1.0
  C  C31  1  0.62870000  0.31046000  0.79698000  1.0
  O  O32  1  0.10076000  0.76567000  0.82961000  1.0
  O  O33  1  0.89925000  0.23433000  0.17039000  1.0
  O  O34  1  0.15409000  0.52467000  0.75150000  1.0
  O  O35  1  0.84591000  0.47533000  0.24850000  1.0
  O  O36  1  0.30847000  0.19864000  0.35292000  1.0
  O  O37  1  0.69151000  0.80137000  0.64708000  1.0
  O  O38  1  0.44171000  0.76965000  0.07332000  1.0
  O  O39  1  0.55830000  0.23034000  0.92668000  1.0
  O  O40  1  0.33834000  0.54195000  0.23912000  1.0
  O  O41  1  0.66166000  0.45804000  0.76089000  1.0
  O  O42  1  0.82298000  0.93835000  0.11802000  1.0
  O  O43  1  0.17701000  0.06166000  0.88198000  1.0
