# generated using pymatgen
data_CaH13C10SNO6
_symmetry_space_group_name_H-M   'P 1'
_cell_length_a   6.54392000
_cell_length_b   10.47410000
_cell_length_c   18.47120000
_cell_angle_alpha   89.99960000
_cell_angle_beta   98.24100000
_cell_angle_gamma   89.99990000
_symmetry_Int_Tables_number   1
_chemical_formula_structural   CaH13C10SNO6
_chemical_formula_sum   'Ca4 H52 C40 S4 N4 O24'
_cell_volume   1252.97363142
_cell_formula_units_Z   4
loop_
 _symmetry_equiv_pos_site_id
 _symmetry_equiv_pos_as_xyz
  1  'x, y, z'
loop_
 _atom_site_type_symbol
 _atom_site_label
 _atom_site_symmetry_multiplicity
 _atom_site_fract_x
 _atom_site_fract_y
 _atom_site_fract_z
 _atom_site_occupancy
  Ca  Ca0  1  0.25115000  0.90485000  0.47604000  1.0
  Ca  Ca1  1  0.24885000  0.40484000  0.02396000  1.0
  Ca  Ca2  1  0.74885000  0.09515000  0.52396000  1.0
  Ca  Ca3  1  0.75116000  0.59516000  0.97604000  1.0
  H  H4  1  0.63197000  0.08460000  0.70382000  1.0
  H  H5  1  0.86804000  0.58460000  0.79617000  1.0
  H  H6  1  0.36803000  0.91541000  0.29617000  1.0
  H  H7  1  0.13196000  0.41543000  0.20383000  1.0
  H  H8  1  0.59084000  0.17931000  0.83407000  1.0
  H  H9  1  0.90918000  0.67930000  0.66593000  1.0
  H  H10  1  0.40916000  0.82069000  0.16593000  1.0
  H  H11  1  0.09082000  0.32071000  0.33408000  1.0
  H  H12  1  0.21835000  0.59911000  0.31339000  1.0
  H  H13  1  0.28164000  0.09911000  0.18661000  1.0
  H  H14  1  0.78164000  0.40088000  0.68662000  1.0
  H  H15  1  0.71836000  0.90089000  0.81339000  1.0
  H  H16  1  0.39663000  0.46936000  0.33274000  1.0
  H  H17  1  0.10335000  0.96936000  0.16726000  1.0
  H  H18  1  0.60337000  0.53064000  0.66726000  1.0
  H  H19  1  0.89664000  0.03064000  0.83274000  1.0
  H  H20  1  0.47350000  0.61210000  0.29275000  1.0
  H  H21  1  0.02649000  0.11210000  0.20725000  1.0
  H  H22  1  0.52648000  0.38790000  0.70725000  1.0
  H  H23  1  0.97351000  0.88790000  0.79275000  1.0
  H  H24  1  0.56217000  0.68026000  0.54261000  1.0
  H  H25  1  0.93784000  0.18026000  0.95739000  1.0
  H  H26  1  0.43786000  0.31975000  0.45739000  1.0
  H  H27  1  0.06216000  0.81974000  0.04261000  1.0
  H  H28  1  0.80881000  0.72338000  0.51946000  1.0
  H  H29  1  0.69119000  0.22339000  0.98053000  1.0
  H  H30  1  0.19121000  0.27661000  0.48053000  1.0
  H  H31  1  0.30881000  0.77661000  0.01947000  1.0
  H  H32  1  0.76629000  0.56534000  0.54988000  1.0
  H  H33  1  0.73371000  0.06534000  0.95012000  1.0
  H  H34  1  0.23372000  0.43466000  0.45012000  1.0
  H  H35  1  0.26629000  0.93465000  0.04988000  1.0
  H  H36  1  0.80647000  0.43641000  0.43965000  1.0
  H  H37  1  0.69352000  0.93641000  0.06035000  1.0
  H  H38  1  0.19352000  0.56358000  0.56035000  1.0
  H  H39  1  0.30647000  0.06359000  0.93965000  1.0
  H  H40  1  0.93306000  0.58203000  0.42136000  1.0
  H  H41  1  0.56693000  0.08203000  0.07864000  1.0
  H  H42  1  0.06692000  0.41796000  0.57864000  1.0
  H  H43  1  0.43307000  0.91797000  0.92136000  1.0
  H  H44  1  0.74184000  0.51588000  0.35384000  1.0
  H  H45  1  0.75815000  0.01589000  0.14616000  1.0
  H  H46  1  0.25815000  0.48411000  0.64615000  1.0
  H  H47  1  0.24184000  0.98411000  0.85384000  1.0
  H  H48  1  0.29341000  0.11869000  0.37265000  1.0
  H  H49  1  0.20659000  0.61869000  0.12735000  1.0
  H  H50  1  0.70659000  0.88130000  0.62735000  1.0
  H  H51  1  0.79342000  0.38131000  0.87265000  1.0
  H  H52  1  0.05583000  0.11471000  0.38703000  1.0
  H  H53  1  0.44417000  0.61470000  0.11297000  1.0
  H  H54  1  0.94417000  0.88530000  0.61297000  1.0
  H  H55  1  0.55583000  0.38530000  0.88703000  1.0
  C  C56  1  0.18219000  0.28033000  0.85308000  1.0
  C  C57  1  0.31783000  0.78032000  0.64692000  1.0
  C  C58  1  0.81781000  0.71967000  0.14692000  1.0
  C  C59  1  0.68218000  0.21968000  0.35308000  1.0
  C  C60  1  0.27736000  0.10035000  0.59136000  1.0
  C  C61  1  0.22264000  0.60036000  0.90864000  1.0
  C  C62  1  0.72264000  0.89964000  0.40864000  1.0
  C  C63  1  0.77736000  0.39965000  0.09136000  1.0
  C  C64  1  0.31095000  0.13708000  0.66893000  1.0
  C  C65  1  0.18905000  0.63708000  0.83107000  1.0
  C  C66  1  0.68903000  0.86291000  0.33108000  1.0
  C  C67  1  0.81096000  0.36293000  0.16893000  1.0
  C  C68  1  0.49131000  0.12695000  0.71834000  1.0
  C  C69  1  0.00870000  0.62695000  0.78166000  1.0
  C  C70  1  0.50869000  0.87305000  0.28166000  1.0
  C  C71  1  0.99131000  0.37307000  0.21834000  1.0
  C  C72  1  0.46840000  0.17706000  0.78762000  1.0
  C  C73  1  0.03161000  0.67705000  0.71238000  1.0
  C  C74  1  0.53160000  0.82295000  0.21238000  1.0
  C  C75  1  0.96839000  0.32297000  0.28762000  1.0
  C  C76  1  0.27074000  0.22329000  0.79047000  1.0
  C  C77  1  0.22928000  0.72328000  0.70953000  1.0
  C  C78  1  0.72926000  0.77671000  0.20953000  1.0
  C  C79  1  0.77073000  0.27673000  0.29047000  1.0
  C  C80  1  0.44080000  0.63001000  0.40742000  1.0
  C  C81  1  0.05920000  0.13000000  0.09258000  1.0
  C  C82  1  0.55920000  0.36999000  0.59258000  1.0
  C  C83  1  0.94080000  0.87000000  0.90742000  1.0
  C  C84  1  0.37924000  0.57372000  0.33233000  1.0
  C  C85  1  0.12075000  0.07372000  0.16767000  1.0
  C  C86  1  0.62075000  0.42627000  0.66768000  1.0
  C  C87  1  0.87925000  0.92628000  0.83233000  1.0
  C  C88  1  0.69444000  0.64631000  0.51815000  1.0
  C  C89  1  0.80556000  0.14631000  0.98185000  1.0
  C  C90  1  0.30558000  0.35369000  0.48185000  1.0
  C  C91  1  0.19444000  0.85369000  0.01815000  1.0
  C  C92  1  0.78543000  0.53003000  0.41252000  1.0
  C  C93  1  0.71457000  0.03003000  0.08748000  1.0
  C  C94  1  0.21456000  0.46996000  0.58748000  1.0
  C  C95  1  0.28543000  0.96997000  0.91252000  1.0
  S  S96  1  0.11289000  0.20311000  0.70854000  1.0
  S  S97  1  0.38711000  0.70312000  0.79146000  1.0
  S  S98  1  0.88710000  0.79688000  0.29146000  1.0
  S  S99  1  0.61290000  0.29689000  0.20854000  1.0
  N  N100  1  0.63021000  0.60379000  0.44334000  1.0
  N  N101  1  0.86979000  0.10380000  0.05666000  1.0
  N  N102  1  0.36979000  0.39620000  0.55666000  1.0
  N  N103  1  0.13021000  0.89620000  0.94334000  1.0
  O  O104  1  0.09739000  0.10831000  0.55520000  1.0
  O  O105  1  0.40260000  0.60831000  0.94480000  1.0
  O  O106  1  0.90259000  0.89168000  0.44480000  1.0
  O  O107  1  0.59741000  0.39168000  0.05520000  1.0
  O  O108  1  0.43051000  0.05926000  0.56224000  1.0
  O  O109  1  0.06949000  0.55927000  0.93776000  1.0
  O  O110  1  0.56948000  0.94073000  0.43776000  1.0
  O  O111  1  0.93051000  0.44074000  0.06224000  1.0
  O  O112  1  0.31138000  0.31734000  0.90809000  1.0
  O  O113  1  0.18863000  0.81734000  0.59191000  1.0
  O  O114  1  0.68862000  0.68266000  0.09191000  1.0
  O  O115  1  0.81137000  0.18266000  0.40809000  1.0
  O  O116  1  0.98756000  0.28565000  0.84743000  1.0
  O  O117  1  0.51246000  0.78564000  0.65257000  1.0
  O  O118  1  0.01244000  0.71435000  0.15257000  1.0
  O  O119  1  0.48755000  0.21437000  0.34743000  1.0
  O  O120  1  0.17963000  0.06210000  0.38342000  1.0
  O  O121  1  0.32037000  0.56210000  0.11658000  1.0
  O  O122  1  0.82037000  0.93790000  0.61658000  1.0
  O  O123  1  0.67963000  0.43790000  0.88342000  1.0
  O  O124  1  0.31423000  0.69809000  0.43607000  1.0
  O  O125  1  0.18576000  0.19809000  0.06393000  1.0
  O  O126  1  0.68577000  0.30191000  0.56393000  1.0
  O  O127  1  0.81424000  0.80191000  0.93607000  1.0
