# generated using pymatgen
data_ZnH5C7NO5
_symmetry_space_group_name_H-M   'P 1'
_cell_length_a   7.53725000
_cell_length_b   8.57752000
_cell_length_c   13.16720000
_cell_angle_alpha   90.00020000
_cell_angle_beta   90.00010000
_cell_angle_gamma   69.52300000
_symmetry_Int_Tables_number   1
_chemical_formula_structural   ZnH5C7NO5
_chemical_formula_sum   'Zn4 H20 C28 N4 O20'
_cell_volume   797.48194582
_cell_formula_units_Z   4
loop_
 _symmetry_equiv_pos_site_id
 _symmetry_equiv_pos_as_xyz
  1  'x, y, z'
loop_
 _atom_site_type_symbol
 _atom_site_label
 _atom_site_symmetry_multiplicity
 _atom_site_fract_x
 _atom_site_fract_y
 _atom_site_fract_z
 _atom_site_occupancy
  Zn  Zn0  1  0.08683000  0.00739000  0.79599000  1.0
  Zn  Zn1  1  0.41317000  0.49261000  0.29599000  1.0
  Zn  Zn2  1  0.91317000  0.99261000  0.20401000  1.0
  Zn  Zn3  1  0.58683000  0.50739000  0.70401000  1.0
  H  H4  1  0.19757000  0.97398000  0.98975000  1.0
  H  H5  1  0.30243000  0.52602000  0.48975000  1.0
  H  H6  1  0.80243000  0.02602000  0.01025000  1.0
  H  H7  1  0.69757000  0.47398000  0.51025000  1.0
  H  H8  1  0.37416000  0.94917000  0.91329000  1.0
  H  H9  1  0.12584000  0.55083000  0.41329000  1.0
  H  H10  1  0.62584000  0.05083000  0.08671000  1.0
  H  H11  1  0.87416000  0.44917000  0.58671000  1.0
  H  H12  1  0.58782000  0.82139000  0.51222000  1.0
  H  H13  1  0.91219000  0.67861000  0.01221000  1.0
  H  H14  1  0.41218000  0.17861000  0.48779000  1.0
  H  H15  1  0.08782000  0.32139000  0.98778000  1.0
  H  H16  1  0.90248000  0.81425000  0.45049000  1.0
  H  H17  1  0.59752000  0.68575000  0.95049000  1.0
  H  H18  1  0.09751000  0.18575000  0.54951000  1.0
  H  H19  1  0.40248000  0.31425000  0.04951000  1.0
  H  H20  1  0.12672000  0.87155000  0.57439000  1.0
  H  H21  1  0.37328000  0.62845000  0.07439000  1.0
  H  H22  1  0.87328000  0.12845000  0.42561000  1.0
  H  H23  1  0.62672000  0.37155000  0.92561000  1.0
  C  C24  1  0.44651000  0.88824000  0.70292000  1.0
  C  C25  1  0.05349000  0.61175000  0.20292000  1.0
  C  C26  1  0.55349000  0.11176000  0.29708000  1.0
  C  C27  1  0.94651000  0.38825000  0.79708000  1.0
  C  C28  1  0.63699000  0.88577000  0.66620000  1.0
  C  C29  1  0.86301000  0.61423000  0.16620000  1.0
  C  C30  1  0.36301000  0.11423000  0.33380000  1.0
  C  C31  1  0.13699000  0.38577000  0.83380000  1.0
  C  C32  1  0.68588000  0.84870000  0.56409000  1.0
  C  C33  1  0.81412000  0.65129000  0.06409000  1.0
  C  C34  1  0.31412000  0.15130000  0.43591000  1.0
  C  C35  1  0.18588000  0.34870000  0.93591000  1.0
  C  C36  1  0.86186000  0.84408000  0.52926000  1.0
  C  C37  1  0.63813000  0.65592000  0.02926000  1.0
  C  C38  1  0.13813000  0.15592000  0.47074000  1.0
  C  C39  1  0.36187000  0.34408000  0.97074000  1.0
  C  C40  1  0.77026000  0.91604000  0.73001000  1.0
  C  C41  1  0.72974000  0.58396000  0.23001000  1.0
  C  C42  1  0.22974000  0.08396000  0.26999000  1.0
  C  C43  1  0.27026000  0.41604000  0.76999000  1.0
  C  C44  1  0.73631000  0.94908000  0.84224000  1.0
  C  C45  1  0.76370000  0.55092000  0.34225000  1.0
  C  C46  1  0.26370000  0.05092000  0.15776000  1.0
  C  C47  1  0.23630000  0.44908000  0.65775000  1.0
  C  C48  1  0.98632000  0.87579000  0.59740000  1.0
  C  C49  1  0.51368000  0.62421000  0.09740000  1.0
  C  C50  1  0.01368000  0.12421000  0.40260000  1.0
  C  C51  1  0.48632000  0.37579000  0.90260000  1.0
  N  N52  1  0.94012000  0.91196000  0.69506000  1.0
  N  N53  1  0.55988000  0.58804000  0.19506000  1.0
  N  N54  1  0.05988000  0.08804000  0.30494000  1.0
  N  N55  1  0.44012000  0.41196000  0.80494000  1.0
  O  O56  1  0.31245000  0.02781000  0.70926000  1.0
  O  O57  1  0.18756000  0.47219000  0.20926000  1.0
  O  O58  1  0.68755000  0.97219000  0.29074000  1.0
  O  O59  1  0.81245000  0.52781000  0.79074000  1.0
  O  O60  1  0.24861000  0.93683000  0.91967000  1.0
  O  O61  1  0.25139000  0.56317000  0.41967000  1.0
  O  O62  1  0.75139000  0.06317000  0.08033000  1.0
  O  O63  1  0.74862000  0.43683000  0.58033000  1.0
  O  O64  1  0.42263000  0.75082000  0.71935000  1.0
  O  O65  1  0.07737000  0.74918000  0.21936000  1.0
  O  O66  1  0.57737000  0.24918000  0.28064000  1.0
  O  O67  1  0.92263000  0.25082000  0.78064000  1.0
  O  O68  1  0.86880000  0.97738000  0.89196000  1.0
  O  O69  1  0.63119000  0.52263000  0.39196000  1.0
  O  O70  1  0.13119000  0.02262000  0.10804000  1.0
  O  O71  1  0.36881000  0.47738000  0.60804000  1.0
  O  O72  1  0.58657000  0.94479000  0.88032000  1.0
  O  O73  1  0.91343000  0.55520000  0.38032000  1.0
  O  O74  1  0.41343000  0.05521000  0.11968000  1.0
  O  O75  1  0.08657000  0.44479000  0.61968000  1.0
