# generated using pymatgen
data_Zn2H26C37(N4F)2
_symmetry_space_group_name_H-M   'P 1'
_cell_length_a   15.40970000
_cell_length_b   17.69680000
_cell_length_c   18.52659745
_cell_angle_alpha   66.56935801
_cell_angle_beta   67.89615207
_cell_angle_gamma   83.22770000
_symmetry_Int_Tables_number   1
_chemical_formula_structural   Zn2H26C37(N4F)2
_chemical_formula_sum   'Zn4 H52 C74 N16 F4'
_cell_volume   4291.95732712
_cell_formula_units_Z   2
loop_
 _symmetry_equiv_pos_site_id
 _symmetry_equiv_pos_as_xyz
  1  'x, y, z'
loop_
 _atom_site_type_symbol
 _atom_site_label
 _atom_site_symmetry_multiplicity
 _atom_site_fract_x
 _atom_site_fract_y
 _atom_site_fract_z
 _atom_site_occupancy
  Zn  Zn0  1  0.37179000  0.10440000  0.01348000  1.0
  Zn  Zn1  1  0.61187000  0.94767000  0.98459000  1.0
  Zn  Zn2  1  0.46739000  0.99637000  0.89363000  1.0
  Zn  Zn3  1  0.53030000  0.05640000  0.10040000  1.0
  H  H4  1  0.14739000  0.07591000  0.04746000  1.0
  H  H5  1  0.26366000  0.83936000  0.41485000  1.0
  H  H6  1  0.08474000  0.94430000  0.27068000  1.0
  H  H7  1  0.94648000  0.90768000  0.40244000  1.0
  H  H8  1  0.84191000  0.79502000  0.55027000  1.0
  H  H9  1  0.90148000  0.94448000  0.70414000  1.0
  H  H10  1  0.03339000  0.91696000  0.59210000  1.0
  H  H11  1  0.47118000  0.44902000  0.37799000  1.0
  H  H12  1  0.51905000  0.57734000  0.25310000  1.0
  H  H13  1  0.42780000  0.71592000  0.41251000  1.0
  H  H14  1  0.38077000  0.58795000  0.53737000  1.0
  H  H15  1  0.78954000  0.89943000  0.84730000  1.0
  H  H16  1  0.31898000  0.47109000  0.63834000  1.0
  H  H17  1  0.33665000  0.84090000  0.98923000  1.0
  H  H18  1  0.53283000  0.37089000  0.47190000  1.0
  H  H19  1  0.49360000  0.60902000  0.13533000  1.0
  H  H20  1  0.32585000  0.71778000  0.98071000  1.0
  H  H21  1  0.52350000  0.45977000  0.17820000  1.0
  H  H22  1  0.30488000  0.58341000  0.97865000  1.0
  H  H23  1  0.51253000  0.32753000  0.16678000  1.0
  H  H24  1  0.34776000  0.43719000  0.00962000  1.0
  H  H25  1  0.79135000  0.84235000  0.01995000  1.0
  H  H26  1  0.54604000  0.13754000  0.71646000  1.0
  H  H27  1  0.37920000  0.95273000  0.29952000  1.0
  H  H28  1  0.69427000  0.90167000  0.24097000  1.0
  H  H29  1  0.85257000  0.96002000  0.20140000  1.0
  H  H30  1  0.11363000  0.93170000  0.88280000  1.0
  H  H31  1  0.01638000  0.98932000  0.10624000  1.0
  H  H32  1  0.55621000  0.74552000  0.09048000  1.0
  H  H33  1  0.22501000  0.95633000  0.14508000  1.0
  H  H34  1  0.43279000  0.83145000  0.28501000  1.0
  H  H35  1  0.30222000  0.28631000  0.04866000  1.0
  H  H36  1  0.77494000  0.53856000  0.18383000  1.0
  H  H37  1  0.73226000  0.13429000  0.06868000  1.0
  H  H38  1  0.86244000  0.61855000  0.11830000  1.0
  H  H39  1  0.86008000  0.55322000  0.22078000  1.0
  H  H40  1  0.79294000  0.69156000  0.21911000  1.0
  H  H41  1  0.70619000  0.61156000  0.28551000  1.0
  H  H42  1  0.64978000  0.64048000  0.16702000  1.0
  H  H43  1  0.73534000  0.71984000  0.10117000  1.0
  H  H44  1  0.50716000  0.75464000  0.81335000  1.0
  H  H45  1  0.53502000  0.68191000  0.76460000  1.0
  H  H46  1  0.53597000  0.65340000  0.86766000  1.0
  H  H47  1  0.70173000  0.67951000  0.76522000  1.0
  H  H48  1  0.80879000  0.03665000  0.87429000  1.0
  H  H49  1  0.67044000  0.75446000  0.80993000  1.0
  H  H50  1  0.62999000  0.84679000  0.67834000  1.0
  H  H51  1  0.68428000  0.77471000  0.63357000  1.0
  H  H52  1  0.40201000  0.27867000  0.86936000  1.0
  H  H53  1  0.56234000  0.23491000  0.09533000  1.0
  H  H54  1  0.59262000  0.94401000  0.71987000  1.0
  H  H55  1  0.12518000  0.80562000  0.54656000  1.0
  C  C56  1  0.19335000  0.04819000  0.00450000  1.0
  C  C57  1  0.43789000  0.23334000  0.84375000  1.0
  C  C58  1  0.49801000  0.23451000  0.08424000  1.0
  C  C59  1  0.62236000  0.74692000  0.19629000  1.0
  C  C60  1  0.62959000  0.93532000  0.76201000  1.0
  C  C61  1  0.43045000  0.29492000  0.07674000  1.0
  C  C62  1  0.72115000  0.90916000  0.75590000  1.0
  C  C63  1  0.46776000  0.23705000  0.76039000  1.0
  C  C64  1  0.81447000  0.10188000  0.95558000  1.0
  C  C65  1  0.11619000  0.83609000  0.48590000  1.0
  C  C66  1  0.19427000  0.85560000  0.41155000  1.0
  C  C67  1  0.53110000  0.73425000  0.25574000  1.0
  C  C68  1  0.18547000  0.89819000  0.33249000  1.0
  C  C69  1  0.09423000  0.91197000  0.33096000  1.0
  C  C70  1  0.01598000  0.89123000  0.40530000  1.0
  C  C71  1  0.39478000  0.83067000  0.01116000  1.0
  C  C72  1  0.02578000  0.85696000  0.48437000  1.0
  C  C73  1  0.85504000  0.82819000  0.58409000  1.0
  C  C74  1  0.77955000  0.84006000  0.64995000  1.0
  C  C75  1  0.79572000  0.88580000  0.69175000  1.0
  C  C76  1  0.88833000  0.90997000  0.67165000  1.0
  C  C77  1  0.96277000  0.89452000  0.60866000  1.0
  C  C78  1  0.43421000  0.75635000  0.04801000  1.0
  C  C79  1  0.94681000  0.85644000  0.56098000  1.0
  C  C80  1  0.46302000  0.50741000  0.38636000  1.0
  C  C81  1  0.49016000  0.58045000  0.31526000  1.0
  C  C82  1  0.48329000  0.65706000  0.32288000  1.0
  C  C83  1  0.35427000  0.95931000  0.24984000  1.0
  C  C84  1  0.43637000  0.65741000  0.40435000  1.0
  C  C85  1  0.40971000  0.58460000  0.47525000  1.0
  C  C86  1  0.42834000  0.50751000  0.46832000  1.0
  C  C87  1  0.37175000  0.42667000  0.62578000  1.0
  C  C88  1  0.38622000  0.36349000  0.69374000  1.0
  C  C89  1  0.26750000  0.93439000  0.25572000  1.0
  C  C90  1  0.45195000  0.30152000  0.68777000  1.0
  C  C91  1  0.49889000  0.30751000  0.60409000  1.0
  C  C92  1  0.48803000  0.36976000  0.53389000  1.0
  C  C93  1  0.42557000  0.43283000  0.54312000  1.0
  C  C94  1  0.41306000  0.67372000  0.05743000  1.0
  C  C95  1  0.50658000  0.78195000  0.06308000  1.0
  C  C96  1  0.43023000  0.37327000  0.08591000  1.0
  C  C97  1  0.48505000  0.45500000  0.14115000  1.0
  C  C98  1  0.47936000  0.38132000  0.13431000  1.0
  C  C99  1  0.38509000  0.44131000  0.04778000  1.0
  C  C100  1  0.36614000  0.26104000  0.05922000  1.0
  C  C101  1  0.38933000  0.51786000  0.05391000  1.0
  C  C102  1  0.44209000  0.52599000  0.10005000  1.0
  C  C103  1  0.45202000  0.60402000  0.10089000  1.0
  C  C104  1  0.35743000  0.66395000  0.01497000  1.0
  C  C105  1  0.34593000  0.58883000  0.01334000  1.0
  C  C106  1  0.73471000  0.86699000  0.13373000  1.0
  C  C107  1  0.27485000  0.96248000  0.17118000  1.0
  C  C108  1  0.07654000  0.96537000  0.99236000  1.0
  C  C109  1  0.97090000  0.90061000  0.96383000  1.0
  C  C110  1  0.05883000  0.93205000  0.94063000  1.0
  C  C111  1  0.73029000  0.91448000  0.82636000  1.0
  C  C112  1  0.00412000  0.96498000  0.06515000  1.0
  C  C113  1  0.91383000  0.93276000  0.08877000  1.0
  C  C114  1  0.89524000  0.89857000  0.03749000  1.0
  C  C115  1  0.80458000  0.86635000  0.06073000  1.0
  C  C116  1  0.75192000  0.90129000  0.18465000  1.0
  C  C117  1  0.83934000  0.93327000  0.16249000  1.0
  C  C118  1  0.50181000  0.81436000  0.25222000  1.0
  C  C119  1  0.25745000  0.98516000  0.91851000  1.0
  C  C120  1  0.16917000  0.99827000  0.97117000  1.0
  C  C121  1  0.68978000  0.68789000  0.16723000  1.0
  C  C122  1  0.51160000  0.16141000  0.76550000  1.0
  C  C123  1  0.75148000  0.64475000  0.21949000  1.0
  C  C124  1  0.81591000  0.58546000  0.18388000  1.0
  C  C125  1  0.68430000  0.80047000  0.67873000  1.0
  C  C126  1  0.65616000  0.73196000  0.76788000  1.0
  C  C127  1  0.55318000  0.70377000  0.80525000  1.0
  C  C128  1  0.73811000  0.10349000  0.02656000  1.0
  C  C129  1  0.77751000  0.05446000  0.92839000  1.0
  N  N130  1  0.28661000  0.06146000  0.97471000  1.0
  N  N131  1  0.44086000  0.89532000  0.00377000  1.0
  N  N132  1  0.40771000  0.99875000  0.16835000  1.0
  N  N133  1  0.50946000  0.86472000  0.03667000  1.0
  N  N134  1  0.35888000  0.00175000  0.11933000  1.0
  N  N135  1  0.56862000  0.87217000  0.19883000  1.0
  N  N136  1  0.32738000  0.02141000  0.92023000  1.0
  N  N137  1  0.39279000  0.18596000  0.05825000  1.0
  N  N138  1  0.65077000  0.94087000  0.87055000  1.0
  N  N139  1  0.50533000  0.11619000  0.84571000  1.0
  N  N140  1  0.66229000  0.05779000  0.04329000  1.0
  N  N141  1  0.68679000  0.02712000  0.98074000  1.0
  N  N142  1  0.46026000  0.16087000  0.89375000  1.0
  N  N143  1  0.47503000  0.17015000  0.07298000  1.0
  N  N144  1  0.58805000  0.95358000  0.83112000  1.0
  N  N145  1  0.64300000  0.83082000  0.16414000  1.0
  F  F146  1  0.33257000  0.36202000  0.77232000  1.0
  F  F147  1  0.56282000  0.24953000  0.59000000  1.0
  F  F148  1  0.95439000  0.86935000  0.91310000  1.0
  F  F149  1  0.27857000  0.93984000  0.87049000  1.0
