# generated using pymatgen
data_KH5C4(NO)4
_symmetry_space_group_name_H-M   'P 1'
_cell_length_a   5.05111000
_cell_length_b   11.62720000
_cell_length_c   13.37460000
_cell_angle_alpha   90.00000000
_cell_angle_beta   90.00010000
_cell_angle_gamma   99.90120000
_symmetry_Int_Tables_number   1
_chemical_formula_structural   KH5C4(NO)4
_chemical_formula_sum   'K4 H20 C16 N16 O16'
_cell_volume   773.79445732
_cell_formula_units_Z   4
loop_
 _symmetry_equiv_pos_site_id
 _symmetry_equiv_pos_as_xyz
  1  'x, y, z'
loop_
 _atom_site_type_symbol
 _atom_site_label
 _atom_site_symmetry_multiplicity
 _atom_site_fract_x
 _atom_site_fract_y
 _atom_site_fract_z
 _atom_site_occupancy
  K  K0  1  0.92929000  0.36725000  0.13007000  1.0
  K  K1  1  0.57071000  0.13276000  0.63007000  1.0
  K  K2  1  0.07070000  0.63275000  0.86993000  1.0
  K  K3  1  0.42929000  0.86725000  0.36993000  1.0
  H  H4  1  0.16406000  0.31052000  0.73892000  1.0
  H  H5  1  0.33594000  0.18948000  0.23892000  1.0
  H  H6  1  0.83594000  0.68948000  0.26108000  1.0
  H  H7  1  0.66406000  0.81052000  0.76108000  1.0
  H  H8  1  0.20552000  0.49165000  0.64396000  1.0
  H  H9  1  0.29448000  0.00835000  0.14396000  1.0
  H  H10  1  0.79448000  0.50835000  0.35604000  1.0
  H  H11  1  0.70552000  0.99165000  0.85604000  1.0
  H  H12  1  0.32110000  0.39416000  0.55698000  1.0
  H  H13  1  0.17890000  0.10584000  0.05698000  1.0
  H  H14  1  0.67891000  0.60584000  0.44302000  1.0
  H  H15  1  0.82110000  0.89416000  0.94302000  1.0
  H  H16  1  0.78520000  0.47303000  0.59144000  1.0
  H  H17  1  0.71480000  0.02697000  0.09144000  1.0
  H  H18  1  0.21480000  0.52697000  0.40856000  1.0
  H  H19  1  0.28520000  0.97303000  0.90856000  1.0
  H  H20  1  0.65380000  0.59812000  0.63186000  1.0
  H  H21  1  0.84620000  0.90188000  0.13186000  1.0
  H  H22  1  0.34620000  0.40188000  0.36814000  1.0
  H  H23  1  0.15380000  0.09812000  0.86814000  1.0
  C  C24  1  0.35658000  0.43569000  0.63032000  1.0
  C  C25  1  0.14342000  0.06431000  0.13032000  1.0
  C  C26  1  0.64342000  0.56431000  0.36968000  1.0
  C  C27  1  0.85658000  0.93569000  0.86968000  1.0
  C  C28  1  0.64404000  0.50417000  0.64361000  1.0
  C  C29  1  0.85596000  0.99583000  0.14361000  1.0
  C  C30  1  0.35596000  0.49583000  0.35639000  1.0
  C  C31  1  0.14404000  0.00417000  0.85638000  1.0
  C  C32  1  0.56403000  0.33597000  0.87515000  1.0
  C  C33  1  0.93597000  0.16404000  0.37515000  1.0
  C  C34  1  0.43597000  0.66404000  0.12485000  1.0
  C  C35  1  0.06402000  0.83596000  0.62485000  1.0
  C  C36  1  0.54605000  0.39241000  0.77699000  1.0
  C  C37  1  0.95395000  0.10759000  0.27699000  1.0
  C  C38  1  0.45395000  0.60759000  0.22301000  1.0
  C  C39  1  0.04605000  0.89241000  0.72301000  1.0
  N  N40  1  0.73323000  0.25435000  0.88382000  1.0
  N  N41  1  0.76677000  0.24565000  0.38382000  1.0
  N  N42  1  0.26677000  0.74565000  0.11618000  1.0
  N  N43  1  0.23323000  0.75435000  0.61618000  1.0
  N  N44  1  0.40416000  0.36211000  0.95304000  1.0
  N  N45  1  0.09584000  0.13789000  0.45304000  1.0
  N  N46  1  0.59584000  0.63789000  0.04696000  1.0
  N  N47  1  0.90416000  0.86211000  0.54696000  1.0
  N  N48  1  0.34676000  0.34768000  0.71019000  1.0
  N  N49  1  0.15324000  0.15232000  0.21019000  1.0
  N  N50  1  0.65324000  0.65232000  0.28981000  1.0
  N  N51  1  0.84676000  0.84768000  0.78981000  1.0
  N  N52  1  0.72249000  0.47997000  0.74713000  1.0
  N  N53  1  0.77751000  0.02004000  0.24713000  1.0
  N  N54  1  0.27751000  0.52004000  0.25287000  1.0
  N  N55  1  0.22249000  0.97996000  0.75287000  1.0
  O  O56  1  0.41438000  0.32095000  0.03977000  1.0
  O  O57  1  0.08562000  0.17905000  0.53977000  1.0
  O  O58  1  0.58562000  0.67905000  0.96023000  1.0
  O  O59  1  0.91439000  0.82095000  0.46023000  1.0
  O  O60  1  0.83417000  0.22539000  0.80174000  1.0
  O  O61  1  0.66582000  0.27461000  0.30174000  1.0
  O  O62  1  0.16583000  0.77461000  0.19826000  1.0
  O  O63  1  0.33417000  0.72539000  0.69826000  1.0
  O  O64  1  0.23920000  0.43002000  0.93222000  1.0
  O  O65  1  0.26079000  0.06998000  0.43222000  1.0
  O  O66  1  0.76079000  0.56998000  0.06778000  1.0
  O  O67  1  0.73921000  0.93002000  0.56778000  1.0
  O  O68  1  0.78575000  0.20993000  0.96520000  1.0
  O  O69  1  0.71424000  0.29007000  0.46520000  1.0
  O  O70  1  0.21424000  0.79007000  0.03480000  1.0
  O  O71  1  0.28576000  0.70993000  0.53480000  1.0
