# generated using pymatgen
data_ZnH13C12N9O
_symmetry_space_group_name_H-M   'P 1'
_cell_length_a   8.62742000
_cell_length_b   12.67560000
_cell_length_c   13.88870000
_cell_angle_alpha   81.90470000
_cell_angle_beta   89.99990000
_cell_angle_gamma   89.99960000
_symmetry_Int_Tables_number   1
_chemical_formula_structural   ZnH13C12N9O
_chemical_formula_sum   'Zn4 H52 C48 N36 O4'
_cell_volume   1503.70175032
_cell_formula_units_Z   4
loop_
 _symmetry_equiv_pos_site_id
 _symmetry_equiv_pos_as_xyz
  1  'x, y, z'
loop_
 _atom_site_type_symbol
 _atom_site_label
 _atom_site_symmetry_multiplicity
 _atom_site_fract_x
 _atom_site_fract_y
 _atom_site_fract_z
 _atom_site_occupancy
  Zn  Zn0  1  0.76323000  0.57061000  0.71612000  1.0
  Zn  Zn1  1  0.26322000  0.92940000  0.28388000  1.0
  Zn  Zn2  1  0.23677000  0.42939000  0.28388000  1.0
  Zn  Zn3  1  0.73677000  0.07060000  0.71612000  1.0
  H  H4  1  0.36306000  0.78493000  0.01908000  1.0
  H  H5  1  0.86306000  0.71507000  0.98092000  1.0
  H  H6  1  0.63693000  0.21507000  0.98092000  1.0
  H  H7  1  0.13694000  0.28493000  0.01908000  1.0
  H  H8  1  0.71888000  0.50577000  0.14540000  1.0
  H  H9  1  0.21889000  0.99422000  0.85460000  1.0
  H  H10  1  0.28112000  0.49423000  0.85460000  1.0
  H  H11  1  0.78113000  0.00578000  0.14540000  1.0
  H  H12  1  0.37475000  0.79286000  0.83974000  1.0
  H  H13  1  0.87475000  0.70715000  0.16026000  1.0
  H  H14  1  0.62524000  0.20714000  0.16026000  1.0
  H  H15  1  0.12525000  0.29286000  0.83973000  1.0
  H  H16  1  0.89471000  0.38745000  0.06319000  1.0
  H  H17  1  0.39472000  0.11254000  0.93681000  1.0
  H  H18  1  0.10529000  0.61255000  0.93681000  1.0
  H  H19  1  0.60530000  0.88746000  0.06319000  1.0
  H  H20  1  0.90378000  0.41120000  0.88148000  1.0
  H  H21  1  0.40379000  0.08881000  0.11852000  1.0
  H  H22  1  0.09622000  0.58880000  0.11852000  1.0
  H  H23  1  0.59622000  0.91120000  0.88148000  1.0
  H  H24  1  0.68635000  0.46319000  0.47236000  1.0
  H  H25  1  0.18634000  0.03680000  0.52763000  1.0
  H  H26  1  0.31366000  0.53681000  0.52764000  1.0
  H  H27  1  0.81366000  0.96319000  0.47237000  1.0
  H  H28  1  0.82506000  0.55794000  0.50068000  1.0
  H  H29  1  0.32506000  0.94206000  0.49932000  1.0
  H  H30  1  0.17494000  0.44206000  0.49932000  1.0
  H  H31  1  0.67494000  0.05794000  0.50068000  1.0
  H  H32  1  0.92691000  0.37331000  0.54202000  1.0
  H  H33  1  0.42691000  0.12669000  0.45799000  1.0
  H  H34  1  0.07309000  0.62669000  0.45798000  1.0
  H  H35  1  0.57309000  0.87331000  0.54202000  1.0
  H  H36  1  0.76261000  0.33552000  0.61360000  1.0
  H  H37  1  0.26261000  0.16447000  0.38640000  1.0
  H  H38  1  0.23739000  0.66448000  0.38640000  1.0
  H  H39  1  0.73739000  0.83552000  0.61360000  1.0
  H  H40  1  0.59224000  0.60806000  0.55882000  1.0
  H  H41  1  0.09224000  0.89193000  0.44117000  1.0
  H  H42  1  0.40776000  0.39194000  0.44118000  1.0
  H  H43  1  0.90776000  0.10806000  0.55883000  1.0
  H  H44  1  0.55122000  0.48706000  0.61860000  1.0
  H  H45  1  0.05121000  0.01293000  0.38140000  1.0
  H  H46  1  0.44879000  0.51294000  0.38140000  1.0
  H  H47  1  0.94879000  0.98706000  0.61860000  1.0
  H  H48  1  0.92904000  0.36768000  0.72513000  1.0
  H  H49  1  0.42904000  0.13232000  0.27487000  1.0
  H  H50  1  0.07096000  0.63232000  0.27487000  1.0
  H  H51  1  0.57096000  0.86768000  0.72513000  1.0
  H  H52  1  0.01627000  0.46926000  0.66168000  1.0
  H  H53  1  0.51627000  0.03073000  0.33832000  1.0
  H  H54  1  0.98373000  0.53074000  0.33832000  1.0
  H  H55  1  0.48373000  0.96926000  0.66168000  1.0
  C  C56  1  0.63546000  0.59066000  0.00953000  1.0
  C  C57  1  0.13546000  0.90934000  0.99046000  1.0
  C  C58  1  0.36454000  0.40934000  0.99047000  1.0
  C  C59  1  0.86454000  0.09067000  0.00953000  1.0
  C  C60  1  0.55993000  0.67681000  0.84168000  1.0
  C  C61  1  0.05993000  0.82320000  0.15831000  1.0
  C  C62  1  0.44007000  0.32319000  0.15832000  1.0
  C  C63  1  0.94007000  0.17681000  0.84168000  1.0
  C  C64  1  0.53559000  0.66362000  0.05019000  1.0
  C  C65  1  0.03559000  0.83638000  0.94981000  1.0
  C  C66  1  0.46440000  0.33638000  0.94981000  1.0
  C  C67  1  0.96441000  0.16362000  0.05019000  1.0
  C  C68  1  0.44310000  0.73374000  0.98653000  1.0
  C  C69  1  0.94310000  0.76626000  0.01347000  1.0
  C  C70  1  0.55689000  0.26626000  0.01347000  1.0
  C  C71  1  0.05691000  0.23374000  0.98653000  1.0
  C  C72  1  0.64772000  0.59813000  0.90687000  1.0
  C  C73  1  0.14772000  0.90187000  0.09312000  1.0
  C  C74  1  0.35227000  0.40187000  0.09313000  1.0
  C  C75  1  0.85228000  0.09813000  0.90687000  1.0
  C  C76  1  0.72735000  0.51308000  0.06648000  1.0
  C  C77  1  0.22734000  0.98691000  0.93351000  1.0
  C  C78  1  0.27264000  0.48692000  0.93352000  1.0
  C  C79  1  0.77266000  0.01309000  0.06648000  1.0
  C  C80  1  0.45158000  0.73953000  0.88648000  1.0
  C  C81  1  0.95158000  0.76048000  0.11351000  1.0
  C  C82  1  0.54841000  0.26047000  0.11352000  1.0
  C  C83  1  0.04842000  0.23953000  0.88648000  1.0
  C  C84  1  0.82334000  0.44832000  0.02115000  1.0
  C  C85  1  0.32335000  0.05168000  0.97885000  1.0
  C  C86  1  0.17666000  0.55168000  0.97885000  1.0
  C  C87  1  0.67666000  0.94832000  0.02115000  1.0
  C  C88  1  0.82898000  0.46126000  0.91904000  1.0
  C  C89  1  0.32898000  0.03874000  0.08095000  1.0
  C  C90  1  0.17101000  0.53875000  0.08096000  1.0
  C  C91  1  0.67102000  0.96126000  0.91905000  1.0
  C  C92  1  0.48438000  0.73435000  0.28273000  1.0
  C  C93  1  0.98438000  0.76565000  0.71727000  1.0
  C  C94  1  0.51562000  0.26565000  0.71727000  1.0
  C  C95  1  0.01563000  0.23434000  0.28273000  1.0
  C  C96  1  0.74785000  0.49324000  0.53233000  1.0
  C  C97  1  0.24784000  0.00675000  0.46767000  1.0
  C  C98  1  0.25215000  0.50676000  0.46768000  1.0
  C  C99  1  0.75215000  0.99324000  0.53233000  1.0
  C  C100  1  0.83955000  0.40271000  0.58923000  1.0
  C  C101  1  0.33955000  0.09729000  0.41077000  1.0
  C  C102  1  0.16045000  0.59729000  0.41077000  1.0
  C  C103  1  0.66045000  0.90271000  0.58924000  1.0
  N  N104  1  0.74442000  0.53394000  0.86399000  1.0
  N  N105  1  0.24443000  0.96606000  0.13600000  1.0
  N  N106  1  0.25558000  0.46605000  0.13601000  1.0
  N  N107  1  0.75558000  0.03395000  0.86400000  1.0
  N  N108  1  0.42482000  0.81506000  0.32594000  1.0
  N  N109  1  0.92482000  0.68494000  0.67406000  1.0
  N  N110  1  0.57518000  0.18494000  0.67406000  1.0
  N  N111  1  0.07518000  0.31506000  0.32594000  1.0
  N  N112  1  0.54305000  0.66173000  0.14929000  1.0
  N  N113  1  0.04304000  0.83827000  0.85071000  1.0
  N  N114  1  0.45695000  0.33827000  0.85071000  1.0
  N  N115  1  0.95696000  0.16173000  0.14929000  1.0
  N  N116  1  0.46949000  0.73696000  0.18330000  1.0
  N  N117  1  0.96949000  0.76304000  0.81670000  1.0
  N  N118  1  0.53050000  0.26304000  0.81670000  1.0
  N  N119  1  0.03051000  0.23696000  0.18330000  1.0
  N  N120  1  0.45930000  0.79246000  0.42113000  1.0
  N  N121  1  0.95930000  0.70754000  0.57887000  1.0
  N  N122  1  0.54070000  0.20754000  0.57888000  1.0
  N  N123  1  0.04070000  0.29246000  0.42113000  1.0
  N  N124  1  0.53589000  0.70147000  0.43474000  1.0
  N  N125  1  0.03590000  0.79853000  0.56525000  1.0
  N  N126  1  0.46410000  0.29853000  0.56526000  1.0
  N  N127  1  0.96410000  0.20147000  0.43474000  1.0
  N  N128  1  0.55367000  0.66222000  0.35007000  1.0
  N  N129  1  0.05367000  0.83778000  0.64992000  1.0
  N  N130  1  0.44632000  0.33778000  0.64993000  1.0
  N  N131  1  0.94633000  0.16221000  0.35007000  1.0
  N  N132  1  0.90970000  0.43614000  0.67793000  1.0
  N  N133  1  0.40970000  0.06386000  0.32207000  1.0
  N  N134  1  0.09030000  0.56386000  0.32207000  1.0
  N  N135  1  0.59030000  0.93614000  0.67793000  1.0
  N  N136  1  0.63979000  0.54003000  0.59752000  1.0
  N  N137  1  0.13978000  0.95997000  0.40247000  1.0
  N  N138  1  0.36022000  0.45997000  0.40248000  1.0
  N  N139  1  0.86021000  0.04003000  0.59753000  1.0
  O  O140  1  0.58300000  0.68678000  0.74966000  1.0
  O  O141  1  0.08300000  0.81322000  0.25034000  1.0
  O  O142  1  0.41700000  0.31322000  0.25034000  1.0
  O  O143  1  0.91700000  0.18678000  0.74966000  1.0
