# generated using pymatgen
data_Zn4H11C24S4BrN4O13
_symmetry_space_group_name_H-M   'P 1'
_cell_length_a   19.66620000
_cell_length_b   19.67330000
_cell_length_c   33.37910000
_cell_angle_alpha   79.20020000
_cell_angle_beta   79.23090000
_cell_angle_gamma   63.93320000
_symmetry_Int_Tables_number   1
_chemical_formula_structural   Zn4H11C24S4BrN4O13
_chemical_formula_sum   'Zn16 H44 C96 S16 Br4 N16 O52'
_cell_volume   11315.03433290
_cell_formula_units_Z   4
loop_
 _symmetry_equiv_pos_site_id
 _symmetry_equiv_pos_as_xyz
  1  'x, y, z'
loop_
 _atom_site_type_symbol
 _atom_site_label
 _atom_site_symmetry_multiplicity
 _atom_site_fract_x
 _atom_site_fract_y
 _atom_site_fract_z
 _atom_site_occupancy
  Zn  Zn0  1  0.59981000  0.94512000  0.52193000  1.0
  Zn  Zn1  1  0.51667000  0.01565000  0.43937000  1.0
  Zn  Zn2  1  0.44041000  0.94073000  0.51811000  1.0
  Zn  Zn3  1  0.44323000  0.09854000  0.52020000  1.0
  Zn  Zn4  1  0.65073000  0.30672000  0.72823000  1.0
  Zn  Zn5  1  0.81071000  0.31042000  0.73350000  1.0
  Zn  Zn6  1  0.73223000  0.23149000  0.80921000  1.0
  Zn  Zn7  1  0.80534000  0.15176000  0.72804000  1.0
  Zn  Zn8  1  0.23327000  0.73290000  0.30961000  1.0
  Zn  Zn9  1  0.30443000  0.65116000  0.22785000  1.0
  Zn  Zn10  1  0.15116000  0.80799000  0.22908000  1.0
  Zn  Zn11  1  0.31090000  0.80988000  0.23267000  1.0
  Zn  Zn12  1  0.94003000  0.44026000  0.01693000  1.0
  Zn  Zn13  1  0.94489000  0.59813000  0.02127000  1.0
  Zn  Zn14  1  0.09969000  0.44394000  0.02141000  1.0
  Zn  Zn15  1  0.01709000  0.51714000  0.93964000  1.0
  H  H16  1  0.75048000  0.04483000  0.64812000  1.0
  H  H17  1  0.54680000  0.25335000  0.65038000  1.0
  H  H18  1  0.69801000  0.00168000  0.59984000  1.0
  H  H19  1  0.40346000  0.90327000  0.30028000  1.0
  H  H20  1  0.29913000  0.79749000  0.40122000  1.0
  H  H21  1  0.44927000  0.94932000  0.35051000  1.0
  H  H22  1  0.94950000  0.44972000  0.84630000  1.0
  H  H23  1  0.84784000  0.34982000  0.95150000  1.0
  H  H24  1  0.89973000  0.39892000  0.80049000  1.0
  H  H25  1  0.20493000  0.49899000  0.10196000  1.0
  H  H26  1  0.99632000  0.70263000  0.10008000  1.0
  H  H27  1  0.24845000  0.55140000  0.15007000  1.0
  H  H28  1  0.44547000  0.68465000  0.60428000  1.0
  H  H29  1  0.44804000  0.76628000  0.57368000  1.0
  H  H30  1  0.79725000  0.57458000  0.65510000  1.0
  H  H31  1  0.80055000  0.48599000  0.67829000  1.0
  H  H32  1  0.47667000  0.23481000  0.31439000  1.0
  H  H33  1  0.48308000  0.16514000  0.35624000  1.0
  H  H34  1  0.29677000  0.51555000  0.43539000  1.0
  H  H35  1  0.27273000  0.58477000  0.39303000  1.0
  H  H36  1  0.73426000  0.95313000  0.31431000  1.0
  H  H37  1  0.66525000  0.97724000  0.35668000  1.0
  H  H38  1  0.01515000  0.77456000  0.43547000  1.0
  H  H39  1  0.08511000  0.76700000  0.39354000  1.0
  H  H40  1  0.19628000  0.25598000  0.61542000  1.0
  H  H41  1  0.27474000  0.20409000  0.58230000  1.0
  H  H42  1  0.06518000  0.98485000  0.64500000  1.0
  H  H43  1  0.97809000  0.04406000  0.66976000  1.0
  H  H44  1  0.51541000  0.27649000  0.93525000  1.0
  H  H45  1  0.58547000  0.26736000  0.89307000  1.0
  H  H46  1  0.23382000  0.45598000  0.81409000  1.0
  H  H47  1  0.16458000  0.47887000  0.85669000  1.0
  H  H48  1  0.91360000  0.85428000  0.77386000  1.0
  H  H49  1  0.88205000  0.95241000  0.76067000  1.0
  H  H50  1  0.81570000  0.89573000  0.97493000  1.0
  H  H51  1  0.86337000  0.79759000  0.98892000  1.0
  H  H52  1  0.56480000  0.48434000  0.14469000  1.0
  H  H53  1  0.47824000  0.54328000  0.17012000  1.0
  H  H54  1  0.69668000  0.75482000  0.11603000  1.0
  H  H55  1  0.77470000  0.70331000  0.08272000  1.0
  H  H56  1  0.29724000  0.07560000  0.15491000  1.0
  H  H57  1  0.30101000  0.98682000  0.17801000  1.0
  H  H58  1  0.94511000  0.18413000  0.10465000  1.0
  H  H59  1  0.94724000  0.26600000  0.07419000  1.0
  C  C60  1  0.68437000  0.93978000  0.43753000  1.0
  C  C61  1  0.43031000  0.93113000  0.43093000  1.0
  C  C62  1  0.56160000  0.81511000  0.56145000  1.0
  C  C63  1  0.31483000  0.06275000  0.56174000  1.0
  C  C64  1  0.56769000  0.07014000  0.56913000  1.0
  C  C65  1  0.43762000  0.18395000  0.43693000  1.0
  C  C66  1  0.68963000  0.43501000  0.68803000  1.0
  C  C67  1  0.81990000  0.31771000  0.81920000  1.0
  C  C68  1  0.56537000  0.31172000  0.81197000  1.0
  C  C69  1  0.81203000  0.06376000  0.81058000  1.0
  C  C70  1  0.68099000  0.17955000  0.68106000  1.0
  C  C71  1  0.93493000  0.18757000  0.68811000  1.0
  C  C72  1  0.31050000  0.56566000  0.31205000  1.0
  C  C73  1  0.18005000  0.68156000  0.18101000  1.0
  C  C74  1  0.06591000  0.81282000  0.31262000  1.0
  C  C75  1  0.19018000  0.93568000  0.18830000  1.0
  C  C76  1  0.32037000  0.81877000  0.31885000  1.0
  C  C77  1  0.43500000  0.68703000  0.18815000  1.0
  C  C78  1  0.81486000  0.56296000  0.06136000  1.0
  C  C79  1  0.06934000  0.56857000  0.06954000  1.0
  C  C80  1  0.06069000  0.31492000  0.06120000  1.0
  C  C81  1  0.18467000  0.43943000  0.93764000  1.0
  C  C82  1  0.93067000  0.43182000  0.93014000  1.0
  C  C83  1  0.93842000  0.68568000  0.93886000  1.0
  C  C84  1  0.59325000  0.10211000  0.59790000  1.0
  C  C85  1  0.65137000  0.15172000  0.65232000  1.0
  C  C86  1  0.55076000  0.17381000  0.61248000  1.0
  C  C87  1  0.69456000  0.08050000  0.63808000  1.0
  C  C88  1  0.57977000  0.19795000  0.63935000  1.0
  C  C89  1  0.66541000  0.05676000  0.61136000  1.0
  C  C90  1  0.40026000  0.90020000  0.40391000  1.0
  C  C91  1  0.34848000  0.84747000  0.34790000  1.0
  C  C92  1  0.35738000  0.85686000  0.41803000  1.0
  C  C93  1  0.39083000  0.89052000  0.33333333  1.0
  C  C94  1  0.33210000  0.83093000  0.39017000  1.0
  C  C95  1  0.41606000  0.91594000  0.36110000  1.0
  C  C96  1  0.54601000  0.69587000  0.59824000  1.0
  C  C97  1  0.70589000  0.55345000  0.65040000  1.0
  C  C98  1  0.58688000  0.74120000  0.58552000  1.0
  C  C99  1  0.66510000  0.50812000  0.66310000  1.0
  C  C100  1  0.66143000  0.62232000  0.62690000  1.0
  C  C101  1  0.59007000  0.62750000  0.62227000  1.0
  C  C102  1  0.42324000  0.27343000  0.36979000  1.0
  C  C103  1  0.32480000  0.47631000  0.37920000  1.0
  C  C104  1  0.41268000  0.25788000  0.41278000  1.0
  C  C105  1  0.33492000  0.49178000  0.33618000  1.0
  C  C106  1  0.35805000  0.39609000  0.39116000  1.0
  C  C107  1  0.39143000  0.35367000  0.35790000  1.0
  C  C108  1  0.77374000  0.92552000  0.37039000  1.0
  C  C109  1  0.97668000  0.82683000  0.37978000  1.0
  C  C110  1  0.75833000  0.91542000  0.41340000  1.0
  C  C111  1  0.99210000  0.83762000  0.33677000  1.0
  C  C112  1  0.89641000  0.85875000  0.39168000  1.0
  C  C113  1  0.85392000  0.89228000  0.35842000  1.0
  C  C114  1  0.19929000  0.15701000  0.60210000  1.0
  C  C115  1  0.04989000  0.09432000  0.64685000  1.0
  C  C116  1  0.24102000  0.08718000  0.58581000  1.0
  C  C117  1  0.00800000  0.16405000  0.66320000  1.0
  C  C118  1  0.12026000  0.09209000  0.62497000  1.0
  C  C119  1  0.12971000  0.15852000  0.62483000  1.0
  C  C120  1  0.84631000  0.34555000  0.84962000  1.0
  C  C121  1  0.90170000  0.40251000  0.90179000  1.0
  C  C122  1  0.83183000  0.33200000  0.89274000  1.0
  C  C123  1  0.91654000  0.41672000  0.85906000  1.0
  C  C124  1  0.85931000  0.36037000  0.91830000  1.0
  C  C125  1  0.88896000  0.38853000  0.83379000  1.0
  C  C126  1  0.47667000  0.32671000  0.87932000  1.0
  C  C127  1  0.27347000  0.42561000  0.87038000  1.0
  C  C128  1  0.49171000  0.33716000  0.83624000  1.0
  C  C129  1  0.25840000  0.41532000  0.91344000  1.0
  C  C130  1  0.35365000  0.39238000  0.85825000  1.0
  C  C131  1  0.39642000  0.35890000  0.89140000  1.0
  C  C132  1  0.87752000  0.91848000  0.82170000  1.0
  C  C133  1  0.87553000  0.83110000  0.92782000  1.0
  C  C134  1  0.83774000  0.99068000  0.83547000  1.0
  C  C135  1  0.91508000  0.75881000  0.91403000  1.0
  C  C136  1  0.86145000  0.88911000  0.89365000  1.0
  C  C137  1  0.89037000  0.86043000  0.85580000  1.0
  C  C138  1  0.14793000  0.65601000  0.15231000  1.0
  C  C139  1  0.09760000  0.59790000  0.09821000  1.0
  C  C140  1  0.07611000  0.69866000  0.13782000  1.0
  C  C141  1  0.16916000  0.55474000  0.11216000  1.0
  C  C142  1  0.05169000  0.66951000  0.11114000  1.0
  C  C143  1  0.19313000  0.58391000  0.13876000  1.0
  C  C144  1  0.55008000  0.59359000  0.14697000  1.0
  C  C145  1  0.69901000  0.65682000  0.10192000  1.0
  C  C146  1  0.50822000  0.66329000  0.16334000  1.0
  C  C147  1  0.74093000  0.58719000  0.08549000  1.0
  C  C148  1  0.62957000  0.65815000  0.12469000  1.0
  C  C149  1  0.62028000  0.59163000  0.12485000  1.0
  C  C150  1  0.20607000  0.05406000  0.15032000  1.0
  C  C151  1  0.04552000  0.19571000  0.09840000  1.0
  C  C152  1  0.16550000  0.00859000  0.16326000  1.0
  C  C153  1  0.08608000  0.24124000  0.08545000  1.0
  C  C154  1  0.08992000  0.12755000  0.12243000  1.0
  C  C155  1  0.16125000  0.12274000  0.12683000  1.0
  S  S156  1  0.67731000  0.70006000  0.60223000  1.0
  S  S157  1  0.57494000  0.54894000  0.64612000  1.0
  S  S158  1  0.36415000  0.33988000  0.43778000  1.0
  S  S159  1  0.38327000  0.40977000  0.31120000  1.0
  S  S160  1  0.84038000  0.86694000  0.43837000  1.0
  S  S161  1  0.91000000  0.88643000  0.31179000  1.0
  S  S162  1  0.19542000  0.02575000  0.59769000  1.0
  S  S163  1  0.05361000  0.22551000  0.65130000  1.0
  S  S164  1  0.40935000  0.38611000  0.81149000  1.0
  S  S165  1  0.34076000  0.36686000  0.93821000  1.0
  S  S166  1  0.81782000  0.98718000  0.88896000  1.0
  S  S167  1  0.93541000  0.76239000  0.86054000  1.0
  S  S168  1  0.55356000  0.72499000  0.15129000  1.0
  S  S169  1  0.69544000  0.52564000  0.09734000  1.0
  S  S170  1  0.07519000  0.04890000  0.14650000  1.0
  S  S171  1  0.17666000  0.20060000  0.10193000  1.0
  Br  Br172  1  0.45278000  0.24557000  0.59795000  1.0
  Br  Br173  1  0.32944000  0.82808000  0.47428000  1.0
  Br  Br174  1  0.77509000  0.27631000  0.92120000  1.0
  Br  Br175  1  0.00532000  0.79721000  0.15169000  1.0
  N  N176  1  0.47582000  0.71324000  0.58827000  1.0
  N  N177  1  0.77811000  0.53364000  0.65823000  1.0
  N  N178  1  0.45655000  0.21978000  0.34320000  1.0
  N  N179  1  0.28658000  0.52981000  0.40567000  1.0
  N  N180  1  0.72008000  0.96395000  0.34392000  1.0
  N  N181  1  0.03029000  0.79322000  0.40635000  1.0
  N  N182  1  0.22085000  0.21542000  0.59613000  1.0
  N  N183  1  0.02611000  0.03790000  0.65016000  1.0
  N  N184  1  0.53045000  0.29297000  0.90569000  1.0
  N  N185  1  0.21972000  0.46372000  0.84413000  1.0
  N  N186  1  0.90239000  0.90575000  0.78167000  1.0
  N  N187  1  0.85556000  0.84415000  0.96785000  1.0
  N  N188  1  0.52630000  0.53718000  0.15057000  1.0
  N  N189  1  0.72027000  0.71560000  0.09593000  1.0
  N  N190  1  0.27837000  0.03446000  0.15797000  1.0
  N  N191  1  0.97529000  0.21283000  0.08856000  1.0
  O  O192  1  0.50139000  0.99960000  0.49930000  1.0
  O  O193  1  0.68283000  0.92397000  0.47664000  1.0
  O  O194  1  0.47253000  0.96481000  0.41289000  1.0
  O  O195  1  0.49454000  0.84239000  0.54957000  1.0
  O  O196  1  0.62544000  0.97566000  0.41760000  1.0
  O  O197  1  0.60694000  0.84824000  0.55371000  1.0
  O  O198  1  0.41141000  0.92199000  0.46933000  1.0
  O  O199  1  0.34493000  0.99493000  0.55148000  1.0
  O  O200  1  0.50149000  0.10958000  0.55828000  1.0
  O  O201  1  0.34508000  0.11109000  0.55238000  1.0
  O  O202  1  0.61474000  0.00533000  0.55795000  1.0
  O  O203  1  0.47272000  0.12467000  0.41728000  1.0
  O  O204  1  0.42302000  0.18288000  0.47609000  1.0
  O  O205  1  0.75041000  0.25021000  0.74925000  1.0
  O  O206  1  0.64297000  0.40338000  0.69661000  1.0
  O  O207  1  0.83434000  0.33914000  0.78121000  1.0
  O  O208  1  0.62458000  0.27594000  0.83171000  1.0
  O  O209  1  0.75672000  0.40718000  0.69990000  1.0
  O  O210  1  0.56679000  0.32624000  0.77276000  1.0
  O  O211  1  0.78571000  0.27502000  0.83336000  1.0
  O  O212  1  0.77349000  0.12294000  0.82938000  1.0
  O  O213  1  0.74621000  0.13448000  0.69244000  1.0
  O  O214  1  0.82963000  0.06390000  0.77121000  1.0
  O  O215  1  0.63863000  0.24570000  0.69164000  1.0
  O  O216  1  0.90696000  0.25316000  0.70098000  1.0
  O  O217  1  0.90333000  0.14022000  0.69565000  1.0
  O  O218  1  0.25098000  0.74966000  0.24983000  1.0
  O  O219  1  0.27393000  0.62459000  0.33190000  1.0
  O  O220  1  0.24556000  0.63487000  0.19166000  1.0
  O  O221  1  0.06730000  0.82801000  0.27347000  1.0
  O  O222  1  0.32692000  0.56736000  0.27292000  1.0
  O  O223  1  0.12519000  0.77703000  0.33235000  1.0
  O  O224  1  0.14021000  0.74713000  0.19247000  1.0
  O  O225  1  0.14322000  0.90446000  0.19743000  1.0
  O  O226  1  0.33493000  0.83744000  0.28062000  1.0
  O  O227  1  0.25767000  0.90748000  0.19971000  1.0
  O  O228  1  0.28427000  0.77813000  0.33496000  1.0
  O  O229  1  0.40315000  0.64000000  0.19596000  1.0
  O  O230  1  0.40728000  0.75303000  0.20058000  1.0
  O  O231  1  0.00045000  0.50001000  0.99975000  1.0
  O  O232  1  0.84439000  0.49585000  0.05026000  1.0
  O  O233  1  0.00281000  0.61131000  0.05918000  1.0
  O  O234  1  0.10644000  0.34758000  0.05320000  1.0
  O  O235  1  0.84572000  0.61090000  0.05288000  1.0
  O  O236  1  0.99352000  0.34245000  0.04942000  1.0
  O  O237  1  0.11392000  0.50365000  0.05798000  1.0
  O  O238  1  0.18329000  0.42353000  0.97679000  1.0
  O  O239  1  0.97036000  0.46863000  0.91345000  1.0
  O  O240  1  0.12550000  0.47520000  0.91788000  1.0
  O  O241  1  0.91316000  0.41731000  0.96854000  1.0
  O  O242  1  0.92277000  0.68586000  0.97832000  1.0
  O  O243  1  0.97267000  0.62613000  0.92000000  1.0
