# generated using pymatgen
data_Zn2H24C44N5Cl5O8
_symmetry_space_group_name_H-M   'P 1'
_cell_length_a   12.67300000
_cell_length_b   13.42460000
_cell_length_c   17.24920000
_cell_angle_alpha   90.74500000
_cell_angle_beta   99.22780000
_cell_angle_gamma   98.08800000
_symmetry_Int_Tables_number   1
_chemical_formula_structural   Zn2H24C44N5Cl5O8
_chemical_formula_sum   'Zn2 H24 C44 N5 Cl5 O8'
_cell_volume   2865.91562572
_cell_formula_units_Z   1
loop_
 _symmetry_equiv_pos_site_id
 _symmetry_equiv_pos_as_xyz
  1  'x, y, z'
loop_
 _atom_site_type_symbol
 _atom_site_label
 _atom_site_symmetry_multiplicity
 _atom_site_fract_x
 _atom_site_fract_y
 _atom_site_fract_z
 _atom_site_occupancy
  Zn  Zn0  1  0.61704000  0.48345000  0.52144000  1.0
  Zn  Zn1  1  0.38469000  0.50279000  0.48086000  1.0
  H  H2  1  0.35827000  0.55415000  0.23791000  1.0
  H  H3  1  0.32809000  0.62333000  0.85334000  1.0
  H  H4  1  0.26308000  0.19570000  0.54670000  1.0
  H  H5  1  0.32311000  0.86299000  0.59674000  1.0
  H  H6  1  0.24675000  0.01394000  0.58103000  1.0
  H  H7  1  0.71109000  0.75910000  0.39550000  1.0
  H  H8  1  0.58662000  0.03928000  0.36190000  1.0
  H  H9  1  0.70193000  0.92151000  0.32588000  1.0
  H  H10  1  0.45438000  0.75362000  0.57061000  1.0
  H  H11  1  0.67069000  0.57010000  0.76434000  1.0
  H  H12  1  0.11745000  0.32854000  0.63985000  1.0
  H  H13  1  0.95446000  0.65511000  0.44885000  1.0
  H  H14  1  0.25606000  0.41324000  0.56951000  1.0
  H  H15  1  0.32914000  0.57511000  0.71323000  1.0
  H  H16  1  0.67126000  0.61820000  0.90479000  1.0
  H  H17  1  0.67959000  0.47688000  0.27597000  1.0
  H  H18  1  0.59303000  0.52392000  0.99997000  1.0
  H  H19  1  0.37493000  0.59150000  0.09993000  1.0
  H  H20  1  0.86076000  0.53503000  0.39080000  1.0
  H  H21  1  0.72643000  0.50773000  0.40750000  1.0
  H  H22  1  0.42263000  0.76038000  0.95653000  1.0
  H  H23  1  0.43588000  0.72128000  0.05045000  1.0
  H  H24  1  0.72608000  0.52675000  0.07726000  1.0
  H  H25  1  0.76847000  0.47043000  0.16188000  1.0
  C  C26  1  0.58436000  0.67922000  0.49125000  1.0
  C  C27  1  0.61363000  0.50428000  0.23742000  1.0
  C  C28  1  0.59587000  0.60716000  0.86306000  1.0
  C  C29  1  0.59610000  0.58097000  0.78493000  1.0
  C  C30  1  0.40369000  0.58510000  0.75574000  1.0
  C  C31  1  0.40354000  0.61258000  0.83382000  1.0
  C  C32  1  0.49900000  0.62028000  0.88927000  1.0
  C  C33  1  0.54722000  0.57462000  0.02625000  1.0
  C  C34  1  0.49506000  0.63437000  0.97389000  1.0
  C  C35  1  0.49948000  0.56713000  0.73089000  1.0
  C  C36  1  0.30989000  0.04721000  0.54906000  1.0
  C  C37  1  0.50639000  0.49166000  0.34886000  1.0
  C  C38  1  0.40749000  0.19134000  0.49674000  1.0
  C  C39  1  0.66057000  0.81286000  0.41155000  1.0
  C  C40  1  0.65588000  0.90391000  0.37348000  1.0
  C  C41  1  0.59117000  0.97128000  0.39462000  1.0
  C  C42  1  0.52971000  0.95239000  0.45597000  1.0
  C  C43  1  0.52684000  0.85484000  0.48967000  1.0
  C  C44  1  0.46501000  0.02411000  0.48293000  1.0
  C  C45  1  0.38391000  0.98613000  0.52869000  1.0
  C  C46  1  0.38185000  0.88721000  0.55842000  1.0
  C  C47  1  0.45422000  0.82644000  0.54387000  1.0
  C  C48  1  0.42582000  0.30443000  0.49600000  1.0
  C  C49  1  0.47773000  0.13023000  0.47189000  1.0
  C  C50  1  0.31951000  0.14740000  0.53136000  1.0
  C  C51  1  0.59383000  0.78649000  0.46674000  1.0
  C  C52  1  0.90523000  0.35099000  0.61837000  1.0
  C  C53  1  0.21122000  0.63520000  0.42341000  1.0
  C  C54  1  0.11286000  0.67596000  0.41956000  1.0
  C  C55  1  0.02936000  0.62334000  0.45122000  1.0
  C  C56  1  0.04319000  0.53282000  0.48992000  1.0
  C  C57  1  0.15000000  0.50690000  0.50305000  1.0
  C  C58  1  0.95881000  0.47202000  0.52223000  1.0
  C  C59  1  0.49942000  0.53226000  0.64807000  1.0
  C  C60  1  0.98703000  0.40141000  0.57959000  1.0
  C  C61  1  0.09663000  0.38329000  0.59605000  1.0
  C  C62  1  0.17409000  0.43064000  0.55714000  1.0
  C  C63  1  0.84549000  0.47546000  0.49691000  1.0
  C  C64  1  0.80127000  0.37532000  0.60048000  1.0
  C  C65  1  0.51822000  0.51411000  0.26593000  1.0
  C  C66  1  0.43302000  0.54808000  0.21593000  1.0
  C  C67  1  0.44432000  0.57106000  0.13919000  1.0
  C  C68  1  0.53938000  0.56133000  0.10865000  1.0
  C  C69  1  0.62611000  0.52762000  0.16022000  1.0
  N  N70  1  0.77121000  0.43506000  0.54062000  1.0
  N  N71  1  0.23006000  0.55600000  0.46651000  1.0
  N  N72  1  0.80882000  0.51532000  0.42849000  1.0
  N  N73  1  0.42849000  0.70155000  0.99258000  1.0
  N  N74  1  0.72432000  0.52163000  0.13557000  1.0
  Cl  Cl75  1  0.58417000  0.19061000  0.42983000  1.0
  Cl  Cl76  1  0.70491000  0.32731000  0.65397000  1.0
  Cl  Cl77  1  0.93590000  0.26476000  0.68835000  1.0
  Cl  Cl78  1  0.30587000  0.68932000  0.37128000  1.0
  Cl  Cl79  1  0.09741000  0.78850000  0.37657000  1.0
  O  O80  1  0.66859000  0.63645000  0.50377000  1.0
  O  O81  1  0.48896000  0.63565000  0.49361000  1.0
  O  O82  1  0.59054000  0.47469000  0.39632000  1.0
  O  O83  1  0.41371000  0.49229000  0.36794000  1.0
  O  O84  1  0.52142000  0.34758000  0.51852000  1.0
  O  O85  1  0.34311000  0.34880000  0.47743000  1.0
  O  O86  1  0.59099000  0.52361000  0.62944000  1.0
  O  O87  1  0.40797000  0.51337000  0.60319000  1.0
