# generated using pymatgen
data_ZnH10C13I2N3O4
_symmetry_space_group_name_H-M   'P 1'
_cell_length_a   7.93707000
_cell_length_b   8.97301000
_cell_length_c   15.20280000
_cell_angle_alpha   87.20110000
_cell_angle_beta   83.31680000
_cell_angle_gamma   83.03890000
_symmetry_Int_Tables_number   1
_chemical_formula_structural   ZnH10C13I2N3O4
_chemical_formula_sum   'Zn2 H20 C26 I4 N6 O8'
_cell_volume   1066.78769625
_cell_formula_units_Z   2
loop_
 _symmetry_equiv_pos_site_id
 _symmetry_equiv_pos_as_xyz
  1  'x, y, z'
loop_
 _atom_site_type_symbol
 _atom_site_label
 _atom_site_symmetry_multiplicity
 _atom_site_fract_x
 _atom_site_fract_y
 _atom_site_fract_z
 _atom_site_occupancy
  Zn  Zn0  1  0.69001000  0.49632000  0.47833000  1.0
  Zn  Zn1  1  0.31007000  0.49592000  0.52526000  1.0
  H  H2  1  0.33613000  0.86346000  0.08544000  1.0
  H  H3  1  0.15845000  0.93639000  0.26228000  1.0
  H  H4  1  0.08973000  0.75527000  0.28890000  1.0
  H  H5  1  0.12809000  0.81754000  0.17625000  1.0
  H  H6  1  0.34226000  0.91559000  0.85049000  1.0
  H  H7  1  0.19095000  0.11504000  0.91774000  1.0
  H  H8  1  0.30510000  0.07837000  0.01175000  1.0
  H  H9  1  0.11965000  0.98673000  0.00367000  1.0
  H  H10  1  0.64247000  0.04709000  0.13144000  1.0
  H  H11  1  0.92885000  0.04329000  0.15726000  1.0
  H  H12  1  0.82611000  0.22680000  0.18217000  1.0
  H  H13  1  0.71363000  0.14760000  0.92303000  1.0
  H  H14  1  0.95229000  0.19512000  0.07848000  1.0
  H  H15  1  0.95623000  0.50063000  0.59170000  1.0
  H  H16  1  0.04392000  0.49910000  0.41053000  1.0
  H  H17  1  0.61342000  0.14683000  0.80995000  1.0
  H  H18  1  0.91191000  0.21659000  0.76371000  1.0
  H  H19  1  0.82410000  0.29263000  0.66575000  1.0
  H  H20  1  0.82536000  0.09877000  0.69279000  1.0
  H  H21  1  0.38773000  0.74561000  0.30038000  1.0
  C  C22  1  0.45587000  0.78407000  0.49477000  1.0
  C  C23  1  0.40536000  0.62452000  0.19122000  1.0
  C  C24  1  0.55661000  0.50740000  0.76682000  1.0
  C  C25  1  0.44750000  0.48779000  0.23674000  1.0
  C  C26  1  0.51070000  0.64163000  0.81172000  1.0
  C  C27  1  0.49760000  0.35572000  0.19078000  1.0
  C  C28  1  0.47404000  0.64555000  0.90536000  1.0
  C  C29  1  0.53137000  0.35597000  0.09741000  1.0
  C  C30  1  0.51108000  0.50553000  0.95450000  1.0
  C  C31  1  0.48655000  0.49537000  0.04968000  1.0
  C  C32  1  0.57869000  0.37266000  0.90823000  1.0
  C  C33  1  0.54634000  0.20810000  0.50519000  1.0
  C  C34  1  0.42152000  0.62820000  0.09659000  1.0
  C  C35  1  0.39792000  0.77529000  0.95647000  1.0
  C  C36  1  0.62244000  0.23153000  0.04780000  1.0
  C  C37  1  0.80963000  0.21053000  0.72088000  1.0
  C  C38  1  0.17252000  0.81951000  0.24169000  1.0
  C  C39  1  0.23323000  0.02722000  0.96568000  1.0
  C  C40  1  0.86263000  0.14563000  0.12885000  1.0
  C  C41  1  0.38118000  0.76321000  0.04854000  1.0
  C  C42  1  0.63958000  0.24224000  0.95720000  1.0
  C  C43  1  0.43679000  0.95329000  0.49777000  1.0
  C  C44  1  0.56412000  0.03923000  0.49952000  1.0
  C  C45  1  0.45226000  0.48806000  0.33563000  1.0
  C  C46  1  0.54578000  0.50230000  0.66819000  1.0
  C  C47  1  0.59250000  0.37173000  0.81440000  1.0
  I  I48  1  0.51967000  0.83590000  0.72414000  1.0
  I  I49  1  0.47117000  0.15566000  0.26993000  1.0
  I  I50  1  0.17658000  0.04274000  0.50062000  1.0
  I  I51  1  0.82256000  0.94382000  0.49433000  1.0
  N  N52  1  0.04131000  0.49767000  0.53439000  1.0
  N  N53  1  0.95871000  0.50019000  0.46785000  1.0
  N  N54  1  0.63820000  0.23716000  0.76944000  1.0
  N  N55  1  0.35303000  0.75700000  0.23777000  1.0
  N  N56  1  0.33679000  0.90773000  0.91749000  1.0
  N  N57  1  0.71844000  0.10470000  0.08642000  1.0
  O  O58  1  0.59841000  0.71935000  0.46104000  1.0
  O  O59  1  0.39512000  0.27483000  0.51348000  1.0
  O  O60  1  0.32654000  0.71991000  0.52585000  1.0
  O  O61  1  0.68287000  0.26997000  0.50087000  1.0
  O  O62  1  0.60213000  0.46960000  0.35892000  1.0
  O  O63  1  0.39971000  0.48294000  0.64831000  1.0
  O  O64  1  0.31272000  0.51276000  0.38637000  1.0
  O  O65  1  0.67926000  0.51771000  0.61441000  1.0
