# generated using pymatgen
data_ZnH8C12(NO2)2
_symmetry_space_group_name_H-M   'P 1'
_cell_length_a   8.31371000
_cell_length_b   11.71420000
_cell_length_c   12.69700000
_cell_angle_alpha   90.00000000
_cell_angle_beta   89.99980000
_cell_angle_gamma   90.00000000
_symmetry_Int_Tables_number   1
_chemical_formula_structural   ZnH8C12(NO2)2
_chemical_formula_sum   'Zn4 H32 C48 N8 O16'
_cell_volume   1236.54129797
_cell_formula_units_Z   4
loop_
 _symmetry_equiv_pos_site_id
 _symmetry_equiv_pos_as_xyz
  1  'x, y, z'
loop_
 _atom_site_type_symbol
 _atom_site_label
 _atom_site_symmetry_multiplicity
 _atom_site_fract_x
 _atom_site_fract_y
 _atom_site_fract_z
 _atom_site_occupancy
  Zn  Zn0  1  0.89365000  0.42699000  0.24706000  1.0
  Zn  Zn1  1  0.60636000  0.57301000  0.74706000  1.0
  Zn  Zn2  1  0.10635000  0.92699000  0.25294000  1.0
  Zn  Zn3  1  0.39365000  0.07301000  0.75294000  1.0
  H  H4  1  0.17982000  0.34021000  0.13929000  1.0
  H  H5  1  0.32017000  0.65979000  0.63929000  1.0
  H  H6  1  0.82018000  0.84021000  0.36072000  1.0
  H  H7  1  0.67982000  0.15979000  0.86072000  1.0
  H  H8  1  0.36935000  0.40601000  0.99653000  1.0
  H  H9  1  0.13065000  0.59399000  0.49653000  1.0
  H  H10  1  0.63065000  0.90601000  0.50347000  1.0
  H  H11  1  0.86935000  0.09399000  0.00348000  1.0
  H  H12  1  0.07869000  0.70804000  0.96391000  1.0
  H  H13  1  0.42131000  0.29197000  0.46391000  1.0
  H  H14  1  0.92131000  0.20804000  0.53609000  1.0
  H  H15  1  0.57868000  0.79196000  0.03609000  1.0
  H  H16  1  0.90426000  0.63468000  0.11099000  1.0
  H  H17  1  0.59574000  0.36533000  0.61099000  1.0
  H  H18  1  0.09574000  0.13468000  0.38901000  1.0
  H  H19  1  0.40426000  0.86532000  0.88901000  1.0
  H  H20  1  0.79665000  0.58063000  0.41866000  1.0
  H  H21  1  0.70335000  0.41937000  0.91865000  1.0
  H  H22  1  0.20334000  0.08063000  0.08135000  1.0
  H  H23  1  0.29665000  0.91938000  0.58135000  1.0
  H  H24  1  0.56937000  0.71098000  0.46226000  1.0
  H  H25  1  0.93063000  0.28902000  0.96226000  1.0
  H  H26  1  0.43062000  0.21098000  0.03774000  1.0
  H  H27  1  0.06937000  0.78902000  0.53774000  1.0
  H  H28  1  0.36949000  0.63989000  0.15642000  1.0
  H  H29  1  0.13053000  0.36011000  0.65643000  1.0
  H  H30  1  0.63051000  0.13989000  0.34358000  1.0
  H  H31  1  0.86948000  0.86011000  0.84358000  1.0
  H  H32  1  0.60530000  0.50874000  0.12374000  1.0
  H  H33  1  0.89471000  0.49126000  0.62374000  1.0
  H  H34  1  0.39470000  0.00875000  0.37626000  1.0
  H  H35  1  0.10529000  0.99126000  0.87626000  1.0
  C  C36  1  0.34744000  0.60454000  0.88393000  1.0
  C  C37  1  0.15257000  0.39545000  0.38393000  1.0
  C  C38  1  0.65256000  0.10454000  0.61607000  1.0
  C  C39  1  0.84743000  0.89545000  0.11608000  1.0
  C  C40  1  0.16137000  0.42028000  0.09731000  1.0
  C  C41  1  0.33863000  0.57972000  0.59730000  1.0
  C  C42  1  0.83863000  0.92028000  0.40270000  1.0
  C  C43  1  0.66137000  0.07972000  0.90270000  1.0
  C  C44  1  0.26550000  0.45711000  0.01895000  1.0
  C  C45  1  0.23450000  0.54290000  0.51895000  1.0
  C  C46  1  0.73450000  0.95711000  0.48105000  1.0
  C  C47  1  0.76550000  0.04289000  0.98105000  1.0
  C  C48  1  0.23663000  0.56185000  0.96956000  1.0
  C  C49  1  0.26337000  0.43815000  0.46956000  1.0
  C  C50  1  0.76337000  0.06186000  0.53044000  1.0
  C  C51  1  0.73662000  0.93814000  0.03044000  1.0
  C  C52  1  0.10349000  0.62616000  0.00116000  1.0
  C  C53  1  0.39651000  0.37384000  0.50115000  1.0
  C  C54  1  0.89651000  0.12617000  0.49885000  1.0
  C  C55  1  0.60349000  0.87383000  0.99885000  1.0
  C  C56  1  0.00554000  0.58491000  0.08127000  1.0
  C  C57  1  0.49446000  0.41509000  0.58127000  1.0
  C  C58  1  0.99445000  0.08491000  0.41873000  1.0
  C  C59  1  0.50554000  0.91509000  0.91873000  1.0
  C  C60  1  0.31824000  0.76908000  0.33217000  1.0
  C  C61  1  0.18177000  0.23093000  0.83217000  1.0
  C  C62  1  0.68176000  0.26907000  0.16783000  1.0
  C  C63  1  0.81824000  0.73093000  0.66783000  1.0
  C  C64  1  0.69962000  0.59525000  0.36267000  1.0
  C  C65  1  0.80039000  0.40474000  0.86267000  1.0
  C  C66  1  0.30037000  0.09526000  0.13734000  1.0
  C  C67  1  0.19962000  0.90475000  0.63734000  1.0
  C  C68  1  0.57281000  0.66792000  0.38644000  1.0
  C  C69  1  0.92720000  0.33208000  0.88644000  1.0
  C  C70  1  0.42718000  0.16792000  0.11356000  1.0
  C  C71  1  0.07281000  0.83208000  0.61356000  1.0
  C  C72  1  0.45185000  0.68499000  0.31184000  1.0
  C  C73  1  0.04816000  0.31500000  0.81184000  1.0
  C  C74  1  0.54814000  0.18500000  0.18816000  1.0
  C  C75  1  0.95185000  0.81500000  0.68816000  1.0
  C  C76  1  0.46224000  0.62746000  0.21570000  1.0
  C  C77  1  0.03777000  0.37254000  0.71571000  1.0
  C  C78  1  0.53775000  0.12746000  0.28430000  1.0
  C  C79  1  0.96224000  0.87254000  0.78430000  1.0
  C  C80  1  0.59231000  0.55607000  0.19715000  1.0
  C  C81  1  0.90771000  0.44393000  0.69716000  1.0
  C  C82  1  0.40769000  0.05607000  0.30285000  1.0
  C  C83  1  0.09230000  0.94393000  0.80285000  1.0
  N  N84  1  0.03384000  0.48334000  0.12805000  1.0
  N  N85  1  0.46616000  0.51665000  0.62805000  1.0
  N  N86  1  0.96616000  0.98335000  0.37195000  1.0
  N  N87  1  0.53384000  0.01666000  0.87195000  1.0
  N  N88  1  0.70926000  0.54020000  0.26952000  1.0
  N  N89  1  0.79075000  0.45979000  0.76952000  1.0
  N  N90  1  0.29074000  0.04021000  0.23048000  1.0
  N  N91  1  0.20925000  0.95980000  0.73048000  1.0
  O  O92  1  0.48078000  0.54771000  0.87651000  1.0
  O  O93  1  0.01921000  0.45229000  0.37651000  1.0
  O  O94  1  0.51922000  0.04771000  0.62349000  1.0
  O  O95  1  0.98078000  0.95229000  0.12349000  1.0
  O  O96  1  0.30606000  0.68693000  0.82786000  1.0
  O  O97  1  0.19393000  0.31307000  0.32786000  1.0
  O  O98  1  0.69393000  0.18693000  0.67214000  1.0
  O  O99  1  0.80607000  0.81307000  0.17214000  1.0
  O  O100  1  0.21530000  0.77880000  0.25595000  1.0
  O  O101  1  0.28470000  0.22119000  0.75596000  1.0
  O  O102  1  0.78470000  0.27880000  0.24405000  1.0
  O  O103  1  0.71530000  0.72120000  0.74404000  1.0
  O  O104  1  0.31778000  0.82561000  0.41566000  1.0
  O  O105  1  0.18221000  0.17438000  0.91567000  1.0
  O  O106  1  0.68222000  0.32561000  0.08434000  1.0
  O  O107  1  0.81779000  0.67439000  0.58433000  1.0
