# generated using pymatgen
data_CuH9C6N3ClO6
_symmetry_space_group_name_H-M   'P 1'
_cell_length_a   7.47966000
_cell_length_b   7.49452000
_cell_length_c   9.51870000
_cell_angle_alpha   88.68620000
_cell_angle_beta   85.12790000
_cell_angle_gamma   76.74580000
_symmetry_Int_Tables_number   1
_chemical_formula_structural   CuH9C6N3ClO6
_chemical_formula_sum   'Cu2 H18 C12 N6 Cl2 O12'
_cell_volume   517.49136265
_cell_formula_units_Z   2
loop_
 _symmetry_equiv_pos_site_id
 _symmetry_equiv_pos_as_xyz
  1  'x, y, z'
loop_
 _atom_site_type_symbol
 _atom_site_label
 _atom_site_symmetry_multiplicity
 _atom_site_fract_x
 _atom_site_fract_y
 _atom_site_fract_z
 _atom_site_occupancy
  Cu  Cu0  1  0.76126000  0.85086000  0.66350000  1.0
  Cu  Cu1  1  0.23876000  0.14913000  0.33655000  1.0
  H  H2  1  0.05650000  0.70255000  0.52791000  1.0
  H  H3  1  0.94333000  0.29748000  0.47207000  1.0
  H  H4  1  0.07823000  0.89535000  0.59673000  1.0
  H  H5  1  0.92169000  0.10471000  0.40327000  1.0
  H  H6  1  0.60388000  0.74047000  0.17579000  1.0
  H  H7  1  0.39608000  0.25954000  0.82421000  1.0
  H  H8  1  0.29234000  0.64870000  0.69032000  1.0
  H  H9  1  0.70766000  0.35129000  0.30959000  1.0
  H  H10  1  0.11010000  0.53814000  0.73808000  1.0
  H  H11  1  0.88988000  0.46186000  0.26190000  1.0
  H  H12  1  0.21240000  0.70469000  0.93933000  1.0
  H  H13  1  0.78760000  0.29530000  0.06062000  1.0
  H  H14  1  0.12909000  0.91325000  0.85079000  1.0
  H  H15  1  0.87095000  0.08670000  0.14920000  1.0
  H  H16  1  0.94927000  0.72638000  0.16900000  1.0
  H  H17  1  0.05074000  0.27362000  0.83098000  1.0
  H  H18  1  0.48363000  0.80508000  0.93093000  1.0
  H  H19  1  0.51637000  0.19493000  0.06901000  1.0
  C  C20  1  0.14548000  0.67214000  0.72727000  1.0
  C  C21  1  0.85452000  0.32786000  0.27278000  1.0
  C  C22  1  0.10973000  0.77268000  0.86797000  1.0
  C  C23  1  0.89028000  0.22733000  0.13205000  1.0
  C  C24  1  0.92289000  0.77573000  0.93792000  1.0
  C  C25  1  0.07713000  0.22427000  0.06206000  1.0
  C  C26  1  0.87064000  0.74758000  0.07730000  1.0
  C  C27  1  0.12941000  0.25243000  0.92266000  1.0
  C  C28  1  0.62397000  0.79355000  0.95623000  1.0
  C  C29  1  0.37607000  0.20646000  0.04373000  1.0
  C  C30  1  0.42761000  0.99406000  0.56036000  1.0
  C  C31  1  0.57247000  0.00589000  0.43975000  1.0
  N  N32  1  0.03346000  0.77710000  0.61944000  1.0
  N  N33  1  0.96639000  0.22295000  0.38057000  1.0
  N  N34  1  0.68334000  0.75953000  0.08593000  1.0
  N  N35  1  0.31668000  0.24048000  0.91405000  1.0
  N  N36  1  0.76613000  0.80546000  0.86443000  1.0
  N  N37  1  0.23392000  0.19454000  0.13555000  1.0
  Cl  Cl38  1  0.69771000  0.35274000  0.70565000  1.0
  Cl  Cl39  1  0.30228000  0.64726000  0.29434000  1.0
  O  O40  1  0.48300000  0.91963000  0.67400000  1.0
  O  O41  1  0.51707000  0.08034000  0.32611000  1.0
  O  O42  1  0.26048000  0.05996000  0.53747000  1.0
  O  O43  1  0.73960000  0.93996000  0.46262000  1.0
  O  O44  1  0.76909000  0.48671000  0.61614000  1.0
  O  O45  1  0.23090000  0.51329000  0.38385000  1.0
  O  O46  1  0.83640000  0.17867000  0.69952000  1.0
  O  O47  1  0.16360000  0.82134000  0.30049000  1.0
  O  O48  1  0.52721000  0.32469000  0.65270000  1.0
  O  O49  1  0.47279000  0.67530000  0.34729000  1.0
  O  O50  1  0.65894000  0.41664000  0.85044000  1.0
  O  O51  1  0.34104000  0.58339000  0.14955000  1.0
