# generated using pymatgen
data_NaH5C4(N4O)2
_symmetry_space_group_name_H-M   'P 1'
_cell_length_a   6.63111000
_cell_length_b   7.09630000
_cell_length_c   10.36820000
_cell_angle_alpha   105.99400000
_cell_angle_beta   99.44000000
_cell_angle_gamma   108.27900000
_symmetry_Int_Tables_number   1
_chemical_formula_structural   NaH5C4(N4O)2
_chemical_formula_sum   'Na2 H10 C8 N16 O4'
_cell_volume   428.24852867
_cell_formula_units_Z   2
loop_
 _symmetry_equiv_pos_site_id
 _symmetry_equiv_pos_as_xyz
  1  'x, y, z'
loop_
 _atom_site_type_symbol
 _atom_site_label
 _atom_site_symmetry_multiplicity
 _atom_site_fract_x
 _atom_site_fract_y
 _atom_site_fract_z
 _atom_site_occupancy
  Na  Na0  1  0.52236000  0.77246000  0.41771000  1.0
  Na  Na1  1  0.47764000  0.22754000  0.58229000  1.0
  H  H2  1  0.26816000  0.54892000  0.06648000  1.0
  H  H3  1  0.73182000  0.45107000  0.93352000  1.0
  H  H4  1  0.19542000  0.81496000  0.58122000  1.0
  H  H5  1  0.80458000  0.18504000  0.41879000  1.0
  H  H6  1  0.09008000  0.82228000  0.43629000  1.0
  H  H7  1  0.90992000  0.17772000  0.56371000  1.0
  H  H8  1  0.81579000  0.59322000  0.26431000  1.0
  H  H9  1  0.18421000  0.40678000  0.73569000  1.0
  H  H10  1  0.82218000  0.81382000  0.25002000  1.0
  H  H11  1  0.17782000  0.18619000  0.74998000  1.0
  C  C12  1  0.22709000  0.76702000  0.95879000  1.0
  C  C13  1  0.77291000  0.23298000  0.04121000  1.0
  C  C14  1  0.23407000  0.97279000  0.97461000  1.0
  C  C15  1  0.76594000  0.02721000  0.02539000  1.0
  C  C16  1  0.31748000  0.03657000  0.21872000  1.0
  C  C17  1  0.68252000  0.96343000  0.78128000  1.0
  C  C18  1  0.26763000  0.70597000  0.07607000  1.0
  C  C19  1  0.73236000  0.29402000  0.92392000  1.0
  N  N20  1  0.28150000  0.10763000  0.10832000  1.0
  N  N21  1  0.71851000  0.89238000  0.89169000  1.0
  N  N22  1  0.36292000  0.20174000  0.33555000  1.0
  N  N23  1  0.63708000  0.79826000  0.66445000  1.0
  N  N24  1  0.31202000  0.83989000  0.20475000  1.0
  N  N25  1  0.68798000  0.16011000  0.79524000  1.0
  N  N26  1  0.19724000  0.99545000  0.84998000  1.0
  N  N27  1  0.80276000  0.00455000  0.15002000  1.0
  N  N28  1  0.18680000  0.66689000  0.81866000  1.0
  N  N29  1  0.81320000  0.33311000  0.18134000  1.0
  N  N30  1  0.16945000  0.80363000  0.75703000  1.0
  N  N31  1  0.83055000  0.19637000  0.24297000  1.0
  N  N32  1  0.30733000  0.31298000  0.15850000  1.0
  N  N33  1  0.69267000  0.68702000  0.84149000  1.0
  N  N34  1  0.35600000  0.36379000  0.29485000  1.0
  N  N35  1  0.64401000  0.63622000  0.70515000  1.0
  O  O36  1  0.23387000  0.85366000  0.50124000  1.0
  O  O37  1  0.76613000  0.14633000  0.49876000  1.0
  O  O38  1  0.82140000  0.73670000  0.31629000  1.0
  O  O39  1  0.17860000  0.26330000  0.68371000  1.0
