# generated using pymatgen
data_Zn6H48C63O29
_symmetry_space_group_name_H-M   'P 1'
_cell_length_a   18.55720000
_cell_length_b   18.58930000
_cell_length_c   18.70000000
_cell_angle_alpha   109.58900000
_cell_angle_beta   109.19700000
_cell_angle_gamma   109.17200000
_symmetry_Int_Tables_number   1
_chemical_formula_structural   Zn6H48C63O29
_chemical_formula_sum   'Zn6 H48 C63 O29'
_cell_volume   4993.53597689
_cell_formula_units_Z   1
loop_
 _symmetry_equiv_pos_site_id
 _symmetry_equiv_pos_as_xyz
  1  'x, y, z'
loop_
 _atom_site_type_symbol
 _atom_site_label
 _atom_site_symmetry_multiplicity
 _atom_site_fract_x
 _atom_site_fract_y
 _atom_site_fract_z
 _atom_site_occupancy
  Zn  Zn0  1  0.93725000  0.93554000  0.50168000  1.0
  Zn  Zn1  1  0.06250000  0.06188000  0.50356000  1.0
  Zn  Zn2  1  0.06347000  0.49711000  0.05904000  1.0
  Zn  Zn3  1  0.93761000  0.50396000  0.94201000  1.0
  Zn  Zn4  1  0.49939000  0.93509000  0.93413000  1.0
  Zn  Zn5  1  0.50715000  0.06430000  0.06311000  1.0
  H  H6  1  0.98296000  0.10270000  0.76211000  1.0
  H  H7  1  0.74164000  0.89128000  0.27442000  1.0
  H  H8  1  0.14781000  0.73105000  0.30756000  1.0
  H  H9  1  0.87510000  0.61999000  0.12897000  1.0
  H  H10  1  0.86373000  0.72499000  0.24493000  1.0
  H  H11  1  0.27022000  0.90618000  0.76472000  1.0
  H  H12  1  0.14191000  0.78434000  0.02054000  1.0
  H  H13  1  0.27137000  0.89356000  0.02799000  1.0
  H  H14  1  0.32635000  0.68974000  0.91468000  1.0
  H  H15  1  0.70597000  0.23883000  0.82425000  1.0
  H  H16  1  0.75588000  0.21851000  0.09232000  1.0
  H  H17  1  0.86848000  0.34420000  0.09868000  1.0
  H  H18  1  0.91957000  0.29979000  0.52023000  1.0
  H  H19  1  0.99249000  0.44398000  0.65750000  1.0
  H  H20  1  0.03018000  0.44903000  0.79862000  1.0
  H  H21  1  0.01908000  0.23520000  0.89286000  1.0
  H  H22  1  0.92134000  0.15148000  0.34419000  1.0
  H  H23  1  0.79742000  0.15596000  0.24210000  1.0
  H  H24  1  0.23037000  0.79003000  0.46253000  1.0
  H  H25  1  0.27050000  0.85832000  0.42153000  1.0
  H  H26  1  0.29733000  0.90524000  0.53263000  1.0
  H  H27  1  0.18066000  0.92964000  0.44765000  1.0
  H  H28  1  0.14754000  0.87066000  0.49703000  1.0
  H  H29  1  0.20509000  0.26496000  0.79737000  1.0
  H  H30  1  0.21340000  0.21958000  0.86912000  1.0
  H  H31  1  0.13832000  0.15027000  0.75406000  1.0
  H  H32  1  0.51550000  0.19786000  0.93310000  1.0
  H  H33  1  0.47952000  0.24561000  0.87074000  1.0
  H  H34  1  0.54072000  0.30872000  0.98670000  1.0
  H  H35  1  0.38190000  0.26172000  0.93489000  1.0
  H  H36  1  0.41569000  0.21146000  0.99514000  1.0
  H  H37  1  0.04399000  0.83502000  0.64050000  1.0
  H  H38  1  0.12226000  0.79850000  0.67003000  1.0
  H  H39  1  0.05190000  0.75971000  0.55730000  1.0
  H  H40  1  0.77180000  0.15518000  0.45761000  1.0
  H  H41  1  0.77208000  0.10137000  0.52174000  1.0
  H  H42  1  0.76348000  0.04883000  0.41682000  1.0
  H  H43  1  0.23991000  0.53768000  0.82149000  1.0
  H  H44  1  0.21344000  0.46196000  0.86037000  1.0
  H  H45  1  0.31224000  0.56656000  0.93067000  1.0
  H  H46  1  0.65621000  0.04608000  0.73130000  1.0
  H  H47  1  0.61905000  0.98579000  0.78035000  1.0
  H  H48  1  0.54412000  0.96419000  0.67709000  1.0
  H  H49  1  0.52301000  0.05315000  0.79404000  1.0
  H  H50  1  0.56156000  0.11467000  0.74731000  1.0
  H  H51  1  0.53824000  0.93547000  0.20930000  1.0
  H  H52  1  0.57849000  0.88040000  0.26123000  1.0
  H  H53  1  0.48570000  0.81787000  0.15293000  1.0
  C  C54  1  0.90933000  0.01892000  0.38069000  1.0
  C  C55  1  0.96247000  0.23168000  0.67070000  1.0
  C  C56  1  0.96267000  0.15780000  0.67835000  1.0
  C  C57  1  0.98294000  0.15955000  0.75727000  1.0
  C  C58  1  0.00596000  0.23505000  0.83152000  1.0
  C  C59  1  0.01154000  0.30961000  0.82760000  1.0
  C  C60  1  0.85516000  0.09545000  0.30544000  1.0
  C  C61  1  0.78596000  0.09775000  0.24885000  1.0
  C  C62  1  0.70112000  0.02514000  0.19918000  1.0
  C  C63  1  0.68564000  0.95002000  0.20797000  1.0
  C  C64  1  0.75426000  0.94869000  0.26624000  1.0
  C  C65  1  0.96039000  0.08659000  0.60802000  1.0
  C  C66  1  0.83920000  0.02096000  0.31476000  1.0
  C  C67  1  0.08351000  0.79555000  0.35808000  1.0
  C  C68  1  0.08655000  0.73198000  0.29460000  1.0
  C  C69  1  0.01264000  0.67031000  0.21222000  1.0
  C  C70  1  0.93208000  0.66795000  0.19339000  1.0
  C  C71  1  0.92623000  0.72685000  0.25757000  1.0
  C  C72  1  0.00128000  0.79141000  0.33821000  1.0
  C  C73  1  0.27049000  0.12038000  0.78505000  1.0
  C  C74  1  0.33310000  0.12513000  0.85689000  1.0
  C  C75  1  0.33008000  0.04548000  0.84786000  1.0
  C  C76  1  0.13904000  0.03422000  0.63180000  1.0
  C  C77  1  0.26825000  0.96565000  0.77042000  1.0
  C  C78  1  0.20717000  0.96265000  0.70075000  1.0
  C  C79  1  0.20747000  0.04029000  0.70731000  1.0
  C  C80  1  0.09475000  0.61513000  0.97502000  1.0
  C  C81  1  0.02368000  0.38300000  0.90390000  1.0
  C  C82  1  0.85931000  0.37553000  0.96776000  1.0
  C  C83  1  0.01890000  0.60887000  0.14215000  1.0
  C  C84  1  0.38204000  0.86314000  0.97666000  1.0
  C  C85  1  0.62771000  0.02439000  0.13353000  1.0
  C  C86  1  0.60990000  0.08444000  0.95850000  1.0
  C  C87  1  0.99262000  0.85947000  0.40007000  1.0
  C  C88  1  0.39297000  0.03872000  0.91626000  1.0
  C  C89  1  0.18311000  0.76419000  0.99838000  1.0
  C  C90  1  0.25470000  0.82496000  0.00226000  1.0
  C  C91  1  0.30591000  0.79732000  0.97228000  1.0
  C  C92  1  0.28608000  0.70933000  0.93875000  1.0
  C  C93  1  0.21648000  0.64948000  0.93848000  1.0
  C  C94  1  0.16459000  0.67727000  0.96857000  1.0
  C  C95  1  0.71750000  0.23231000  0.88229000  1.0
  C  C96  1  0.65736000  0.15754000  0.87568000  1.0
  C  C97  1  0.67287000  0.15432000  0.95330000  1.0
  C  C98  1  0.93133000  0.22888000  0.58859000  1.0
  C  C99  1  0.74748000  0.22227000  0.03341000  1.0
  C  C100  1  0.80898000  0.29263000  0.03746000  1.0
  C  C101  1  0.79294000  0.29854000  0.96151000  1.0
  C  C102  1  0.94277000  0.30403000  0.58396000  1.0
  C  C103  1  0.98214000  0.38433000  0.66111000  1.0
  C  C104  1  0.00410000  0.38756000  0.74054000  1.0
  C  C105  1  0.99297000  0.31115000  0.74732000  1.0
  C  C106  1  0.16431000  0.86592000  0.44504000  1.0
  C  C107  1  0.24478000  0.85381000  0.46603000  1.0
  C  C108  1  0.20307000  0.20798000  0.80380000  1.0
  C  C109  1  0.40408000  0.21380000  0.93481000  1.0
  C  C110  1  0.48991000  0.24313000  0.93104000  1.0
  C  C111  1  0.08890000  0.81600000  0.62354000  1.0
  C  C112  1  0.79273000  0.11180000  0.47548000  1.0
  C  C113  1  0.24330000  0.53145000  0.87890000  1.0
  C  C114  1  0.57998000  0.08523000  0.78752000  1.0
  C  C115  1  0.60114000  0.01615000  0.74123000  1.0
  C  C116  1  0.54874000  0.87857000  0.19850000  1.0
  O  O117  1  0.88433000  0.96178000  0.40295000  1.0
  O  O118  1  0.01451000  0.59268000  0.92714000  1.0
  O  O119  1  0.07680000  0.40531000  0.98222000  1.0
  O  O120  1  0.97603000  0.41701000  0.88574000  1.0
  O  O121  1  0.93844000  0.40787000  0.02490000  1.0
  O  O122  1  0.83326000  0.40450000  0.91625000  1.0
  O  O123  1  0.07599000  0.58410000  0.16399000  1.0
  O  O124  1  0.96639000  0.58517000  0.06416000  1.0
  O  O125  1  0.40896000  0.83515000  0.92323000  1.0
  O  O126  1  0.41532000  0.94313000  0.03277000  1.0
  O  O127  1  0.59647000  0.96986000  0.05433000  1.0
  O  O128  1  0.99007000  0.07487000  0.41165000  1.0
  O  O129  1  0.60233000  0.07916000  0.16228000  1.0
  O  O130  1  0.57771000  0.00277000  0.90416000  1.0
  O  O131  1  0.59309000  0.11184000  0.01966000  1.0
  O  O132  1  0.41093000  0.97807000  0.88886000  1.0
  O  O133  1  0.42432000  0.09162000  0.99790000  1.0
  O  O134  1  0.90755000  0.00563000  0.57953000  1.0
  O  O135  1  0.01843000  0.11300000  0.58722000  1.0
  O  O136  1  0.05997000  0.98057000  0.60444000  1.0
  O  O137  1  0.16462000  0.08279000  0.60015000  1.0
  O  O138  1  0.93492000  0.83312000  0.42289000  1.0
  O  O139  1  0.04140000  0.93884000  0.42415000  1.0
  O  O140  1  0.12113000  0.59043000  0.02898000  1.0
  O  O141  1  0.27205000  0.19709000  0.79145000  1.0
  O  O142  1  0.15045000  0.88575000  0.62208000  1.0
  O  O143  1  0.88635000  0.14857000  0.51298000  1.0
  O  O144  1  0.19284000  0.56321000  0.90959000  1.0
  O  O145  1  0.60295000  0.87723000  0.15858000  1.0
