# generated using pymatgen
data_MnH6C4O7
_symmetry_space_group_name_H-M   'P 1'
_cell_length_a   6.97515000
_cell_length_b   10.37510000
_cell_length_c   11.28720000
_cell_angle_alpha   65.55000000
_cell_angle_beta   89.99910000
_cell_angle_gamma   89.99920000
_symmetry_Int_Tables_number   1
_chemical_formula_structural   MnH6C4O7
_chemical_formula_sum   'Mn4 H24 C16 O28'
_cell_volume   743.57963931
_cell_formula_units_Z   4
loop_
 _symmetry_equiv_pos_site_id
 _symmetry_equiv_pos_as_xyz
  1  'x, y, z'
loop_
 _atom_site_type_symbol
 _atom_site_label
 _atom_site_symmetry_multiplicity
 _atom_site_fract_x
 _atom_site_fract_y
 _atom_site_fract_z
 _atom_site_occupancy
  Mn  Mn0  1  0.83917000  0.41604000  0.73755000  1.0
  Mn  Mn1  1  0.83918000  0.08396000  0.26246000  1.0
  Mn  Mn2  1  0.16084000  0.58396000  0.26245000  1.0
  Mn  Mn3  1  0.16082000  0.91604000  0.73754000  1.0
  H  H4  1  0.36483000  0.23243000  0.89825000  1.0
  H  H5  1  0.36483000  0.26757000  0.10176000  1.0
  H  H6  1  0.63517000  0.76757000  0.10175000  1.0
  H  H7  1  0.63516000  0.73243000  0.89824000  1.0
  H  H8  1  0.63770000  0.16030000  0.62690000  1.0
  H  H9  1  0.63771000  0.33970000  0.37309000  1.0
  H  H10  1  0.36229000  0.83970000  0.37309000  1.0
  H  H11  1  0.36229000  0.66030000  0.62691000  1.0
  H  H12  1  0.66251000  0.14250000  0.88507000  1.0
  H  H13  1  0.66252000  0.35750000  0.11493000  1.0
  H  H14  1  0.33749000  0.85750000  0.11493000  1.0
  H  H15  1  0.33748000  0.64250000  0.88507000  1.0
  H  H16  1  0.54214000  0.36897000  0.59394000  1.0
  H  H17  1  0.54214000  0.13105000  0.40606000  1.0
  H  H18  1  0.45786000  0.63105000  0.40605000  1.0
  H  H19  1  0.45786000  0.86896000  0.59394000  1.0
  H  H20  1  0.10095000  0.44810000  0.90929000  1.0
  H  H21  1  0.10096000  0.05190000  0.09071000  1.0
  H  H22  1  0.89906000  0.55190000  0.09071000  1.0
  H  H23  1  0.89904000  0.94810000  0.90929000  1.0
  H  H24  1  0.93094000  0.55220000  0.87392000  1.0
  H  H25  1  0.93095000  0.94780000  0.12608000  1.0
  H  H26  1  0.06907000  0.44780000  0.12608000  1.0
  H  H27  1  0.06905000  0.05220000  0.87392000  1.0
  C  C28  1  0.46629000  0.43890000  0.86109000  1.0
  C  C29  1  0.46630000  0.06110000  0.13892000  1.0
  C  C30  1  0.53371000  0.56110000  0.13891000  1.0
  C  C31  1  0.53370000  0.93890000  0.86108000  1.0
  C  C32  1  0.49239000  0.27838000  0.92464000  1.0
  C  C33  1  0.49239000  0.22163000  0.07537000  1.0
  C  C34  1  0.50761000  0.72162000  0.07536000  1.0
  C  C35  1  0.50761000  0.77837000  0.92463000  1.0
  C  C36  1  0.73987000  0.24450000  0.57019000  1.0
  C  C37  1  0.73987000  0.25550000  0.42981000  1.0
  C  C38  1  0.26012000  0.75551000  0.42981000  1.0
  C  C39  1  0.26012000  0.74450000  0.57018000  1.0
  C  C40  1  0.93424000  0.19787000  0.63783000  1.0
  C  C41  1  0.93426000  0.30211000  0.36216000  1.0
  C  C42  1  0.06575000  0.80213000  0.36217000  1.0
  C  C43  1  0.06575000  0.69788000  0.63784000  1.0
  O  O44  1  0.57645000  0.51397000  0.76919000  1.0
  O  O45  1  0.57646000  0.98602000  0.23081000  1.0
  O  O46  1  0.42356000  0.48602000  0.23081000  1.0
  O  O47  1  0.42354000  0.01397000  0.76919000  1.0
  O  O48  1  0.32947000  0.48754000  0.90552000  1.0
  O  O49  1  0.32947000  0.01246000  0.09448000  1.0
  O  O50  1  0.67054000  0.51246000  0.09448000  1.0
  O  O51  1  0.67053000  0.98754000  0.90551000  1.0
  O  O52  1  0.66093000  0.24510000  0.87437000  1.0
  O  O53  1  0.66093000  0.25490000  0.12563000  1.0
  O  O54  1  0.33907000  0.75490000  0.12563000  1.0
  O  O55  1  0.33907000  0.74510000  0.87437000  1.0
  O  O56  1  0.67910000  0.37590000  0.57461000  1.0
  O  O57  1  0.67910000  0.12411000  0.42539000  1.0
  O  O58  1  0.32090000  0.62410000  0.42539000  1.0
  O  O59  1  0.32090000  0.87590000  0.57461000  1.0
  O  O60  1  0.99415000  0.24984000  0.71542000  1.0
  O  O61  1  0.99416000  0.25016000  0.28458000  1.0
  O  O62  1  0.00584000  0.75016000  0.28458000  1.0
  O  O63  1  0.00584000  0.74984000  0.71541000  1.0
  O  O64  1  0.01635000  0.10122000  0.61541000  1.0
  O  O65  1  0.01637000  0.39878000  0.38459000  1.0
  O  O66  1  0.98363000  0.89877000  0.38459000  1.0
  O  O67  1  0.98363000  0.60122000  0.61541000  1.0
  O  O68  1  0.95837000  0.45144000  0.89922000  1.0
  O  O69  1  0.95838000  0.04856000  0.10078000  1.0
  O  O70  1  0.04164000  0.54856000  0.10078000  1.0
  O  O71  1  0.04162000  0.95144000  0.89922000  1.0
