# generated using pymatgen
data_LiH8C8ClO4
_symmetry_space_group_name_H-M   'P 1'
_cell_length_a   4.96325000
_cell_length_b   7.42135410
_cell_length_c   14.13280000
_cell_angle_alpha   88.88916282
_cell_angle_beta   80.65150000
_cell_angle_gamma   70.50935110
_symmetry_Int_Tables_number   1
_chemical_formula_structural   LiH8C8ClO4
_chemical_formula_sum   'Li2 H16 C16 Cl2 O8'
_cell_volume   483.88048660
_cell_formula_units_Z   2
loop_
 _symmetry_equiv_pos_site_id
 _symmetry_equiv_pos_as_xyz
  1  'x, y, z'
loop_
 _atom_site_type_symbol
 _atom_site_label
 _atom_site_symmetry_multiplicity
 _atom_site_fract_x
 _atom_site_fract_y
 _atom_site_fract_z
 _atom_site_occupancy
  Li  Li0  1  0.34275000  0.00815000  0.56162000  1.0
  Li  Li1  1  0.93424000  0.95801000  0.44005000  1.0
  H  H2  1  0.10044000  0.56245000  0.94321000  1.0
  H  H3  1  0.61009000  0.44490000  0.05361000  1.0
  H  H4  1  0.27463000  0.21656000  0.98007000  1.0
  H  H5  1  0.46229000  0.79002000  0.01435000  1.0
  H  H6  1  0.10074000  0.98836000  0.89887000  1.0
  H  H7  1  0.97596000  0.01270000  0.09172000  1.0
  H  H8  1  0.77779000  0.10222000  0.78041000  1.0
  H  H9  1  0.65314000  0.89214000  0.20631000  1.0
  H  H10  1  0.33125000  0.42689000  0.63348000  1.0
  H  H11  1  0.40452000  0.55339000  0.34884000  1.0
  H  H12  1  0.38543000  0.25716000  0.72432000  1.0
  H  H13  1  0.37138000  0.73949000  0.26682000  1.0
  H  H14  1  0.38610000  0.72691000  0.69017000  1.0
  H  H15  1  0.87761000  0.27989000  0.32715000  1.0
  H  H16  1  0.07799000  0.81178000  0.66179000  1.0
  H  H17  1  0.92349000  0.27869000  0.43326000  1.0
  C  C18  1  0.75052000  0.39708000  0.79374000  1.0
  C  C19  1  0.94223000  0.60060000  0.19458000  1.0
  C  C20  1  0.84390000  0.52411000  0.84159000  1.0
  C  C21  1  0.21423000  0.47718000  0.15003000  1.0
  C  C22  1  0.03082000  0.46036000  0.90795000  1.0
  C  C23  1  0.39948000  0.54422000  0.08559000  1.0
  C  C24  1  0.12630000  0.26663000  0.92878000  1.0
  C  C25  1  0.31541000  0.73745000  0.06386000  1.0
  C  C26  1  0.03014000  0.13982000  0.88341000  1.0
  C  C27  1  0.04501000  0.86125000  0.10711000  1.0
  C  C28  1  0.84500000  0.20410000  0.81634000  1.0
  C  C29  1  0.86060000  0.79367000  0.17186000  1.0
  C  C30  1  0.49251000  0.33858000  0.67519000  1.0
  C  C31  1  0.51539000  0.64765000  0.31299000  1.0
  C  C32  1  0.74453000  0.20230000  0.60551000  1.0
  C  C33  1  0.57094000  0.77050000  0.38857000  1.0
  Cl  Cl34  1  0.72136000  0.76494000  0.81682000  1.0
  Cl  Cl35  1  0.32139000  0.23832000  0.17842000  1.0
  O  O36  1  0.26254000  0.83305000  0.65778000  1.0
  O  O37  1  0.84396000  0.22010000  0.38824000  1.0
  O  O38  1  0.57242000  0.47089000  0.72801000  1.0
  O  O39  1  0.77551000  0.52214000  0.25645000  1.0
  O  O40  1  0.97818000  0.23743000  0.58398000  1.0
  O  O41  1  0.82764000  0.75503000  0.39457000  1.0
  O  O42  1  0.69387000  0.05982000  0.57234000  1.0
  O  O43  1  0.34382000  0.88310000  0.44024000  1.0
