# generated using pymatgen
data_AgH10C10N5O3
_symmetry_space_group_name_H-M   'P 1'
_cell_length_a   3.82699000
_cell_length_b   15.23670000
_cell_length_c   19.73900000
_cell_angle_alpha   90.00000000
_cell_angle_beta   90.00000000
_cell_angle_gamma   90.00000000
_symmetry_Int_Tables_number   1
_chemical_formula_structural   AgH10C10N5O3
_chemical_formula_sum   'Ag4 H40 C40 N20 O12'
_cell_volume   1150.99487834
_cell_formula_units_Z   4
loop_
 _symmetry_equiv_pos_site_id
 _symmetry_equiv_pos_as_xyz
  1  'x, y, z'
loop_
 _atom_site_type_symbol
 _atom_site_label
 _atom_site_symmetry_multiplicity
 _atom_site_fract_x
 _atom_site_fract_y
 _atom_site_fract_z
 _atom_site_occupancy
  Ag  Ag0  1  0.00000000  0.36971000  0.75000000  1.0
  Ag  Ag1  1  0.50000000  0.13029000  0.25000000  1.0
  Ag  Ag2  1  0.00000000  0.63029000  0.25000000  1.0
  Ag  Ag3  1  0.50000000  0.86971000  0.75000000  1.0
  H  H4  1  0.86522000  0.73249000  0.36483000  1.0
  H  H5  1  0.63477000  0.76751000  0.86483000  1.0
  H  H6  1  0.13478000  0.73249000  0.13517000  1.0
  H  H7  1  0.36522000  0.76751000  0.63517000  1.0
  H  H8  1  0.13478000  0.26751000  0.63517000  1.0
  H  H9  1  0.36523000  0.23249000  0.13517000  1.0
  H  H10  1  0.86522000  0.26751000  0.86483000  1.0
  H  H11  1  0.63478000  0.23249000  0.36483000  1.0
  H  H12  1  0.95548000  0.74206000  0.45418000  1.0
  H  H13  1  0.54452000  0.75794000  0.95417000  1.0
  H  H14  1  0.04452000  0.74206000  0.04583000  1.0
  H  H15  1  0.45548000  0.75794000  0.54582000  1.0
  H  H16  1  0.04452000  0.25794000  0.54582000  1.0
  H  H17  1  0.45548000  0.24206000  0.04582000  1.0
  H  H18  1  0.95548000  0.25794000  0.95418000  1.0
  H  H19  1  0.54452000  0.24206000  0.45418000  1.0
  H  H20  1  0.27910000  0.76733000  0.39267000  1.0
  H  H21  1  0.22089000  0.73267000  0.89267000  1.0
  H  H22  1  0.72090000  0.76733000  0.10733000  1.0
  H  H23  1  0.77911000  0.73267000  0.60733000  1.0
  H  H24  1  0.72089000  0.23267000  0.60733000  1.0
  H  H25  1  0.77911000  0.26733000  0.10733000  1.0
  H  H26  1  0.27911000  0.23267000  0.89267000  1.0
  H  H27  1  0.22089000  0.26733000  0.39267000  1.0
  H  H28  1  0.34766000  0.46740000  0.30136000  1.0
  H  H29  1  0.15234000  0.03260000  0.80136000  1.0
  H  H30  1  0.65233000  0.46740000  0.19864000  1.0
  H  H31  1  0.84767000  0.03259000  0.69864000  1.0
  H  H32  1  0.65234000  0.53260000  0.69864000  1.0
  H  H33  1  0.84767000  0.96740000  0.19864000  1.0
  H  H34  1  0.34767000  0.53259000  0.80136000  1.0
  H  H35  1  0.15233000  0.96741000  0.30136000  1.0
  H  H36  1  0.59016000  0.40229000  0.40830000  1.0
  H  H37  1  0.90984000  0.09771000  0.90830000  1.0
  H  H38  1  0.40984000  0.40229000  0.09170000  1.0
  H  H39  1  0.09016000  0.09771000  0.59170000  1.0
  H  H40  1  0.40984000  0.59771000  0.59170000  1.0
  H  H41  1  0.09016000  0.90229000  0.09170000  1.0
  H  H42  1  0.59015000  0.59771000  0.90830000  1.0
  H  H43  1  0.90983000  0.90229000  0.40830000  1.0
  C  C44  1  0.19264000  0.63076000  0.40661000  1.0
  C  C45  1  0.30734000  0.86924000  0.90661000  1.0
  C  C46  1  0.80734000  0.63076000  0.09339000  1.0
  C  C47  1  0.69265000  0.86924000  0.59339000  1.0
  C  C48  1  0.80735000  0.36924000  0.59339000  1.0
  C  C49  1  0.69265000  0.13076000  0.09339000  1.0
  C  C50  1  0.19265000  0.36924000  0.90661000  1.0
  C  C51  1  0.30735000  0.13076000  0.40661000  1.0
  C  C52  1  0.44109000  0.51717000  0.46676000  1.0
  C  C53  1  0.05891000  0.98283000  0.96676000  1.0
  C  C54  1  0.55891000  0.51717000  0.03324000  1.0
  C  C55  1  0.94109000  0.98283000  0.53324000  1.0
  C  C56  1  0.55891000  0.48283000  0.53324000  1.0
  C  C57  1  0.94109000  0.01717000  0.03324000  1.0
  C  C58  1  0.44108000  0.48283000  0.96676000  1.0
  C  C59  1  0.05891000  0.01717000  0.46676000  1.0
  C  C60  1  0.06077000  0.72283000  0.40475000  1.0
  C  C61  1  0.43922000  0.77717000  0.90475000  1.0
  C  C62  1  0.93923000  0.72283000  0.09525000  1.0
  C  C63  1  0.56077000  0.77717000  0.59525000  1.0
  C  C64  1  0.93923000  0.27717000  0.59525000  1.0
  C  C65  1  0.56078000  0.22283000  0.09525000  1.0
  C  C66  1  0.06077000  0.27717000  0.90475000  1.0
  C  C67  1  0.43923000  0.22283000  0.40475000  1.0
  C  C68  1  0.34275000  0.50370000  0.34879000  1.0
  C  C69  1  0.15725000  0.99630000  0.84879000  1.0
  C  C70  1  0.65725000  0.50370000  0.15121000  1.0
  C  C71  1  0.84276000  0.99630000  0.65121000  1.0
  C  C72  1  0.65726000  0.49630000  0.65121000  1.0
  C  C73  1  0.84275000  0.00370000  0.15121000  1.0
  C  C74  1  0.34275000  0.49630000  0.84879000  1.0
  C  C75  1  0.15725000  0.00370000  0.34879000  1.0
  C  C76  1  0.47206000  0.46701000  0.40801000  1.0
  C  C77  1  0.02794000  0.03299000  0.90801000  1.0
  C  C78  1  0.52793000  0.46701000  0.09199000  1.0
  C  C79  1  0.97206000  0.03299000  0.59199000  1.0
  C  C80  1  0.52794000  0.53299000  0.59199000  1.0
  C  C81  1  0.97207000  0.96701000  0.09199000  1.0
  C  C82  1  0.47206000  0.53299000  0.90801000  1.0
  C  C83  1  0.02793000  0.96701000  0.40801000  1.0
  N  N84  1  0.30351000  0.59868000  0.46589000  1.0
  N  N85  1  0.19648000  0.90132000  0.96589000  1.0
  N  N86  1  0.69648000  0.59868000  0.03411000  1.0
  N  N87  1  0.80352000  0.90132000  0.53411000  1.0
  N  N88  1  0.69648000  0.40132000  0.53411000  1.0
  N  N89  1  0.80352000  0.09868000  0.03411000  1.0
  N  N90  1  0.30352000  0.40132000  0.96589000  1.0
  N  N91  1  0.19649000  0.09868000  0.46589000  1.0
  N  N92  1  0.20175000  0.58474000  0.34762000  1.0
  N  N93  1  0.29824000  0.91526000  0.84762000  1.0
  N  N94  1  0.79824000  0.58474000  0.15238000  1.0
  N  N95  1  0.70176000  0.91526000  0.65238000  1.0
  N  N96  1  0.79825000  0.41526000  0.65238000  1.0
  N  N97  1  0.70176000  0.08474000  0.15238000  1.0
  N  N98  1  0.20175000  0.41526000  0.84762000  1.0
  N  N99  1  0.29824000  0.08474000  0.34762000  1.0
  N  N100  1  0.50000000  0.17787000  0.75000000  1.0
  N  N101  1  0.00000000  0.32213000  0.25000000  1.0
  N  N102  1  0.50000000  0.82213000  0.25000000  1.0
  N  N103  1  0.00000000  0.67787000  0.75000000  1.0
  O  O104  1  0.33890000  0.13740000  0.70396000  1.0
  O  O105  1  0.16110000  0.36260000  0.20396000  1.0
  O  O106  1  0.66110000  0.13740000  0.79604000  1.0
  O  O107  1  0.83890000  0.36260000  0.29604000  1.0
  O  O108  1  0.66109000  0.86260000  0.29604000  1.0
  O  O109  1  0.83891000  0.63740000  0.79604000  1.0
  O  O110  1  0.33891000  0.86260000  0.20396000  1.0
  O  O111  1  0.16108000  0.63740000  0.70395000  1.0
  O  O112  1  0.50000000  0.26247000  0.75000000  1.0
  O  O113  1  0.00000000  0.23753000  0.25000000  1.0
  O  O114  1  0.50000000  0.73753000  0.25000000  1.0
  O  O115  1  0.00000000  0.76247000  0.75000000  1.0
