# generated using pymatgen
data_Al2H13C24N(O5F)2
_symmetry_space_group_name_H-M   'P 1'
_cell_length_a   6.66706000
_cell_length_b   11.11700000
_cell_length_c   17.76875124
_cell_angle_alpha   90.78833906
_cell_angle_beta   99.11418050
_cell_angle_gamma   106.95330000
_symmetry_Int_Tables_number   1
_chemical_formula_structural   Al2H13C24N(O5F)2
_chemical_formula_sum   'Al2 H13 C24 N1 O10 F2'
_cell_volume   1241.33391906
_cell_formula_units_Z   1
loop_
 _symmetry_equiv_pos_site_id
 _symmetry_equiv_pos_as_xyz
  1  'x, y, z'
loop_
 _atom_site_type_symbol
 _atom_site_label
 _atom_site_symmetry_multiplicity
 _atom_site_fract_x
 _atom_site_fract_y
 _atom_site_fract_z
 _atom_site_occupancy
  Al  Al0  1  0.00408000  0.50215000  0.49777000  1.0
  Al  Al1  1  0.50165000  0.49710000  0.49683000  1.0
  H  H2  1  0.32618000  0.56410000  0.59004000  1.0
  H  H3  1  0.66462000  0.35669000  0.44200000  1.0
  H  H4  1  0.34694000  0.10781000  0.45934000  1.0
  H  H5  1  0.77138000  0.12688000  0.53219000  1.0
  H  H6  1  0.21386000  0.87149000  0.45714000  1.0
  H  H7  1  0.12634000  0.44164000  0.72524000  1.0
  H  H8  1  0.19953000  0.43882000  0.86706000  1.0
  H  H9  1  0.63812000  0.55442000  0.87845000  1.0
  H  H10  1  0.34688000  0.45206000  0.11421000  1.0
  H  H11  1  0.86963000  0.55543000  0.27622000  1.0
  H  H12  1  0.78079000  0.55738000  0.13457000  1.0
  H  H13  1  0.53214000  0.78829000  0.52930000  1.0
  H  H14  1  0.50853000  0.93823000  0.54824000  1.0
  C  C15  1  0.80477000  0.49484000  0.63639000  1.0
  C  C16  1  0.86278000  0.72733000  0.49542000  1.0
  C  C17  1  0.20075000  0.50738000  0.36031000  1.0
  C  C18  1  0.13724000  0.27037000  0.49719000  1.0
  C  C19  1  0.92309000  0.86590000  0.49509000  1.0
  C  C20  1  0.06544000  0.12998000  0.49704000  1.0
  C  C21  1  0.79075000  0.93692000  0.51620000  1.0
  C  C22  1  0.19463000  0.05947000  0.47576000  1.0
  C  C23  1  0.86829000  0.06985000  0.51632000  1.0
  C  C24  1  0.12069000  0.92941000  0.47470000  1.0
  C  C25  1  0.84105000  0.49483000  0.72144000  1.0
  C  C26  1  0.01974000  0.46458000  0.75978000  1.0
  C  C27  1  0.06119000  0.46374000  0.83870000  1.0
  C  C28  1  0.92454000  0.49606000  0.88325000  1.0
  C  C29  1  0.74530000  0.52734000  0.84596000  1.0
  C  C30  1  0.70661000  0.52556000  0.76695000  1.0
  C  C31  1  0.96756000  0.49870000  0.96388000  1.0
  C  C32  1  0.00776000  0.50217000  0.03347000  1.0
  C  C33  1  0.05720000  0.50525000  0.11402000  1.0
  C  C34  1  0.24193000  0.47703000  0.14867000  1.0
  C  C35  1  0.28940000  0.47940000  0.22762000  1.0
  C  C36  1  0.15832000  0.50792000  0.27535000  1.0
  C  C37  1  0.97389000  0.53517000  0.23963000  1.0
  C  C38  1  0.92358000  0.53508000  0.16088000  1.0
  N  N39  1  0.59910000  0.88322000  0.53754000  1.0
  O  O40  1  0.96594000  0.50280000  0.60425000  1.0
  O  O41  1  0.66916000  0.66847000  0.50003000  1.0
  O  O42  1  0.38593000  0.51026000  0.39303000  1.0
  O  O43  1  0.99771000  0.32704000  0.50087000  1.0
  O  O44  1  0.04413000  0.50353000  0.39384000  1.0
  O  O45  1  0.33231000  0.32321000  0.49277000  1.0
  O  O46  1  0.61793000  0.48719000  0.60282000  1.0
  O  O47  1  0.00658000  0.67348000  0.49258000  1.0
  O  O48  1  0.29635000  0.55424000  0.53457000  1.0
  O  O49  1  0.71224000  0.44227000  0.46441000  1.0
  F  F50  1  0.53272000  0.55909000  0.73492000  1.0
  F  F51  1  0.46776000  0.44915000  0.25719000  1.0
