# generated using pymatgen
data_UH6C5O6F
_symmetry_space_group_name_H-M   'P 1'
_cell_length_a   5.82657000
_cell_length_b   9.29356283
_cell_length_c   11.08941899
_cell_angle_alpha   65.76036863
_cell_angle_beta   85.76325496
_cell_angle_gamma   78.35963205
_symmetry_Int_Tables_number   1
_chemical_formula_structural   UH6C5O6F
_chemical_formula_sum   'U2 H12 C10 O12 F2'
_cell_volume   536.25818432
_cell_formula_units_Z   2
loop_
 _symmetry_equiv_pos_site_id
 _symmetry_equiv_pos_as_xyz
  1  'x, y, z'
loop_
 _atom_site_type_symbol
 _atom_site_label
 _atom_site_symmetry_multiplicity
 _atom_site_fract_x
 _atom_site_fract_y
 _atom_site_fract_z
 _atom_site_occupancy
  U  U0  1  0.50097000  0.09750000  0.80562000  1.0
  U  U1  1  0.49899000  0.90249000  0.19437000  1.0
  H  H2  1  0.88582000  0.58327000  0.73343000  1.0
  H  H3  1  0.88699000  0.31997000  0.26262000  1.0
  H  H4  1  0.11425000  0.41674000  0.26659000  1.0
  H  H5  1  0.11305000  0.68008000  0.73736000  1.0
  H  H6  1  0.28935000  0.66301000  0.53233000  1.0
  H  H7  1  0.28580000  0.19263000  0.47172000  1.0
  H  H8  1  0.71072000  0.33697000  0.46769000  1.0
  H  H9  1  0.71422000  0.80734000  0.52830000  1.0
  H  H10  1  0.04850000  0.59427000  0.50318000  1.0
  H  H11  1  0.04284000  0.09920000  0.49428000  1.0
  H  H12  1  0.95155000  0.40576000  0.49681000  1.0
  H  H13  1  0.95715000  0.90081000  0.50571000  1.0
  C  C14  1  0.28439000  0.42337000  0.65782000  1.0
  C  C15  1  0.28148000  0.08068000  0.34265000  1.0
  C  C16  1  0.71559000  0.57662000  0.34218000  1.0
  C  C17  1  0.71852000  0.91931000  0.65735000  1.0
  C  C18  1  0.15088000  0.59439000  0.58221000  1.0
  C  C19  1  0.14753000  0.17646000  0.41824000  1.0
  C  C20  1  0.84916000  0.40561000  0.41780000  1.0
  C  C21  1  0.85247000  0.82356000  0.58175000  1.0
  C  C22  1  0.00032000  0.66462000  0.67002000  1.0
  C  C23  1  0.99973000  0.33540000  0.32998000  1.0
  O  O24  1  0.36770000  0.33868000  0.59269000  1.0
  O  O25  1  0.36245000  0.93103000  0.40725000  1.0
  O  O26  1  0.63230000  0.66131000  0.40731000  1.0
  O  O27  1  0.63753000  0.06896000  0.59276000  1.0
  O  O28  1  0.76005000  0.17744000  0.80128000  1.0
  O  O29  1  0.75841000  0.97408000  0.20583000  1.0
  O  O30  1  0.23990000  0.82255000  0.19870000  1.0
  O  O31  1  0.24156000  0.02590000  0.79417000  1.0
  O  O32  1  0.30972000  0.36956000  0.78198000  1.0
  O  O33  1  0.30947000  0.15074000  0.21923000  1.0
  O  O34  1  0.69020000  0.63041000  0.21803000  1.0
  O  O35  1  0.69051000  0.84925000  0.78077000  1.0
  F  F36  1  0.36362000  0.11577000  0.99987000  1.0
  F  F37  1  0.63635000  0.88421000  0.00014000  1.0
