# generated using pymatgen
data_CuH5C5IN3
_symmetry_space_group_name_H-M   'P 1'
_cell_length_a   19.80712314
_cell_length_b   19.80710000
_cell_length_c   19.80730000
_cell_angle_alpha   109.47100000
_cell_angle_beta   109.47104732
_cell_angle_gamma   109.47122916
_symmetry_Int_Tables_number   1
_chemical_formula_structural   CuH5C5IN3
_chemical_formula_sum   'Cu24 H120 C120 I24 N72'
_cell_volume   5982.01847712
_cell_formula_units_Z   24
loop_
 _symmetry_equiv_pos_site_id
 _symmetry_equiv_pos_as_xyz
  1  'x, y, z'
loop_
 _atom_site_type_symbol
 _atom_site_label
 _atom_site_symmetry_multiplicity
 _atom_site_fract_x
 _atom_site_fract_y
 _atom_site_fract_z
 _atom_site_occupancy
  Cu  Cu0  1  0.20466000  0.87579000  0.24791000  1.0
  Cu  Cu1  1  0.12786000  0.95676000  0.25208000  1.0
  Cu  Cu2  1  0.37213000  0.62422000  0.82888000  1.0
  Cu  Cu3  1  0.29533000  0.54325000  0.67111000  1.0
  Cu  Cu4  1  0.32889000  0.37213000  0.12422000  1.0
  Cu  Cu5  1  0.17112000  0.29533000  0.04325000  1.0
  Cu  Cu6  1  0.74791000  0.20466000  0.37578000  1.0
  Cu  Cu7  1  0.75209000  0.12788000  0.45676000  1.0
  Cu  Cu8  1  0.95676000  0.75209000  0.62788000  1.0
  Cu  Cu9  1  0.87578000  0.74791000  0.70467000  1.0
  Cu  Cu10  1  0.54324000  0.17111000  0.79533000  1.0
  Cu  Cu11  1  0.62422000  0.32889000  0.87213000  1.0
  Cu  Cu12  1  0.45675000  0.62787000  0.75209000  1.0
  Cu  Cu13  1  0.37578000  0.70467000  0.74792000  1.0
  Cu  Cu14  1  0.04324000  0.79533000  0.17111000  1.0
  Cu  Cu15  1  0.12421000  0.87213000  0.32888000  1.0
  Cu  Cu16  1  0.70467000  0.24791000  0.87578000  1.0
  Cu  Cu17  1  0.62787000  0.25208000  0.95676000  1.0
  Cu  Cu18  1  0.87213000  0.82889000  0.62422000  1.0
  Cu  Cu19  1  0.79533000  0.67111000  0.54324000  1.0
  Cu  Cu20  1  0.82888000  0.12421000  0.37212000  1.0
  Cu  Cu21  1  0.67111000  0.04324000  0.29533000  1.0
  Cu  Cu22  1  0.24791000  0.37578000  0.20467000  1.0
  Cu  Cu23  1  0.25209000  0.45676000  0.12787000  1.0
  H  H24  1  0.28838000  0.98536000  0.19780000  1.0
  H  H25  1  0.44948000  0.84845000  0.22966000  1.0
  H  H26  1  0.55487000  0.02063000  0.13375000  1.0
  H  H27  1  0.44623000  0.97615000  0.06481000  1.0
  H  H28  1  0.49507000  0.05638000  0.16973000  1.0
  H  H29  1  0.28756000  0.09058000  0.30220000  1.0
  H  H30  1  0.11879000  0.21982000  0.27034000  1.0
  H  H31  1  0.38689000  0.42112000  0.36625000  1.0
  H  H32  1  0.41134000  0.38142000  0.43519000  1.0
  H  H33  1  0.38665000  0.32533000  0.33026000  1.0
  H  H34  1  0.21244000  0.51464000  0.80302000  1.0
  H  H35  1  0.38121000  0.65156000  0.10103000  1.0
  H  H36  1  0.11311000  0.47936000  0.03423000  1.0
  H  H37  1  0.08866000  0.52385000  0.97008000  1.0
  H  H38  1  0.11335000  0.44361000  0.93869000  1.0
  H  H39  1  0.21162000  0.40942000  0.69698000  1.0
  H  H40  1  0.05052000  0.28018000  0.39897000  1.0
  H  H41  1  0.94513000  0.07888000  0.46577000  1.0
  H  H42  1  0.05377000  0.11858000  0.52992000  1.0
  H  H43  1  0.00493000  0.17467000  0.56132000  1.0
  H  H44  1  0.30302000  0.21244000  0.01464000  1.0
  H  H45  1  0.60103000  0.38120000  0.15155000  1.0
  H  H46  1  0.53424000  0.11312000  0.97937000  1.0
  H  H47  1  0.47008000  0.08866000  0.02385000  1.0
  H  H48  1  0.43868000  0.11335000  0.94361000  1.0
  H  H49  1  0.19698000  0.21162000  0.90941000  1.0
  H  H50  1  0.89897000  0.05052000  0.78018000  1.0
  H  H51  1  0.96577000  0.94513000  0.57888000  1.0
  H  H52  1  0.02992000  0.05377000  0.61858000  1.0
  H  H53  1  0.06132000  0.00493000  0.67467000  1.0
  H  H54  1  0.69780000  0.28838000  0.48536000  1.0
  H  H55  1  0.72965000  0.44948000  0.34844000  1.0
  H  H56  1  0.63375000  0.55487000  0.52064000  1.0
  H  H57  1  0.56481000  0.44623000  0.47615000  1.0
  H  H58  1  0.66974000  0.49507000  0.55639000  1.0
  H  H59  1  0.80220000  0.28756000  0.59058000  1.0
  H  H60  1  0.77034000  0.11879000  0.71982000  1.0
  H  H61  1  0.86625000  0.38688000  0.92112000  1.0
  H  H62  1  0.93519000  0.41134000  0.88142000  1.0
  H  H63  1  0.83027000  0.38666000  0.82534000  1.0
  H  H64  1  0.09058000  0.80220000  0.78756000  1.0
  H  H65  1  0.21982000  0.77034000  0.61879000  1.0
  H  H66  1  0.42112000  0.86625000  0.88689000  1.0
  H  H67  1  0.38142000  0.93519000  0.91134000  1.0
  H  H68  1  0.32533000  0.83026000  0.88665000  1.0
  H  H69  1  0.98536000  0.69780000  0.78838000  1.0
  H  H70  1  0.84845000  0.72966000  0.94948000  1.0
  H  H71  1  0.02064000  0.63375000  0.05487000  1.0
  H  H72  1  0.97615000  0.56481000  0.94623000  1.0
  H  H73  1  0.05639000  0.66974000  0.99507000  1.0
  H  H74  1  0.40942000  0.19699000  0.71162000  1.0
  H  H75  1  0.28018000  0.89897000  0.55052000  1.0
  H  H76  1  0.07888000  0.96577000  0.44513000  1.0
  H  H77  1  0.11858000  0.02992000  0.55377000  1.0
  H  H78  1  0.17467000  0.06132000  0.50493000  1.0
  H  H79  1  0.51464000  0.30302000  0.71244000  1.0
  H  H80  1  0.65155000  0.60103000  0.88120000  1.0
  H  H81  1  0.47936000  0.53423000  0.61311000  1.0
  H  H82  1  0.52385000  0.47008000  0.58866000  1.0
  H  H83  1  0.44361000  0.43868000  0.61335000  1.0
  H  H84  1  0.59058000  0.78756000  0.80220000  1.0
  H  H85  1  0.71982000  0.61879000  0.77034000  1.0
  H  H86  1  0.92112000  0.88688000  0.86625000  1.0
  H  H87  1  0.88142000  0.91134000  0.93519000  1.0
  H  H88  1  0.82534000  0.88666000  0.83027000  1.0
  H  H89  1  0.48536000  0.78838000  0.69780000  1.0
  H  H90  1  0.34845000  0.94948000  0.72966000  1.0
  H  H91  1  0.52064000  0.05487000  0.63375000  1.0
  H  H92  1  0.47615000  0.94623000  0.56481000  1.0
  H  H93  1  0.55639000  0.99508000  0.66974000  1.0
  H  H94  1  0.90942000  0.71162000  0.19698000  1.0
  H  H95  1  0.78018000  0.55053000  0.89897000  1.0
  H  H96  1  0.57888000  0.44513000  0.96577000  1.0
  H  H97  1  0.61858000  0.55377000  0.02992000  1.0
  H  H98  1  0.67466000  0.50492000  0.06131000  1.0
  H  H99  1  0.01464000  0.71244000  0.30302000  1.0
  H  H100  1  0.15155000  0.88120000  0.60103000  1.0
  H  H101  1  0.97936000  0.61311000  0.53423000  1.0
  H  H102  1  0.02385000  0.58866000  0.47008000  1.0
  H  H103  1  0.94361000  0.61335000  0.43868000  1.0
  H  H104  1  0.78838000  0.19780000  0.98536000  1.0
  H  H105  1  0.94948000  0.22966000  0.84845000  1.0
  H  H106  1  0.05487000  0.13375000  0.02063000  1.0
  H  H107  1  0.94623000  0.06481000  0.97615000  1.0
  H  H108  1  0.99507000  0.16974000  0.05638000  1.0
  H  H109  1  0.78757000  0.30221000  0.09059000  1.0
  H  H110  1  0.61879000  0.27034000  0.21982000  1.0
  H  H111  1  0.88689000  0.36626000  0.42112000  1.0
  H  H112  1  0.91134000  0.43519000  0.38142000  1.0
  H  H113  1  0.88665000  0.33026000  0.32533000  1.0
  H  H114  1  0.71244000  0.80302000  0.51464000  1.0
  H  H115  1  0.88121000  0.10104000  0.65156000  1.0
  H  H116  1  0.61311000  0.03423000  0.47936000  1.0
  H  H117  1  0.58866000  0.97008000  0.52385000  1.0
  H  H118  1  0.61335000  0.93868000  0.44361000  1.0
  H  H119  1  0.71162000  0.69698000  0.40942000  1.0
  H  H120  1  0.55052000  0.39897000  0.28018000  1.0
  H  H121  1  0.44513000  0.46577000  0.07888000  1.0
  H  H122  1  0.55377000  0.52992000  0.11858000  1.0
  H  H123  1  0.50493000  0.56132000  0.17467000  1.0
  H  H124  1  0.80302000  0.01464000  0.21244000  1.0
  H  H125  1  0.10103000  0.15155000  0.38121000  1.0
  H  H126  1  0.03423000  0.97936000  0.11311000  1.0
  H  H127  1  0.97008000  0.02385000  0.08866000  1.0
  H  H128  1  0.93868000  0.94361000  0.11335000  1.0
  H  H129  1  0.69698000  0.90941000  0.21162000  1.0
  H  H130  1  0.39897000  0.78018000  0.05052000  1.0
  H  H131  1  0.46577000  0.57888000  0.94513000  1.0
  H  H132  1  0.52992000  0.61858000  0.05377000  1.0
  H  H133  1  0.56132000  0.67467000  0.00493000  1.0
  H  H134  1  0.19780000  0.48537000  0.28838000  1.0
  H  H135  1  0.22966000  0.34845000  0.44948000  1.0
  H  H136  1  0.13375000  0.52064000  0.55487000  1.0
  H  H137  1  0.06481000  0.47615000  0.44623000  1.0
  H  H138  1  0.16974000  0.55639000  0.49508000  1.0
  H  H139  1  0.30220000  0.59058000  0.28756000  1.0
  H  H140  1  0.27035000  0.71983000  0.11880000  1.0
  H  H141  1  0.36625000  0.92112000  0.38688000  1.0
  H  H142  1  0.43519000  0.88142000  0.41134000  1.0
  H  H143  1  0.33026000  0.82533000  0.38665000  1.0
  C  C144  1  0.32427000  0.95407000  0.20374000  1.0
  C  C145  1  0.42088000  0.92685000  0.18219000  1.0
  C  C146  1  0.41139000  0.87668000  0.21889000  1.0
  C  C147  1  0.35422000  0.86787000  0.24510000  1.0
  C  C148  1  0.49403000  0.00225000  0.12898000  1.0
  C  C149  1  0.25033000  0.12053000  0.29626000  1.0
  C  C150  1  0.24466000  0.23869000  0.31781000  1.0
  C  C151  1  0.15779000  0.19250000  0.28111000  1.0
  C  C152  1  0.12277000  0.10912000  0.25490000  1.0
  C  C153  1  0.37327000  0.36505000  0.37101000  1.0
  C  C154  1  0.24967000  0.54593000  0.87019000  1.0
  C  C155  1  0.25534000  0.57315000  0.99403000  1.0
  C  C156  1  0.34221000  0.62333000  0.03471000  1.0
  C  C157  1  0.37723000  0.63213000  0.98635000  1.0
  C  C158  1  0.12673000  0.49774000  0.99178000  1.0
  C  C159  1  0.17573000  0.37947000  0.62980000  1.0
  C  C160  1  0.07912000  0.26131000  0.50597000  1.0
  C  C161  1  0.08861000  0.30750000  0.46529000  1.0
  C  C162  1  0.14578000  0.39088000  0.51365000  1.0
  C  C163  1  0.00597000  0.13496000  0.50823000  1.0
  C  C164  1  0.37020000  0.24968000  0.04593000  1.0
  C  C165  1  0.49403000  0.25534000  0.07315000  1.0
  C  C166  1  0.53471000  0.34221000  0.12332000  1.0
  C  C167  1  0.48635000  0.37723000  0.13213000  1.0
  C  C168  1  0.49178000  0.12674000  0.99775000  1.0
  C  C169  1  0.12981000  0.17574000  0.87948000  1.0
  C  C170  1  0.00597000  0.07912000  0.76131000  1.0
  C  C171  1  0.96529000  0.08861000  0.80750000  1.0
  C  C172  1  0.01365000  0.14578000  0.89088000  1.0
  C  C173  1  0.00823000  0.00597000  0.63496000  1.0
  C  C174  1  0.70374000  0.32426000  0.45407000  1.0
  C  C175  1  0.68219000  0.42088000  0.42685000  1.0
  C  C176  1  0.71888000  0.41138000  0.37667000  1.0
  C  C177  1  0.74510000  0.35422000  0.36787000  1.0
  C  C178  1  0.62899000  0.49404000  0.50226000  1.0
  C  C179  1  0.79626000  0.25033000  0.62052000  1.0
  C  C180  1  0.81781000  0.24466000  0.73869000  1.0
  C  C181  1  0.78111000  0.15779000  0.69250000  1.0
  C  C182  1  0.75489000  0.12276000  0.60911000  1.0
  C  C183  1  0.87101000  0.37327000  0.86504000  1.0
  C  C184  1  0.12052000  0.79626000  0.75033000  1.0
  C  C185  1  0.23869000  0.81782000  0.74466000  1.0
  C  C186  1  0.19250000  0.78111000  0.65779000  1.0
  C  C187  1  0.10912000  0.75490000  0.62277000  1.0
  C  C188  1  0.36504000  0.87101000  0.87327000  1.0
  C  C189  1  0.95407000  0.70374000  0.82426000  1.0
  C  C190  1  0.92685000  0.68219000  0.92088000  1.0
  C  C191  1  0.87668000  0.71889000  0.91139000  1.0
  C  C192  1  0.86787000  0.74510000  0.85422000  1.0
  C  C193  1  0.00226000  0.62899000  0.99403000  1.0
  C  C194  1  0.37948000  0.12981000  0.67574000  1.0
  C  C195  1  0.26131000  0.00597000  0.57912000  1.0
  C  C196  1  0.30750000  0.96529000  0.58861000  1.0
  C  C197  1  0.39088000  0.01365000  0.64577000  1.0
  C  C198  1  0.13496000  0.00823000  0.50597000  1.0
  C  C199  1  0.54593000  0.37019000  0.74967000  1.0
  C  C200  1  0.57315000  0.49403000  0.75534000  1.0
  C  C201  1  0.62332000  0.53471000  0.84221000  1.0
  C  C202  1  0.63213000  0.48635000  0.87724000  1.0
  C  C203  1  0.49774000  0.49177000  0.62673000  1.0
  C  C204  1  0.62052000  0.75032000  0.79625000  1.0
  C  C205  1  0.73869000  0.74466000  0.81781000  1.0
  C  C206  1  0.69250000  0.65779000  0.78111000  1.0
  C  C207  1  0.60912000  0.62277000  0.75490000  1.0
  C  C208  1  0.86505000  0.87327000  0.87102000  1.0
  C  C209  1  0.45407000  0.82427000  0.70374000  1.0
  C  C210  1  0.42685000  0.92088000  0.68219000  1.0
  C  C211  1  0.37668000  0.91139000  0.71889000  1.0
  C  C212  1  0.36787000  0.85422000  0.74510000  1.0
  C  C213  1  0.50226000  0.99404000  0.62899000  1.0
  C  C214  1  0.87948000  0.67573000  0.12981000  1.0
  C  C215  1  0.76131000  0.57912000  0.00597000  1.0
  C  C216  1  0.80750000  0.58861000  0.96529000  1.0
  C  C217  1  0.89089000  0.64578000  0.01366000  1.0
  C  C218  1  0.63495000  0.50596000  0.00822000  1.0
  C  C219  1  0.04593000  0.74967000  0.37020000  1.0
  C  C220  1  0.07315000  0.75534000  0.49403000  1.0
  C  C221  1  0.12332000  0.84220000  0.53471000  1.0
  C  C222  1  0.13213000  0.87723000  0.48635000  1.0
  C  C223  1  0.99774000  0.62673000  0.49178000  1.0
  C  C224  1  0.82426000  0.20374000  0.95406000  1.0
  C  C225  1  0.92088000  0.18219000  0.92685000  1.0
  C  C226  1  0.91139000  0.21889000  0.87668000  1.0
  C  C227  1  0.85422000  0.24510000  0.86787000  1.0
  C  C228  1  0.99403000  0.12899000  0.00225000  1.0
  C  C229  1  0.75033000  0.29626000  0.12052000  1.0
  C  C230  1  0.74466000  0.31781000  0.23869000  1.0
  C  C231  1  0.65779000  0.28111000  0.19250000  1.0
  C  C232  1  0.62277000  0.25490000  0.10912000  1.0
  C  C233  1  0.87327000  0.37101000  0.36504000  1.0
  C  C234  1  0.74968000  0.87020000  0.54594000  1.0
  C  C235  1  0.75534000  0.99403000  0.57315000  1.0
  C  C236  1  0.84221000  0.03471000  0.62332000  1.0
  C  C237  1  0.87723000  0.98635000  0.63213000  1.0
  C  C238  1  0.62673000  0.99177000  0.49774000  1.0
  C  C239  1  0.67573000  0.62980000  0.37947000  1.0
  C  C240  1  0.57912000  0.50597000  0.26131000  1.0
  C  C241  1  0.58861000  0.46529000  0.30750000  1.0
  C  C242  1  0.64578000  0.51365000  0.39088000  1.0
  C  C243  1  0.50597000  0.50823000  0.13496000  1.0
  C  C244  1  0.87020000  0.04593000  0.24968000  1.0
  C  C245  1  0.99403000  0.07315000  0.25534000  1.0
  C  C246  1  0.03471000  0.12332000  0.34221000  1.0
  C  C247  1  0.98635000  0.13213000  0.37723000  1.0
  C  C248  1  0.99177000  0.99774000  0.12673000  1.0
  C  C249  1  0.62980000  0.87947000  0.17573000  1.0
  C  C250  1  0.50597000  0.76131000  0.07912000  1.0
  C  C251  1  0.46529000  0.80750000  0.08861000  1.0
  C  C252  1  0.51365000  0.89088000  0.14578000  1.0
  C  C253  1  0.50822000  0.63495000  0.00596000  1.0
  C  C254  1  0.20374000  0.45407000  0.32426000  1.0
  C  C255  1  0.18219000  0.42685000  0.42088000  1.0
  C  C256  1  0.21889000  0.37669000  0.41139000  1.0
  C  C257  1  0.24511000  0.36788000  0.35423000  1.0
  C  C258  1  0.12899000  0.50226000  0.49404000  1.0
  C  C259  1  0.29626000  0.62053000  0.25033000  1.0
  C  C260  1  0.31781000  0.73869000  0.24466000  1.0
  C  C261  1  0.28111000  0.69250000  0.15779000  1.0
  C  C262  1  0.25490000  0.60912000  0.12277000  1.0
  C  C263  1  0.37101000  0.86504000  0.37327000  1.0
  I  I264  1  0.13246000  0.73312000  0.23924000  1.0
  I  I265  1  0.99389000  0.89323000  0.26076000  1.0
  I  I266  1  0.50611000  0.76687000  0.89933000  1.0
  I  I267  1  0.36754000  0.60678000  0.60067000  1.0
  I  I268  1  0.39934000  0.50611000  0.26688000  1.0
  I  I269  1  0.10066000  0.36753000  0.10678000  1.0
  I  I270  1  0.73924000  0.13246000  0.23312000  1.0
  I  I271  1  0.76076000  0.99389000  0.39322000  1.0
  I  I272  1  0.89323000  0.76076000  0.49389000  1.0
  I  I273  1  0.73313000  0.73924000  0.63247000  1.0
  I  I274  1  0.60677000  0.10065000  0.86753000  1.0
  I  I275  1  0.76687000  0.39933000  0.00611000  1.0
  I  I276  1  0.39322000  0.49388000  0.76076000  1.0
  I  I277  1  0.23313000  0.63246000  0.73924000  1.0
  I  I278  1  0.10678000  0.86754000  0.10067000  1.0
  I  I279  1  0.26687000  0.00611000  0.39933000  1.0
  I  I280  1  0.63246000  0.23923000  0.73312000  1.0
  I  I281  1  0.49389000  0.26076000  0.89323000  1.0
  I  I282  1  0.00612000  0.89934000  0.76688000  1.0
  I  I283  1  0.86753000  0.60066000  0.60677000  1.0
  I  I284  1  0.89934000  0.26687000  0.50611000  1.0
  I  I285  1  0.60066000  0.10677000  0.36754000  1.0
  I  I286  1  0.23924000  0.23312000  0.13247000  1.0
  I  I287  1  0.26076000  0.39322000  0.99389000  1.0
  N  N288  1  0.37746000  0.96685000  0.17664000  1.0
  N  N289  1  0.30738000  0.90441000  0.23596000  1.0
  N  N290  1  0.47648000  0.94068000  0.15536000  1.0
  N  N291  1  0.29020000  0.20081000  0.32336000  1.0
  N  N292  1  0.16844000  0.07141000  0.26403000  1.0
  N  N293  1  0.28532000  0.32112000  0.34464000  1.0
  N  N294  1  0.20980000  0.53316000  0.91062000  1.0
  N  N295  1  0.33156000  0.59560000  0.90297000  1.0
  N  N296  1  0.21468000  0.55932000  0.03580000  1.0
  N  N297  1  0.12254000  0.29918000  0.58938000  1.0
  N  N298  1  0.19262000  0.42858000  0.59703000  1.0
  N  N299  1  0.02352000  0.17888000  0.46420000  1.0
  N  N300  1  0.41062000  0.20980000  0.03316000  1.0
  N  N301  1  0.40297000  0.33155000  0.09560000  1.0
  N  N302  1  0.53580000  0.21468000  0.05932000  1.0
  N  N303  1  0.08938000  0.12254000  0.79918000  1.0
  N  N304  1  0.09703000  0.19262000  0.92859000  1.0
  N  N305  1  0.96420000  0.02352000  0.67888000  1.0
  N  N306  1  0.67664000  0.37746000  0.46684000  1.0
  N  N307  1  0.73596000  0.30737000  0.40440000  1.0
  N  N308  1  0.65536000  0.47648000  0.44068000  1.0
  N  N309  1  0.82336000  0.29021000  0.70082000  1.0
  N  N310  1  0.76404000  0.16845000  0.57142000  1.0
  N  N311  1  0.84464000  0.28532000  0.82112000  1.0
  N  N312  1  0.20082000  0.82336000  0.79021000  1.0
  N  N313  1  0.07141000  0.76403000  0.66844000  1.0
  N  N314  1  0.32112000  0.84465000  0.78532000  1.0
  N  N315  1  0.96684000  0.67664000  0.87745000  1.0
  N  N316  1  0.90441000  0.73597000  0.80738000  1.0
  N  N317  1  0.94067000  0.65535000  0.97647000  1.0
  N  N318  1  0.29918000  0.08938000  0.62254000  1.0
  N  N319  1  0.42859000  0.09703000  0.69263000  1.0
  N  N320  1  0.17888000  0.96420000  0.52352000  1.0
  N  N321  1  0.53316000  0.41062000  0.70980000  1.0
  N  N322  1  0.59559000  0.40296000  0.83155000  1.0
  N  N323  1  0.55933000  0.53580000  0.71469000  1.0
  N  N324  1  0.70082000  0.79021000  0.82336000  1.0
  N  N325  1  0.57141000  0.66844000  0.76403000  1.0
  N  N326  1  0.82112000  0.78532000  0.84464000  1.0
  N  N327  1  0.46685000  0.87746000  0.67665000  1.0
  N  N328  1  0.40441000  0.80738000  0.73597000  1.0
  N  N329  1  0.44068000  0.97648000  0.65536000  1.0
  N  N330  1  0.79918000  0.62254000  0.08938000  1.0
  N  N331  1  0.92859000  0.69263000  0.09703000  1.0
  N  N332  1  0.67888000  0.52353000  0.96420000  1.0
  N  N333  1  0.03316000  0.70980000  0.41062000  1.0
  N  N334  1  0.09559000  0.83155000  0.40297000  1.0
  N  N335  1  0.05932000  0.71468000  0.53580000  1.0
  N  N336  1  0.87746000  0.17664000  0.96684000  1.0
  N  N337  1  0.80737000  0.23596000  0.90440000  1.0
  N  N338  1  0.97648000  0.15536000  0.94068000  1.0
  N  N339  1  0.79020000  0.32336000  0.20082000  1.0
  N  N340  1  0.66844000  0.26403000  0.07141000  1.0
  N  N341  1  0.78532000  0.34464000  0.32112000  1.0
  N  N342  1  0.70980000  0.91062000  0.53316000  1.0
  N  N343  1  0.83156000  0.90297000  0.59560000  1.0
  N  N344  1  0.71468000  0.03580000  0.55932000  1.0
  N  N345  1  0.62254000  0.58939000  0.29918000  1.0
  N  N346  1  0.69262000  0.59703000  0.42858000  1.0
  N  N347  1  0.52352000  0.46420000  0.17888000  1.0
  N  N348  1  0.91061000  0.03315000  0.20979000  1.0
  N  N349  1  0.90297000  0.09559000  0.33156000  1.0
  N  N350  1  0.03580000  0.05932000  0.21468000  1.0
  N  N351  1  0.58939000  0.79919000  0.12255000  1.0
  N  N352  1  0.59703000  0.92859000  0.19262000  1.0
  N  N353  1  0.46420000  0.67888000  0.02352000  1.0
  N  N354  1  0.17664000  0.46685000  0.37746000  1.0
  N  N355  1  0.23596000  0.40441000  0.30738000  1.0
  N  N356  1  0.15535000  0.44067000  0.47647000  1.0
  N  N357  1  0.32336000  0.70082000  0.29020000  1.0
  N  N358  1  0.26404000  0.57141000  0.16845000  1.0
  N  N359  1  0.34465000  0.82112000  0.28532000  1.0
