# generated using pymatgen
data_CuH14C20SN4O3
_symmetry_space_group_name_H-M   'P 1'
_cell_length_a   10.64660000
_cell_length_b   13.57880000
_cell_length_c   17.55110000
_cell_angle_alpha   89.53860000
_cell_angle_beta   75.96100000
_cell_angle_gamma   69.52600000
_symmetry_Int_Tables_number   1
_chemical_formula_structural   CuH14C20SN4O3
_chemical_formula_sum   'Cu4 H56 C80 S4 N16 O12'
_cell_volume   2297.79971222
_cell_formula_units_Z   4
loop_
 _symmetry_equiv_pos_site_id
 _symmetry_equiv_pos_as_xyz
  1  'x, y, z'
loop_
 _atom_site_type_symbol
 _atom_site_label
 _atom_site_symmetry_multiplicity
 _atom_site_fract_x
 _atom_site_fract_y
 _atom_site_fract_z
 _atom_site_occupancy
  Cu  Cu0  1  0.02277000  0.84856000  0.61973000  1.0
  Cu  Cu1  1  0.97722000  0.15144000  0.38027000  1.0
  Cu  Cu2  1  0.67943000  0.29874000  0.34731000  1.0
  Cu  Cu3  1  0.32057000  0.70126000  0.65269000  1.0
  H  H4  1  0.01601000  0.78298000  0.46283000  1.0
  H  H5  1  0.98398000  0.21702000  0.53717000  1.0
  H  H6  1  0.70336000  0.32772000  0.51518000  1.0
  H  H7  1  0.29662000  0.67228000  0.48481000  1.0
  H  H8  1  0.66770000  0.51379000  0.32586000  1.0
  H  H9  1  0.33230000  0.48621000  0.67413000  1.0
  H  H10  1  0.62011000  0.12145000  0.13822000  1.0
  H  H11  1  0.37991000  0.87856000  0.86179000  1.0
  H  H12  1  0.78226000  0.44347000  0.58022000  1.0
  H  H13  1  0.21772000  0.55653000  0.41978000  1.0
  H  H14  1  0.74826000  0.63784000  0.38314000  1.0
  H  H15  1  0.25175000  0.36216000  0.61684000  1.0
  H  H16  1  0.65455000  0.48460000  0.82364000  1.0
  H  H17  1  0.34547000  0.51539000  0.17635000  1.0
  H  H18  1  0.28133000  0.99231000  0.39260000  1.0
  H  H19  1  0.71867000  0.00770000  0.60741000  1.0
  H  H20  1  0.54079000  0.17581000  0.29290000  1.0
  H  H21  1  0.45921000  0.82419000  0.70710000  1.0
  H  H22  1  0.89858000  0.08775000  0.72209000  1.0
  H  H23  1  0.10142000  0.91225000  0.27791000  1.0
  H  H24  1  0.25436000  0.71310000  0.94656000  1.0
  H  H25  1  0.74566000  0.28689000  0.05343000  1.0
  H  H26  1  0.38663000  0.08085000  0.34713000  1.0
  H  H27  1  0.61336000  0.91915000  0.65287000  1.0
  H  H28  1  0.68412000  0.88310000  0.82753000  1.0
  H  H29  1  0.31587000  0.11691000  0.17248000  1.0
  H  H30  1  0.74441000  0.09029000  0.88541000  1.0
  H  H31  1  0.25558000  0.90972000  0.11460000  1.0
  H  H32  1  0.92428000  0.66798000  0.40643000  1.0
  H  H33  1  0.07574000  0.33201000  0.59357000  1.0
  H  H34  1  0.46437000  0.00940000  0.80253000  1.0
  H  H35  1  0.53562000  0.99062000  0.19749000  1.0
  H  H36  1  0.48773000  0.58076000  0.95186000  1.0
  H  H37  1  0.51229000  0.41923000  0.04812000  1.0
  H  H38  1  0.41516000  0.16246000  0.57931000  1.0
  H  H39  1  0.58484000  0.83754000  0.42070000  1.0
  H  H40  1  0.58476000  0.18729000  0.00848000  1.0
  H  H41  1  0.41525000  0.81271000  0.99153000  1.0
  H  H42  1  0.96607000  0.85079000  0.01739000  1.0
  H  H43  1  0.03395000  0.14921000  0.98261000  1.0
  H  H44  1  0.13196000  0.98993000  0.67883000  1.0
  H  H45  1  0.86805000  0.01006000  0.32117000  1.0
  H  H46  1  0.87380000  0.71020000  0.69062000  1.0
  H  H47  1  0.12616000  0.28980000  0.30938000  1.0
  H  H48  1  0.56103000  0.25757000  0.51682000  1.0
  H  H49  1  0.43897000  0.74243000  0.48318000  1.0
  H  H50  1  0.27352000  0.09309000  0.62881000  1.0
  H  H51  1  0.72648000  0.90690000  0.37119000  1.0
  H  H52  1  0.46083000  0.17287000  0.74142000  1.0
  H  H53  1  0.53917000  0.82714000  0.25859000  1.0
  H  H54  1  0.58508000  0.52801000  0.69878000  1.0
  H  H55  1  0.41493000  0.47199000  0.30121000  1.0
  H  H56  1  0.13670000  0.89339000  0.45263000  1.0
  H  H57  1  0.86329000  0.10663000  0.54737000  1.0
  H  H58  1  0.77371000  0.59090000  0.64300000  1.0
  H  H59  1  0.22628000  0.40911000  0.35699000  1.0
  C  C60  1  0.95930000  0.74143000  0.50181000  1.0
  C  C61  1  0.04070000  0.25858000  0.49820000  1.0
  C  C62  1  0.71463000  0.39676000  0.48665000  1.0
  C  C63  1  0.28536000  0.60324000  0.51334000  1.0
  C  C64  1  0.16976000  0.76775000  0.81340000  1.0
  C  C65  1  0.83025000  0.23224000  0.18659000  1.0
  C  C66  1  0.69733000  0.49968000  0.38131000  1.0
  C  C67  1  0.30266000  0.50032000  0.61869000  1.0
  C  C68  1  0.30242000  0.69005000  0.82058000  1.0
  C  C69  1  0.69759000  0.30994000  0.17941000  1.0
  C  C70  1  0.68606000  0.07621000  0.08302000  1.0
  C  C71  1  0.31395000  0.92379000  0.91699000  1.0
  C  C72  1  0.80627000  0.97582000  0.77437000  1.0
  C  C73  1  0.19373000  0.02418000  0.22563000  1.0
  C  C74  1  0.77866000  0.55079000  0.48642000  1.0
  C  C75  1  0.22134000  0.44921000  0.51357000  1.0
  C  C76  1  0.75813000  0.46404000  0.52397000  1.0
  C  C77  1  0.24186000  0.53596000  0.47603000  1.0
  C  C78  1  0.93491000  0.90527000  0.79293000  1.0
  C  C79  1  0.06509000  0.09473000  0.20707000  1.0
  C  C80  1  0.38294000  0.11265000  0.46952000  1.0
  C  C81  1  0.61706000  0.88734000  0.53049000  1.0
  C  C82  1  0.74287000  0.56910000  0.41413000  1.0
  C  C83  1  0.25713000  0.43090000  0.58586000  1.0
  C  C84  1  0.86244000  0.95965000  0.94202000  1.0
  C  C85  1  0.13757000  0.04036000  0.05798000  1.0
  C  C86  1  0.55502000  0.54577000  0.82519000  1.0
  C  C87  1  0.44499000  0.45423000  0.17481000  1.0
  C  C88  1  0.24885000  0.99685000  0.45656000  1.0
  C  C89  1  0.75115000  0.00315000  0.54344000  1.0
  C  C90  1  0.83709000  0.61909000  0.51952000  1.0
  C  C91  1  0.16291000  0.38091000  0.48048000  1.0
  C  C92  1  0.79462000  0.98223000  0.08529000  1.0
  C  C93  1  0.20539000  0.01777000  0.91472000  1.0
  C  C94  1  0.50704000  0.17388000  0.35634000  1.0
  C  C95  1  0.49297000  0.82613000  0.64367000  1.0
  C  C96  1  0.80541000  0.06789000  0.73716000  1.0
  C  C97  1  0.19459000  0.93210000  0.26284000  1.0
  C  C98  1  0.33203000  0.67031000  0.89364000  1.0
  C  C99  1  0.66797000  0.32968000  0.10635000  1.0
  C  C100  1  0.68122000  0.13848000  0.72537000  1.0
  C  C101  1  0.31879000  0.86152000  0.27463000  1.0
  C  C102  1  0.42128000  0.11902000  0.38781000  1.0
  C  C103  1  0.57873000  0.88098000  0.61219000  1.0
  C  C104  1  0.68368000  0.95395000  0.79757000  1.0
  C  C105  1  0.31631000  0.04606000  0.20244000  1.0
  C  C106  1  0.29234000  0.05422000  0.50432000  1.0
  C  C107  1  0.70765000  0.94578000  0.49568000  1.0
  C  C108  1  0.75587000  0.05655000  0.94061000  1.0
  C  C109  1  0.24413000  0.94345000  0.05939000  1.0
  C  C110  1  0.90729000  0.67545000  0.47021000  1.0
  C  C111  1  0.09272000  0.32455000  0.52979000  1.0
  C  C112  1  0.56070000  0.02467000  0.78478000  1.0
  C  C113  1  0.43929000  0.97534000  0.21523000  1.0
  C  C114  1  0.95856000  0.89609000  0.86985000  1.0
  C  C115  1  0.04144000  0.10391000  0.13015000  1.0
  C  C116  1  0.46126000  0.59745000  0.89568000  1.0
  C  C117  1  0.53876000  0.40254000  0.10431000  1.0
  C  C118  1  0.43621000  0.16423000  0.51551000  1.0
  C  C119  1  0.56379000  0.83577000  0.48449000  1.0
  C  C120  1  0.66739000  0.11287000  0.01062000  1.0
  C  C121  1  0.33261000  0.88714000  0.98939000  1.0
  C  C122  1  0.88136000  0.92371000  0.01544000  1.0
  C  C123  1  0.11865000  0.07629000  0.98456000  1.0
  C  C124  1  0.16303000  0.99422000  0.61551000  1.0
  C  C125  1  0.83698000  0.00578000  0.38449000  1.0
  C  C126  1  0.88210000  0.69860000  0.62792000  1.0
  C  C127  1  0.11787000  0.30140000  0.37208000  1.0
  C  C128  1  0.52078000  0.21841000  0.47994000  1.0
  C  C129  1  0.47923000  0.78159000  0.52006000  1.0
  C  C130  1  0.24595000  0.05204000  0.58609000  1.0
  C  C131  1  0.75406000  0.94795000  0.41391000  1.0
  C  C132  1  0.55847000  0.11759000  0.74943000  1.0
  C  C133  1  0.44153000  0.88242000  0.25057000  1.0
  C  C134  1  0.51654000  0.56959000  0.75471000  1.0
  C  C135  1  0.48347000  0.43041000  0.24528000  1.0
  C  C136  1  0.16625000  0.94050000  0.49009000  1.0
  C  C137  1  0.83375000  0.05951000  0.50991000  1.0
  C  C138  1  0.82727000  0.63119000  0.60051000  1.0
  C  C139  1  0.17271000  0.36881000  0.39949000  1.0
  S  S140  1  0.82359000  0.94019000  0.17920000  1.0
  S  S141  1  0.17642000  0.05979000  0.82079000  1.0
  S  S142  1  0.67798000  0.26015000  0.68325000  1.0
  S  S143  1  0.32201000  0.73985000  0.31676000  1.0
  N  N144  1  0.55708000  0.22392000  0.40109000  1.0
  N  N145  1  0.44293000  0.77609000  0.59890000  1.0
  N  N146  1  0.68796000  0.41158000  0.41506000  1.0
  N  N147  1  0.31203000  0.58842000  0.58494000  1.0
  N  N148  1  0.94656000  0.75469000  0.57996000  1.0
  N  N149  1  0.05341000  0.24532000  0.42004000  1.0
  N  N150  1  0.12298000  0.93828000  0.56897000  1.0
  N  N151  1  0.87703000  0.06173000  0.43103000  1.0
  N  N152  1  0.15491000  0.77847000  0.73913000  1.0
  N  N153  1  0.84509000  0.22152000  0.26087000  1.0
  N  N154  1  0.39360000  0.64079000  0.75174000  1.0
  N  N155  1  0.60640000  0.35921000  0.24826000  1.0
  N  N156  1  0.03256000  0.84577000  0.73058000  1.0
  N  N157  1  0.96743000  0.15423000  0.26942000  1.0
  N  N158  1  0.07648000  0.82204000  0.87782000  1.0
  N  N159  1  0.92352000  0.17795000  0.12218000  1.0
  O  O160  1  0.97351000  0.90884000  0.16967000  1.0
  O  O161  1  0.02650000  0.09113000  0.83032000  1.0
  O  O162  1  0.74222000  0.03642000  0.23321000  1.0
  O  O163  1  0.25780000  0.96356000  0.76680000  1.0
  O  O164  1  0.63651000  0.33704000  0.75084000  1.0
  O  O165  1  0.36347000  0.66296000  0.24916000  1.0
  O  O166  1  0.77046000  0.85424000  0.19621000  1.0
  O  O167  1  0.22954000  0.14575000  0.80378000  1.0
  O  O168  1  0.57625000  0.28199000  0.63561000  1.0
  O  O169  1  0.42375000  0.71800000  0.36438000  1.0
  O  O170  1  0.82061000  0.23894000  0.63510000  1.0
  O  O171  1  0.17940000  0.76106000  0.36490000  1.0
