# generated using pymatgen
data_CdH9C5N(ClO)2
_symmetry_space_group_name_H-M   'P 1'
_cell_length_a   7.09898000
_cell_length_b   9.67786000
_cell_length_c   13.36180000
_cell_angle_alpha   89.99930000
_cell_angle_beta   89.99980000
_cell_angle_gamma   89.99920000
_symmetry_Int_Tables_number   1
_chemical_formula_structural   CdH9C5N(ClO)2
_chemical_formula_sum   'Cd4 H36 C20 N4 Cl8 O8'
_cell_volume   917.99487114
_cell_formula_units_Z   4
loop_
 _symmetry_equiv_pos_site_id
 _symmetry_equiv_pos_as_xyz
  1  'x, y, z'
loop_
 _atom_site_type_symbol
 _atom_site_label
 _atom_site_symmetry_multiplicity
 _atom_site_fract_x
 _atom_site_fract_y
 _atom_site_fract_z
 _atom_site_occupancy
  Cd  Cd0  1  0.35499000  0.22889000  0.00508000  1.0
  Cd  Cd1  1  0.64501000  0.72890000  0.49493000  1.0
  Cd  Cd2  1  0.14501000  0.77112000  0.50507000  1.0
  Cd  Cd3  1  0.85500000  0.27111000  0.99493000  1.0
  H  H4  1  0.11550000  0.91490000  0.27225000  1.0
  H  H5  1  0.88450000  0.41492000  0.22775000  1.0
  H  H6  1  0.38449000  0.08509000  0.77225000  1.0
  H  H7  1  0.61550000  0.58508000  0.72775000  1.0
  H  H8  1  0.10378000  0.70451000  0.18540000  1.0
  H  H9  1  0.89621000  0.20453000  0.31460000  1.0
  H  H10  1  0.39621000  0.29548000  0.68540000  1.0
  H  H11  1  0.60378000  0.79547000  0.81459000  1.0
  H  H12  1  0.17611000  0.80718000  0.08267000  1.0
  H  H13  1  0.82390000  0.30720000  0.41732000  1.0
  H  H14  1  0.32388000  0.19281000  0.58268000  1.0
  H  H15  1  0.67610000  0.69281000  0.91732000  1.0
  H  H16  1  0.85009000  0.65998000  0.06570000  1.0
  H  H17  1  0.14990000  0.15998000  0.43430000  1.0
  H  H18  1  0.64990000  0.34003000  0.56571000  1.0
  H  H19  1  0.35009000  0.84002000  0.93429000  1.0
  H  H20  1  0.85140000  0.83551000  0.02433000  1.0
  H  H21  1  0.14861000  0.33551000  0.47567000  1.0
  H  H22  1  0.64859000  0.16450000  0.52433000  1.0
  H  H23  1  0.35139000  0.66450000  0.97567000  1.0
  H  H24  1  0.59403000  0.84414000  0.14465000  1.0
  H  H25  1  0.40597000  0.34414000  0.35535000  1.0
  H  H26  1  0.90596000  0.15586000  0.64466000  1.0
  H  H27  1  0.09403000  0.65585000  0.85534000  1.0
  H  H28  1  0.70955000  0.72565000  0.22662000  1.0
  H  H29  1  0.29045000  0.22565000  0.27338000  1.0
  H  H30  1  0.79045000  0.27435000  0.72663000  1.0
  H  H31  1  0.20954000  0.77434000  0.77337000  1.0
  H  H32  1  0.78638000  0.02162000  0.19529000  1.0
  H  H33  1  0.21364000  0.52162000  0.30470000  1.0
  H  H34  1  0.71362000  0.97839000  0.69530000  1.0
  H  H35  1  0.28637000  0.47838000  0.80471000  1.0
  H  H36  1  0.80589000  0.92640000  0.30162000  1.0
  H  H37  1  0.19411000  0.42640000  0.19838000  1.0
  H  H38  1  0.69411000  0.07360000  0.80163000  1.0
  H  H39  1  0.30589000  0.57359000  0.69838000  1.0
  C  C40  1  0.08977000  0.05513000  0.14772000  1.0
  C  C41  1  0.91026000  0.55515000  0.35228000  1.0
  C  C42  1  0.41024000  0.94486000  0.64772000  1.0
  C  C43  1  0.58976000  0.44485000  0.85228000  1.0
  C  C44  1  0.03645000  0.92076000  0.20176000  1.0
  C  C45  1  0.96356000  0.42078000  0.29823000  1.0
  C  C46  1  0.46355000  0.07923000  0.70177000  1.0
  C  C47  1  0.53645000  0.57922000  0.79823000  1.0
  C  C48  1  0.06348000  0.79122000  0.13730000  1.0
  C  C49  1  0.93652000  0.29124000  0.36270000  1.0
  C  C50  1  0.43651000  0.20878000  0.63730000  1.0
  C  C51  1  0.56348000  0.70877000  0.86269000  1.0
  C  C52  1  0.87004000  0.76744000  0.08945000  1.0
  C  C53  1  0.12995000  0.26744000  0.41054000  1.0
  C  C54  1  0.62995000  0.23256000  0.58946000  1.0
  C  C55  1  0.37004000  0.73256000  0.91054000  1.0
  C  C56  1  0.73123000  0.80807000  0.17155000  1.0
  C  C57  1  0.26877000  0.30807000  0.32845000  1.0
  C  C58  1  0.76875000  0.19193000  0.67156000  1.0
  C  C59  1  0.23124000  0.69193000  0.82844000  1.0
  N  N60  1  0.82788000  0.92626000  0.22442000  1.0
  N  N61  1  0.17213000  0.42627000  0.27557000  1.0
  N  N62  1  0.67211000  0.07374000  0.72443000  1.0
  N  N63  1  0.32788000  0.57372000  0.77558000  1.0
  Cl  Cl64  1  0.12827000  0.44492000  0.04045000  1.0
  Cl  Cl65  1  0.87173000  0.94492000  0.45954000  1.0
  Cl  Cl66  1  0.37173000  0.55508000  0.54045000  1.0
  Cl  Cl67  1  0.62828000  0.05508000  0.95955000  1.0
  Cl  Cl68  1  0.59588000  0.36264000  0.11878000  1.0
  Cl  Cl69  1  0.40414000  0.86265000  0.38123000  1.0
  Cl  Cl70  1  0.90414000  0.63737000  0.61878000  1.0
  Cl  Cl71  1  0.09587000  0.13735000  0.88123000  1.0
  O  O72  1  0.26004000  0.06636000  0.12119000  1.0
  O  O73  1  0.73999000  0.56638000  0.37882000  1.0
  O  O74  1  0.23997000  0.93363000  0.62118000  1.0
  O  O75  1  0.76003000  0.43363000  0.87882000  1.0
  O  O76  1  0.45835000  0.35702000  0.86362000  1.0
  O  O77  1  0.54166000  0.85703000  0.63638000  1.0
  O  O78  1  0.04168000  0.64298000  0.36362000  1.0
  O  O79  1  0.95837000  0.14297000  0.13639000  1.0
