# generated using pymatgen
data_CuH8C6NO4
_symmetry_space_group_name_H-M   'P 1'
_cell_length_a   7.31142000
_cell_length_b   7.98780643
_cell_length_c   7.98739000
_cell_angle_alpha   119.14251448
_cell_angle_beta   96.16660000
_cell_angle_gamma   96.17282488
_symmetry_Int_Tables_number   1
_chemical_formula_structural   CuH8C6NO4
_chemical_formula_sum   'Cu2 H16 C12 N2 O8'
_cell_volume   398.15088124
_cell_formula_units_Z   2
loop_
 _symmetry_equiv_pos_site_id
 _symmetry_equiv_pos_as_xyz
  1  'x, y, z'
loop_
 _atom_site_type_symbol
 _atom_site_label
 _atom_site_symmetry_multiplicity
 _atom_site_fract_x
 _atom_site_fract_y
 _atom_site_fract_z
 _atom_site_occupancy
  Cu  Cu0  1  0.62377000  0.63708000  0.63711000  1.0
  Cu  Cu1  1  0.37619000  0.36288000  0.36286000  1.0
  H  H2  1  0.04841000  0.71155000  0.71165000  1.0
  H  H3  1  0.95157000  0.28847000  0.28837000  1.0
  H  H4  1  0.67732000  0.03567000  0.03558000  1.0
  H  H5  1  0.32265000  0.96432000  0.96441000  1.0
  H  H6  1  0.26603000  0.05179000  0.60797000  1.0
  H  H7  1  0.73401000  0.39222000  0.94822000  1.0
  H  H8  1  0.73401000  0.94821000  0.39203000  1.0
  H  H9  1  0.26600000  0.60777000  0.05177000  1.0
  H  H10  1  0.06409000  0.85923000  0.47298000  1.0
  H  H11  1  0.93596000  0.52723000  0.14079000  1.0
  H  H12  1  0.93593000  0.14080000  0.52702000  1.0
  H  H13  1  0.06404000  0.47276000  0.85922000  1.0
  H  H14  1  0.23222000  0.91030000  0.35085000  1.0
  H  H15  1  0.76779000  0.64936000  0.08975000  1.0
  H  H16  1  0.76779000  0.08971000  0.64915000  1.0
  H  H17  1  0.23222000  0.35066000  0.91028000  1.0
  C  C18  1  0.32086000  0.75884000  0.49416000  1.0
  C  C19  1  0.67921000  0.50601000  0.24121000  1.0
  C  C20  1  0.67915000  0.24116000  0.50584000  1.0
  C  C21  1  0.32080000  0.49400000  0.75880000  1.0
  C  C22  1  0.02816000  0.84126000  0.84136000  1.0
  C  C23  1  0.97182000  0.15873000  0.15862000  1.0
  C  C24  1  0.82182000  0.01982000  0.01980000  1.0
  C  C25  1  0.17817000  0.98018000  0.98020000  1.0
  C  C26  1  0.21363000  0.90544000  0.48321000  1.0
  C  C27  1  0.78639000  0.51699000  0.09462000  1.0
  C  C28  1  0.78637000  0.09458000  0.51678000  1.0
  C  C29  1  0.21361000  0.48301000  0.90539000  1.0
  N  N30  1  0.85071000  0.86144000  0.86152000  1.0
  N  N31  1  0.14928000  0.13856000  0.13849000  1.0
  O  O32  1  0.47109000  0.82402000  0.62087000  1.0
  O  O33  1  0.52900000  0.37928000  0.17603000  1.0
  O  O34  1  0.52891000  0.17595000  0.37915000  1.0
  O  O35  1  0.47103000  0.62069000  0.82397000  1.0
  O  O36  1  0.25213000  0.57937000  0.37392000  1.0
  O  O37  1  0.74797000  0.62619000  0.42068000  1.0
  O  O38  1  0.74788000  0.42063000  0.62604000  1.0
  O  O39  1  0.25201000  0.37382000  0.57932000  1.0
