# generated using pymatgen
data_H13PdC13SBr2N
_symmetry_space_group_name_H-M   'P 1'
_cell_length_a   8.87243000
_cell_length_b   11.51090000
_cell_length_c   13.80350000
_cell_angle_alpha   90.00000000
_cell_angle_beta   90.00000000
_cell_angle_gamma   90.00000000
_symmetry_Int_Tables_number   1
_chemical_formula_structural   H13PdC13SBr2N
_chemical_formula_sum   'H52 Pd4 C52 S4 Br8 N4'
_cell_volume   1409.74668571
_cell_formula_units_Z   4
loop_
 _symmetry_equiv_pos_site_id
 _symmetry_equiv_pos_as_xyz
  1  'x, y, z'
loop_
 _atom_site_type_symbol
 _atom_site_label
 _atom_site_symmetry_multiplicity
 _atom_site_fract_x
 _atom_site_fract_y
 _atom_site_fract_z
 _atom_site_occupancy
  H  H0  1  0.78540000  0.85477000  0.34592000  1.0
  H  H1  1  0.28540000  0.14522000  0.65408000  1.0
  H  H2  1  0.28540000  0.35478000  0.15408000  1.0
  H  H3  1  0.78540000  0.64523000  0.84592000  1.0
  H  H4  1  0.59431000  0.90818000  0.35420000  1.0
  H  H5  1  0.09431000  0.09182000  0.64580000  1.0
  H  H6  1  0.09431000  0.40818000  0.14580000  1.0
  H  H7  1  0.59431000  0.59182000  0.85420000  1.0
  H  H8  1  0.97992000  0.98470000  0.30431000  1.0
  H  H9  1  0.47992000  0.01529000  0.69569000  1.0
  H  H10  1  0.47992000  0.48471000  0.19569000  1.0
  H  H11  1  0.97992000  0.51530000  0.80431000  1.0
  H  H12  1  0.05521000  0.18190000  0.24367000  1.0
  H  H13  1  0.55521000  0.81810000  0.75634000  1.0
  H  H14  1  0.55521000  0.68190000  0.25634000  1.0
  H  H15  1  0.05521000  0.31810000  0.74367000  1.0
  H  H16  1  0.86930000  0.34723000  0.26383000  1.0
  H  H17  1  0.36930000  0.65277000  0.73617000  1.0
  H  H18  1  0.36930000  0.84723000  0.23617000  1.0
  H  H19  1  0.86930000  0.15277000  0.76383000  1.0
  H  H20  1  0.66624000  0.41938000  0.31117000  1.0
  H  H21  1  0.16624000  0.58062000  0.68883000  1.0
  H  H22  1  0.16624000  0.91938000  0.18883000  1.0
  H  H23  1  0.66624000  0.08062000  0.81117000  1.0
  H  H24  1  0.58834000  0.35736000  0.42014000  1.0
  H  H25  1  0.08834000  0.64263000  0.57986000  1.0
  H  H26  1  0.08834000  0.85737000  0.07986000  1.0
  H  H27  1  0.58834000  0.14263000  0.92014000  1.0
  H  H28  1  0.50578000  0.32460000  0.30451000  1.0
  H  H29  1  0.00578000  0.67540000  0.69549000  1.0
  H  H30  1  0.00578000  0.82460000  0.19549000  1.0
  H  H31  1  0.50578000  0.17540000  0.80451000  1.0
  H  H32  1  0.42582000  0.81417000  0.43556000  1.0
  H  H33  1  0.92583000  0.18583000  0.56444000  1.0
  H  H34  1  0.92583000  0.31417000  0.06444000  1.0
  H  H35  1  0.42583000  0.68583000  0.93556000  1.0
  H  H36  1  0.30148000  0.62543000  0.44938000  1.0
  H  H37  1  0.80148000  0.37457000  0.55062000  1.0
  H  H38  1  0.80148000  0.12543000  0.05062000  1.0
  H  H39  1  0.30148000  0.87457000  0.94938000  1.0
  H  H40  1  0.41923000  0.46446000  0.54625000  1.0
  H  H41  1  0.91923000  0.53554000  0.45375000  1.0
  H  H42  1  0.91923000  0.96446000  0.95375000  1.0
  H  H43  1  0.41923000  0.03554000  0.04625000  1.0
  H  H44  1  0.66341000  0.49855000  0.62864000  1.0
  H  H45  1  0.16341000  0.50145000  0.37136000  1.0
  H  H46  1  0.16341000  0.99855000  0.87136000  1.0
  H  H47  1  0.66341000  0.00145000  0.12864000  1.0
  H  H48  1  0.79869000  0.68735000  0.60634000  1.0
  H  H49  1  0.29869000  0.31265000  0.39366000  1.0
  H  H50  1  0.29869000  0.18735000  0.89366000  1.0
  H  H51  1  0.79869000  0.81265000  0.10634000  1.0
  Pd  Pd52  1  0.46272000  0.12351000  0.42990000  1.0
  Pd  Pd53  1  0.96272000  0.87649000  0.57010000  1.0
  Pd  Pd54  1  0.96272000  0.62351000  0.07010000  1.0
  Pd  Pd55  1  0.46272000  0.37649000  0.92990000  1.0
  C  C56  1  0.71130000  0.92093000  0.37775000  1.0
  C  C57  1  0.21130000  0.07907000  0.62225000  1.0
  C  C58  1  0.21130000  0.42093000  0.12225000  1.0
  C  C59  1  0.71130000  0.57907000  0.87775000  1.0
  C  C60  1  0.66374000  0.13680000  0.36625000  1.0
  C  C61  1  0.16374000  0.86320000  0.63375000  1.0
  C  C62  1  0.16374000  0.63680000  0.13374000  1.0
  C  C63  1  0.66374000  0.36320000  0.86625000  1.0
  C  C64  1  0.76127000  0.04136000  0.35178000  1.0
  C  C65  1  0.26127000  0.95864000  0.64822000  1.0
  C  C66  1  0.26127000  0.54136000  0.14822000  1.0
  C  C67  1  0.76127000  0.45864000  0.85178000  1.0
  C  C68  1  0.90271000  0.05813000  0.30997000  1.0
  C  C69  1  0.40271000  0.94186000  0.69003000  1.0
  C  C70  1  0.40271000  0.55814000  0.19003000  1.0
  C  C71  1  0.90271000  0.44187000  0.80997000  1.0
  C  C72  1  0.94555000  0.16789000  0.27699000  1.0
  C  C73  1  0.44554000  0.83211000  0.72301000  1.0
  C  C74  1  0.44554000  0.66789000  0.22301000  1.0
  C  C75  1  0.94555000  0.33211000  0.77699000  1.0
  C  C76  1  0.84624000  0.25877000  0.28793000  1.0
  C  C77  1  0.34624000  0.74123000  0.71207000  1.0
  C  C78  1  0.34624000  0.75877000  0.21207000  1.0
  C  C79  1  0.84624000  0.24123000  0.78793000  1.0
  C  C80  1  0.61116000  0.34327000  0.34302000  1.0
  C  C81  1  0.11116000  0.65673000  0.65697000  1.0
  C  C82  1  0.11116000  0.84327000  0.15697000  1.0
  C  C83  1  0.61116000  0.15673000  0.84302000  1.0
  C  C84  1  0.62423000  0.76087000  0.51690000  1.0
  C  C85  1  0.12423000  0.23913000  0.48310000  1.0
  C  C86  1  0.12423000  0.26087000  0.98310000  1.0
  C  C87  1  0.62423000  0.73913000  0.01690000  1.0
  C  C88  1  0.48298000  0.74398000  0.47399000  1.0
  C  C89  1  0.98298000  0.25603000  0.52601000  1.0
  C  C90  1  0.98298000  0.24398000  0.02601000  1.0
  C  C91  1  0.48298000  0.75602000  0.97399000  1.0
  C  C92  1  0.41148000  0.63665000  0.48303000  1.0
  C  C93  1  0.91148000  0.36335000  0.51697000  1.0
  C  C94  1  0.91148000  0.13665000  0.01697000  1.0
  C  C95  1  0.41148000  0.86335000  0.98303000  1.0
  C  C96  1  0.47655000  0.54760000  0.53751000  1.0
  C  C97  1  0.97655000  0.45240000  0.46249000  1.0
  C  C98  1  0.97655000  0.04760000  0.96249000  1.0
  C  C99  1  0.47655000  0.95240000  0.03751000  1.0
  C  C100  1  0.61482000  0.56643000  0.58326000  1.0
  C  C101  1  0.11482000  0.43357000  0.41674000  1.0
  C  C102  1  0.11482000  0.06643000  0.91674000  1.0
  C  C103  1  0.61481000  0.93357000  0.08326000  1.0
  C  C104  1  0.68999000  0.67200000  0.57192000  1.0
  C  C105  1  0.18999000  0.32800000  0.42808000  1.0
  C  C106  1  0.18999000  0.17200000  0.92808000  1.0
  C  C107  1  0.68999000  0.82800000  0.07192000  1.0
  S  S108  1  0.71175000  0.89989000  0.50961000  1.0
  S  S109  1  0.21175000  0.10011000  0.49038000  1.0
  S  S110  1  0.21175000  0.39989000  0.99038000  1.0
  S  S111  1  0.71175000  0.60011000  0.00961000  1.0
  Br  Br112  1  0.36031000  0.07647000  0.26855000  1.0
  Br  Br113  1  0.86031000  0.92353000  0.73145000  1.0
  Br  Br114  1  0.86031000  0.57647000  0.23145000  1.0
  Br  Br115  1  0.36031000  0.42353000  0.76855000  1.0
  Br  Br116  1  0.56987000  0.20194000  0.58121000  1.0
  Br  Br117  1  0.06987000  0.79806000  0.41879000  1.0
  Br  Br118  1  0.06987000  0.70194000  0.91879000  1.0
  Br  Br119  1  0.56987000  0.29806000  0.08121000  1.0
  N  N120  1  0.71104000  0.24211000  0.33248000  1.0
  N  N121  1  0.21104000  0.75789000  0.66752000  1.0
  N  N122  1  0.21104000  0.74211000  0.16752000  1.0
  N  N123  1  0.71104000  0.25789000  0.83248000  1.0
