# generated using pymatgen
data_ReAgH18C10S2N2O5
_symmetry_space_group_name_H-M   'P 1'
_cell_length_a   12.49508691
_cell_length_b   12.88700000
_cell_length_c   14.91260000
_cell_angle_alpha   90.00010000
_cell_angle_beta   90.00000000
_cell_angle_gamma   118.99689576
_symmetry_Int_Tables_number   1
_chemical_formula_structural   ReAgH18C10S2N2O5
_chemical_formula_sum   'Re4 Ag4 H72 C40 S8 N8 O20'
_cell_volume   2100.27798072
_cell_formula_units_Z   4
loop_
 _symmetry_equiv_pos_site_id
 _symmetry_equiv_pos_as_xyz
  1  'x, y, z'
loop_
 _atom_site_type_symbol
 _atom_site_label
 _atom_site_symmetry_multiplicity
 _atom_site_fract_x
 _atom_site_fract_y
 _atom_site_fract_z
 _atom_site_occupancy
  Re  Re0  1  0.10940000  0.76821000  0.35114000  1.0
  Re  Re1  1  0.34118000  0.23171000  0.64883000  1.0
  Re  Re2  1  0.89057000  0.23176000  0.85115000  1.0
  Re  Re3  1  0.65885000  0.76829000  0.14883000  1.0
  Ag  Ag4  1  0.91835000  0.69631000  0.13903000  1.0
  Ag  Ag5  1  0.22210000  0.30372000  0.86093000  1.0
  Ag  Ag6  1  0.08163000  0.30368000  0.63903000  1.0
  Ag  Ag7  1  0.77789000  0.69627000  0.36097000  1.0
  H  H8  1  0.32328000  0.98255000  0.34749000  1.0
  H  H9  1  0.34080000  0.01742000  0.65249000  1.0
  H  H10  1  0.67668000  0.01743000  0.84749000  1.0
  H  H11  1  0.65924000  0.98261000  0.15251000  1.0
  H  H12  1  0.36269000  0.87412000  0.35016000  1.0
  H  H13  1  0.48862000  0.12589000  0.64983000  1.0
  H  H14  1  0.63730000  0.12589000  0.85015000  1.0
  H  H15  1  0.51142000  0.87413000  0.14984000  1.0
  H  H16  1  0.21998000  0.64051000  0.38874000  1.0
  H  H17  1  0.57944000  0.35945000  0.61126000  1.0
  H  H18  1  0.78002000  0.35948000  0.88873000  1.0
  H  H19  1  0.42060000  0.64060000  0.11127000  1.0
  H  H20  1  0.16878000  0.66128000  0.48493000  1.0
  H  H21  1  0.50752000  0.33873000  0.51506000  1.0
  H  H22  1  0.83119000  0.33871000  0.98494000  1.0
  H  H23  1  0.49249000  0.66132000  0.01505000  1.0
  H  H24  1  0.29870000  0.93321000  0.04480000  1.0
  H  H25  1  0.36552000  0.06679000  0.95520000  1.0
  H  H26  1  0.70130000  0.06678000  0.54478000  1.0
  H  H27  1  0.63447000  0.93321000  0.45521000  1.0
  H  H28  1  0.16416000  0.79989000  0.07298000  1.0
  H  H29  1  0.36428000  0.20011000  0.92701000  1.0
  H  H30  1  0.83584000  0.20010000  0.57296000  1.0
  H  H31  1  0.63570000  0.79988000  0.42702000  1.0
  H  H32  1  0.15271000  0.92632000  0.04309000  1.0
  H  H33  1  0.22640000  0.07367000  0.95689000  1.0
  H  H34  1  0.84730000  0.07368000  0.54309000  1.0
  H  H35  1  0.77359000  0.92631000  0.45691000  1.0
  H  H36  1  0.21288000  0.09706000  0.15085000  1.0
  H  H37  1  0.11588000  0.90293000  0.84916000  1.0
  H  H38  1  0.78713000  0.90295000  0.65084000  1.0
  H  H39  1  0.88412000  0.09707000  0.34916000  1.0
  H  H40  1  0.28474000  0.10100000  0.25387000  1.0
  H  H41  1  0.18380000  0.89896000  0.74613000  1.0
  H  H42  1  0.71526000  0.89900000  0.75386000  1.0
  H  H43  1  0.81619000  0.10101000  0.24613000  1.0
  H  H44  1  0.36490000  0.12018000  0.15068000  1.0
  H  H45  1  0.24479000  0.87981000  0.84933000  1.0
  H  H46  1  0.63511000  0.87983000  0.65066000  1.0
  H  H47  1  0.75521000  0.12018000  0.34933000  1.0
  H  H48  1  0.40678000  0.96059000  0.19965000  1.0
  H  H49  1  0.44624000  0.03940000  0.80034000  1.0
  H  H50  1  0.59321000  0.03939000  0.69964000  1.0
  H  H51  1  0.55377000  0.96059000  0.30034000  1.0
  H  H52  1  0.81601000  0.56161000  0.52179000  1.0
  H  H53  1  0.25442000  0.43843000  0.47824000  1.0
  H  H54  1  0.18400000  0.43837000  0.02177000  1.0
  H  H55  1  0.74561000  0.56162000  0.97822000  1.0
  H  H56  1  0.89019000  0.49086000  0.57647000  1.0
  H  H57  1  0.39935000  0.50916000  0.42357000  1.0
  H  H58  1  0.10984000  0.50911000  0.07647000  1.0
  H  H59  1  0.60068000  0.49090000  0.92354000  1.0
  H  H60  1  0.97591000  0.64078000  0.53983000  1.0
  H  H61  1  0.33516000  0.35926000  0.46020000  1.0
  H  H62  1  0.02411000  0.35921000  0.03983000  1.0
  H  H63  1  0.66486000  0.64080000  0.96019000  1.0
  H  H64  1  0.82583000  0.35464000  0.34498000  1.0
  H  H65  1  0.47117000  0.64533000  0.65509000  1.0
  H  H66  1  0.17414000  0.64533000  0.84497000  1.0
  H  H67  1  0.52881000  0.35466000  0.15502000  1.0
  H  H68  1  0.80735000  0.32197000  0.46209000  1.0
  H  H69  1  0.48537000  0.67803000  0.53799000  1.0
  H  H70  1  0.19263000  0.67800000  0.96207000  1.0
  H  H71  1  0.51464000  0.32201000  0.03791000  1.0
  H  H72  1  0.72538000  0.38729000  0.40985000  1.0
  H  H73  1  0.33809000  0.61272000  0.59022000  1.0
  H  H74  1  0.27460000  0.61269000  0.90983000  1.0
  H  H75  1  0.66189000  0.38728000  0.09015000  1.0
  H  H76  1  0.04362000  0.46801000  0.36155000  1.0
  H  H77  1  0.57563000  0.53198000  0.63848000  1.0
  H  H78  1  0.95637000  0.53199000  0.86156000  1.0
  H  H79  1  0.42437000  0.46804000  0.13844000  1.0
  C  C80  1  0.22633000  0.93741000  0.17601000  1.0
  C  C81  1  0.28896000  0.06258000  0.82399000  1.0
  C  C82  1  0.77366000  0.06258000  0.67599000  1.0
  C  C83  1  0.71104000  0.93741000  0.32400000  1.0
  C  C84  1  0.20972000  0.89670000  0.07872000  1.0
  C  C85  1  0.31306000  0.10331000  0.92128000  1.0
  C  C86  1  0.79028000  0.10329000  0.57872000  1.0
  C  C87  1  0.68694000  0.89669000  0.42129000  1.0
  C  C88  1  0.27515000  0.07138000  0.18375000  1.0
  C  C89  1  0.20380000  0.92856000  0.81625000  1.0
  C  C90  1  0.72484000  0.92860000  0.68373000  1.0
  C  C91  1  0.79619000  0.07142000  0.31626000  1.0
  C  C92  1  0.31321000  0.90078000  0.22347000  1.0
  C  C93  1  0.41247000  0.09921000  0.77653000  1.0
  C  C94  1  0.68678000  0.09921000  0.72346000  1.0
  C  C95  1  0.58754000  0.90078000  0.27652000  1.0
  C  C96  1  0.27625000  0.77171000  0.20100000  1.0
  C  C97  1  0.50455000  0.22829000  0.79900000  1.0
  C  C98  1  0.72374000  0.22828000  0.70097000  1.0
  C  C99  1  0.49545000  0.77172000  0.29900000  1.0
  C  C100  1  0.91683000  0.50869000  0.43211000  1.0
  C  C101  1  0.40814000  0.49131000  0.56794000  1.0
  C  C102  1  0.08316000  0.49129000  0.93210000  1.0
  C  C103  1  0.59187000  0.50872000  0.06790000  1.0
  C  C104  1  0.89916000  0.55330000  0.52299000  1.0
  C  C105  1  0.34587000  0.44673000  0.47706000  1.0
  C  C106  1  0.10085000  0.44668000  0.02297000  1.0
  C  C107  1  0.65415000  0.55332000  0.97703000  1.0
  C  C108  1  0.81208000  0.38504000  0.41068000  1.0
  C  C109  1  0.42703000  0.61493000  0.58939000  1.0
  C  C110  1  0.18789000  0.61493000  0.91066000  1.0
  C  C111  1  0.57296000  0.38508000  0.08933000  1.0
  C  C112  1  0.04241000  0.51408000  0.42307000  1.0
  C  C113  1  0.52832000  0.48590000  0.57695000  1.0
  C  C114  1  0.95758000  0.48590000  0.92308000  1.0
  C  C115  1  0.47168000  0.51413000  0.07693000  1.0
  C  C116  1  0.06667000  0.45672000  0.50573000  1.0
  C  C117  1  0.60991000  0.54328000  0.49427000  1.0
  C  C118  1  0.93333000  0.54324000  0.00575000  1.0
  C  C119  1  0.39011000  0.45680000  0.99423000  1.0
  S  S120  1  0.07259000  0.85967000  0.23150000  1.0
  S  S121  1  0.21293000  0.14029000  0.76849000  1.0
  S  S122  1  0.92740000  0.14032000  0.73151000  1.0
  S  S123  1  0.78707000  0.85969000  0.26850000  1.0
  S  S124  1  0.91676000  0.61153000  0.34294000  1.0
  S  S125  1  0.30525000  0.38843000  0.65707000  1.0
  S  S126  1  0.08320000  0.38843000  0.84294000  1.0
  S  S127  1  0.69475000  0.61156000  0.15707000  1.0
  N  N128  1  0.30489000  0.90181000  0.32234000  1.0
  N  N129  1  0.40311000  0.09814000  0.67766000  1.0
  N  N130  1  0.69509000  0.09817000  0.82233000  1.0
  N  N131  1  0.59692000  0.90185000  0.17765000  1.0
  N  N132  1  0.14474000  0.63936000  0.41817000  1.0
  N  N133  1  0.50538000  0.36061000  0.58182000  1.0
  N  N134  1  0.85524000  0.36063000  0.91817000  1.0
  N  N135  1  0.49465000  0.63942000  0.08182000  1.0
  O  O136  1  0.11697000  0.85175000  0.44279000  1.0
  O  O137  1  0.26521000  0.14817000  0.55718000  1.0
  O  O138  1  0.88299000  0.14822000  0.94280000  1.0
  O  O139  1  0.73483000  0.85184000  0.05720000  1.0
  O  O140  1  0.18133000  0.69695000  0.24590000  1.0
  O  O141  1  0.48437000  0.30302000  0.75407000  1.0
  O  O142  1  0.81865000  0.30303000  0.74590000  1.0
  O  O143  1  0.51565000  0.69698000  0.25407000  1.0
  O  O144  1  0.33432000  0.74747000  0.14442000  1.0
  O  O145  1  0.58681000  0.25250000  0.85560000  1.0
  O  O146  1  0.66569000  0.25251000  0.64438000  1.0
  O  O147  1  0.41318000  0.74747000  0.35560000  1.0
  O  O148  1  0.01915000  0.34412000  0.50475000  1.0
  O  O149  1  0.67499000  0.65587000  0.49525000  1.0
  O  O150  1  0.98085000  0.65585000  0.00478000  1.0
  O  O151  1  0.32506000  0.34421000  0.99518000  1.0
  O  O152  1  0.12975000  0.52559000  0.56795000  1.0
  O  O153  1  0.60413000  0.47440000  0.43204000  1.0
  O  O154  1  0.87023000  0.47434000  0.06797000  1.0
  O  O155  1  0.39593000  0.52572000  0.93202000  1.0
