# generated using pymatgen
data_Cu3H16C16(NO6)2
_symmetry_space_group_name_H-M   'P 1'
_cell_length_a   7.18773000
_cell_length_b   7.63448000
_cell_length_c   17.67700000
_cell_angle_alpha   82.70560000
_cell_angle_beta   85.70810000
_cell_angle_gamma   87.39140000
_symmetry_Int_Tables_number   1
_chemical_formula_structural   Cu3H16C16(NO6)2
_chemical_formula_sum   'Cu6 H32 C32 N4 O24'
_cell_volume   958.83320916
_cell_formula_units_Z   2
loop_
 _symmetry_equiv_pos_site_id
 _symmetry_equiv_pos_as_xyz
  1  'x, y, z'
loop_
 _atom_site_type_symbol
 _atom_site_label
 _atom_site_symmetry_multiplicity
 _atom_site_fract_x
 _atom_site_fract_y
 _atom_site_fract_z
 _atom_site_occupancy
  Cu  Cu0  1  0.76447000  0.82498000  0.61456000  1.0
  Cu  Cu1  1  0.23539000  0.17491000  0.38527000  1.0
  Cu  Cu2  1  0.49963000  0.00091000  0.49986000  1.0
  Cu  Cu3  1  0.12760000  0.79020000  0.96286000  1.0
  Cu  Cu4  1  0.87241000  0.20947000  0.03709000  1.0
  Cu  Cu5  1  0.49990000  0.49973000  0.99998000  1.0
  H  H6  1  0.47585000  0.63317000  0.54438000  1.0
  H  H7  1  0.52402000  0.36695000  0.45572000  1.0
  H  H8  1  0.67723000  0.58746000  0.50778000  1.0
  H  H9  1  0.32266000  0.41143000  0.49267000  1.0
  H  H10  1  0.52340000  0.81968000  0.08997000  1.0
  H  H11  1  0.47659000  0.17988000  0.91002000  1.0
  H  H12  1  0.71084000  0.78096000  0.04485000  1.0
  H  H13  1  0.28910000  0.21857000  0.95510000  1.0
  H  H14  1  0.81568000  0.08477000  0.51988000  1.0
  H  H15  1  0.18396000  0.91476000  0.47965000  1.0
  H  H16  1  0.46593000  0.80228000  0.93923000  1.0
  H  H17  1  0.53406000  0.19710000  0.06066000  1.0
  H  H18  1  0.04506000  0.11027000  0.65006000  1.0
  H  H19  1  0.95491000  0.89026000  0.34999000  1.0
  H  H20  1  0.37493000  0.80485000  0.81766000  1.0
  H  H21  1  0.62528000  0.19555000  0.18222000  1.0
  H  H22  1  0.75877000  0.24121000  0.68935000  1.0
  H  H23  1  0.24139000  0.75954000  0.31089000  1.0
  H  H24  1  0.69558000  0.25029000  0.78900000  1.0
  H  H25  1  0.30390000  0.74922000  0.21126000  1.0
  H  H26  1  0.62676000  0.07314000  0.74439000  1.0
  H  H27  1  0.37338000  0.92688000  0.25535000  1.0
  H  H28  1  0.18310000  0.35437000  0.83144000  1.0
  H  H29  1  0.81716000  0.64586000  0.16862000  1.0
  H  H30  1  0.68136000  0.66698000  0.78104000  1.0
  H  H31  1  0.31844000  0.33258000  0.21900000  1.0
  H  H32  1  0.34992000  0.32308000  0.64318000  1.0
  H  H33  1  0.65043000  0.67718000  0.35697000  1.0
  H  H34  1  0.45156000  0.50869000  0.67012000  1.0
  H  H35  1  0.54855000  0.49194000  0.32981000  1.0
  H  H36  1  0.41114000  0.32150000  0.73948000  1.0
  H  H37  1  0.58939000  0.67931000  0.26061000  1.0
  C  C38  1  0.94524000  0.97279000  0.83809000  1.0
  C  C39  1  0.05476000  0.02711000  0.16190000  1.0
  C  C40  1  0.91593000  0.06107000  0.76500000  1.0
  C  C41  1  0.08402000  0.93904000  0.23504000  1.0
  C  C42  1  0.06123000  0.04759000  0.70831000  1.0
  C  C43  1  0.93874000  0.95281000  0.29172000  1.0
  C  C44  1  0.22689000  0.95264000  0.72478000  1.0
  C  C45  1  0.77318000  0.04787000  0.27520000  1.0
  C  C46  1  0.24853000  0.87764000  0.79997000  1.0
  C  C47  1  0.75158000  0.12267000  0.19997000  1.0
  C  C48  1  0.80059000  0.95052000  0.90453000  1.0
  C  C49  1  0.19940000  0.04904000  0.09543000  1.0
  C  C50  1  0.74015000  0.16348000  0.74580000  1.0
  C  C51  1  0.25976000  0.83661000  0.25428000  1.0
  C  C52  1  0.37758000  0.92936000  0.66283000  1.0
  C  C53  1  0.62241000  0.07141000  0.33705000  1.0
  C  C54  1  0.05066000  0.58484000  0.66594000  1.0
  C  C55  1  0.94942000  0.41532000  0.33413000  1.0
  C  C56  1  0.16554000  0.47565000  0.71447000  1.0
  C  C57  1  0.83466000  0.52464000  0.28558000  1.0
  C  C58  1  0.09709000  0.43548000  0.79089000  1.0
  C  C59  1  0.90309000  0.56466000  0.20916000  1.0
  C  C60  1  0.92245000  0.50123000  0.81598000  1.0
  C  C61  1  0.07758000  0.49867000  0.18406000  1.0
  C  C62  1  0.81791000  0.61095000  0.76417000  1.0
  C  C63  1  0.18200000  0.38882000  0.23587000  1.0
  C  C64  1  0.10246000  0.64733000  0.58310000  1.0
  C  C65  1  0.89751000  0.35288000  0.41696000  1.0
  C  C66  1  0.35469000  0.40288000  0.69036000  1.0
  C  C67  1  0.64562000  0.59764000  0.30970000  1.0
  C  C68  1  0.84319000  0.45153000  0.89650000  1.0
  C  C69  1  0.15685000  0.54824000  0.10354000  1.0
  N  N70  1  0.11047000  0.88952000  0.85415000  1.0
  N  N71  1  0.88960000  0.11046000  0.14581000  1.0
  N  N72  1  0.88218000  0.65077000  0.69144000  1.0
  N  N73  1  0.11781000  0.34914000  0.30863000  1.0
  O  O74  1  0.60709000  0.66828000  0.53965000  1.0
  O  O75  1  0.39311000  0.33072000  0.46082000  1.0
  O  O76  1  0.61907000  0.72524000  0.08398000  1.0
  O  O77  1  0.38097000  0.27434000  0.91603000  1.0
  O  O78  1  0.70983000  0.04784000  0.55605000  1.0
  O  O79  1  0.28980000  0.95147000  0.44346000  1.0
  O  O80  1  0.37894000  0.70423000  0.94560000  1.0
  O  O81  1  0.62097000  0.29522000  0.05431000  1.0
  O  O82  1  0.86515000  0.88605000  0.96921000  1.0
  O  O83  1  0.13480000  0.11337000  0.03074000  1.0
  O  O84  1  0.63160000  0.98656000  0.89558000  1.0
  O  O85  1  0.36834000  0.01289000  0.10438000  1.0
  O  O86  1  0.33673000  0.99029000  0.59580000  1.0
  O  O87  1  0.66321000  0.01102000  0.40415000  1.0
  O  O88  1  0.52871000  0.84917000  0.68331000  1.0
  O  O89  1  0.47117000  0.15120000  0.31645000  1.0
  O  O90  1  0.99843000  0.77384000  0.55159000  1.0
  O  O91  1  0.00175000  0.22660000  0.44854000  1.0
  O  O92  1  0.24135000  0.57909000  0.54904000  1.0
  O  O93  1  0.75840000  0.42087000  0.45094000  1.0
  O  O94  1  0.91514000  0.31012000  0.93108000  1.0
  O  O95  1  0.08509000  0.68974000  0.06894000  1.0
  O  O96  1  0.71439000  0.55218000  0.92111000  1.0
  O  O97  1  0.28549000  0.44747000  0.07892000  1.0
