# generated using pymatgen
data_ZnTeH4CN
_symmetry_space_group_name_H-M   'P 1'
_cell_length_a   4.33946000
_cell_length_b   5.67804000
_cell_length_c   16.70670000
_cell_angle_alpha   89.99730000
_cell_angle_beta   90.00010000
_cell_angle_gamma   89.99920000
_symmetry_Int_Tables_number   1
_chemical_formula_structural   ZnTeH4CN
_chemical_formula_sum   'Zn4 Te4 H16 C4 N4'
_cell_volume   411.64686356
_cell_formula_units_Z   4
loop_
 _symmetry_equiv_pos_site_id
 _symmetry_equiv_pos_as_xyz
  1  'x, y, z'
loop_
 _atom_site_type_symbol
 _atom_site_label
 _atom_site_symmetry_multiplicity
 _atom_site_fract_x
 _atom_site_fract_y
 _atom_site_fract_z
 _atom_site_occupancy
  Zn  Zn0  1  0.00000000  0.68330000  0.19899000  1.0
  Zn  Zn1  1  0.00000000  0.31672000  0.80101000  1.0
  Zn  Zn2  1  0.50000000  0.18327000  0.30101000  1.0
  Zn  Zn3  1  0.50000000  0.81672000  0.69898000  1.0
  Te  Te4  1  0.00000000  0.93336000  0.33295000  1.0
  Te  Te5  1  0.00000000  0.06662000  0.66706000  1.0
  Te  Te6  1  0.49999000  0.43344000  0.16706000  1.0
  Te  Te7  1  0.50000000  0.56658000  0.83295000  1.0
  H  H8  1  0.18703000  0.05615000  0.12523000  1.0
  H  H9  1  0.18703000  0.94389000  0.87477000  1.0
  H  H10  1  0.31300000  0.55610000  0.37477000  1.0
  H  H11  1  0.31297000  0.44389000  0.62523000  1.0
  H  H12  1  0.81296000  0.94388000  0.87477000  1.0
  H  H13  1  0.81296000  0.05614000  0.12523000  1.0
  H  H14  1  0.68702000  0.44388000  0.62523000  1.0
  H  H15  1  0.68705000  0.55610000  0.37477000  1.0
  H  H16  1  0.79730000  0.77979000  0.01379000  1.0
  H  H17  1  0.79732000  0.22023000  0.98621000  1.0
  H  H18  1  0.70265000  0.27975000  0.48622000  1.0
  H  H19  1  0.70272000  0.72020000  0.51378000  1.0
  H  H20  1  0.20264000  0.22024000  0.98621000  1.0
  H  H21  1  0.20265000  0.77980000  0.01379000  1.0
  H  H22  1  0.29737000  0.72022000  0.51377000  1.0
  H  H23  1  0.29733000  0.27977000  0.48622000  1.0
  C  C24  1  0.99999000  0.89028000  0.02665000  1.0
  C  C25  1  0.99997000  0.10976000  0.97335000  1.0
  C  C26  1  0.50002000  0.39021000  0.47335000  1.0
  C  C27  1  0.50002000  0.60969000  0.52664000  1.0
  N  N28  1  0.99998000  0.95020000  0.11237000  1.0
  N  N29  1  0.00001000  0.04983000  0.88763000  1.0
  N  N30  1  0.49999000  0.45014000  0.38764000  1.0
  N  N31  1  0.50002000  0.54983000  0.61237000  1.0
