# generated using pymatgen
data_CuH8C8(ClO3)2
_symmetry_space_group_name_H-M   'P 1'
_cell_length_a   5.08196000
_cell_length_b   7.46861000
_cell_length_c   7.70724000
_cell_angle_alpha   97.15540000
_cell_angle_beta   98.85380000
_cell_angle_gamma   99.60060000
_symmetry_Int_Tables_number   1
_chemical_formula_structural   CuH8C8(ClO3)2
_chemical_formula_sum   'Cu1 H8 C8 Cl2 O6'
_cell_volume   281.58696607
_cell_formula_units_Z   1
loop_
 _symmetry_equiv_pos_site_id
 _symmetry_equiv_pos_as_xyz
  1  'x, y, z'
loop_
 _atom_site_type_symbol
 _atom_site_label
 _atom_site_symmetry_multiplicity
 _atom_site_fract_x
 _atom_site_fract_y
 _atom_site_fract_z
 _atom_site_occupancy
  Cu  Cu0  1  0.00000000  0.00000000  0.00000000  1.0
  H  H1  1  0.25107000  0.66083000  0.73086000  1.0
  H  H2  1  0.74894000  0.33917000  0.26913000  1.0
  H  H3  1  0.31695000  0.50227000  0.88023000  1.0
  H  H4  1  0.68306000  0.49773000  0.11976000  1.0
  H  H5  1  0.97916000  0.53716000  0.81884000  1.0
  H  H6  1  0.02085000  0.46284000  0.18115000  1.0
  H  H7  1  0.41729000  0.78801000  0.04856000  1.0
  H  H8  1  0.58270000  0.21198000  0.95144000  1.0
  C  C9  1  0.25262000  0.13611000  0.54147000  1.0
  C  C10  1  0.74738000  0.86389000  0.45854000  1.0
  C  C11  1  0.13333000  0.07011000  0.67850000  1.0
  C  C12  1  0.86667000  0.92990000  0.32152000  1.0
  C  C13  1  0.86888000  0.93232000  0.63616000  1.0
  C  C14  1  0.13112000  0.06768000  0.36383000  1.0
  C  C15  1  0.19302000  0.60527000  0.84825000  1.0
  C  C16  1  0.80698000  0.39473000  0.15174000  1.0
  Cl  Cl17  1  0.55060000  0.29413000  0.58853000  1.0
  Cl  Cl18  1  0.44940000  0.70587000  0.41147000  1.0
  O  O19  1  0.23292000  0.11684000  0.84455000  1.0
  O  O20  1  0.76706000  0.88317000  0.15544000  1.0
  O  O21  1  0.76935000  0.88541000  0.76960000  1.0
  O  O22  1  0.23064000  0.11459000  0.23041000  1.0
  O  O23  1  0.22353000  0.74733000  0.99721000  1.0
  O  O24  1  0.77647000  0.25267000  0.00279000  1.0
