# generated using pymatgen
data_CuMoH4C6NO4
_symmetry_space_group_name_H-M   'P 1'
_cell_length_a   7.54200000
_cell_length_b   9.26749000
_cell_length_c   13.48950000
_cell_angle_alpha   71.87480000
_cell_angle_beta   86.41450000
_cell_angle_gamma   71.25530000
_symmetry_Int_Tables_number   1
_chemical_formula_structural   CuMoH4C6NO4
_chemical_formula_sum   'Cu4 Mo4 H16 C24 N4 O16'
_cell_volume   847.80683668
_cell_formula_units_Z   4
loop_
 _symmetry_equiv_pos_site_id
 _symmetry_equiv_pos_as_xyz
  1  'x, y, z'
loop_
 _atom_site_type_symbol
 _atom_site_label
 _atom_site_symmetry_multiplicity
 _atom_site_fract_x
 _atom_site_fract_y
 _atom_site_fract_z
 _atom_site_occupancy
  Cu  Cu0  1  0.37827000  0.94222000  0.10111000  1.0
  Cu  Cu1  1  0.62173000  0.05778000  0.89890000  1.0
  Cu  Cu2  1  0.80514000  0.32986000  0.93462000  1.0
  Cu  Cu3  1  0.19486000  0.67014000  0.06538000  1.0
  Mo  Mo4  1  0.29092000  0.31572000  0.98903000  1.0
  Mo  Mo5  1  0.70909000  0.68428000  0.01097000  1.0
  Mo  Mo6  1  0.86054000  0.99659000  0.12003000  1.0
  Mo  Mo7  1  0.13948000  0.00341000  0.87998000  1.0
  H  H8  1  0.33135000  0.92710000  0.48169000  1.0
  H  H9  1  0.66862000  0.07287000  0.51831000  1.0
  H  H10  1  0.92736000  0.29451000  0.73094000  1.0
  H  H11  1  0.07264000  0.70550000  0.26905000  1.0
  H  H12  1  0.25047000  0.04067000  0.29019000  1.0
  H  H13  1  0.74950000  0.95932000  0.70982000  1.0
  H  H14  1  0.65452000  0.65870000  0.22837000  1.0
  H  H15  1  0.34548000  0.34132000  0.77162000  1.0
  H  H16  1  0.51079000  0.63570000  0.82743000  1.0
  H  H17  1  0.48920000  0.36429000  0.17258000  1.0
  H  H18  1  0.40248000  0.79969000  0.64623000  1.0
  H  H19  1  0.59750000  0.20030000  0.35377000  1.0
  H  H20  1  0.95766000  0.29960000  0.55187000  1.0
  H  H21  1  0.04235000  0.70041000  0.44813000  1.0
  H  H22  1  0.85560000  0.43614000  0.36253000  1.0
  H  H23  1  0.14441000  0.56388000  0.63746000  1.0
  C  C24  1  0.40680000  0.86206000  0.42903000  1.0
  C  C25  1  0.59318000  0.13792000  0.57099000  1.0
  C  C26  1  0.81085000  0.40625000  0.70925000  1.0
  C  C27  1  0.18915000  0.59375000  0.29075000  1.0
  C  C28  1  0.35907000  0.92637000  0.32348000  1.0
  C  C29  1  0.64089000  0.07364000  0.67651000  1.0
  C  C30  1  0.58562000  0.71362000  0.28706000  1.0
  C  C31  1  0.41437000  0.28640000  0.71294000  1.0
  C  C32  1  0.75475000  0.48510000  0.60332000  1.0
  C  C33  1  0.24524000  0.51490000  0.39668000  1.0
  C  C34  1  0.57856000  0.59920000  0.76158000  1.0
  C  C35  1  0.42143000  0.40079000  0.23842000  1.0
  C  C36  1  0.51894000  0.68852000  0.65959000  1.0
  C  C37  1  0.48104000  0.31147000  0.34041000  1.0
  C  C38  1  0.60591000  0.63344000  0.57657000  1.0
  C  C39  1  0.39408000  0.36655000  0.42343000  1.0
  C  C40  1  0.84525000  0.41372000  0.52585000  1.0
  C  C41  1  0.15475000  0.58628000  0.47415000  1.0
  C  C42  1  0.64315000  0.63834000  0.39295000  1.0
  C  C43  1  0.35685000  0.36167000  0.60705000  1.0
  C  C44  1  0.78986000  0.48794000  0.42331000  1.0
  C  C45  1  0.21015000  0.51207000  0.57669000  1.0
  C  C46  1  0.55020000  0.71397000  0.46739000  1.0
  C  C47  1  0.44978000  0.28602000  0.53261000  1.0
  N  N48  1  0.72513000  0.46062000  0.78558000  1.0
  N  N49  1  0.27486000  0.53938000  0.21442000  1.0
  N  N50  1  0.44658000  0.85091000  0.25363000  1.0
  N  N51  1  0.55342000  0.14909000  0.74637000  1.0
  O  O52  1  0.09725000  0.37569000  0.90311000  1.0
  O  O53  1  0.90277000  0.62430000  0.09688000  1.0
  O  O54  1  0.28318000  0.16003000  0.10848000  1.0
  O  O55  1  0.71682000  0.83998000  0.89153000  1.0
  O  O56  1  0.09413000  0.87662000  0.09756000  1.0
  O  O57  1  0.90589000  0.12338000  0.90243000  1.0
  O  O58  1  0.83864000  0.20395000  0.08398000  1.0
  O  O59  1  0.16138000  0.79606000  0.91601000  1.0
  O  O60  1  0.50648000  0.26665000  0.92141000  1.0
  O  O61  1  0.49354000  0.73334000  0.07860000  1.0
  O  O62  1  0.29896000  0.48060000  0.02548000  1.0
  O  O63  1  0.70105000  0.51940000  0.97451000  1.0
  O  O64  1  0.82973000  0.93292000  0.25323000  1.0
  O  O65  1  0.17031000  0.06709000  0.74677000  1.0
  O  O66  1  0.68322000  0.96273000  0.05325000  1.0
  O  O67  1  0.31679000  0.03728000  0.94676000  1.0
