# generated using pymatgen
data_Ag2H3C7NO4
_symmetry_space_group_name_H-M   'P 1'
_cell_length_a   9.96141000
_cell_length_b   9.96143000
_cell_length_c   10.63690000
_cell_angle_alpha   108.18500000
_cell_angle_beta   108.18500000
_cell_angle_gamma   100.30300000
_symmetry_Int_Tables_number   1
_chemical_formula_structural   Ag2H3C7NO4
_chemical_formula_sum   'Ag8 H12 C28 N4 O16'
_cell_volume   906.97708258
_cell_formula_units_Z   4
loop_
 _symmetry_equiv_pos_site_id
 _symmetry_equiv_pos_as_xyz
  1  'x, y, z'
loop_
 _atom_site_type_symbol
 _atom_site_label
 _atom_site_symmetry_multiplicity
 _atom_site_fract_x
 _atom_site_fract_y
 _atom_site_fract_z
 _atom_site_occupancy
  Ag  Ag0  1  0.73691000  0.10813000  0.57636000  1.0
  Ag  Ag1  1  0.78895000  0.48979000  0.85906000  1.0
  Ag  Ag2  1  0.89186000  0.26309000  0.92364000  1.0
  Ag  Ag3  1  0.51021000  0.21105000  0.64094000  1.0
  Ag  Ag4  1  0.26309000  0.89186000  0.42365000  1.0
  Ag  Ag5  1  0.21105000  0.51021000  0.14094000  1.0
  Ag  Ag6  1  0.10814000  0.73691000  0.07636000  1.0
  Ag  Ag7  1  0.48980000  0.78895000  0.35906000  1.0
  H  H8  1  0.75765000  0.76600000  0.76081000  1.0
  H  H9  1  0.40042000  0.90454000  0.85047000  1.0
  H  H10  1  0.56864000  0.58261000  0.98921000  1.0
  H  H11  1  0.23398000  0.24235000  0.73919000  1.0
  H  H12  1  0.09546000  0.59959000  0.64953000  1.0
  H  H13  1  0.41738000  0.43136000  0.51079000  1.0
  H  H14  1  0.24235000  0.23399000  0.23919000  1.0
  H  H15  1  0.59959000  0.09546000  0.14953000  1.0
  H  H16  1  0.43136000  0.41738000  0.01079000  1.0
  H  H17  1  0.76601000  0.75766000  0.26080000  1.0
  H  H18  1  0.90455000  0.40042000  0.35047000  1.0
  H  H19  1  0.58262000  0.56864000  0.48921000  1.0
  C  C20  1  0.67658000  0.76142000  0.80960000  1.0
  C  C21  1  0.58374000  0.85093000  0.80098000  1.0
  C  C22  1  0.59707000  0.95438000  0.72632000  1.0
  C  C23  1  0.47764000  0.84001000  0.86081000  1.0
  C  C24  1  0.47120000  0.74335000  0.93115000  1.0
  C  C25  1  0.57057000  0.66018000  0.93666000  1.0
  C  C26  1  0.35812000  0.71940000  0.99481000  1.0
  C  C27  1  0.23857000  0.32342000  0.69039000  1.0
  C  C28  1  0.14907000  0.41627000  0.69902000  1.0
  C  C29  1  0.04562000  0.40293000  0.77368000  1.0
  C  C30  1  0.15999000  0.52236000  0.63918000  1.0
  C  C31  1  0.25664000  0.52880000  0.56885000  1.0
  C  C32  1  0.33982000  0.42943000  0.56333000  1.0
  C  C33  1  0.28060000  0.64188000  0.50518000  1.0
  C  C34  1  0.32342000  0.23857000  0.19039000  1.0
  C  C35  1  0.41627000  0.14907000  0.19902000  1.0
  C  C36  1  0.40293000  0.04562000  0.27368000  1.0
  C  C37  1  0.52236000  0.15998000  0.13918000  1.0
  C  C38  1  0.52880000  0.25665000  0.06885000  1.0
  C  C39  1  0.42943000  0.33982000  0.06333000  1.0
  C  C40  1  0.64188000  0.28060000  0.00519000  1.0
  C  C41  1  0.76142000  0.67659000  0.30961000  1.0
  C  C42  1  0.85093000  0.58374000  0.30098000  1.0
  C  C43  1  0.95438000  0.59707000  0.22632000  1.0
  C  C44  1  0.84002000  0.47764000  0.36081000  1.0
  C  C45  1  0.74336000  0.47120000  0.43115000  1.0
  C  C46  1  0.66018000  0.57057000  0.43667000  1.0
  C  C47  1  0.71941000  0.35812000  0.49482000  1.0
  N  N48  1  0.66953000  0.66666667  0.87538000  1.0
  N  N49  1  0.33333333  0.33047000  0.62462000  1.0
  N  N50  1  0.33046000  0.33333333  0.12462000  1.0
  N  N51  1  0.66666667  0.66954000  0.37538000  1.0
  O  O52  1  0.70462000  0.96348000  0.68433000  1.0
  O  O53  1  0.50161000  0.02303000  0.71153000  1.0
  O  O54  1  0.26110000  0.78728000  0.97873000  1.0
  O  O55  1  0.36795000  0.62982000  0.05789000  1.0
  O  O56  1  0.03652000  0.29539000  0.81568000  1.0
  O  O57  1  0.97697000  0.49839000  0.78847000  1.0
  O  O58  1  0.21272000  0.73890000  0.52127000  1.0
  O  O59  1  0.37018000  0.63205000  0.44212000  1.0
  O  O60  1  0.29539000  0.03652000  0.31568000  1.0
  O  O61  1  0.49840000  0.97697000  0.28847000  1.0
  O  O62  1  0.73890000  0.21272000  0.02127000  1.0
  O  O63  1  0.63205000  0.37018000  0.94212000  1.0
  O  O64  1  0.96348000  0.70461000  0.18432000  1.0
  O  O65  1  0.02303000  0.50161000  0.21153000  1.0
  O  O66  1  0.78728000  0.26111000  0.47874000  1.0
  O  O67  1  0.62982000  0.36795000  0.55788000  1.0
