# generated using pymatgen
data_SrH8C9(NO3)2
_symmetry_space_group_name_H-M   'P 1'
_cell_length_a   6.77579000
_cell_length_b   6.94517000
_cell_length_c   12.17140000
_cell_angle_alpha   75.92330000
_cell_angle_beta   78.55310000
_cell_angle_gamma   75.00860000
_symmetry_Int_Tables_number   1
_chemical_formula_structural   SrH8C9(NO3)2
_chemical_formula_sum   'Sr2 H16 C18 N4 O12'
_cell_volume   531.01975672
_cell_formula_units_Z   2
loop_
 _symmetry_equiv_pos_site_id
 _symmetry_equiv_pos_as_xyz
  1  'x, y, z'
loop_
 _atom_site_type_symbol
 _atom_site_label
 _atom_site_symmetry_multiplicity
 _atom_site_fract_x
 _atom_site_fract_y
 _atom_site_fract_z
 _atom_site_occupancy
  Sr  Sr0  1  0.75176000  0.73449000  0.55219000  1.0
  Sr  Sr1  1  0.24825000  0.26556000  0.44779000  1.0
  H  H2  1  0.33445000  0.55782000  0.64086000  1.0
  H  H3  1  0.66555000  0.44219000  0.35914000  1.0
  H  H4  1  0.27790000  0.79970000  0.62068000  1.0
  H  H5  1  0.72210000  0.20031000  0.37932000  1.0
  H  H6  1  0.79395000  0.69963000  0.81973000  1.0
  H  H7  1  0.20605000  0.30036000  0.18028000  1.0
  H  H8  1  0.95097000  0.80679000  0.72334000  1.0
  H  H9  1  0.04903000  0.19322000  0.27666000  1.0
  H  H10  1  0.08885000  0.78458000  0.92400000  1.0
  H  H11  1  0.91115000  0.21540000  0.07600000  1.0
  H  H12  1  0.74249000  0.72071000  0.13026000  1.0
  H  H13  1  0.25751000  0.27928000  0.86975000  1.0
  H  H14  1  0.97118000  0.83186000  0.16392000  1.0
  H  H15  1  0.02882000  0.16813000  0.83609000  1.0
  H  H16  1  0.42285000  0.71382000  0.79183000  1.0
  H  H17  1  0.57716000  0.28615000  0.20818000  1.0
  C  C18  1  0.54115000  0.79921000  0.33533000  1.0
  C  C19  1  0.45885000  0.20079000  0.66466000  1.0
  C  C20  1  0.44770000  0.78853000  0.23572000  1.0
  C  C21  1  0.55230000  0.21148000  0.76428000  1.0
  C  C22  1  0.57551000  0.75335000  0.13417000  1.0
  C  C23  1  0.42449000  0.24664000  0.86584000  1.0
  C  C24  1  0.48435000  0.75643000  0.04027000  1.0
  C  C25  1  0.51565000  0.24356000  0.95974000  1.0
  C  C26  1  0.26595000  0.78961000  0.05134000  1.0
  C  C27  1  0.73405000  0.21038000  0.94866000  1.0
  C  C28  1  0.13698000  0.81947000  0.15296000  1.0
  C  C29  1  0.86303000  0.18053000  0.84705000  1.0
  C  C30  1  0.23066000  0.81811000  0.24536000  1.0
  C  C31  1  0.76934000  0.18190000  0.75464000  1.0
  C  C32  1  0.09714000  0.82047000  0.35969000  1.0
  C  C33  1  0.90285000  0.17953000  0.64030000  1.0
  C  C34  1  0.41405000  0.73463000  0.87876000  1.0
  C  C35  1  0.58595000  0.26533000  0.12125000  1.0
  N  N36  1  0.57172000  0.72353000  0.93093000  1.0
  N  N37  1  0.42828000  0.27646000  0.06908000  1.0
  N  N38  1  0.22795000  0.77413000  0.94687000  1.0
  N  N39  1  0.77205000  0.22586000  0.05313000  1.0
  O  O40  1  0.70451000  0.66679000  0.35983000  1.0
  O  O41  1  0.29550000  0.33322000  0.64016000  1.0
  O  O42  1  0.45603000  0.93920000  0.39110000  1.0
  O  O43  1  0.54397000  0.06079000  0.60890000  1.0
  O  O44  1  0.12450000  0.65774000  0.43580000  1.0
  O  O45  1  0.87549000  0.34227000  0.56420000  1.0
  O  O46  1  0.95674000  0.97863000  0.37448000  1.0
  O  O47  1  0.04326000  0.02139000  0.62551000  1.0
  O  O48  1  0.39041000  0.68038000  0.63630000  1.0
  O  O49  1  0.60959000  0.31963000  0.36370000  1.0
  O  O50  1  0.89300000  0.68353000  0.74812000  1.0
  O  O51  1  0.10700000  0.31647000  0.25188000  1.0
