# generated using pymatgen
data_Al2H7C16S2N(ClO5)2
_symmetry_space_group_name_H-M   'P 1'
_cell_length_a   6.65033000
_cell_length_b   11.03798856
_cell_length_c   12.72250000
_cell_angle_alpha   99.65782796
_cell_angle_beta   104.54730000
_cell_angle_gamma   106.86734102
_symmetry_Int_Tables_number   1
_chemical_formula_structural   Al2H7C16S2N(ClO5)2
_chemical_formula_sum   'Al2 H7 C16 S2 N1 Cl2 O10'
_cell_volume   835.37807610
_cell_formula_units_Z   1
loop_
 _symmetry_equiv_pos_site_id
 _symmetry_equiv_pos_as_xyz
  1  'x, y, z'
loop_
 _atom_site_type_symbol
 _atom_site_label
 _atom_site_symmetry_multiplicity
 _atom_site_fract_x
 _atom_site_fract_y
 _atom_site_fract_z
 _atom_site_occupancy
  Al  Al0  1  0.99991000  0.49868000  0.50493000  1.0
  Al  Al1  1  0.50094000  0.50135000  0.50282000  1.0
  H  H2  1  0.13772000  0.41889000  0.36185000  1.0
  H  H3  1  0.87462000  0.65238000  0.60875000  1.0
  H  H4  1  0.78406000  0.90164000  0.56917000  1.0
  H  H5  1  0.09940000  0.86829000  0.46074000  1.0
  H  H6  1  0.89294000  0.13668000  0.55971000  1.0
  H  H7  1  0.20488000  0.20408000  0.44163000  1.0
  H  H8  1  0.00739000  0.05178000  0.42687000  1.0
  C  C9  1  0.64651000  0.49185000  0.30586000  1.0
  C  C10  1  0.64032000  0.27016000  0.49352000  1.0
  C  C11  1  0.35534000  0.50623000  0.69895000  1.0
  C  C12  1  0.36145000  0.73244000  0.51857000  1.0
  C  C13  1  0.56068000  0.13345000  0.50044000  1.0
  C  C14  1  0.43349000  0.87230000  0.51429000  1.0
  C  C15  1  0.33030000  0.05913000  0.47300000  1.0
  C  C16  1  0.66049000  0.94633000  0.54246000  1.0
  C  C17  1  0.27342000  0.92792000  0.48133000  1.0
  C  C18  1  0.71940000  0.07512000  0.53607000  1.0
  C  C19  1  0.33492000  0.55613000  0.90139000  1.0
  C  C20  1  0.67468000  0.44454000  0.10422000  1.0
  C  C21  1  0.41157000  0.50536000  0.81806000  1.0
  C  C22  1  0.59655000  0.49463000  0.18721000  1.0
  C  C23  1  0.57960000  0.46681000  0.99966000  1.0
  C  C24  1  0.43149000  0.53408000  0.00570000  1.0
  S  S25  1  0.60320000  0.43214000  0.86732000  1.0
  S  S26  1  0.40624000  0.56846000  0.13754000  1.0
  N  N27  1  0.16580000  0.10714000  0.43853000  1.0
  Cl  Cl28  1  0.15331000  0.63886000  0.88675000  1.0
  Cl  Cl29  1  0.85540000  0.36082000  0.11931000  1.0
  O  O30  1  0.81803000  0.46629000  0.35059000  1.0
  O  O31  1  0.49672000  0.32598000  0.46765000  1.0
  O  O32  1  0.48595000  0.48031000  0.64763000  1.0
  O  O33  1  0.15562000  0.67455000  0.50155000  1.0
  O  O34  1  0.18338000  0.53210000  0.65625000  1.0
  O  O35  1  0.51027000  0.67999000  0.53859000  1.0
  O  O36  1  0.51029000  0.51609000  0.35430000  1.0
  O  O37  1  0.84755000  0.32665000  0.51195000  1.0
  O  O38  1  0.19081000  0.43577000  0.44327000  1.0
  O  O39  1  0.80774000  0.56446000  0.55962000  1.0
