# generated using pymatgen
data_ZnH18C26(NO)4
_symmetry_space_group_name_H-M   'P 1'
_cell_length_a   9.06915000
_cell_length_b   10.06920000
_cell_length_c   13.12918558
_cell_angle_alpha   90.00000000
_cell_angle_beta   110.15919329
_cell_angle_gamma   90.00000000
_symmetry_Int_Tables_number   1
_chemical_formula_structural   ZnH18C26(NO)4
_chemical_formula_sum   'Zn2 H36 C52 N8 O8'
_cell_volume   1125.49628542
_cell_formula_units_Z   2
loop_
 _symmetry_equiv_pos_site_id
 _symmetry_equiv_pos_as_xyz
  1  'x, y, z'
loop_
 _atom_site_type_symbol
 _atom_site_label
 _atom_site_symmetry_multiplicity
 _atom_site_fract_x
 _atom_site_fract_y
 _atom_site_fract_z
 _atom_site_occupancy
  Zn  Zn0  1  0.00000000  0.00000000  0.00000000  1.0
  Zn  Zn1  1  1.00000000  0.50000000  0.50000000  1.0
  H  H2  1  0.06193000  0.58513000  0.90015000  1.0
  H  H3  1  0.93807000  0.08513000  0.59984000  1.0
  H  H4  1  0.93807000  0.41487000  0.09984000  1.0
  H  H5  1  0.06193000  0.91487000  0.40016000  1.0
  H  H6  1  0.04702000  0.59519000  0.72355000  1.0
  H  H7  1  0.95299000  0.09519000  0.77645000  1.0
  H  H8  1  0.95299000  0.40481000  0.27645000  1.0
  H  H9  1  0.04701000  0.90482000  0.22355000  1.0
  H  H10  1  0.65114000  0.58408000  0.44626000  1.0
  H  H11  1  0.34886000  0.08408000  0.05374000  1.0
  H  H12  1  0.34886000  0.41591000  0.55374000  1.0
  H  H13  1  0.65113000  0.91591000  0.94626000  1.0
  H  H14  1  0.49921000  0.72436000  0.53089000  1.0
  H  H15  1  0.50079000  0.22436000  0.96911000  1.0
  H  H16  1  0.50078000  0.27563000  0.46911000  1.0
  H  H17  1  0.49921000  0.77563000  0.03089000  1.0
  H  H18  1  0.63838000  0.81648000  0.71904000  1.0
  H  H19  1  0.36163000  0.31648000  0.78097000  1.0
  H  H20  1  0.36163000  0.18352000  0.28096000  1.0
  H  H21  1  0.63837000  0.68351000  0.21904000  1.0
  H  H22  1  0.27053000  0.73736000  0.24198000  1.0
  H  H23  1  0.72946000  0.23737000  0.25801000  1.0
  H  H24  1  0.72947000  0.26264000  0.75802000  1.0
  H  H25  1  0.27053000  0.76264000  0.74198000  1.0
  H  H26  1  0.58220000  0.42133000  0.30755000  1.0
  H  H27  1  0.41780000  0.92133000  0.19245000  1.0
  H  H28  1  0.41780000  0.57867000  0.69245000  1.0
  H  H29  1  0.58221000  0.07867000  0.80755000  1.0
  H  H30  1  0.48846000  0.35389000  0.11261000  1.0
  H  H31  1  0.51153000  0.85388000  0.38739000  1.0
  H  H32  1  0.51154000  0.64611000  0.88739000  1.0
  H  H33  1  0.48846000  0.14612000  0.61260000  1.0
  H  H34  1  0.28858000  0.49421000  0.97619000  1.0
  H  H35  1  0.71143000  0.99422000  0.52382000  1.0
  H  H36  1  0.71142000  0.50579000  0.02381000  1.0
  H  H37  1  0.28857000  0.00579000  0.47618000  1.0
  C  C38  1  0.15471000  0.72913000  0.02602000  1.0
  C  C39  1  0.84529000  0.22914000  0.47398000  1.0
  C  C40  1  0.84528000  0.27087000  0.97397000  1.0
  C  C41  1  0.15471000  0.77087000  0.52602000  1.0
  C  C42  1  0.05308000  0.68798000  0.92295000  1.0
  C  C43  1  0.94692000  0.18798000  0.57705000  1.0
  C  C44  1  0.94692000  0.31203000  0.07705000  1.0
  C  C45  1  0.05308000  0.81203000  0.42295000  1.0
  C  C46  1  0.93629000  0.76639000  0.84761000  1.0
  C  C47  1  0.06371000  0.26639000  0.65239000  1.0
  C  C48  1  0.06370000  0.23361000  0.15238000  1.0
  C  C49  1  0.93629000  0.73361000  0.34761000  1.0
  C  C50  1  0.85171000  0.71045000  0.73739000  1.0
  C  C51  1  0.14829000  0.21045000  0.76261000  1.0
  C  C52  1  0.14829000  0.28954000  0.26261000  1.0
  C  C53  1  0.85171000  0.78955000  0.23739000  1.0
  C  C54  1  0.92560000  0.62716000  0.68477000  1.0
  C  C55  1  0.07440000  0.12716000  0.81523000  1.0
  C  C56  1  0.07440000  0.37285000  0.31523000  1.0
  C  C57  1  0.92560000  0.87285000  0.18477000  1.0
  C  C58  1  0.70526000  0.62026000  0.52903000  1.0
  C  C59  1  0.29474000  0.12026000  0.97097000  1.0
  C  C60  1  0.29474000  0.37973000  0.47097000  1.0
  C  C61  1  0.70525000  0.87974000  0.02903000  1.0
  C  C62  1  0.62167000  0.70113000  0.57598000  1.0
  C  C63  1  0.37833000  0.20114000  0.92402000  1.0
  C  C64  1  0.37833000  0.29886000  0.42402000  1.0
  C  C65  1  0.62167000  0.79886000  0.07598000  1.0
  C  C66  1  0.69695000  0.74978000  0.68008000  1.0
  C  C67  1  0.30305000  0.24978000  0.81992000  1.0
  C  C68  1  0.30305000  0.25022000  0.31992000  1.0
  C  C69  1  0.69695000  0.75022000  0.18008000  1.0
  C  C70  1  0.26598000  0.63055000  0.09839000  1.0
  C  C71  1  0.73402000  0.13055000  0.40161000  1.0
  C  C72  1  0.73402000  0.36945000  0.90161000  1.0
  C  C73  1  0.26598000  0.86945000  0.59839000  1.0
  C  C74  1  0.31937000  0.65383000  0.21101000  1.0
  C  C75  1  0.68063000  0.15384000  0.28899000  1.0
  C  C76  1  0.68063000  0.34616000  0.78899000  1.0
  C  C77  1  0.31937000  0.84617000  0.71101000  1.0
  C  C78  1  0.48846000  0.47663000  0.24718000  1.0
  C  C79  1  0.51153000  0.97663000  0.25282000  1.0
  C  C80  1  0.51153000  0.52336000  0.75282000  1.0
  C  C81  1  0.48847000  0.02337000  0.74718000  1.0
  C  C82  1  0.43863000  0.44100000  0.13777000  1.0
  C  C83  1  0.56137000  0.94100000  0.36223000  1.0
  C  C84  1  0.56136000  0.55900000  0.86222000  1.0
  C  C85  1  0.43863000  0.05901000  0.63777000  1.0
  C  C86  1  0.32590000  0.51874000  0.06228000  1.0
  C  C87  1  0.67409000  0.01875000  0.43772000  1.0
  C  C88  1  0.67410000  0.48125000  0.93772000  1.0
  C  C89  1  0.32591000  0.98126000  0.56228000  1.0
  N  N90  1  0.85534000  0.58604000  0.58209000  1.0
  N  N91  1  0.14466000  0.08604000  0.91791000  1.0
  N  N92  1  0.14466000  0.41396000  0.41791000  1.0
  N  N93  1  0.85533000  0.91396000  0.08209000  1.0
  N  N94  1  0.42789000  0.58022000  0.28420000  1.0
  N  N95  1  0.57211000  0.08023000  0.21580000  1.0
  N  N96  1  0.57211000  0.41977000  0.71580000  1.0
  N  N97  1  0.42789000  0.91978000  0.78420000  1.0
  O  O98  1  0.16319000  0.84594000  0.06608000  1.0
  O  O99  1  0.83680000  0.34594000  0.43392000  1.0
  O  O100  1  0.83680000  0.15406000  0.93392000  1.0
  O  O101  1  0.16320000  0.65406000  0.56608000  1.0
  O  O102  1  0.89246000  0.88291000  0.86289000  1.0
  O  O103  1  0.10755000  0.38291000  0.63711000  1.0
  O  O104  1  0.10754000  0.11709000  0.13711000  1.0
  O  O105  1  0.89246000  0.61709000  0.36289000  1.0
