# generated using pymatgen
data_CdH5C10N2O7
_symmetry_space_group_name_H-M   'P 1'
_cell_length_a   7.48310000
_cell_length_b   11.91940000
_cell_length_c   13.20980000
_cell_angle_alpha   90.00040000
_cell_angle_beta   90.00090000
_cell_angle_gamma   90.92750000
_symmetry_Int_Tables_number   1
_chemical_formula_structural   CdH5C10N2O7
_chemical_formula_sum   'Cd4 H20 C40 N8 O28'
_cell_volume   1178.08134748
_cell_formula_units_Z   4
loop_
 _symmetry_equiv_pos_site_id
 _symmetry_equiv_pos_as_xyz
  1  'x, y, z'
loop_
 _atom_site_type_symbol
 _atom_site_label
 _atom_site_symmetry_multiplicity
 _atom_site_fract_x
 _atom_site_fract_y
 _atom_site_fract_z
 _atom_site_occupancy
  Cd  Cd0  1  0.57504000  0.67821000  0.16878000  1.0
  Cd  Cd1  1  0.07503000  0.17820000  0.33121000  1.0
  Cd  Cd2  1  0.42498000  0.32182000  0.83121000  1.0
  Cd  Cd3  1  0.92497000  0.82180000  0.66879000  1.0
  H  H4  1  0.87787000  0.78071000  0.27426000  1.0
  H  H5  1  0.37790000  0.28070000  0.22573000  1.0
  H  H6  1  0.12213000  0.21930000  0.72572000  1.0
  H  H7  1  0.62210000  0.71928000  0.77428000  1.0
  H  H8  1  0.87576000  0.82824000  0.16054000  1.0
  H  H9  1  0.37574000  0.32823000  0.33945000  1.0
  H  H10  1  0.12423000  0.17177000  0.83944000  1.0
  H  H11  1  0.62423000  0.67176000  0.66056000  1.0
  H  H12  1  0.91710000  0.69617000  0.00262000  1.0
  H  H13  1  0.41715000  0.19614000  0.49739000  1.0
  H  H14  1  0.08289000  0.30386000  0.99736000  1.0
  H  H15  1  0.58289000  0.80386000  0.50262000  1.0
  H  H16  1  0.03959000  0.58060000  0.85784000  1.0
  H  H17  1  0.53958000  0.08057000  0.64219000  1.0
  H  H18  1  0.96046000  0.41939000  0.14218000  1.0
  H  H19  1  0.46044000  0.91940000  0.35782000  1.0
  H  H20  1  0.84314000  0.41960000  0.79387000  1.0
  H  H21  1  0.34309000  0.91958000  0.70615000  1.0
  H  H22  1  0.15688000  0.58040000  0.20615000  1.0
  H  H23  1  0.65687000  0.08041000  0.29385000  1.0
  C  C24  1  0.37556000  0.87700000  0.04811000  1.0
  C  C25  1  0.87555000  0.37699000  0.45189000  1.0
  C  C26  1  0.62444000  0.12301000  0.95189000  1.0
  C  C27  1  0.12444000  0.62300000  0.54811000  1.0
  C  C28  1  0.32601000  0.88567000  0.15597000  1.0
  C  C29  1  0.82602000  0.38566000  0.34403000  1.0
  C  C30  1  0.67397000  0.11433000  0.84403000  1.0
  C  C31  1  0.17398000  0.61434000  0.65597000  1.0
  C  C32  1  0.22758000  0.98229000  0.19273000  1.0
  C  C33  1  0.72759000  0.48228000  0.30726000  1.0
  C  C34  1  0.77240000  0.01771000  0.80727000  1.0
  C  C35  1  0.27242000  0.51772000  0.69273000  1.0
  C  C36  1  0.16707000  0.06760000  0.12077000  1.0
  C  C37  1  0.66707000  0.56759000  0.37922000  1.0
  C  C38  1  0.83292000  0.93241000  0.87923000  1.0
  C  C39  1  0.33292000  0.43241000  0.62077000  1.0
  C  C40  1  0.18446000  0.04819000  0.01091000  1.0
  C  C41  1  0.68445000  0.54818000  0.48909000  1.0
  C  C42  1  0.81551000  0.95182000  0.98909000  1.0
  C  C43  1  0.31552000  0.45182000  0.51091000  1.0
  C  C44  1  0.29865000  0.95586000  0.97261000  1.0
  C  C45  1  0.79865000  0.45586000  0.52740000  1.0
  C  C46  1  0.70134000  0.04415000  0.02740000  1.0
  C  C47  1  0.20132000  0.54414000  0.47260000  1.0
  C  C48  1  0.84461000  0.62333000  0.97258000  1.0
  C  C49  1  0.34462000  0.12331000  0.52743000  1.0
  C  C50  1  0.15539000  0.37668000  0.02743000  1.0
  C  C51  1  0.65539000  0.87668000  0.47255000  1.0
  C  C52  1  0.91059000  0.56061000  0.89226000  1.0
  C  C53  1  0.41058000  0.06059000  0.60776000  1.0
  C  C54  1  0.08943000  0.43939000  0.10777000  1.0
  C  C55  1  0.58943000  0.93939000  0.39223000  1.0
  C  C56  1  0.80349000  0.47219000  0.85731000  1.0
  C  C57  1  0.30346000  0.97217000  0.64270000  1.0
  C  C58  1  0.19653000  0.52781000  0.14271000  1.0
  C  C59  1  0.69651000  0.02781000  0.35728000  1.0
  C  C60  1  0.58961000  0.51280000  0.97687000  1.0
  C  C61  1  0.08962000  0.01280000  0.52313000  1.0
  C  C62  1  0.41042000  0.48720000  0.02314000  1.0
  C  C63  1  0.91043000  0.98720000  0.47686000  1.0
  N  N64  1  0.68655000  0.59800000  0.01554000  1.0
  N  N65  1  0.18656000  0.09798000  0.48446000  1.0
  N  N66  1  0.31346000  0.40202000  0.98447000  1.0
  N  N67  1  0.81346000  0.90201000  0.51551000  1.0
  N  N68  1  0.64281000  0.44946000  0.89889000  1.0
  N  N69  1  0.14280000  0.94946000  0.60111000  1.0
  N  N70  1  0.35720000  0.55052000  0.10113000  1.0
  N  N71  1  0.85719000  0.05053000  0.39887000  1.0
  O  O72  1  0.48152000  0.80262000  0.02083000  1.0
  O  O73  1  0.98152000  0.30261000  0.47918000  1.0
  O  O74  1  0.51848000  0.19740000  0.97918000  1.0
  O  O75  1  0.01847000  0.69738000  0.52082000  1.0
  O  O76  1  0.37861000  0.81334000  0.21885000  1.0
  O  O77  1  0.87864000  0.31334000  0.28114000  1.0
  O  O78  1  0.62138000  0.18667000  0.78114000  1.0
  O  O79  1  0.12138000  0.68667000  0.71885000  1.0
  O  O80  1  0.19759000  0.99430000  0.28605000  1.0
  O  O81  1  0.69762000  0.49429000  0.21394000  1.0
  O  O82  1  0.80238000  0.00570000  0.71395000  1.0
  O  O83  1  0.30242000  0.50571000  0.78605000  1.0
  O  O84  1  0.09279000  0.15497000  0.15216000  1.0
  O  O85  1  0.59279000  0.65496000  0.34783000  1.0
  O  O86  1  0.90722000  0.84504000  0.84784000  1.0
  O  O87  1  0.40721000  0.34504000  0.65216000  1.0
  O  O88  1  0.10265000  0.11041000  0.95123000  1.0
  O  O89  1  0.60264000  0.61040000  0.54876000  1.0
  O  O90  1  0.89732000  0.88960000  0.04877000  1.0
  O  O91  1  0.39734000  0.38959000  0.45123000  1.0
  O  O92  1  0.33220000  0.94750000  0.88110000  1.0
  O  O93  1  0.83222000  0.44751000  0.61891000  1.0
  O  O94  1  0.66779000  0.05251000  0.11891000  1.0
  O  O95  1  0.16775000  0.55249000  0.38109000  1.0
  O  O96  1  0.85703000  0.76044000  0.20390000  1.0
  O  O97  1  0.35702000  0.26043000  0.29609000  1.0
  O  O98  1  0.14298000  0.23957000  0.79609000  1.0
  O  O99  1  0.64297000  0.73956000  0.70392000  1.0
