# generated using pymatgen
data_Ni2H44C53(NO4)4
_symmetry_space_group_name_H-M   'P 1'
_cell_length_a   10.60150000
_cell_length_b   23.62400000
_cell_length_c   23.64460000
_cell_angle_alpha   94.80870000
_cell_angle_beta   89.99940000
_cell_angle_gamma   102.97200000
_symmetry_Int_Tables_number   1
_chemical_formula_structural   Ni2H44C53(NO4)4
_chemical_formula_sum   'Ni8 H176 C212 N16 O64'
_cell_volume   5749.27098050
_cell_formula_units_Z   4
loop_
 _symmetry_equiv_pos_site_id
 _symmetry_equiv_pos_as_xyz
  1  'x, y, z'
loop_
 _atom_site_type_symbol
 _atom_site_label
 _atom_site_symmetry_multiplicity
 _atom_site_fract_x
 _atom_site_fract_y
 _atom_site_fract_z
 _atom_site_occupancy
  Ni  Ni0  1  0.93823000  0.56860000  0.92751000  1.0
  Ni  Ni1  1  0.36938000  0.43137000  0.57250000  1.0
  Ni  Ni2  1  0.06177000  0.43140000  0.07249000  1.0
  Ni  Ni3  1  0.63062000  0.56863000  0.42751000  1.0
  Ni  Ni4  1  0.17492000  0.01853000  0.07130000  1.0
  Ni  Ni5  1  0.15650000  0.98140000  0.42867000  1.0
  Ni  Ni6  1  0.82508000  0.98147000  0.92870000  1.0
  Ni  Ni7  1  0.84350000  0.01860000  0.57133000  1.0
  H  H8  1  0.75734000  0.69877000  0.87170000  1.0
  H  H9  1  0.05809000  0.30118000  0.62824000  1.0
  H  H10  1  0.24267000  0.30123000  0.12831000  1.0
  H  H11  1  0.94191000  0.69882000  0.37176000  1.0
  H  H12  1  0.60902000  0.75902000  0.83876000  1.0
  H  H13  1  0.84935000  0.24095000  0.66110000  1.0
  H  H14  1  0.39099000  0.24098000  0.16124000  1.0
  H  H15  1  0.15065000  0.75905000  0.33890000  1.0
  H  H16  1  0.32355000  0.68439000  0.95667000  1.0
  H  H17  1  0.63885000  0.31566000  0.54317000  1.0
  H  H18  1  0.67646000  0.31561000  0.04333000  1.0
  H  H19  1  0.36116000  0.68434000  0.45683000  1.0
  H  H20  1  0.47529000  0.62614000  0.99160000  1.0
  H  H21  1  0.84899000  0.37394000  0.50833000  1.0
  H  H22  1  0.52472000  0.37386000  0.00840000  1.0
  H  H23  1  0.15101000  0.62606000  0.49167000  1.0
  H  H24  1  0.49580000  0.81071000  0.96840000  1.0
  H  H25  1  0.68483000  0.18932000  0.53154000  1.0
  H  H26  1  0.50421000  0.18929000  0.03161000  1.0
  H  H27  1  0.31517000  0.81068000  0.46846000  1.0
  H  H28  1  0.42108000  0.88983000  0.02602000  1.0
  H  H29  1  0.53107000  0.11009000  0.47399000  1.0
  H  H30  1  0.57892000  0.11016000  0.97398000  1.0
  H  H31  1  0.46893000  0.88990000  0.52601000  1.0
  H  H32  1  0.07961000  0.86133000  0.91987000  1.0
  H  H33  1  0.21807000  0.13837000  0.58022000  1.0
  H  H34  1  0.92040000  0.13867000  0.08013000  1.0
  H  H35  1  0.78193000  0.86163000  0.41978000  1.0
  H  H36  1  0.15531000  0.78233000  0.86107000  1.0
  H  H37  1  0.37270000  0.21752000  0.63893000  1.0
  H  H38  1  0.84470000  0.21767000  0.13893000  1.0
  H  H39  1  0.62730000  0.78248000  0.36107000  1.0
  H  H40  1  0.83590000  0.40920000  0.79166000  1.0
  H  H41  1  0.42682000  0.59091000  0.70830000  1.0
  H  H42  1  0.16409000  0.59080000  0.20834000  1.0
  H  H43  1  0.57318000  0.40909000  0.29170000  1.0
  H  H44  1  0.88569000  0.32061000  0.73691000  1.0
  H  H45  1  0.56523000  0.67954000  0.76294000  1.0
  H  H46  1  0.11430000  0.67939000  0.26309000  1.0
  H  H47  1  0.43477000  0.32046000  0.23706000  1.0
  H  H48  1  0.21683000  0.33390000  0.84675000  1.0
  H  H49  1  0.88321000  0.66596000  0.65327000  1.0
  H  H50  1  0.78317000  0.66610000  0.15325000  1.0
  H  H51  1  0.11679000  0.33404000  0.34673000  1.0
  H  H52  1  0.17021000  0.42234000  0.89914000  1.0
  H  H53  1  0.74811000  0.57746000  0.60100000  1.0
  H  H54  1  0.82978000  0.57766000  0.10086000  1.0
  H  H55  1  0.25189000  0.42254000  0.39900000  1.0
  H  H56  1  0.95549000  0.24714000  0.85415000  1.0
  H  H57  1  0.70871000  0.75290000  0.64576000  1.0
  H  H58  1  0.04450000  0.75286000  0.14585000  1.0
  H  H59  1  0.29129000  0.24711000  0.35424000  1.0
  H  H60  1  0.91445000  0.14808000  0.88959000  1.0
  H  H61  1  0.76681000  0.85197000  0.61030000  1.0
  H  H62  1  0.08554000  0.85192000  0.11040000  1.0
  H  H63  1  0.23318000  0.14804000  0.38970000  1.0
  H  H64  1  0.13755000  0.08958000  0.75491000  1.0
  H  H65  1  0.04805000  0.91055000  0.74511000  1.0
  H  H66  1  0.86245000  0.91042000  0.24509000  1.0
  H  H67  1  0.95194000  0.08945000  0.25489000  1.0
  H  H68  1  0.17075000  0.18740000  0.71557000  1.0
  H  H69  1  0.98350000  0.81272000  0.78441000  1.0
  H  H70  1  0.82924000  0.81260000  0.28443000  1.0
  H  H71  1  0.01651000  0.18729000  0.21559000  1.0
  H  H72  1  0.88400000  0.64284000  0.83826000  1.0
  H  H73  1  0.24091000  0.35693000  0.66171000  1.0
  H  H74  1  0.11601000  0.35716000  0.16174000  1.0
  H  H75  1  0.75909000  0.64307000  0.33829000  1.0
  H  H76  1  0.00232000  0.70094000  0.76419000  1.0
  H  H77  1  0.30139000  0.29884000  0.73570000  1.0
  H  H78  1  0.99769000  0.29906000  0.23581000  1.0
  H  H79  1  0.69861000  0.70116000  0.26430000  1.0
  H  H80  1  0.33236000  0.62927000  0.80175000  1.0
  H  H81  1  0.70300000  0.37069000  0.69807000  1.0
  H  H82  1  0.66764000  0.37073000  0.19825000  1.0
  H  H83  1  0.29701000  0.62930000  0.30193000  1.0
  H  H84  1  0.19870000  0.57583000  0.87613000  1.0
  H  H85  1  0.62251000  0.42407000  0.62371000  1.0
  H  H86  1  0.80130000  0.42417000  0.12387000  1.0
  H  H87  1  0.37750000  0.57593000  0.37629000  1.0
  H  H88  1  0.42476000  0.56504000  0.51231000  1.0
  H  H89  1  0.85930000  0.43499000  0.98776000  1.0
  H  H90  1  0.57525000  0.43496000  0.48769000  1.0
  H  H91  1  0.14069000  0.56501000  0.01224000  1.0
  H  H92  1  0.34560000  0.63072000  0.58089000  1.0
  H  H93  1  0.71461000  0.36927000  0.91912000  1.0
  H  H94  1  0.65440000  0.36927000  0.41911000  1.0
  H  H95  1  0.28539000  0.63073000  0.08088000  1.0
  H  H96  1  0.65055000  0.77176000  0.52955000  1.0
  H  H97  1  0.87907000  0.22835000  0.97030000  1.0
  H  H98  1  0.34945000  0.22824000  0.47045000  1.0
  H  H99  1  0.12092000  0.77165000  0.02971000  1.0
  H  H100  1  0.72100000  0.69724000  0.46244000  1.0
  H  H101  1  0.02376000  0.30289000  0.03754000  1.0
  H  H102  1  0.27901000  0.30276000  0.53757000  1.0
  H  H103  1  0.97623000  0.69711000  0.96247000  1.0
  H  H104  1  0.83224000  0.89849000  0.82690000  1.0
  H  H105  1  0.93339000  0.10146000  0.67308000  1.0
  H  H106  1  0.16776000  0.10151000  0.17310000  1.0
  H  H107  1  0.06661000  0.89854000  0.32692000  1.0
  H  H108  1  0.67737000  0.84080000  0.75376000  1.0
  H  H109  1  0.83634000  0.15918000  0.74623000  1.0
  H  H110  1  0.32263000  0.15920000  0.24624000  1.0
  H  H111  1  0.16366000  0.84082000  0.25377000  1.0
  H  H112  1  0.37437000  0.90636000  0.84259000  1.0
  H  H113  1  0.46768000  0.09368000  0.65746000  1.0
  H  H114  1  0.62563000  0.09364000  0.15741000  1.0
  H  H115  1  0.53232000  0.90632000  0.34254000  1.0
  H  H116  1  0.54601000  0.96247000  0.91194000  1.0
  H  H117  1  0.58310000  0.03760000  0.58804000  1.0
  H  H118  1  0.45399000  0.03752000  0.08806000  1.0
  H  H119  1  0.41690000  0.96240000  0.41196000  1.0
  H  H120  1  0.03145000  0.85672000  0.44578000  1.0
  H  H121  1  0.17444000  0.14316000  0.05409000  1.0
  H  H122  1  0.96855000  0.14328000  0.55422000  1.0
  H  H123  1  0.82555000  0.85684000  0.94591000  1.0
  H  H124  1  0.04592000  0.78362000  0.51515000  1.0
  H  H125  1  0.26197000  0.21624000  0.98469000  1.0
  H  H126  1  0.95408000  0.21638000  0.48485000  1.0
  H  H127  1  0.73802000  0.78376000  0.01531000  1.0
  H  H128  1  0.29705000  0.92459000  0.61851000  1.0
  H  H129  1  0.37213000  0.07527000  0.88136000  1.0
  H  H130  1  0.70296000  0.07541000  0.38149000  1.0
  H  H131  1  0.62787000  0.92473000  0.11864000  1.0
  H  H132  1  0.27596000  0.98884000  0.54512000  1.0
  H  H133  1  0.28683000  0.01102000  0.95477000  1.0
  H  H134  1  0.72404000  0.01116000  0.45488000  1.0
  H  H135  1  0.71317000  0.98898000  0.04523000  1.0
  H  H136  1  0.26391000  0.85630000  0.68197000  1.0
  H  H137  1  0.40775000  0.14366000  0.81793000  1.0
  H  H138  1  0.73610000  0.14369000  0.31803000  1.0
  H  H139  1  0.59225000  0.85634000  0.18207000  1.0
  H  H140  1  0.38038000  0.84898000  0.62860000  1.0
  H  H141  1  0.53142000  0.15097000  0.87135000  1.0
  H  H142  1  0.61962000  0.15102000  0.37140000  1.0
  H  H143  1  0.46858000  0.84903000  0.12865000  1.0
  H  H144  1  0.47903000  0.76317000  0.73256000  1.0
  H  H145  1  0.71594000  0.23684000  0.76746000  1.0
  H  H146  1  0.52097000  0.23682000  0.26744000  1.0
  H  H147  1  0.28405000  0.76316000  0.23254000  1.0
  H  H148  1  0.52610000  0.82070000  0.68679000  1.0
  H  H149  1  0.70543000  0.17931000  0.81323000  1.0
  H  H150  1  0.47390000  0.17930000  0.31321000  1.0
  H  H151  1  0.29457000  0.82069000  0.18677000  1.0
  H  H152  1  0.36591000  0.69010000  0.65458000  1.0
  H  H153  1  0.67558000  0.30997000  0.84546000  1.0
  H  H154  1  0.63409000  0.30990000  0.34542000  1.0
  H  H155  1  0.32442000  0.69003000  0.15454000  1.0
  H  H156  1  0.26140000  0.71133000  0.60469000  1.0
  H  H157  1  0.55004000  0.28855000  0.89541000  1.0
  H  H158  1  0.73860000  0.28866000  0.39531000  1.0
  H  H159  1  0.44996000  0.71145000  0.10459000  1.0
  H  H160  1  0.19045000  0.77736000  0.74550000  1.0
  H  H161  1  0.41308000  0.22262000  0.75451000  1.0
  H  H162  1  0.80955000  0.22264000  0.25450000  1.0
  H  H163  1  0.58692000  0.77738000  0.24549000  1.0
  H  H164  1  0.12611000  0.72636000  0.68649000  1.0
  H  H165  1  0.39986000  0.27367000  0.81350000  1.0
  H  H166  1  0.87389000  0.27363000  0.31351000  1.0
  H  H167  1  0.60013000  0.72633000  0.18650000  1.0
  H  H168  1  0.76839000  0.54974000  0.99889000  1.0
  H  H169  1  0.21850000  0.45034000  0.50113000  1.0
  H  H170  1  0.23161000  0.45026000  0.00111000  1.0
  H  H171  1  0.78150000  0.54966000  0.49887000  1.0
  H  H172  1  0.97482000  0.02924000  0.12011000  1.0
  H  H173  1  0.94567000  0.97070000  0.37985000  1.0
  H  H174  1  0.02518000  0.97076000  0.87989000  1.0
  H  H175  1  0.05433000  0.02930000  0.62015000  1.0
  H  H176  1  0.97302000  0.05697000  0.05847000  1.0
  H  H177  1  0.91624000  0.94309000  0.44155000  1.0
  H  H178  1  0.02698000  0.94303000  0.94153000  1.0
  H  H179  1  0.08376000  0.05691000  0.55845000  1.0
  H  H180  1  0.87791000  0.52050000  0.02541000  1.0
  H  H181  1  0.35731000  0.47955000  0.47457000  1.0
  H  H182  1  0.12209000  0.47950000  0.97458000  1.0
  H  H183  1  0.64269000  0.52045000  0.52543000  1.0
  C  C184  1  0.71162000  0.62173000  0.95332000  1.0
  C  C185  1  0.08957000  0.37837000  0.54674000  1.0
  C  C186  1  0.28839000  0.37827000  0.04668000  1.0
  C  C187  1  0.91043000  0.62163000  0.45326000  1.0
  C  C188  1  0.62535000  0.65918000  0.93400000  1.0
  C  C189  1  0.96584000  0.34088000  0.56599000  1.0
  C  C190  1  0.37465000  0.34083000  0.06601000  1.0
  C  C191  1  0.03417000  0.65912000  0.43401000  1.0
  C  C192  1  0.66277000  0.69609000  0.89063000  1.0
  C  C193  1  0.96623000  0.30392000  0.60932000  1.0
  C  C194  1  0.33724000  0.30392000  0.10937000  1.0
  C  C195  1  0.03377000  0.69608000  0.39068000  1.0
  C  C196  1  0.58015000  0.72910000  0.87155000  1.0
  C  C197  1  0.85053000  0.27090000  0.62835000  1.0
  C  C198  1  0.41986000  0.27090000  0.12846000  1.0
  C  C199  1  0.14948000  0.72910000  0.37165000  1.0
  C  C200  1  0.45857000  0.72383000  0.89558000  1.0
  C  C201  1  0.73428000  0.27623000  0.60430000  1.0
  C  C202  1  0.54144000  0.27617000  0.10442000  1.0
  C  C203  1  0.26572000  0.72377000  0.39570000  1.0
  C  C204  1  0.41936000  0.68745000  0.93895000  1.0
  C  C205  1  0.73156000  0.31260000  0.56093000  1.0
  C  C206  1  0.58065000  0.31255000  0.06105000  1.0
  C  C207  1  0.26844000  0.68740000  0.43907000  1.0
  C  C208  1  0.50341000  0.65554000  0.95832000  1.0
  C  C209  1  0.84759000  0.34453000  0.54161000  1.0
  C  C210  1  0.49660000  0.34446000  0.04168000  1.0
  C  C211  1  0.15241000  0.65547000  0.45838000  1.0
  C  C212  1  0.33010000  0.79315000  0.91090000  1.0
  C  C213  1  0.53660000  0.20683000  0.58904000  1.0
  C  C214  1  0.66991000  0.20685000  0.08910000  1.0
  C  C215  1  0.46340000  0.79317000  0.41096000  1.0
  C  C216  1  0.40440000  0.82158000  0.95820000  1.0
  C  C217  1  0.58256000  0.17841000  0.54175000  1.0
  C  C218  1  0.59561000  0.17842000  0.04180000  1.0
  C  C219  1  0.41744000  0.82159000  0.45825000  1.0
  C  C220  1  0.36251000  0.86542000  0.99038000  1.0
  C  C221  1  0.49689000  0.13452000  0.50961000  1.0
  C  C222  1  0.63749000  0.13458000  0.00962000  1.0
  C  C223  1  0.50311000  0.86548000  0.49039000  1.0
  C  C224  1  0.24623000  0.88053000  0.97678000  1.0
  C  C225  1  0.36551000  0.11934000  0.52322000  1.0
  C  C226  1  0.75377000  0.11947000  0.02322000  1.0
  C  C227  1  0.63449000  0.88066000  0.47678000  1.0
  C  C228  1  0.17018000  0.84986000  0.93059000  1.0
  C  C229  1  0.32008000  0.14995000  0.56944000  1.0
  C  C230  1  0.82983000  0.15014000  0.06941000  1.0
  C  C231  1  0.67992000  0.85005000  0.43056000  1.0
  C  C232  1  0.21199000  0.80632000  0.89749000  1.0
  C  C233  1  0.40537000  0.19355000  0.60250000  1.0
  C  C234  1  0.78802000  0.19369000  0.10251000  1.0
  C  C235  1  0.59463000  0.80645000  0.39750000  1.0
  C  C236  1  0.21117000  0.93090000  0.00979000  1.0
  C  C237  1  0.28017000  0.06897000  0.49020000  1.0
  C  C238  1  0.78883000  0.06910000  0.99021000  1.0
  C  C239  1  0.71983000  0.93103000  0.50979000  1.0
  C  C240  1  0.99890000  0.42085000  0.84873000  1.0
  C  C241  1  0.57823000  0.57908000  0.65134000  1.0
  C  C242  1  0.00110000  0.57915000  0.15128000  1.0
  C  C243  1  0.42177000  0.42092000  0.34866000  1.0
  C  C244  1  0.91887000  0.39205000  0.80309000  1.0
  C  C245  1  0.52701000  0.60799000  0.69690000  1.0
  C  C246  1  0.08113000  0.60795000  0.19692000  1.0
  C  C247  1  0.47299000  0.39201000  0.30310000  1.0
  C  C248  1  0.94573000  0.34294000  0.77306000  1.0
  C  C249  1  0.60302000  0.65714000  0.72688000  1.0
  C  C250  1  0.05426000  0.65706000  0.22694000  1.0
  C  C251  1  0.39698000  0.34286000  0.27312000  1.0
  C  C252  1  0.05306000  0.32260000  0.78922000  1.0
  C  C253  1  0.73072000  0.67743000  0.71073000  1.0
  C  C254  1  0.94693000  0.67740000  0.21078000  1.0
  C  C255  1  0.26929000  0.32258000  0.28927000  1.0
  C  C256  1  0.13374000  0.35060000  0.83465000  1.0
  C  C257  1  0.78339000  0.64932000  0.66538000  1.0
  C  C258  1  0.86626000  0.64940000  0.16535000  1.0
  C  C259  1  0.21661000  0.35068000  0.33462000  1.0
  C  C260  1  0.10675000  0.39992000  0.86410000  1.0
  C  C261  1  0.70708000  0.59997000  0.63599000  1.0
  C  C262  1  0.89324000  0.60008000  0.13590000  1.0
  C  C263  1  0.29292000  0.40003000  0.36401000  1.0
  C  C264  1  0.06560000  0.22280000  0.78264000  1.0
  C  C265  1  0.84308000  0.77728000  0.71730000  1.0
  C  C266  1  0.93439000  0.77720000  0.21736000  1.0
  C  C267  1  0.15692000  0.22273000  0.28270000  1.0
  C  C268  1  0.99488000  0.21274000  0.83222000  1.0
  C  C269  1  0.78246000  0.78732000  0.66772000  1.0
  C  C270  1  0.00511000  0.78726000  0.16778000  1.0
  C  C271  1  0.21754000  0.21269000  0.33228000  1.0
  C  C272  1  0.97334000  0.15772000  0.85232000  1.0
  C  C273  1  0.81594000  0.84234000  0.64762000  1.0
  C  C274  1  0.02665000  0.84228000  0.14768000  1.0
  C  C275  1  0.18405000  0.15766000  0.35238000  1.0
  C  C276  1  0.02458000  0.11316000  0.82499000  1.0
  C  C277  1  0.91162000  0.88692000  0.67499000  1.0
  C  C278  1  0.97542000  0.88684000  0.17501000  1.0
  C  C279  1  0.08838000  0.11308000  0.32501000  1.0
  C  C280  1  0.09870000  0.12451000  0.77645000  1.0
  C  C281  1  0.97437000  0.87560000  0.72355000  1.0
  C  C282  1  0.90130000  0.87549000  0.22355000  1.0
  C  C283  1  0.02563000  0.12440000  0.27645000  1.0
  C  C284  1  0.11794000  0.17888000  0.75471000  1.0
  C  C285  1  0.93927000  0.82122000  0.74526000  1.0
  C  C286  1  0.88205000  0.82112000  0.24529000  1.0
  C  C287  1  0.06073000  0.17878000  0.25474000  1.0
  C  C288  1  0.99530000  0.05422000  0.84792000  1.0
  C  C289  1  0.94113000  0.94587000  0.65206000  1.0
  C  C290  1  0.00469000  0.94578000  0.15207000  1.0
  C  C291  1  0.05887000  0.05413000  0.34793000  1.0
  C  C292  1  0.98405000  0.64177000  0.82897000  1.0
  C  C293  1  0.34207000  0.35805000  0.67096000  1.0
  C  C294  1  0.01595000  0.35824000  0.17104000  1.0
  C  C295  1  0.65792000  0.64195000  0.32904000  1.0
  C  C296  1  0.05133000  0.67411000  0.78749000  1.0
  C  C297  1  0.37715000  0.32570000  0.71240000  1.0
  C  C298  1  0.94867000  0.32589000  0.21251000  1.0
  C  C299  1  0.62285000  0.67430000  0.28761000  1.0
  C  C300  1  0.17926000  0.67026000  0.77753000  1.0
  C  C301  1  0.50895000  0.32962000  0.72235000  1.0
  C  C302  1  0.82074000  0.32974000  0.22248000  1.0
  C  C303  1  0.49104000  0.67038000  0.27765000  1.0
  C  C304  1  0.23301000  0.63318000  0.80860000  1.0
  C  C305  1  0.59970000  0.36671000  0.69125000  1.0
  C  C306  1  0.76699000  0.36682000  0.19140000  1.0
  C  C307  1  0.40031000  0.63329000  0.30876000  1.0
  C  C308  1  0.15948000  0.60384000  0.84990000  1.0
  C  C309  1  0.55538000  0.39604000  0.64996000  1.0
  C  C310  1  0.84052000  0.39616000  0.15010000  1.0
  C  C311  1  0.44462000  0.60396000  0.35004000  1.0
  C  C312  1  0.47454000  0.61087000  0.51728000  1.0
  C  C313  1  0.86334000  0.38917000  0.98275000  1.0
  C  C314  1  0.52547000  0.38913000  0.48272000  1.0
  C  C315  1  0.13666000  0.61083000  0.01725000  1.0
  C  C316  1  0.42929000  0.64863000  0.55622000  1.0
  C  C317  1  0.78046000  0.35141000  0.94379000  1.0
  C  C318  1  0.57071000  0.35137000  0.44378000  1.0
  C  C319  1  0.21954000  0.64859000  0.05621000  1.0
  C  C320  1  0.49331000  0.70758000  0.56174000  1.0
  C  C321  1  0.78579000  0.29248000  0.93820000  1.0
  C  C322  1  0.50669000  0.29242000  0.43826000  1.0
  C  C323  1  0.21421000  0.70752000  0.06180000  1.0
  C  C324  1  0.60015000  0.72602000  0.52739000  1.0
  C  C325  1  0.87427000  0.27408000  0.97252000  1.0
  C  C326  1  0.39985000  0.27397000  0.47261000  1.0
  C  C327  1  0.12572000  0.72592000  0.02748000  1.0
  C  C328  1  0.63855000  0.68500000  0.48992000  1.0
  C  C329  1  0.95351000  0.31510000  0.01003000  1.0
  C  C330  1  0.36146000  0.31500000  0.51008000  1.0
  C  C331  1  0.04648000  0.68490000  0.98997000  1.0
  C  C332  1  0.72978000  0.89886000  0.82877000  1.0
  C  C333  1  0.83058000  0.10111000  0.67122000  1.0
  C  C334  1  0.27022000  0.10114000  0.17123000  1.0
  C  C335  1  0.16941000  0.89889000  0.32878000  1.0
  C  C336  1  0.64211000  0.86631000  0.78812000  1.0
  C  C337  1  0.77554000  0.13366000  0.71188000  1.0
  C  C338  1  0.35789000  0.13369000  0.21188000  1.0
  C  C339  1  0.22446000  0.86634000  0.28812000  1.0
  C  C340  1  0.51173000  0.86874000  0.79279000  1.0
  C  C341  1  0.64276000  0.13126000  0.70723000  1.0
  C  C342  1  0.48827000  0.13126000  0.20721000  1.0
  C  C343  1  0.35724000  0.86874000  0.29277000  1.0
  C  C344  1  0.47528000  0.90407000  0.83764000  1.0
  C  C345  1  0.57086000  0.09594000  0.66238000  1.0
  C  C346  1  0.52473000  0.09593000  0.16236000  1.0
  C  C347  1  0.42914000  0.90406000  0.33762000  1.0
  C  C348  1  0.56942000  0.93466000  0.87618000  1.0
  C  C349  1  0.63437000  0.06536000  0.62381000  1.0
  C  C350  1  0.43058000  0.06533000  0.12381000  1.0
  C  C351  1  0.36562000  0.93464000  0.37619000  1.0
  C  C352  1  0.08987000  0.86943000  0.48464000  1.0
  C  C353  1  0.22019000  0.13044000  0.01523000  1.0
  C  C354  1  0.91013000  0.13057000  0.51536000  1.0
  C  C355  1  0.77981000  0.86956000  0.98477000  1.0
  C  C356  1  0.09745000  0.82904000  0.52315000  1.0
  C  C357  1  0.26815000  0.17082000  0.97673000  1.0
  C  C358  1  0.90255000  0.17096000  0.47685000  1.0
  C  C359  1  0.73185000  0.82918000  0.02327000  1.0
  C  C360  1  0.17667000  0.84743000  0.57182000  1.0
  C  C361  1  0.32904000  0.15244000  0.92807000  1.0
  C  C362  1  0.82333000  0.15257000  0.42818000  1.0
  C  C363  1  0.67096000  0.84756000  0.07193000  1.0
  C  C364  1  0.23925000  0.90638000  0.58066000  1.0
  C  C365  1  0.33260000  0.09348000  0.91922000  1.0
  C  C366  1  0.76075000  0.09362000  0.41934000  1.0
  C  C367  1  0.66740000  0.90652000  0.08078000  1.0
  C  C368  1  0.22565000  0.94326000  0.53956000  1.0
  C  C369  1  0.28212000  0.05661000  0.96033000  1.0
  C  C370  1  0.77436000  0.05674000  0.46044000  1.0
  C  C371  1  0.71788000  0.94339000  0.03967000  1.0
  C  C372  1  0.29276000  0.82598000  0.64925000  1.0
  C  C373  1  0.46682000  0.17398000  0.85070000  1.0
  C  C374  1  0.70724000  0.17402000  0.35075000  1.0
  C  C375  1  0.53318000  0.82602000  0.14930000  1.0
  C  C376  1  0.44763000  0.79852000  0.71303000  1.0
  C  C377  1  0.64914000  0.20149000  0.78698000  1.0
  C  C378  1  0.55237000  0.20147000  0.28696000  1.0
  C  C379  1  0.35086000  0.79851000  0.21302000  1.0
  C  C380  1  0.34795000  0.72668000  0.63241000  1.0
  C  C381  1  0.62124000  0.27332000  0.86760000  1.0
  C  C382  1  0.65205000  0.27332000  0.36759000  1.0
  C  C383  1  0.37876000  0.72668000  0.13240000  1.0
  C  C384  1  0.21332000  0.74528000  0.71298000  1.0
  C  C385  1  0.46811000  0.25471000  0.78702000  1.0
  C  C386  1  0.78668000  0.25472000  0.28702000  1.0
  C  C387  1  0.53189000  0.74529000  0.21298000  1.0
  C  C388  1  0.96917000  0.47388000  0.87956000  1.0
  C  C389  1  0.49533000  0.52606000  0.62051000  1.0
  C  C390  1  0.03083000  0.52612000  0.12044000  1.0
  C  C391  1  0.50467000  0.47394000  0.37950000  1.0
  C  C392  1  0.32488000  0.77425000  0.67637000  1.0
  C  C393  1  0.55066000  0.22575000  0.82364000  1.0
  C  C394  1  0.67512000  0.22575000  0.32363000  1.0
  C  C395  1  0.44934000  0.77425000  0.17636000  1.0
  N  N396  1  0.03659000  0.60809000  0.86070000  1.0
  N  N397  1  0.42822000  0.39178000  0.63923000  1.0
  N  N398  1  0.96341000  0.39192000  0.13930000  1.0
  N  N399  1  0.57178000  0.60822000  0.36077000  1.0
  N  N400  1  0.69514000  0.93215000  0.87219000  1.0
  N  N401  1  0.76259000  0.06783000  0.62781000  1.0
  N  N402  1  0.30485000  0.06785000  0.12781000  1.0
  N  N403  1  0.23740000  0.93217000  0.37219000  1.0
  N  N404  1  0.57755000  0.62801000  0.48465000  1.0
  N  N405  1  0.94929000  0.37205000  0.01536000  1.0
  N  N406  1  0.42246000  0.37198000  0.51535000  1.0
  N  N407  1  0.05071000  0.62795000  0.98464000  1.0
  N  N408  1  0.15461000  0.92587000  0.49166000  1.0
  N  N409  1  0.22852000  0.07401000  0.00825000  1.0
  N  N410  1  0.84539000  0.07413000  0.50834000  1.0
  N  N411  1  0.77147000  0.92599000  0.99175000  1.0
  O  O412  1  0.83081000  0.52323000  0.98977000  1.0
  O  O413  1  0.30753000  0.47682000  0.51022000  1.0
  O  O414  1  0.16919000  0.47677000  0.01023000  1.0
  O  O415  1  0.69247000  0.52318000  0.48978000  1.0
  O  O416  1  0.80556000  0.61715000  0.92017000  1.0
  O  O417  1  0.18809000  0.38291000  0.57990000  1.0
  O  O418  1  0.19444000  0.38285000  0.07983000  1.0
  O  O419  1  0.81191000  0.61710000  0.42010000  1.0
  O  O420  1  0.68581000  0.59760000  0.99896000  1.0
  O  O421  1  0.08798000  0.40256000  0.50115000  1.0
  O  O422  1  0.31420000  0.40240000  0.00104000  1.0
  O  O423  1  0.91203000  0.59744000  0.49886000  1.0
  O  O424  1  0.86929000  0.49134000  0.86683000  1.0
  O  O425  1  0.37797000  0.50866000  0.63325000  1.0
  O  O426  1  0.13072000  0.50866000  0.13317000  1.0
  O  O427  1  0.62204000  0.49133000  0.36676000  1.0
  O  O428  1  0.04891000  0.50280000  0.91882000  1.0
  O  O429  1  0.54603000  0.49713000  0.58122000  1.0
  O  O430  1  0.95109000  0.49720000  0.08118000  1.0
  O  O431  1  0.45397000  0.50287000  0.41878000  1.0
  O  O432  1  0.88814000  0.04280000  0.87406000  1.0
  O  O433  1  0.84535000  0.95723000  0.62590000  1.0
  O  O434  1  0.11186000  0.95720000  0.12594000  1.0
  O  O435  1  0.15464000  0.04277000  0.37409000  1.0
  O  O436  1  0.07529000  0.02167000  0.84069000  1.0
  O  O437  1  0.05361000  0.97849000  0.65934000  1.0
  O  O438  1  0.92470000  0.97833000  0.15930000  1.0
  O  O439  1  0.94639000  0.02151000  0.34066000  1.0
  O  O440  1  0.10018000  0.94291000  0.00352000  1.0
  O  O441  1  0.15717000  0.05691000  0.49646000  1.0
  O  O442  1  0.89982000  0.05709000  0.99648000  1.0
  O  O443  1  0.84284000  0.94309000  0.50354000  1.0
  O  O444  1  0.29635000  0.96379000  0.04342000  1.0
  O  O445  1  0.33257000  0.03612000  0.45657000  1.0
  O  O446  1  0.70365000  0.03621000  0.95658000  1.0
  O  O447  1  0.66744000  0.96388000  0.54342000  1.0
  O  O448  1  0.02530000  0.05869000  0.09408000  1.0
  O  O449  1  0.96671000  0.94128000  0.40593000  1.0
  O  O450  1  0.97471000  0.94131000  0.90592000  1.0
  O  O451  1  0.03329000  0.05873000  0.59407000  1.0
  O  O452  1  0.08214000  0.27478000  0.75734000  1.0
  O  O453  1  0.80767000  0.72526000  0.74258000  1.0
  O  O454  1  0.91786000  0.72521000  0.24266000  1.0
  O  O455  1  0.19233000  0.27474000  0.25742000  1.0
  O  O456  1  0.37300000  0.75374000  0.87383000  1.0
  O  O457  1  0.61876000  0.24636000  0.62606000  1.0
  O  O458  1  0.62701000  0.24626000  0.12617000  1.0
  O  O459  1  0.38125000  0.75364000  0.37394000  1.0
  O  O460  1  0.19094000  0.80657000  0.60710000  1.0
  O  O461  1  0.38425000  0.19332000  0.89282000  1.0
  O  O462  1  0.80906000  0.19343000  0.39290000  1.0
  O  O463  1  0.61574000  0.80668000  0.10718000  1.0
  O  O464  1  0.41576000  0.83902000  0.75656000  1.0
  O  O465  1  0.57665000  0.16102000  0.74348000  1.0
  O  O466  1  0.58424000  0.16098000  0.24344000  1.0
  O  O467  1  0.42335000  0.83898000  0.25652000  1.0
  O  O468  1  0.45784000  0.74846000  0.59840000  1.0
  O  O469  1  0.70961000  0.25159000  0.90150000  1.0
  O  O470  1  0.54215000  0.25154000  0.40160000  1.0
  O  O471  1  0.29039000  0.74841000  0.09850000  1.0
  O  O472  1  0.25719000  0.70044000  0.73964000  1.0
  O  O473  1  0.55682000  0.29953000  0.76029000  1.0
  O  O474  1  0.74281000  0.29956000  0.26036000  1.0
  O  O475  1  0.44318000  0.70047000  0.23972000  1.0
