# generated using pymatgen
data_CuH9C6IN2
_symmetry_space_group_name_H-M   'P 1'
_cell_length_a   10.19200000
_cell_length_b   10.68160000
_cell_length_c   11.68310000
_cell_angle_alpha   106.73400000
_cell_angle_beta   90.59810000
_cell_angle_gamma   101.95000000
_symmetry_Int_Tables_number   1
_chemical_formula_structural   CuH9C6IN2
_chemical_formula_sum   'Cu6 H54 C36 I6 N12'
_cell_volume   1188.30708146
_cell_formula_units_Z   6
loop_
 _symmetry_equiv_pos_site_id
 _symmetry_equiv_pos_as_xyz
  1  'x, y, z'
loop_
 _atom_site_type_symbol
 _atom_site_label
 _atom_site_symmetry_multiplicity
 _atom_site_fract_x
 _atom_site_fract_y
 _atom_site_fract_z
 _atom_site_occupancy
  Cu  Cu0  1  0.70988000  0.40086000  0.20859000  1.0
  Cu  Cu1  1  0.29012000  0.59913000  0.79141000  1.0
  Cu  Cu2  1  0.91086000  0.50226000  0.38738000  1.0
  Cu  Cu3  1  0.08914000  0.49774000  0.61262000  1.0
  Cu  Cu4  1  0.83498000  0.24686000  0.26575000  1.0
  Cu  Cu5  1  0.16502000  0.75313000  0.73425000  1.0
  H  H6  1  0.30436000  0.39846000  0.15606000  1.0
  H  H7  1  0.69564000  0.60154000  0.84395000  1.0
  H  H8  1  0.33423000  0.52518000  0.29533000  1.0
  H  H9  1  0.66577000  0.47482000  0.70468000  1.0
  H  H10  1  0.42709000  0.39575000  0.26474000  1.0
  H  H11  1  0.57290000  0.60425000  0.73527000  1.0
  H  H12  1  0.78883000  0.63613000  0.09909000  1.0
  H  H13  1  0.21117000  0.36387000  0.90091000  1.0
  H  H14  1  0.59527000  0.76351000  0.03774000  1.0
  H  H15  1  0.40473000  0.23649000  0.96226000  1.0
  H  H16  1  0.26004000  0.58890000  0.10468000  1.0
  H  H17  1  0.73996000  0.41110000  0.89533000  1.0
  H  H18  1  0.33969000  0.69881000  0.02569000  1.0
  H  H19  1  0.66031000  0.30119000  0.97431000  1.0
  H  H20  1  0.34308000  0.76561000  0.29987000  1.0
  H  H21  1  0.65691000  0.23439000  0.70013000  1.0
  H  H22  1  0.41427000  0.87945000  0.22069000  1.0
  H  H23  1  0.58573000  0.12055000  0.77932000  1.0
  H  H24  1  0.18494000  0.90022000  0.30467000  1.0
  H  H25  1  0.81505000  0.09978000  0.69532000  1.0
  H  H26  1  0.11425000  0.74444000  0.19891000  1.0
  H  H27  1  0.88575000  0.25556000  0.80109000  1.0
  H  H28  1  0.26496000  0.99232000  0.13301000  1.0
  H  H29  1  0.73504000  0.00768000  0.86698000  1.0
  H  H30  1  0.17721000  0.83998000  0.03043000  1.0
  H  H31  1  0.82279000  0.16002000  0.96957000  1.0
  H  H32  1  0.22874000  0.21695000  0.23051000  1.0
  H  H33  1  0.77126000  0.78305000  0.76949000  1.0
  H  H34  1  0.20075000  0.13959000  0.34518000  1.0
  H  H35  1  0.79925000  0.86041000  0.65482000  1.0
  H  H36  1  0.11031000  0.26317000  0.33719000  1.0
  H  H37  1  0.88969000  0.73683000  0.66281000  1.0
  H  H38  1  0.92354000  0.79049000  0.00548000  1.0
  H  H39  1  0.07646000  0.20951000  0.99452000  1.0
  H  H40  1  0.74035000  0.95651000  0.08336000  1.0
  H  H41  1  0.25965000  0.04348000  0.91664000  1.0
  H  H42  1  0.85053000  0.84908000  0.28707000  1.0
  H  H43  1  0.14947000  0.15092000  0.71293000  1.0
  H  H44  1  0.96083000  0.75280000  0.32158000  1.0
  H  H45  1  0.03918000  0.24720000  0.67842000  1.0
  H  H46  1  0.94758000  0.90627000  0.42697000  1.0
  H  H47  1  0.05243000  0.09373000  0.57303000  1.0
  H  H48  1  0.63863000  0.49730000  0.50787000  1.0
  H  H49  1  0.36138000  0.50270000  0.49213000  1.0
  H  H50  1  0.49653000  0.69868000  0.53100000  1.0
  H  H51  1  0.50347000  0.30132000  0.46900000  1.0
  H  H52  1  0.61277000  0.89082000  0.33953000  1.0
  H  H53  1  0.38723000  0.10918000  0.66047000  1.0
  H  H54  1  0.72405000  0.98551000  0.46566000  1.0
  H  H55  1  0.27595000  0.01449000  0.53434000  1.0
  H  H56  1  0.53955000  0.94663000  0.60167000  1.0
  H  H57  1  0.46045000  0.05337000  0.39834000  1.0
  H  H58  1  0.42791000  0.85320000  0.47679000  1.0
  H  H59  1  0.57208000  0.14680000  0.52321000  1.0
  C  C60  1  0.38353000  0.46117000  0.22584000  1.0
  C  C61  1  0.61647000  0.53883000  0.77416000  1.0
  C  C62  1  0.49062000  0.54045000  0.17461000  1.0
  C  C63  1  0.50938000  0.45955000  0.82539000  1.0
  C  C64  1  0.68279000  0.62437000  0.11398000  1.0
  C  C65  1  0.31720000  0.37563000  0.88602000  1.0
  C  C66  1  0.59008000  0.68847000  0.08421000  1.0
  C  C67  1  0.40992000  0.31154000  0.91579000  1.0
  C  C68  1  0.34318000  0.67509000  0.11111000  1.0
  C  C69  1  0.65682000  0.32491000  0.88889000  1.0
  C  C70  1  0.33117000  0.79372000  0.21753000  1.0
  C  C71  1  0.66883000  0.20628000  0.78247000  1.0
  C  C72  1  0.19632000  0.83422000  0.21539000  1.0
  C  C73  1  0.80368000  0.16578000  0.78460000  1.0
  C  C74  1  0.18012000  0.90631000  0.12225000  1.0
  C  C75  1  0.81988000  0.09369000  0.87775000  1.0
  C  C76  1  0.15075000  0.17910000  0.28394000  1.0
  C  C77  1  0.84925000  0.82089000  0.71606000  1.0
  C  C78  1  0.04049000  0.07598000  0.20661000  1.0
  C  C79  1  0.95952000  0.92402000  0.79339000  1.0
  C  C80  1  0.93360000  0.88766000  0.07163000  1.0
  C  C81  1  0.06640000  0.11234000  0.92837000  1.0
  C  C82  1  0.84572000  0.96999000  0.11006000  1.0
  C  C83  1  0.15428000  0.03001000  0.88994000  1.0
  C  C84  1  0.89082000  0.81640000  0.35847000  1.0
  C  C85  1  0.10919000  0.18360000  0.64153000  1.0
  C  C86  1  0.78291000  0.73905000  0.41037000  1.0
  C  C87  1  0.21709000  0.26095000  0.58963000  1.0
  C  C88  1  0.66193000  0.58791000  0.48126000  1.0
  C  C89  1  0.33808000  0.41209000  0.51874000  1.0
  C  C90  1  0.59069000  0.68591000  0.49224000  1.0
  C  C91  1  0.40931000  0.31409000  0.50776000  1.0
  C  C92  1  0.63471000  0.90303000  0.43514000  1.0
  C  C93  1  0.36529000  0.09697000  0.56486000  1.0
  C  C94  1  0.51675000  0.93632000  0.50665000  1.0
  C  C95  1  0.48325000  0.06368000  0.49335000  1.0
  I  I96  1  0.57087000  0.16367000  0.18362000  1.0
  I  I97  1  0.42913000  0.83633000  0.81638000  1.0
  I  I98  1  0.84953000  0.32126000  0.50398000  1.0
  I  I99  1  0.15047000  0.67873000  0.49602000  1.0
  I  I100  1  0.96665000  0.43629000  0.16023000  1.0
  I  I101  1  0.03335000  0.56371000  0.83976000  1.0
  N  N102  1  0.62022000  0.53196000  0.16953000  1.0
  N  N103  1  0.37978000  0.46805000  0.83047000  1.0
  N  N104  1  0.46952000  0.63413000  0.12212000  1.0
  N  N105  1  0.53047000  0.36588000  0.87789000  1.0
  N  N106  1  0.91288000  0.08691000  0.19380000  1.0
  N  N107  1  0.08712000  0.91309000  0.80620000  1.0
  N  N108  1  0.05602000  0.95566000  0.13316000  1.0
  N  N109  1  0.94398000  0.04434000  0.86683000  1.0
  N  N110  1  0.78090000  0.62161000  0.43063000  1.0
  N  N111  1  0.21911000  0.37839000  0.56937000  1.0
  N  N112  1  0.66828000  0.78064000  0.44681000  1.0
  N  N113  1  0.33172000  0.21936000  0.55319000  1.0
