# generated using pymatgen
data_Co3H38C48(N2O3)4
_symmetry_space_group_name_H-M   'P 1'
_cell_length_a   9.13697000
_cell_length_b   9.84158000
_cell_length_c   13.15590000
_cell_angle_alpha   100.30600000
_cell_angle_beta   92.06460000
_cell_angle_gamma   101.46400000
_symmetry_Int_Tables_number   1
_chemical_formula_structural   Co3H38C48(N2O3)4
_chemical_formula_sum   'Co3 H38 C48 N8 O12'
_cell_volume   1137.55318483
_cell_formula_units_Z   1
loop_
 _symmetry_equiv_pos_site_id
 _symmetry_equiv_pos_as_xyz
  1  'x, y, z'
loop_
 _atom_site_type_symbol
 _atom_site_label
 _atom_site_symmetry_multiplicity
 _atom_site_fract_x
 _atom_site_fract_y
 _atom_site_fract_z
 _atom_site_occupancy
  Co  Co0  1  0.85686000  0.05352000  0.26271000  1.0
  Co  Co1  1  0.14313000  0.94648000  0.73730000  1.0
  Co  Co2  1  0.00000000  0.00001000  0.50000000  1.0
  H  H3  1  0.45065000  0.20622000  0.16556000  1.0
  H  H4  1  0.60542000  0.33533000  0.14778000  1.0
  H  H5  1  0.17262000  0.07597000  0.14907000  1.0
  H  H6  1  0.19321000  0.87442000  0.97479000  1.0
  H  H7  1  0.77481000  0.76540000  0.10387000  1.0
  H  H8  1  0.69702000  0.63880000  0.94164000  1.0
  H  H9  1  0.63453000  0.41046000  0.81922000  1.0
  H  H10  1  0.10571000  0.41232000  0.80262000  1.0
  H  H11  1  0.16752000  0.64149000  0.92275000  1.0
  H  H12  1  0.60638000  0.17043000  0.76539000  1.0
  H  H13  1  0.65501000  0.94988000  0.61855000  1.0
  H  H14  1  0.03681000  0.27842000  0.65407000  1.0
  H  H15  1  0.70344000  0.77477000  0.48576000  1.0
  H  H16  1  0.54540000  0.84513000  0.46183000  1.0
  H  H17  1  0.68912000  0.55643000  0.28832000  1.0
  H  H18  1  0.28225000  0.25345000  0.29557000  1.0
  H  H19  1  0.34368000  0.67203000  0.47875000  1.0
  H  H20  1  0.14722000  0.46752000  0.51280000  1.0
  H  H21  1  0.07164000  0.48990000  0.39204000  1.0
  H  H22  1  0.54934000  0.79377000  0.83442000  1.0
  H  H23  1  0.39457000  0.66466000  0.85221000  1.0
  H  H24  1  0.82736000  0.92404000  0.85094000  1.0
  H  H25  1  0.80679000  0.12560000  0.02521000  1.0
  H  H26  1  0.22520000  0.23458000  0.89613000  1.0
  H  H27  1  0.30299000  0.36121000  0.05835000  1.0
  H  H28  1  0.36548000  0.58955000  0.18078000  1.0
  H  H29  1  0.89430000  0.58767000  0.19740000  1.0
  H  H30  1  0.83249000  0.35851000  0.07726000  1.0
  H  H31  1  0.39363000  0.82958000  0.23461000  1.0
  H  H32  1  0.34499000  0.05013000  0.38146000  1.0
  H  H33  1  0.96319000  0.72159000  0.34594000  1.0
  H  H34  1  0.29655000  0.22521000  0.51424000  1.0
  H  H35  1  0.45459000  0.15485000  0.53818000  1.0
  H  H36  1  0.31087000  0.44356000  0.71167000  1.0
  H  H37  1  0.71775000  0.74654000  0.70443000  1.0
  H  H38  1  0.65632000  0.32796000  0.52124000  1.0
  H  H39  1  0.85279000  0.53248000  0.48720000  1.0
  H  H40  1  0.92838000  0.51012000  0.60796000  1.0
  C  C41  1  0.54651000  0.28512000  0.20739000  1.0
  C  C42  1  0.09383000  0.98011000  0.11381000  1.0
  C  C43  1  0.10705000  0.88038000  0.02927000  1.0
  C  C44  1  0.88480000  0.82304000  0.09196000  1.0
  C  C45  1  0.93651000  0.65368000  0.94171000  1.0
  C  C46  1  0.78681000  0.58766000  0.91296000  1.0
  C  C47  1  0.75120000  0.45849000  0.84448000  1.0
  C  C48  1  0.86593000  0.39503000  0.80410000  1.0
  C  C49  1  0.01571000  0.46257000  0.83179000  1.0
  C  C50  1  0.05097000  0.59131000  0.89991000  1.0
  C  C51  1  0.70372000  0.15878000  0.72250000  1.0
  C  C52  1  0.72930000  0.05068000  0.64831000  1.0
  C  C53  1  0.92962000  0.21625000  0.66630000  1.0
  C  C54  1  0.69655000  0.85044000  0.34516000  1.0
  C  C55  1  0.61808000  0.77633000  0.42541000  1.0
  C  C56  1  0.52603000  0.63041000  0.38711000  1.0
  C  C57  1  0.57933000  0.52859000  0.31821000  1.0
  C  C58  1  0.49298000  0.39233000  0.28538000  1.0
  C  C59  1  0.35171000  0.35842000  0.32310000  1.0
  C  C60  1  0.29616000  0.45853000  0.39130000  1.0
  C  C61  1  0.38467000  0.59392000  0.42353000  1.0
  C  C62  1  0.14045000  0.42943000  0.42872000  1.0
  C  C63  1  0.06295000  0.27508000  0.40331000  1.0
  C  C64  1  0.65006000  0.20154000  0.25106000  1.0
  C  C65  1  0.45348000  0.71486000  0.79259000  1.0
  C  C66  1  0.90616000  0.01988000  0.88619000  1.0
  C  C67  1  0.89295000  0.11963000  0.97074000  1.0
  C  C68  1  0.11520000  0.17695000  0.90805000  1.0
  C  C69  1  0.06350000  0.34633000  0.05829000  1.0
  C  C70  1  0.21320000  0.41235000  0.08703000  1.0
  C  C71  1  0.24882000  0.54153000  0.15551000  1.0
  C  C72  1  0.13408000  0.60497000  0.19590000  1.0
  C  C73  1  0.98430000  0.53743000  0.16821000  1.0
  C  C74  1  0.94904000  0.40870000  0.10009000  1.0
  C  C75  1  0.29628000  0.84123000  0.27751000  1.0
  C  C76  1  0.27070000  0.94931000  0.35170000  1.0
  C  C77  1  0.07039000  0.78376000  0.33370000  1.0
  C  C78  1  0.30344000  0.14956000  0.65485000  1.0
  C  C79  1  0.38192000  0.22365000  0.57460000  1.0
  C  C80  1  0.47397000  0.36958000  0.61289000  1.0
  C  C81  1  0.42066000  0.47140000  0.68178000  1.0
  C  C82  1  0.50702000  0.60766000  0.71461000  1.0
  C  C83  1  0.64828000  0.64157000  0.67689000  1.0
  C  C84  1  0.70384000  0.54146000  0.60869000  1.0
  C  C85  1  0.61533000  0.40607000  0.57646000  1.0
  C  C86  1  0.85955000  0.57058000  0.57128000  1.0
  C  C87  1  0.93704000  0.72493000  0.59669000  1.0
  C  C88  1  0.34992000  0.79845000  0.74893000  1.0
  N  N89  1  0.95528000  0.94332000  0.15221000  1.0
  N  N90  1  0.97305000  0.78105000  0.01596000  1.0
  N  N91  1  0.83311000  0.26379000  0.73413000  1.0
  N  N92  1  0.87075000  0.08790000  0.61365000  1.0
  N  N93  1  0.04472000  0.05666000  0.84780000  1.0
  N  N94  1  0.02696000  0.21896000  0.98405000  1.0
  N  N95  1  0.16689000  0.73622000  0.26587000  1.0
  N  N96  1  0.12925000  0.91211000  0.38636000  1.0
  O  O97  1  0.81515000  0.95011000  0.37883000  1.0
  O  O98  1  0.64971000  0.82498000  0.25171000  1.0
  O  O99  1  0.06327000  0.20406000  0.47486000  1.0
  O  O100  1  0.00628000  0.22745000  0.31061000  1.0
  O  O101  1  0.71405000  0.12647000  0.18133000  1.0
  O  O102  1  0.66995000  0.20416000  0.34577000  1.0
  O  O103  1  0.18484000  0.04988000  0.62117000  1.0
  O  O104  1  0.35026000  0.17503000  0.74830000  1.0
  O  O105  1  0.93671000  0.79596000  0.52514000  1.0
  O  O106  1  0.99372000  0.77256000  0.68939000  1.0
  O  O107  1  0.28593000  0.87351000  0.81866000  1.0
  O  O108  1  0.33004000  0.79585000  0.65422000  1.0
