# generated using pymatgen
data_ZnH14C16(NO)4
_symmetry_space_group_name_H-M   'P 1'
_cell_length_a   8.57840000
_cell_length_b   10.32560000
_cell_length_c   22.01580000
_cell_angle_alpha   89.99980000
_cell_angle_beta   89.99990000
_cell_angle_gamma   103.39900000
_symmetry_Int_Tables_number   1
_chemical_formula_structural   ZnH14C16(NO)4
_chemical_formula_sum   'Zn4 H56 C64 N16 O16'
_cell_volume   1897.01454132
_cell_formula_units_Z   4
loop_
 _symmetry_equiv_pos_site_id
 _symmetry_equiv_pos_as_xyz
  1  'x, y, z'
loop_
 _atom_site_type_symbol
 _atom_site_label
 _atom_site_symmetry_multiplicity
 _atom_site_fract_x
 _atom_site_fract_y
 _atom_site_fract_z
 _atom_site_occupancy
  Zn  Zn0  1  0.36073000  0.41333000  0.60191000  1.0
  Zn  Zn1  1  0.13926000  0.58667000  0.10191000  1.0
  Zn  Zn2  1  0.63926000  0.58667000  0.39809000  1.0
  Zn  Zn3  1  0.86074000  0.41333000  0.89809000  1.0
  H  H4  1  0.18604000  0.43298000  0.97967000  1.0
  H  H5  1  0.31396000  0.56702000  0.47967000  1.0
  H  H6  1  0.81396000  0.56702000  0.02033000  1.0
  H  H7  1  0.68604000  0.43298000  0.52033000  1.0
  H  H8  1  0.46051000  0.79226000  0.05286000  1.0
  H  H9  1  0.03949000  0.20773000  0.55286000  1.0
  H  H10  1  0.53950000  0.20773000  0.94714000  1.0
  H  H11  1  0.96051000  0.79227000  0.44714000  1.0
  H  H12  1  0.59748000  0.73766000  0.94189000  1.0
  H  H13  1  0.90253000  0.26234000  0.44189000  1.0
  H  H14  1  0.40253000  0.26234000  0.05811000  1.0
  H  H15  1  0.09748000  0.73766000  0.55811000  1.0
  H  H16  1  0.36402000  0.39733000  0.89260000  1.0
  H  H17  1  0.13598000  0.60267000  0.39260000  1.0
  H  H18  1  0.63598000  0.60267000  0.10740000  1.0
  H  H19  1  0.86403000  0.39733000  0.60740000  1.0
  H  H20  1  0.54024000  0.52342000  0.87555000  1.0
  H  H21  1  0.95976000  0.47657000  0.37555000  1.0
  H  H22  1  0.45976000  0.47658000  0.12445000  1.0
  H  H23  1  0.04024000  0.52342000  0.62445000  1.0
  H  H24  1  0.20033000  0.56634000  0.85729000  1.0
  H  H25  1  0.29967000  0.43366000  0.35729000  1.0
  H  H26  1  0.79967000  0.43366000  0.14271000  1.0
  H  H27  1  0.70033000  0.56634000  0.64271000  1.0
  H  H28  1  0.38074000  0.65918000  0.82408000  1.0
  H  H29  1  0.11926000  0.34081000  0.32408000  1.0
  H  H30  1  0.61926000  0.34081000  0.17592000  1.0
  H  H31  1  0.88074000  0.65918000  0.67592000  1.0
  H  H32  1  0.42821000  0.60355000  0.71776000  1.0
  H  H33  1  0.07179000  0.39645000  0.21776000  1.0
  H  H34  1  0.57179000  0.39645000  0.28224000  1.0
  H  H35  1  0.92821000  0.60355000  0.78224000  1.0
  H  H36  1  0.13294000  0.29826000  0.82158000  1.0
  H  H37  1  0.36706000  0.70173000  0.32158000  1.0
  H  H38  1  0.86706000  0.70173000  0.17842000  1.0
  H  H39  1  0.63294000  0.29826000  0.67842000  1.0
  H  H40  1  0.15326000  0.20969000  0.70168000  1.0
  H  H41  1  0.34674000  0.79031000  0.20168000  1.0
  H  H42  1  0.84674000  0.79031000  0.29832000  1.0
  H  H43  1  0.65326000  0.20969000  0.79832000  1.0
  H  H44  1  0.72306000  0.77476000  0.55590000  1.0
  H  H45  1  0.77693000  0.22524000  0.05591000  1.0
  H  H46  1  0.27693000  0.22524000  0.44409000  1.0
  H  H47  1  0.22306000  0.77476000  0.94409000  1.0
  H  H48  1  0.86940000  0.00590000  0.53153000  1.0
  H  H49  1  0.63060000  0.99410000  0.03153000  1.0
  H  H50  1  0.13060000  0.99410000  0.46847000  1.0
  H  H51  1  0.36940000  0.00590000  0.96847000  1.0
  H  H52  1  0.73513000  0.19451000  0.54810000  1.0
  H  H53  1  0.76487000  0.80549000  0.04810000  1.0
  H  H54  1  0.26487000  0.80549000  0.45190000  1.0
  H  H55  1  0.23514000  0.19452000  0.95190000  1.0
  H  H56  1  0.31303000  0.91811000  0.61139000  1.0
  H  H57  1  0.18697000  0.08190000  0.11138000  1.0
  H  H58  1  0.68697000  0.08190000  0.38861000  1.0
  H  H59  1  0.81303000  0.91811000  0.88862000  1.0
  C  C60  1  0.27959000  0.52279000  0.98645000  1.0
  C  C61  1  0.22041000  0.47721000  0.48645000  1.0
  C  C62  1  0.72041000  0.47721000  0.01355000  1.0
  C  C63  1  0.77959000  0.52279000  0.51355000  1.0
  C  C64  1  0.42677000  0.70944000  0.02164000  1.0
  C  C65  1  0.07323000  0.29055000  0.52164000  1.0
  C  C66  1  0.57323000  0.29055000  0.97836000  1.0
  C  C67  1  0.92677000  0.70945000  0.47836000  1.0
  C  C68  1  0.49262000  0.68601000  0.96704000  1.0
  C  C69  1  0.00738000  0.31399000  0.46704000  1.0
  C  C70  1  0.50738000  0.31399000  0.03296000  1.0
  C  C71  1  0.99262000  0.68601000  0.53296000  1.0
  C  C72  1  0.41263000  0.50465000  0.88719000  1.0
  C  C73  1  0.08737000  0.49535000  0.38719000  1.0
  C  C74  1  0.58737000  0.49535000  0.11281000  1.0
  C  C75  1  0.91263000  0.50465000  0.61281000  1.0
  C  C76  1  0.31678000  0.55920000  0.83848000  1.0
  C  C77  1  0.18321000  0.44079000  0.33848000  1.0
  C  C78  1  0.68321000  0.44079000  0.16152000  1.0
  C  C79  1  0.81678000  0.55920000  0.66152000  1.0
  C  C80  1  0.35265000  0.50704000  0.72891000  1.0
  C  C81  1  0.14735000  0.49296000  0.22891000  1.0
  C  C82  1  0.64735000  0.49296000  0.27109000  1.0
  C  C83  1  0.85265000  0.50704000  0.77109000  1.0
  C  C84  1  0.19696000  0.34538000  0.78197000  1.0
  C  C85  1  0.30303000  0.65462000  0.28197000  1.0
  C  C86  1  0.80304000  0.65462000  0.21803000  1.0
  C  C87  1  0.69697000  0.34538000  0.71803000  1.0
  C  C88  1  0.20604000  0.30425000  0.72304000  1.0
  C  C89  1  0.29396000  0.69575000  0.22304000  1.0
  C  C90  1  0.79396000  0.69575000  0.27696000  1.0
  C  C91  1  0.70604000  0.30425000  0.77696000  1.0
  C  C92  1  0.41904000  0.69208000  0.59947000  1.0
  C  C93  1  0.08096000  0.30793000  0.09947000  1.0
  C  C94  1  0.58096000  0.30793000  0.40053000  1.0
  C  C95  1  0.91904000  0.69208000  0.90053000  1.0
  C  C96  1  0.50983000  0.83159000  0.58584000  1.0
  C  C97  1  0.99016000  0.16841000  0.08584000  1.0
  C  C98  1  0.49016000  0.16841000  0.41416000  1.0
  C  C99  1  0.00984000  0.83159000  0.91416000  1.0
  C  C100  1  0.66692000  0.85756000  0.56345000  1.0
  C  C101  1  0.83307000  0.14244000  0.06345000  1.0
  C  C102  1  0.33307000  0.14244000  0.43655000  1.0
  C  C103  1  0.16693000  0.85756000  0.93655000  1.0
  C  C104  1  0.74824000  0.98751000  0.54992000  1.0
  C  C105  1  0.75176000  0.01249000  0.04993000  1.0
  C  C106  1  0.25176000  0.01249000  0.45007000  1.0
  C  C107  1  0.24824000  0.98752000  0.95007000  1.0
  C  C108  1  0.67372000  0.09258000  0.55898000  1.0
  C  C109  1  0.82629000  0.90742000  0.05898000  1.0
  C  C110  1  0.32629000  0.90743000  0.44102000  1.0
  C  C111  1  0.17372000  0.09258000  0.94102000  1.0
  C  C112  1  0.51643000  0.06779000  0.58133000  1.0
  C  C113  1  0.98357000  0.93221000  0.08133000  1.0
  C  C114  1  0.48357000  0.93221000  0.41867000  1.0
  C  C115  1  0.01644000  0.06779000  0.91867000  1.0
  C  C116  1  0.43250000  0.17809000  0.59132000  1.0
  C  C117  1  0.06750000  0.82192000  0.09132000  1.0
  C  C118  1  0.56750000  0.82192000  0.40868000  1.0
  C  C119  1  0.93250000  0.17809000  0.90868000  1.0
  C  C120  1  0.43539000  0.93710000  0.59440000  1.0
  C  C121  1  0.06461000  0.06290000  0.09440000  1.0
  C  C122  1  0.56461000  0.06290000  0.40560000  1.0
  C  C123  1  0.93539000  0.93711000  0.90560000  1.0
  N  N124  1  0.29088000  0.47399000  0.78485000  1.0
  N  N125  1  0.20912000  0.52601000  0.28485000  1.0
  N  N126  1  0.70912000  0.52601000  0.21515000  1.0
  N  N127  1  0.79088000  0.47399000  0.71515000  1.0
  N  N128  1  0.30295000  0.40630000  0.69040000  1.0
  N  N129  1  0.19705000  0.59370000  0.19040000  1.0
  N  N130  1  0.69705000  0.59370000  0.30960000  1.0
  N  N131  1  0.80295000  0.40630000  0.80960000  1.0
  N  N132  1  0.29476000  0.60673000  0.03320000  1.0
  N  N133  1  0.20524000  0.39326000  0.53320000  1.0
  N  N134  1  0.70524000  0.39327000  0.96680000  1.0
  N  N135  1  0.79476000  0.60673000  0.46680000  1.0
  N  N136  1  0.39802000  0.56728000  0.94562000  1.0
  N  N137  1  0.10198000  0.43272000  0.44562000  1.0
  N  N138  1  0.60198000  0.43272000  0.05438000  1.0
  N  N139  1  0.89802000  0.56728000  0.55438000  1.0
  O  O140  1  0.27652000  0.67092000  0.61735000  1.0
  O  O141  1  0.22348000  0.32909000  0.11735000  1.0
  O  O142  1  0.72348000  0.32909000  0.38265000  1.0
  O  O143  1  0.77652000  0.67092000  0.88265000  1.0
  O  O144  1  0.49703000  0.59903000  0.59150000  1.0
  O  O145  1  0.00297000  0.40097000  0.09150000  1.0
  O  O146  1  0.50297000  0.40098000  0.40851000  1.0
  O  O147  1  0.99703000  0.59903000  0.90850000  1.0
  O  O148  1  0.51891000  0.29959000  0.58524000  1.0
  O  O149  1  0.98110000  0.70041000  0.08525000  1.0
  O  O150  1  0.48110000  0.70041000  0.41475000  1.0
  O  O151  1  0.01890000  0.29960000  0.91476000  1.0
  O  O152  1  0.28728000  0.15313000  0.60584000  1.0
  O  O153  1  0.21272000  0.84687000  0.10584000  1.0
  O  O154  1  0.71272000  0.84687000  0.39416000  1.0
  O  O155  1  0.78728000  0.15313000  0.89416000  1.0
