# generated using pymatgen
data_LiH12C14SN3O
_symmetry_space_group_name_H-M   'P 1'
_cell_length_a   7.10048000
_cell_length_b   12.33480000
_cell_length_c   16.93520000
_cell_angle_alpha   91.13170000
_cell_angle_beta   89.99990000
_cell_angle_gamma   89.99960000
_symmetry_Int_Tables_number   1
_chemical_formula_structural   LiH12C14SN3O
_chemical_formula_sum   'Li4 H48 C56 S4 N12 O4'
_cell_volume   1482.94631019
_cell_formula_units_Z   4
loop_
 _symmetry_equiv_pos_site_id
 _symmetry_equiv_pos_as_xyz
  1  'x, y, z'
loop_
 _atom_site_type_symbol
 _atom_site_label
 _atom_site_symmetry_multiplicity
 _atom_site_fract_x
 _atom_site_fract_y
 _atom_site_fract_z
 _atom_site_occupancy
  Li  Li0  1  0.12475000  0.49048000  0.41209000  1.0
  Li  Li1  1  0.62475000  0.00952000  0.08791000  1.0
  Li  Li2  1  0.87525000  0.50951000  0.58791000  1.0
  Li  Li3  1  0.37526000  0.99049000  0.91209000  1.0
  H  H4  1  0.36946000  0.32247000  0.47457000  1.0
  H  H5  1  0.86947000  0.17753000  0.02543000  1.0
  H  H6  1  0.63053000  0.67753000  0.52543000  1.0
  H  H7  1  0.13055000  0.82247000  0.97457000  1.0
  H  H8  1  0.61100000  0.36260000  0.46216000  1.0
  H  H9  1  0.11101000  0.13740000  0.03784000  1.0
  H  H10  1  0.38899000  0.63740000  0.53784000  1.0
  H  H11  1  0.88900000  0.86260000  0.96216000  1.0
  H  H12  1  0.32879000  0.45717000  0.58302000  1.0
  H  H13  1  0.82880000  0.04283000  0.91699000  1.0
  H  H14  1  0.67120000  0.54283000  0.41699000  1.0
  H  H15  1  0.17121000  0.95717000  0.08301000  1.0
  H  H16  1  0.52818000  0.37296000  0.60520000  1.0
  H  H17  1  0.02818000  0.12704000  0.89481000  1.0
  H  H18  1  0.47181000  0.62704000  0.39481000  1.0
  H  H19  1  0.97183000  0.87297000  0.10519000  1.0
  H  H20  1  0.83125000  0.49022000  0.77837000  1.0
  H  H21  1  0.33125000  0.00978000  0.72163000  1.0
  H  H22  1  0.16874000  0.50978000  0.22163000  1.0
  H  H23  1  0.66875000  0.99022000  0.27837000  1.0
  H  H24  1  0.74713000  0.33475000  0.86616000  1.0
  H  H25  1  0.24712000  0.16525000  0.63384000  1.0
  H  H26  1  0.25285000  0.66525000  0.13384000  1.0
  H  H27  1  0.75285000  0.83475000  0.36616000  1.0
  H  H28  1  0.72431000  0.14844000  0.80435000  1.0
  H  H29  1  0.22430000  0.35156000  0.69565000  1.0
  H  H30  1  0.27568000  0.85156000  0.19564000  1.0
  H  H31  1  0.77568000  0.64844000  0.30435000  1.0
  H  H32  1  0.79740000  0.12276000  0.66160000  1.0
  H  H33  1  0.29741000  0.37724000  0.83840000  1.0
  H  H34  1  0.20259000  0.87724000  0.33840000  1.0
  H  H35  1  0.70259000  0.62276000  0.16160000  1.0
  H  H36  1  0.91988000  0.10996000  0.52205000  1.0
  H  H37  1  0.41987000  0.39003000  0.97795000  1.0
  H  H38  1  0.08012000  0.89003000  0.47795000  1.0
  H  H39  1  0.58015000  0.60997000  0.02204000  1.0
  H  H40  1  0.91817000  0.03474000  0.36720000  1.0
  H  H41  1  0.41817000  0.46527000  0.13280000  1.0
  H  H42  1  0.08184000  0.96526000  0.63280000  1.0
  H  H43  1  0.58185000  0.53474000  0.86720000  1.0
  H  H44  1  0.06596000  0.99228000  0.22678000  1.0
  H  H45  1  0.56597000  0.50771000  0.27322000  1.0
  H  H46  1  0.93404000  0.00771000  0.77322000  1.0
  H  H47  1  0.43403000  0.49228000  0.72678000  1.0
  H  H48  1  0.28292000  0.15392000  0.17972000  1.0
  H  H49  1  0.78293000  0.34607000  0.32027000  1.0
  H  H50  1  0.71707000  0.84607000  0.82027000  1.0
  H  H51  1  0.21706000  0.65392000  0.67973000  1.0
  C  C52  1  0.46959000  0.38983000  0.48064000  1.0
  C  C53  1  0.96960000  0.11017000  0.01937000  1.0
  C  C54  1  0.53040000  0.61017000  0.51937000  1.0
  C  C55  1  0.03041000  0.88983000  0.98064000  1.0
  C  C56  1  0.47282000  0.43369000  0.56485000  1.0
  C  C57  1  0.97283000  0.06631000  0.93516000  1.0
  C  C58  1  0.52717000  0.56631000  0.43516000  1.0
  C  C59  1  0.02718000  0.93369000  0.06485000  1.0
  C  C60  1  0.82467000  0.40703000  0.75516000  1.0
  C  C61  1  0.32468000  0.09296000  0.74484000  1.0
  C  C62  1  0.17532000  0.59297000  0.24484000  1.0
  C  C63  1  0.67532000  0.90703000  0.25516000  1.0
  C  C64  1  0.77791000  0.32109000  0.80370000  1.0
  C  C65  1  0.27790000  0.17891000  0.69630000  1.0
  C  C66  1  0.22208000  0.67891000  0.19630000  1.0
  C  C67  1  0.72208000  0.82109000  0.30370000  1.0
  C  C68  1  0.76612000  0.21747000  0.76928000  1.0
  C  C69  1  0.26612000  0.28253000  0.73072000  1.0
  C  C70  1  0.23387000  0.78253000  0.23071000  1.0
  C  C71  1  0.73387000  0.71747000  0.26929000  1.0
  C  C72  1  0.80518000  0.20307000  0.68939000  1.0
  C  C73  1  0.30517000  0.29693000  0.81061000  1.0
  C  C74  1  0.19482000  0.79693000  0.31061000  1.0
  C  C75  1  0.69482000  0.70307000  0.18939000  1.0
  C  C76  1  0.85808000  0.29302000  0.64501000  1.0
  C  C77  1  0.35808000  0.20698000  0.85499000  1.0
  C  C78  1  0.14192000  0.70698000  0.35499000  1.0
  C  C79  1  0.64192000  0.79302000  0.14501000  1.0
  C  C80  1  0.91467000  0.28481000  0.56231000  1.0
  C  C81  1  0.41468000  0.21518000  0.93768000  1.0
  C  C82  1  0.08533000  0.71518000  0.43768000  1.0
  C  C83  1  0.58533000  0.78482000  0.06231000  1.0
  C  C84  1  0.94058000  0.19537000  0.51046000  1.0
  C  C85  1  0.44056000  0.30464000  0.98953000  1.0
  C  C86  1  0.05943000  0.80463000  0.48954000  1.0
  C  C87  1  0.55944000  0.69538000  0.01046000  1.0
  C  C88  1  0.00478000  0.24193000  0.44020000  1.0
  C  C89  1  0.50479000  0.25807000  0.05980000  1.0
  C  C90  1  0.99522000  0.75806000  0.55980000  1.0
  C  C91  1  0.49523000  0.74194000  0.94020000  1.0
  C  C92  1  0.06151000  0.19031000  0.36631000  1.0
  C  C93  1  0.56150000  0.30969000  0.13369000  1.0
  C  C94  1  0.93850000  0.80969000  0.63369000  1.0
  C  C95  1  0.43850000  0.69031000  0.86631000  1.0
  C  C96  1  0.01240000  0.08901000  0.33621000  1.0
  C  C97  1  0.51240000  0.41099000  0.16379000  1.0
  C  C98  1  0.98761000  0.91099000  0.66379000  1.0
  C  C99  1  0.48761000  0.58901000  0.83621000  1.0
  C  C100  1  0.09334000  0.06597000  0.26102000  1.0
  C  C101  1  0.59334000  0.43403000  0.23898000  1.0
  C  C102  1  0.90666000  0.93402000  0.73898000  1.0
  C  C103  1  0.40666000  0.56598000  0.76102000  1.0
  C  C104  1  0.20518000  0.14891000  0.23479000  1.0
  C  C105  1  0.70519000  0.35109000  0.26521000  1.0
  C  C106  1  0.79482000  0.85109000  0.76521000  1.0
  C  C107  1  0.29482000  0.64891000  0.73479000  1.0
  S  S108  1  0.21153000  0.25530000  0.30159000  1.0
  S  S109  1  0.71153000  0.24470000  0.19841000  1.0
  S  S110  1  0.78847000  0.74469000  0.69841000  1.0
  S  S111  1  0.28847000  0.75531000  0.80159000  1.0
  N  N112  1  0.86338000  0.39458000  0.67807000  1.0
  N  N113  1  0.36338000  0.10542000  0.82193000  1.0
  N  N114  1  0.13662000  0.60542000  0.32193000  1.0
  N  N115  1  0.63662000  0.89458000  0.17807000  1.0
  N  N116  1  0.95938000  0.37790000  0.52463000  1.0
  N  N117  1  0.45939000  0.12210000  0.97537000  1.0
  N  N118  1  0.04061000  0.62210000  0.47537000  1.0
  N  N119  1  0.54063000  0.87790000  0.02463000  1.0
  N  N120  1  0.01322000  0.35218000  0.45022000  1.0
  N  N121  1  0.51322000  0.14782000  0.04978000  1.0
  N  N122  1  0.98678000  0.64782000  0.54978000  1.0
  N  N123  1  0.48678000  0.85219000  0.95022000  1.0
  O  O124  1  0.40566000  0.47301000  0.42823000  1.0
  O  O125  1  0.90566000  0.02700000  0.07177000  1.0
  O  O126  1  0.59434000  0.52700000  0.57178000  1.0
  O  O127  1  0.09435000  0.97300000  0.92823000  1.0
