# generated using pymatgen
data_ZnH2C6NO5
_symmetry_space_group_name_H-M   'P 1'
_cell_length_a   7.81372000
_cell_length_b   8.74866000
_cell_length_c   14.93850000
_cell_angle_alpha   94.73520000
_cell_angle_beta   97.32640000
_cell_angle_gamma   97.44600000
_symmetry_Int_Tables_number   1
_chemical_formula_structural   ZnH2C6NO5
_chemical_formula_sum   'Zn2 H4 C12 N2 O10'
_cell_volume   999.20212719
_cell_formula_units_Z   2
loop_
 _symmetry_equiv_pos_site_id
 _symmetry_equiv_pos_as_xyz
  1  'x, y, z'
loop_
 _atom_site_type_symbol
 _atom_site_label
 _atom_site_symmetry_multiplicity
 _atom_site_fract_x
 _atom_site_fract_y
 _atom_site_fract_z
 _atom_site_occupancy
  Zn  Zn0  1  0.30532000  0.49198000  0.45979000  1.0
  Zn  Zn1  1  0.69471000  0.50809000  0.54021000  1.0
  H  H2  1  0.70103000  0.01656000  0.51917000  1.0
  H  H3  1  0.29898000  0.98352000  0.48084000  1.0
  H  H4  1  0.79157000  0.47990000  0.36390000  1.0
  H  H5  1  0.20846000  0.52018000  0.63611000  1.0
  C  C6  1  0.54030000  0.78758000  0.50274000  1.0
  C  C7  1  0.49814000  0.49548000  0.04086000  1.0
  C  C8  1  0.56669000  0.95910000  0.50592000  1.0
  C  C9  1  0.43333000  0.04097000  0.49409000  1.0
  C  C10  1  0.45972000  0.21249000  0.49727000  1.0
  C  C11  1  0.53608000  0.52186000  0.69496000  1.0
  C  C12  1  0.46393000  0.47813000  0.30504000  1.0
  C  C13  1  0.51776000  0.51984000  0.78944000  1.0
  C  C14  1  0.48220000  0.48000000  0.21054000  1.0
  C  C15  1  0.50851000  0.51284000  0.87042000  1.0
  C  C16  1  0.49139000  0.48689000  0.12956000  1.0
  C  C17  1  0.50171000  0.50421000  0.95910000  1.0
  N  N18  1  0.92464000  0.49735000  0.47916000  1.0
  N  N19  1  0.07540000  0.50273000  0.52085000  1.0
  O  O20  1  0.38531000  0.71634000  0.48374000  1.0
  O  O21  1  0.07729000  0.51739000  0.61149000  1.0
  O  O22  1  0.61471000  0.28373000  0.51626000  1.0
  O  O23  1  0.67848000  0.72542000  0.51992000  1.0
  O  O24  1  0.32154000  0.27465000  0.48010000  1.0
  O  O25  1  0.40131000  0.52074000  0.63686000  1.0
  O  O26  1  0.59873000  0.47937000  0.36313000  1.0
  O  O27  1  0.69036000  0.52316000  0.67504000  1.0
  O  O28  1  0.30965000  0.47686000  0.32496000  1.0
  O  O29  1  0.92273000  0.48267000  0.38852000  1.0
