# generated using pymatgen
data_CuH18C12(NO2)2
_symmetry_space_group_name_H-M   'P 1'
_cell_length_a   6.61093000
_cell_length_b   8.98300000
_cell_length_c   10.59210000
_cell_angle_alpha   89.99970000
_cell_angle_beta   89.99980000
_cell_angle_gamma   89.82450000
_symmetry_Int_Tables_number   1
_chemical_formula_structural   CuH18C12(NO2)2
_chemical_formula_sum   'Cu2 H36 C24 N4 O8'
_cell_volume   629.01933229
_cell_formula_units_Z   2
loop_
 _symmetry_equiv_pos_site_id
 _symmetry_equiv_pos_as_xyz
  1  'x, y, z'
loop_
 _atom_site_type_symbol
 _atom_site_label
 _atom_site_symmetry_multiplicity
 _atom_site_fract_x
 _atom_site_fract_y
 _atom_site_fract_z
 _atom_site_occupancy
  Cu  Cu0  1  0.00000000  0.00001000  0.49999000  1.0
  Cu  Cu1  1  0.50000000  0.00000000  0.00000000  1.0
  H  H2  1  0.12156000  0.34475000  0.68689000  1.0
  H  H3  1  0.37845000  0.65524000  0.18687000  1.0
  H  H4  1  0.87844000  0.65525000  0.31311000  1.0
  H  H5  1  0.62155000  0.34475000  0.81312000  1.0
  H  H6  1  0.62528000  0.26888000  0.25014000  1.0
  H  H7  1  0.87472000  0.73113000  0.75015000  1.0
  H  H8  1  0.37472000  0.73113000  0.74986000  1.0
  H  H9  1  0.12528000  0.26887000  0.24986000  1.0
  H  H10  1  0.81654000  0.23601000  0.36158000  1.0
  H  H11  1  0.68346000  0.76399000  0.86159000  1.0
  H  H12  1  0.18346000  0.76399000  0.63842000  1.0
  H  H13  1  0.31654000  0.23601000  0.13843000  1.0
  H  H14  1  0.58133000  0.14391000  0.37675000  1.0
  H  H15  1  0.91868000  0.85608000  0.87676000  1.0
  H  H16  1  0.41867000  0.85608000  0.62325000  1.0
  H  H17  1  0.08133000  0.14391000  0.12326000  1.0
  H  H18  1  0.32475000  0.90204000  0.39083000  1.0
  H  H19  1  0.17525000  0.09797000  0.89085000  1.0
  H  H20  1  0.67525000  0.09796000  0.60916000  1.0
  H  H21  1  0.82475000  0.90205000  0.10916000  1.0
  H  H22  1  0.19745000  0.50827000  0.76606000  1.0
  H  H23  1  0.30257000  0.49172000  0.26605000  1.0
  H  H24  1  0.80257000  0.49172000  0.23394000  1.0
  H  H25  1  0.69743000  0.50828000  0.73395000  1.0
  H  H26  1  0.13987000  0.90627000  0.28436000  1.0
  H  H27  1  0.36013000  0.09375000  0.78436000  1.0
  H  H28  1  0.86014000  0.09374000  0.71564000  1.0
  H  H29  1  0.63987000  0.90626000  0.21564000  1.0
  H  H30  1  0.02476000  0.52130000  0.63997000  1.0
  H  H31  1  0.47525000  0.47870000  0.13997000  1.0
  H  H32  1  0.97525000  0.47870000  0.36003000  1.0
  H  H33  1  0.52475000  0.52130000  0.86004000  1.0
  H  H34  1  0.14517000  0.77609000  0.39361000  1.0
  H  H35  1  0.35483000  0.22393000  0.89361000  1.0
  H  H36  1  0.85482000  0.22392000  0.60640000  1.0
  H  H37  1  0.64518000  0.77608000  0.10639000  1.0
  C  C38  1  0.41079000  0.36103000  0.51225000  1.0
  C  C39  1  0.08921000  0.63897000  0.01226000  1.0
  C  C40  1  0.58922000  0.63897000  0.48774000  1.0
  C  C41  1  0.91079000  0.36102000  0.98775000  1.0
  C  C42  1  0.33366000  0.48146000  0.58216000  1.0
  C  C43  1  0.16635000  0.51854000  0.08216000  1.0
  C  C44  1  0.66634000  0.51854000  0.41784000  1.0
  C  C45  1  0.83366000  0.48146000  0.91785000  1.0
  C  C46  1  0.57587000  0.37742000  0.42988000  1.0
  C  C47  1  0.92413000  0.62257000  0.92988000  1.0
  C  C48  1  0.42414000  0.62258000  0.57013000  1.0
  C  C49  1  0.07586000  0.37742000  0.07013000  1.0
  C  C50  1  0.31247000  0.21089000  0.52837000  1.0
  C  C51  1  0.18753000  0.78911000  0.02838000  1.0
  C  C52  1  0.68751000  0.78910000  0.47161000  1.0
  C  C53  1  0.81249000  0.21089000  0.97163000  1.0
  C  C54  1  0.16096000  0.46196000  0.67282000  1.0
  C  C55  1  0.33905000  0.53804000  0.17282000  1.0
  C  C56  1  0.83905000  0.53804000  0.32718000  1.0
  C  C57  1  0.66095000  0.46196000  0.82719000  1.0
  C  C58  1  0.65204000  0.24978000  0.35141000  1.0
  C  C59  1  0.84796000  0.75022000  0.85142000  1.0
  C  C60  1  0.34797000  0.75022000  0.64858000  1.0
  C  C61  1  0.15204000  0.24978000  0.14859000  1.0
  N  N62  1  0.17099000  0.88680000  0.37829000  1.0
  N  N63  1  0.32901000  0.11321000  0.87830000  1.0
  N  N64  1  0.82901000  0.11321000  0.62171000  1.0
  N  N65  1  0.67099000  0.88680000  0.12171000  1.0
  O  O66  1  0.14789000  0.19166000  0.46534000  1.0
  O  O67  1  0.35210000  0.80836000  0.96535000  1.0
  O  O68  1  0.85209000  0.80838000  0.53464000  1.0
  O  O69  1  0.64789000  0.19164000  0.03466000  1.0
  O  O70  1  0.38808000  0.11524000  0.60173000  1.0
  O  O71  1  0.11191000  0.88475000  0.10174000  1.0
  O  O72  1  0.61191000  0.88475000  0.39823000  1.0
  O  O73  1  0.88809000  0.11523000  0.89826000  1.0
