# generated using pymatgen
data_HgH3C5I2Br2N
_symmetry_space_group_name_H-M   'P 1'
_cell_length_a   4.28968000
_cell_length_b   15.80940000
_cell_length_c   18.58690000
_cell_angle_alpha   112.24200000
_cell_angle_beta   96.61550000
_cell_angle_gamma   97.78470000
_symmetry_Int_Tables_number   1
_chemical_formula_structural   HgH3C5I2Br2N
_chemical_formula_sum   'Hg4 H12 C20 I8 Br8 N4'
_cell_volume   1136.76329952
_cell_formula_units_Z   4
loop_
 _symmetry_equiv_pos_site_id
 _symmetry_equiv_pos_as_xyz
  1  'x, y, z'
loop_
 _atom_site_type_symbol
 _atom_site_label
 _atom_site_symmetry_multiplicity
 _atom_site_fract_x
 _atom_site_fract_y
 _atom_site_fract_z
 _atom_site_occupancy
  Hg  Hg0  1  0.03807000  0.72693000  0.51805000  1.0
  Hg  Hg1  1  0.29273000  0.77303000  0.98199000  1.0
  Hg  Hg2  1  0.96192000  0.27307000  0.48194000  1.0
  Hg  Hg3  1  0.70726000  0.22697000  0.01802000  1.0
  H  H4  1  0.67158000  0.71262000  0.34490000  1.0
  H  H5  1  0.11329000  0.78755000  0.15514000  1.0
  H  H6  1  0.32841000  0.28737000  0.65509000  1.0
  H  H7  1  0.88673000  0.21246000  0.84486000  1.0
  H  H8  1  0.71406000  0.45766000  0.14876000  1.0
  H  H9  1  0.60697000  0.04232000  0.35133000  1.0
  H  H10  1  0.28594000  0.54234000  0.85124000  1.0
  H  H11  1  0.39304000  0.95769000  0.64867000  1.0
  H  H12  1  0.11592000  0.51624000  0.39163000  1.0
  H  H13  1  0.70758000  0.98371000  0.10835000  1.0
  H  H14  1  0.88406000  0.48375000  0.60837000  1.0
  H  H15  1  0.29242000  0.01629000  0.89165000  1.0
  C  C16  1  0.74140000  0.64481000  0.32077000  1.0
  C  C17  1  0.27505000  0.85529000  0.17925000  1.0
  C  C18  1  0.25858000  0.35519000  0.67922000  1.0
  C  C19  1  0.72495000  0.14471000  0.82075000  1.0
  C  C20  1  0.67373000  0.58883000  0.23994000  1.0
  C  C21  1  0.34435000  0.91124000  0.26010000  1.0
  C  C22  1  0.32630000  0.41117000  0.76006000  1.0
  C  C23  1  0.65565000  0.08876000  0.73990000  1.0
  C  C24  1  0.76439000  0.50226000  0.21165000  1.0
  C  C25  1  0.54982000  0.99777000  0.28840000  1.0
  C  C26  1  0.23564000  0.49774000  0.78835000  1.0
  C  C27  1  0.45018000  0.00223000  0.71160000  1.0
  C  C28  1  0.92397000  0.47561000  0.26692000  1.0
  C  C29  1  0.68062000  0.02449000  0.23311000  1.0
  C  C30  1  0.07604000  0.52439000  0.73309000  1.0
  C  C31  1  0.31939000  0.97551000  0.76690000  1.0
  C  C32  1  0.98912000  0.53472000  0.34704000  1.0
  C  C33  1  0.60664000  0.96533000  0.15299000  1.0
  C  C34  1  0.01086000  0.46528000  0.65296000  1.0
  C  C35  1  0.39336000  0.03467000  0.84701000  1.0
  I  I36  1  0.81011000  0.87182000  0.50758000  1.0
  I  I37  1  0.93054000  0.62816000  0.99248000  1.0
  I  I38  1  0.18989000  0.12817000  0.49242000  1.0
  I  I39  1  0.06944000  0.37184000  0.00752000  1.0
  I  I40  1  0.43163000  0.63331000  0.56824000  1.0
  I  I41  1  0.73044000  0.86680000  0.93206000  1.0
  I  I42  1  0.56837000  0.36668000  0.43176000  1.0
  I  I43  1  0.26954000  0.13320000  0.06794000  1.0
  Br  Br44  1  0.46125000  0.63033000  0.16799000  1.0
  Br  Br45  1  0.16267000  0.86976000  0.33213000  1.0
  Br  Br46  1  0.53876000  0.36967000  0.83201000  1.0
  Br  Br47  1  0.83733000  0.13024000  0.66787000  1.0
  Br  Br48  1  0.05281000  0.35869000  0.23341000  1.0
  Br  Br49  1  0.95919000  0.14139000  0.26645000  1.0
  Br  Br50  1  0.94717000  0.64130000  0.76659000  1.0
  Br  Br51  1  0.04082000  0.85861000  0.73355000  1.0
  N  N52  1  0.89734000  0.61725000  0.37218000  1.0
  N  N53  1  0.40718000  0.88280000  0.12785000  1.0
  N  N54  1  0.10264000  0.38275000  0.62782000  1.0
  N  N55  1  0.59283000  0.11721000  0.87215000  1.0
