# generated using pymatgen
data_Zn4H6C24S4O15F2
_symmetry_space_group_name_H-M   'P 1'
_cell_length_a   19.67700000
_cell_length_b   19.73700000
_cell_length_c   33.40320000
_cell_angle_alpha   78.92890000
_cell_angle_beta   79.10380000
_cell_angle_gamma   63.90190000
_symmetry_Int_Tables_number   1
_chemical_formula_structural   Zn4H6C24S4O15F2
_chemical_formula_sum   'Zn16 H24 C96 S16 O60 F8'
_cell_volume   11352.41976862
_cell_formula_units_Z   4
loop_
 _symmetry_equiv_pos_site_id
 _symmetry_equiv_pos_as_xyz
  1  'x, y, z'
loop_
 _atom_site_type_symbol
 _atom_site_label
 _atom_site_symmetry_multiplicity
 _atom_site_fract_x
 _atom_site_fract_y
 _atom_site_fract_z
 _atom_site_occupancy
  Zn  Zn0  1  0.05632000  0.40055000  0.47851000  1.0
  Zn  Zn1  1  0.98436000  0.48346000  0.56054000  1.0
  Zn  Zn2  1  0.05852000  0.56142000  0.48232000  1.0
  Zn  Zn3  1  0.90037000  0.55518000  0.47963000  1.0
  Zn  Zn4  1  0.69521000  0.34959000  0.27132000  1.0
  Zn  Zn5  1  0.68908000  0.19024000  0.26662000  1.0
  Zn  Zn6  1  0.76933000  0.26618000  0.18989000  1.0
  Zn  Zn7  1  0.84823000  0.19413000  0.27198000  1.0
  Zn  Zn8  1  0.26622000  0.76659000  0.68954000  1.0
  Zn  Zn9  1  0.34901000  0.69581000  0.77188000  1.0
  Zn  Zn10  1  0.19262000  0.84792000  0.77165000  1.0
  Zn  Zn11  1  0.19147000  0.68810000  0.76765000  1.0
  Zn  Zn12  1  0.56070000  0.06027000  0.98354000  1.0
  Zn  Zn13  1  0.40096000  0.05491000  0.97780000  1.0
  Zn  Zn14  1  0.55564000  0.90180000  0.97868000  1.0
  Zn  Zn15  1  0.48304000  0.98236000  0.06007000  1.0
  H  H16  1  0.74887000  0.45233000  0.35047000  1.0
  H  H17  1  0.00153000  0.29774000  0.39972000  1.0
  H  H18  1  0.20074000  0.70061000  0.59872000  1.0
  H  H19  1  0.04972000  0.54988000  0.65094000  1.0
  H  H20  1  0.46256000  0.24086000  0.34126000  1.0
  H  H21  1  0.47978000  0.70241000  0.60129000  1.0
  H  H22  1  0.20225000  0.98007000  0.60154000  1.0
  H  H23  1  0.94803000  0.96990000  0.34815000  1.0
  H  H24  1  0.65126000  0.15141000  0.04953000  1.0
  H  H25  1  0.59879000  0.09871000  0.20052000  1.0
  H  H26  1  0.54798000  0.76933000  0.14854000  1.0
  H  H27  1  0.16226000  0.14162000  0.04059000  1.0
  H  H28  1  0.29773000  0.00120000  0.89951000  1.0
  H  H29  1  0.45143000  0.74952000  0.85037000  1.0
  H  H30  1  0.30107000  0.28054000  0.90184000  1.0
  H  H31  1  0.78765000  0.00940000  0.90866000  1.0
  H  H32  1  0.32560000  0.54235000  0.39841000  1.0
  H  H33  1  0.75641000  0.53982000  0.68449000  1.0
  H  H34  1  0.04030000  0.25605000  0.68407000  1.0
  H  H35  1  0.74296000  0.81534000  0.38809000  1.0
  H  H36  1  0.71026000  0.49326000  0.06581000  1.0
  H  H37  1  0.14823000  0.07617000  0.22077000  1.0
  H  H38  1  0.50732000  0.43381000  0.86216000  1.0
  H  H39  1  0.92410000  0.70744000  0.85162000  1.0
  C  C40  1  0.06156000  0.31646000  0.56215000  1.0
  C  C41  1  0.06909000  0.57006000  0.56878000  1.0
  C  C42  1  0.18380000  0.44048000  0.43858000  1.0
  C  C43  1  0.93608000  0.68430000  0.43875000  1.0
  C  C44  1  0.93122000  0.43033000  0.43136000  1.0
  C  C45  1  0.81676000  0.56086000  0.56265000  1.0
  C  C46  1  0.56585000  0.31126000  0.31122000  1.0
  C  C47  1  0.68144000  0.18051000  0.18092000  1.0
  C  C48  1  0.68983000  0.43310000  0.18773000  1.0
  C  C49  1  0.93567000  0.18714000  0.18964000  1.0
  C  C50  1  0.81887000  0.31937000  0.31927000  1.0
  C  C51  1  0.81085000  0.06587000  0.31141000  1.0
  C  C52  1  0.43355000  0.68957000  0.68829000  1.0
  C  C53  1  0.31829000  0.81997000  0.81899000  1.0
  C  C54  1  0.18857000  0.93356000  0.68844000  1.0
  C  C55  1  0.06576000  0.80921000  0.81151000  1.0
  C  C56  1  0.18127000  0.68038000  0.68100000  1.0
  C  C57  1  0.31419000  0.56572000  0.81162000  1.0
  C  C58  1  0.43822000  0.18383000  0.93863000  1.0
  C  C59  1  0.43100000  0.93062000  0.93084000  1.0
  C  C60  1  0.68423000  0.93924000  0.93883000  1.0
  C  C61  1  0.56137000  0.81591000  0.06163000  1.0
  C  C62  1  0.56921000  0.06893000  0.06925000  1.0
  C  C63  1  0.31572000  0.06127000  0.06092000  1.0
  C  C64  1  0.90118000  0.40340000  0.40243000  1.0
  C  C65  1  0.84914000  0.34654000  0.34783000  1.0
  C  C66  1  0.82982000  0.44558000  0.38771000  1.0
  C  C67  1  0.92057000  0.30442000  0.36249000  1.0
  C  C68  1  0.80444000  0.41805000  0.36116000  1.0
  C  C69  1  0.94595000  0.33198000  0.38901000  1.0
  C  C70  1  0.09872000  0.59907000  0.59681000  1.0
  C  C71  1  0.15177000  0.65148000  0.65296000  1.0
  C  C72  1  0.14178000  0.64194000  0.58312000  1.0
  C  C73  1  0.10869000  0.60857000  0.66666667  1.0
  C  C74  1  0.16761000  0.66753000  0.61040000  1.0
  C  C75  1  0.08287000  0.58301000  0.63936000  1.0
  C  C76  1  0.30435000  0.45574000  0.40104000  1.0
  C  C77  1  0.44581000  0.29750000  0.34908000  1.0
  C  C78  1  0.25841000  0.41628000  0.41392000  1.0
  C  C79  1  0.49116000  0.33673000  0.33629000  1.0
  C  C80  1  0.37775000  0.34055000  0.37268000  1.0
  C  C81  1  0.37268000  0.41204000  0.37740000  1.0
  C  C82  1  0.72653000  0.57556000  0.63041000  1.0
  C  C83  1  0.52440000  0.67348000  0.62140000  1.0
  C  C84  1  0.74263000  0.58519000  0.58770000  1.0
  C  C85  1  0.50862000  0.66399000  0.66372000  1.0
  C  C86  1  0.60370000  0.64135000  0.60909000  1.0
  C  C87  1  0.64677000  0.60788000  0.64251000  1.0
  C  C88  1  0.07592000  0.22622000  0.63006000  1.0
  C  C89  1  0.17345000  0.02455000  0.62153000  1.0
  C  C90  1  0.08564000  0.24237000  0.58732000  1.0
  C  C91  1  0.16375000  0.00866000  0.66385000  1.0
  C  C92  1  0.14153000  0.10368000  0.60908000  1.0
  C  C93  1  0.10807000  0.14661000  0.64237000  1.0
  C  C94  1  0.84183000  0.80066000  0.39725000  1.0
  C  C95  1  0.90365000  0.94954000  0.35259000  1.0
  C  C96  1  0.91076000  0.75847000  0.41376000  1.0
  C  C97  1  0.83521000  0.99114000  0.33633000  1.0
  C  C98  1  0.90643000  0.88002000  0.37477000  1.0
  C  C99  1  0.83969000  0.87024000  0.37492000  1.0
  C  C100  1  0.65314000  0.15285000  0.15153000  1.0
  C  C101  1  0.59701000  0.09707000  0.09852000  1.0
  C  C102  1  0.66675000  0.16672000  0.10849000  1.0
  C  C103  1  0.58327000  0.08334000  0.14156000  1.0
  C  C104  1  0.63951000  0.13963000  0.08267000  1.0
  C  C105  1  0.61050000  0.11044000  0.16737000  1.0
  C  C106  1  0.67462000  0.52331000  0.11980000  1.0
  C  C107  1  0.57676000  0.72492000  0.12851000  1.0
  C  C108  1  0.66496000  0.50709000  0.16254000  1.0
  C  C109  1  0.58650000  0.74086000  0.08619000  1.0
  C  C110  1  0.60873000  0.64578000  0.14088000  1.0
  C  C111  1  0.64228000  0.60294000  0.10755000  1.0
  C  C112  1  0.08242000  0.12331000  0.17851000  1.0
  C  C113  1  0.17007000  0.12500000  0.07295000  1.0
  C  C114  1  0.01031000  0.16233000  0.16515000  1.0
  C  C115  1  0.24143000  0.08617000  0.08624000  1.0
  C  C116  1  0.11197000  0.13873000  0.10644000  1.0
  C  C117  1  0.14052000  0.10992000  0.14469000  1.0
  C  C118  1  0.34573000  0.84988000  0.84767000  1.0
  C  C119  1  0.40353000  0.90085000  0.90222000  1.0
  C  C120  1  0.30376000  0.92098000  0.86229000  1.0
  C  C121  1  0.44548000  0.82973000  0.88760000  1.0
  C  C122  1  0.33179000  0.94586000  0.88882000  1.0
  C  C123  1  0.41745000  0.80487000  0.86107000  1.0
  C  C124  1  0.40837000  0.44885000  0.85291000  1.0
  C  C125  1  0.34570000  0.30053000  0.89743000  1.0
  C  C126  1  0.33952000  0.49129000  0.83635000  1.0
  C  C127  1  0.41399000  0.25864000  0.91379000  1.0
  C  C128  1  0.34336000  0.36988000  0.87522000  1.0
  C  C129  1  0.41028000  0.37929000  0.87515000  1.0
  C  C130  1  0.94525000  0.79413000  0.84910000  1.0
  C  C131  1  0.80420000  0.95277000  0.90087000  1.0
  C  C132  1  0.99125000  0.83349000  0.83614000  1.0
  C  C133  1  0.75876000  0.91369000  0.91374000  1.0
  C  C134  1  0.87212000  0.90950000  0.87728000  1.0
  C  C135  1  0.87696000  0.83801000  0.87268000  1.0
  S  S136  1  0.29879000  0.32665000  0.39725000  1.0
  S  S137  1  0.45158000  0.42625000  0.35283000  1.0
  S  S138  1  0.66088000  0.63321000  0.56275000  1.0
  S  S139  1  0.58980000  0.61591000  0.68898000  1.0
  S  S140  1  0.13357000  0.16078000  0.56263000  1.0
  S  S141  1  0.11580000  0.08962000  0.68894000  1.0
  S  S142  1  0.97212000  0.80375000  0.40196000  1.0
  S  S143  1  0.77365000  0.94637000  0.34780000  1.0
  S  S144  1  0.61669000  0.58860000  0.18730000  1.0
  S  S145  1  0.63455000  0.66001000  0.06102000  1.0
  S  S146  1  0.01387000  0.18234000  0.11179000  1.0
  S  S147  1  0.23873000  0.06598000  0.13946000  1.0
  S  S148  1  0.27794000  0.44629000  0.84797000  1.0
  S  S149  1  0.47599000  0.30295000  0.90236000  1.0
  S  S150  1  0.95110000  0.92321000  0.85267000  1.0
  S  S151  1  0.79798000  0.82408000  0.89736000  1.0
  O  O152  1  0.00043000  0.49910000  0.50018000  1.0
  O  O153  1  0.07767000  0.31529000  0.52310000  1.0
  O  O154  1  0.03191000  0.53111000  0.58634000  1.0
  O  O155  1  0.15510000  0.50665000  0.44989000  1.0
  O  O156  1  0.02710000  0.37514000  0.58103000  1.0
  O  O157  1  0.15399000  0.39235000  0.44652000  1.0
  O  O158  1  0.08324000  0.58655000  0.53041000  1.0
  O  O159  1  0.00307000  0.65804000  0.44973000  1.0
  O  O160  1  0.88823000  0.49469000  0.44337000  1.0
  O  O161  1  0.89016000  0.65240000  0.44745000  1.0
  O  O162  1  0.99757000  0.38577000  0.44137000  1.0
  O  O163  1  0.87593000  0.52655000  0.58143000  1.0
  O  O164  1  0.81504000  0.57673000  0.52362000  1.0
  O  O165  1  0.74922000  0.25036000  0.25025000  1.0
  O  O166  1  0.59712000  0.35789000  0.30314000  1.0
  O  O167  1  0.66304000  0.16396000  0.21909000  1.0
  O  O168  1  0.72581000  0.37425000  0.16905000  1.0
  O  O169  1  0.59250000  0.24519000  0.29983000  1.0
  O  O170  1  0.67295000  0.43445000  0.22675000  1.0
  O  O171  1  0.72101000  0.21755000  0.16556000  1.0
  O  O172  1  0.87791000  0.22269000  0.16933000  1.0
  O  O173  1  0.86048000  0.25373000  0.30844000  1.0
  O  O174  1  0.93410000  0.17160000  0.22859000  1.0
  O  O175  1  0.75340000  0.36478000  0.30827000  1.0
  O  O176  1  0.74444000  0.09336000  0.29970000  1.0
  O  O177  1  0.85791000  0.09639000  0.30372000  1.0
  O  O178  1  0.25045000  0.74987000  0.74982000  1.0
  O  O179  1  0.37538000  0.72447000  0.66867000  1.0
  O  O180  1  0.36407000  0.75480000  0.80822000  1.0
  O  O181  1  0.17200000  0.93336000  0.72740000  1.0
  O  O182  1  0.43382000  0.67432000  0.72731000  1.0
  O  O183  1  0.22412000  0.87574000  0.66884000  1.0
  O  O184  1  0.25254000  0.86146000  0.80799000  1.0
  O  O185  1  0.09511000  0.85776000  0.80340000  1.0
  O  O186  1  0.16701000  0.66394000  0.71938000  1.0
  O  O187  1  0.09506000  0.74292000  0.80033000  1.0
  O  O188  1  0.21869000  0.71937000  0.66362000  1.0
  O  O189  1  0.35981000  0.59800000  0.80348000  1.0
  O  O190  1  0.24747000  0.59182000  0.80035000  1.0
  O  O191  1  0.49972000  0.00072000  0.99977000  1.0
  O  O192  1  0.50471000  0.15636000  0.95020000  1.0
  O  O193  1  0.38615000  0.99649000  0.94113000  1.0
  O  O194  1  0.65339000  0.89221000  0.94709000  1.0
  O  O195  1  0.39116000  0.15323000  0.94637000  1.0
  O  O196  1  0.65709000  0.00543000  0.95010000  1.0
  O  O197  1  0.49617000  0.88830000  0.94248000  1.0
  O  O198  1  0.57806000  0.81621000  0.02265000  1.0
  O  O199  1  0.53108000  0.03032000  0.08463000  1.0
  O  O200  1  0.52537000  0.87377000  0.08117000  1.0
  O  O201  1  0.58650000  0.08630000  0.03101000  1.0
  O  O202  1  0.31538000  0.07757000  0.02203000  1.0
  O  O203  1  0.37420000  0.02524000  0.08044000  1.0
  O  O204  1  0.28495000  0.52641000  0.41029000  1.0
  O  O205  1  0.78095000  0.53981000  0.65628000  1.0
  O  O206  1  0.04023000  0.28047000  0.65579000  1.0
  O  O207  1  0.78529000  0.77701000  0.40234000  1.0
  O  O208  1  0.71042000  0.46904000  0.09412000  1.0
  O  O209  1  0.09370000  0.10170000  0.21863000  1.0
  O  O210  1  0.46505000  0.47233000  0.84794000  1.0
  O  O211  1  0.96476000  0.72343000  0.83989000  1.0
  F  F212  1  0.78256000  0.51526000  0.39883000  1.0
  F  F213  1  0.96788000  0.23479000  0.35123000  1.0
  F  F214  1  0.16006000  0.66004000  0.54259000  1.0
  F  F215  1  0.09044000  0.59040000  0.70720000  1.0
  F  F216  1  0.70713000  0.20734000  0.09034000  1.0
  F  F217  1  0.54269000  0.04284000  0.15969000  1.0
  F  F218  1  0.23397000  0.96842000  0.85099000  1.0
  F  F219  1  0.51535000  0.78230000  0.89889000  1.0
