# generated using pymatgen
data_Zr3H10C50(NO)16
_symmetry_space_group_name_H-M   'P 1'
_cell_length_a   15.32660000
_cell_length_b   17.71940000
_cell_length_c   17.72840000
_cell_angle_alpha   88.15160000
_cell_angle_beta   89.97090000
_cell_angle_gamma   89.97990000
_symmetry_Int_Tables_number   1
_chemical_formula_structural   Zr3H10C50(NO)16
_chemical_formula_sum   'Zr6 H20 C100 N32 O32'
_cell_volume   4812.14008593
_cell_formula_units_Z   2
loop_
 _symmetry_equiv_pos_site_id
 _symmetry_equiv_pos_as_xyz
  1  'x, y, z'
loop_
 _atom_site_type_symbol
 _atom_site_label
 _atom_site_symmetry_multiplicity
 _atom_site_fract_x
 _atom_site_fract_y
 _atom_site_fract_z
 _atom_site_occupancy
  Zr  Zr0  1  0.99514000  0.14187000  0.99843000  1.0
  Zr  Zr1  1  0.99131000  0.99533000  0.14376000  1.0
  Zr  Zr2  1  0.99252000  0.00447000  0.85589000  1.0
  Zr  Zr3  1  0.99376000  0.85933000  0.99894000  1.0
  Zr  Zr4  1  0.15624000  0.99995000  0.99942000  1.0
  Zr  Zr5  1  0.83063000  0.00058000  0.99885000  1.0
  H  H6  1  0.86904000  0.11536000  0.10960000  1.0
  H  H7  1  0.11094000  0.88269000  0.12099000  1.0
  H  H8  1  0.86929000  0.88465000  0.88753000  1.0
  H  H9  1  0.11805000  0.11505000  0.88159000  1.0
  H  H10  1  0.95668000  0.88283000  0.24579000  1.0
  H  H11  1  0.93650000  0.75140000  0.11058000  1.0
  H  H12  1  0.03062000  0.75470000  0.89697000  1.0
  H  H13  1  0.99015000  0.84936000  0.83345000  1.0
  H  H14  1  0.95468000  0.11691000  0.75232000  1.0
  H  H15  1  0.99124000  0.17058000  0.84443000  1.0
  H  H16  1  0.03633000  0.24398000  0.10211000  1.0
  H  H17  1  0.99135000  0.15055000  0.16503000  1.0
  H  H18  1  0.03836000  0.88272000  0.75894000  1.0
  H  H19  1  0.03571000  0.24747000  0.87289000  1.0
  H  H20  1  0.03541000  0.11674000  0.24130000  1.0
  H  H21  1  0.04071000  0.74565000  0.12341000  1.0
  H  H22  1  0.65626000  0.50078000  0.99340000  1.0
  H  H23  1  0.33560000  0.49959000  0.99588000  1.0
  H  H24  1  0.65347000  0.99869000  0.49822000  1.0
  H  H25  1  0.33294000  0.99816000  0.49917000  1.0
  C  C26  1  0.20635000  0.17739000  0.00218000  1.0
  C  C27  1  0.77838000  0.99555000  0.17391000  1.0
  C  C28  1  0.20720000  0.00187000  0.17341000  1.0
  C  C29  1  0.78245000  0.17612000  0.98875000  1.0
  C  C30  1  0.78203000  0.00487000  0.82133000  1.0
  C  C31  1  0.20622000  0.82318000  0.99350000  1.0
  C  C32  1  0.77903000  0.82539000  0.00982000  1.0
  C  C33  1  0.20511000  0.99909000  0.82250000  1.0
  C  C34  1  0.54228000  0.43094000  0.99387000  1.0
  C  C35  1  0.45019000  0.43061000  0.99474000  1.0
  C  C36  1  0.40656000  0.49987000  0.99554000  1.0
  C  C37  1  0.44948000  0.56939000  0.99614000  1.0
  C  C38  1  0.54160000  0.56969000  0.99558000  1.0
  C  C39  1  0.58526000  0.50052000  0.99402000  1.0
  C  C40  1  0.53901000  0.99703000  0.42927000  1.0
  C  C41  1  0.44689000  0.99776000  0.42942000  1.0
  C  C42  1  0.40392000  0.99832000  0.49895000  1.0
  C  C43  1  0.44734000  0.99936000  0.56822000  1.0
  C  C44  1  0.53947000  0.00045000  0.56798000  1.0
  C  C45  1  0.58248000  0.99867000  0.49849000  1.0
  C  C46  1  0.71420000  0.00566000  0.75971000  1.0
  C  C47  1  0.64616000  0.95280000  0.75941000  1.0
  C  C48  1  0.58950000  0.94941000  0.69605000  1.0
  C  C49  1  0.59562000  0.00304000  0.63586000  1.0
  C  C50  1  0.66172000  0.05859000  0.63879000  1.0
  C  C51  1  0.72181000  0.05833000  0.69903000  1.0
  C  C52  1  0.63287000  0.89976000  0.82062000  1.0
  C  C53  1  0.67038000  0.11499000  0.57999000  1.0
  C  C54  1  0.78983000  0.11327000  0.69825000  1.0
  C  C55  1  0.52974000  0.88807000  0.69225000  1.0
  C  C56  1  0.39106000  0.99907000  0.63628000  1.0
  C  C57  1  0.32634000  0.94251000  0.64490000  1.0
  C  C58  1  0.26692000  0.94336000  0.70556000  1.0
  C  C59  1  0.27224000  0.99888000  0.76021000  1.0
  C  C60  1  0.33693000  0.05455000  0.75300000  1.0
  C  C61  1  0.39499000  0.05559000  0.69034000  1.0
  C  C62  1  0.31847000  0.88411000  0.59179000  1.0
  C  C63  1  0.34211000  0.11323000  0.80610000  1.0
  C  C64  1  0.45453000  0.11691000  0.68081000  1.0
  C  C65  1  0.20125000  0.88653000  0.71158000  1.0
  C  C66  1  0.71051000  0.99385000  0.23544000  1.0
  C  C67  1  0.64394000  0.04791000  0.23795000  1.0
  C  C68  1  0.58797000  0.05020000  0.30186000  1.0
  C  C69  1  0.59443000  0.99526000  0.36082000  1.0
  C  C70  1  0.65973000  0.93908000  0.35605000  1.0
  C  C71  1  0.71805000  0.93939000  0.29454000  1.0
  C  C72  1  0.63265000  0.10317000  0.17841000  1.0
  C  C73  1  0.66922000  0.88216000  0.41425000  1.0
  C  C74  1  0.78370000  0.88246000  0.29127000  1.0
  C  C75  1  0.52866000  0.11173000  0.30742000  1.0
  C  C76  1  0.27397000  0.00125000  0.23594000  1.0
  C  C77  1  0.26726000  0.05541000  0.29193000  1.0
  C  C78  1  0.32587000  0.05525000  0.35317000  1.0
  C  C79  1  0.39077000  0.99872000  0.36128000  1.0
  C  C80  1  0.39539000  0.94308000  0.30636000  1.0
  C  C81  1  0.33852000  0.94539000  0.24289000  1.0
  C  C82  1  0.20093000  0.11183000  0.28732000  1.0
  C  C83  1  0.45415000  0.88115000  0.31582000  1.0
  C  C84  1  0.34476000  0.88737000  0.18911000  1.0
  C  C85  1  0.31690000  0.11239000  0.40758000  1.0
  C  C86  1  0.59655000  0.63837000  0.99799000  1.0
  C  C87  1  0.66053000  0.65165000  0.94153000  1.0
  C  C88  1  0.71612000  0.71488000  0.94429000  1.0
  C  C89  1  0.71125000  0.76403000  0.00485000  1.0
  C  C90  1  0.64658000  0.75287000  0.05976000  1.0
  C  C91  1  0.58979000  0.68964000  0.05683000  1.0
  C  C92  1  0.67097000  0.60078000  0.88141000  1.0
  C  C93  1  0.63779000  0.80441000  0.11938000  1.0
  C  C94  1  0.52865000  0.67726000  0.11648000  1.0
  C  C95  1  0.77312000  0.73316000  0.88281000  1.0
  C  C96  1  0.39341000  0.63751000  0.99701000  1.0
  C  C97  1  0.40017000  0.69674000  0.94226000  1.0
  C  C98  1  0.34306000  0.76003000  0.94331000  1.0
  C  C99  1  0.27486000  0.76197000  0.99583000  1.0
  C  C100  1  0.26758000  0.70282000  0.05026000  1.0
  C  C101  1  0.32661000  0.64177000  0.05186000  1.0
  C  C102  1  0.46084000  0.69239000  0.88165000  1.0
  C  C103  1  0.20012000  0.70523000  0.10544000  1.0
  C  C104  1  0.31507000  0.58348000  0.10840000  1.0
  C  C105  1  0.35492000  0.81974000  0.88839000  1.0
  C  C106  1  0.71446000  0.23753000  0.99116000  1.0
  C  C107  1  0.64946000  0.24602000  0.93612000  1.0
  C  C108  1  0.59188000  0.30892000  0.93664000  1.0
  C  C109  1  0.59811000  0.36263000  0.99328000  1.0
  C  C110  1  0.66251000  0.35220000  0.04982000  1.0
  C  C111  1  0.71913000  0.28946000  0.04933000  1.0
  C  C112  1  0.64078000  0.19243000  0.87828000  1.0
  C  C113  1  0.67242000  0.40557000  0.10781000  1.0
  C  C114  1  0.77715000  0.27570000  0.11110000  1.0
  C  C115  1  0.53019000  0.31853000  0.87703000  1.0
  C  C116  1  0.27475000  0.23872000  0.99920000  1.0
  C  C117  1  0.34339000  0.24104000  0.05124000  1.0
  C  C118  1  0.40102000  0.30399000  0.05099000  1.0
  C  C119  1  0.39434000  0.36231000  0.99530000  1.0
  C  C120  1  0.32704000  0.35767000  0.94109000  1.0
  C  C121  1  0.26700000  0.29741000  0.94434000  1.0
  C  C122  1  0.35475000  0.18234000  0.10732000  1.0
  C  C123  1  0.31626000  0.41499000  0.88346000  1.0
  C  C124  1  0.19814000  0.29636000  0.89045000  1.0
  C  C125  1  0.46214000  0.30923000  0.11110000  1.0
  N  N126  1  0.84591000  0.15783000  0.69683000  1.0
  N  N127  1  0.48165000  0.83722000  0.68851000  1.0
  N  N128  1  0.68033000  0.15984000  0.53102000  1.0
  N  N129  1  0.61720000  0.85547000  0.86883000  1.0
  N  N130  1  0.50307000  0.16735000  0.67293000  1.0
  N  N131  1  0.14676000  0.84066000  0.71658000  1.0
  N  N132  1  0.34584000  0.16236000  0.84825000  1.0
  N  N133  1  0.30827000  0.83756000  0.54747000  1.0
  N  N134  1  0.83709000  0.83574000  0.28755000  1.0
  N  N135  1  0.48076000  0.16264000  0.31214000  1.0
  N  N136  1  0.68014000  0.83725000  0.46300000  1.0
  N  N137  1  0.62033000  0.14895000  0.13084000  1.0
  N  N138  1  0.34996000  0.83829000  0.14699000  1.0
  N  N139  1  0.30604000  0.15760000  0.45315000  1.0
  N  N140  1  0.50178000  0.83004000  0.32373000  1.0
  N  N141  1  0.14635000  0.15777000  0.28469000  1.0
  N  N142  1  0.47849000  0.66783000  0.16551000  1.0
  N  N143  1  0.81554000  0.75342000  0.83132000  1.0
  N  N144  1  0.62964000  0.84713000  0.16760000  1.0
  N  N145  1  0.68351000  0.55722000  0.83456000  1.0
  N  N146  1  0.30082000  0.53490000  0.15278000  1.0
  N  N147  1  0.36762000  0.86763000  0.84304000  1.0
  N  N148  1  0.14409000  0.70846000  0.14973000  1.0
  N  N149  1  0.50911000  0.68932000  0.83085000  1.0
  N  N150  1  0.82031000  0.26118000  0.16386000  1.0
  N  N151  1  0.47925000  0.32597000  0.82835000  1.0
  N  N152  1  0.68440000  0.45121000  0.15274000  1.0
  N  N153  1  0.63170000  0.14891000  0.83092000  1.0
  N  N154  1  0.14110000  0.29597000  0.84695000  1.0
  N  N155  1  0.51103000  0.31360000  0.16128000  1.0
  N  N156  1  0.30337000  0.46294000  0.83810000  1.0
  N  N157  1  0.36662000  0.13538000  0.15380000  1.0
  O  O158  1  0.12849000  0.20178000  0.00070000  1.0
  O  O159  1  0.23254000  0.10974000  0.00489000  1.0
  O  O160  1  0.85580000  0.99250000  0.19816000  1.0
  O  O161  1  0.75197000  0.00051000  0.10619000  1.0
  O  O162  1  0.12993000  0.01040000  0.19559000  1.0
  O  O163  1  0.23444000  0.99303000  0.10653000  1.0
  O  O164  1  0.85990000  0.19997000  0.98727000  1.0
  O  O165  1  0.75533000  0.10843000  0.98984000  1.0
  O  O166  1  0.99321000  0.20466000  0.09526000  1.0
  O  O167  1  0.99216000  0.20902000  0.88797000  1.0
  O  O168  1  0.99013000  0.10562000  0.20414000  1.0
  O  O169  1  0.00262000  0.90999000  0.21825000  1.0
  O  O170  1  0.06380000  0.05659000  0.05621000  1.0
  O  O171  1  0.90133000  0.08068000  0.07850000  1.0
  O  O172  1  0.86005000  0.00799000  0.79775000  1.0
  O  O173  1  0.75512000  0.00028000  0.88877000  1.0
  O  O174  1  0.12855000  0.79863000  0.99416000  1.0
  O  O175  1  0.23242000  0.89074000  0.99186000  1.0
  O  O176  1  0.85630000  0.80087000  0.01717000  1.0
  O  O177  1  0.75289000  0.89295000  0.00457000  1.0
  O  O178  1  0.12722000  0.99364000  0.79978000  1.0
  O  O179  1  0.23267000  0.00513000  0.88940000  1.0
  O  O180  1  0.99162000  0.89473000  0.79455000  1.0
  O  O181  1  0.99742000  0.10454000  0.79183000  1.0
  O  O182  1  0.98891000  0.79539000  0.90267000  1.0
  O  O183  1  0.99317000  0.76821000  0.09206000  1.0
  O  O184  1  0.90107000  0.91914000  0.91925000  1.0
  O  O185  1  0.06320000  0.94264000  0.94120000  1.0
  O  O186  1  0.92438000  0.05924000  0.93911000  1.0
  O  O187  1  0.08361000  0.91425000  0.08177000  1.0
  O  O188  1  0.08664000  0.08234000  0.91726000  1.0
  O  O189  1  0.92201000  0.93971000  0.05948000  1.0
