# generated using pymatgen
data_Co5H38C36(N13O7)2
_symmetry_space_group_name_H-M   'P 1'
_cell_length_a   9.27104000
_cell_length_b   12.79590000
_cell_length_c   14.10970000
_cell_angle_alpha   105.07800000
_cell_angle_beta   96.84850000
_cell_angle_gamma   96.02420000
_symmetry_Int_Tables_number   1
_chemical_formula_structural   Co5H38C36(N13O7)2
_chemical_formula_sum   'Co5 H38 C36 N26 O14'
_cell_volume   1588.47245648
_cell_formula_units_Z   1
loop_
 _symmetry_equiv_pos_site_id
 _symmetry_equiv_pos_as_xyz
  1  'x, y, z'
loop_
 _atom_site_type_symbol
 _atom_site_label
 _atom_site_symmetry_multiplicity
 _atom_site_fract_x
 _atom_site_fract_y
 _atom_site_fract_z
 _atom_site_occupancy
  Co  Co0  1  0.00001000  0.00014000  0.00014000  1.0
  Co  Co1  1  0.55239000  0.07385000  0.27356000  1.0
  Co  Co2  1  0.44755000  0.92630000  0.72625000  1.0
  Co  Co3  1  0.04449000  0.28819000  0.12270000  1.0
  Co  Co4  1  0.95547000  0.71170000  0.87745000  1.0
  H  H5  1  0.29978000  0.63344000  0.14919000  1.0
  H  H6  1  0.70019000  0.36650000  0.85066000  1.0
  H  H7  1  0.44552000  0.87114000  0.43173000  1.0
  H  H8  1  0.55436000  0.12877000  0.56816000  1.0
  H  H9  1  0.23388000  0.55148000  0.42027000  1.0
  H  H10  1  0.76609000  0.44837000  0.57955000  1.0
  H  H11  1  0.95470000  0.02652000  0.77797000  1.0
  H  H12  1  0.04532000  0.97360000  0.22229000  1.0
  H  H13  1  0.29765000  0.94788000  0.09794000  1.0
  H  H14  1  0.70232000  0.05231000  0.90208000  1.0
  H  H15  1  0.79753000  0.26216000  0.26562000  1.0
  H  H16  1  0.20234000  0.73804000  0.73457000  1.0
  H  H17  1  0.72505000  0.28568000  0.00825000  1.0
  H  H18  1  0.27507000  0.71417000  0.99172000  1.0
  H  H19  1  0.73917000  0.50077000  0.23570000  1.0
  H  H20  1  0.26090000  0.49905000  0.76423000  1.0
  H  H21  1  0.54276000  0.47995000  0.22436000  1.0
  H  H22  1  0.45729000  0.51989000  0.77560000  1.0
  H  H23  1  0.63130000  0.57083000  0.16509000  1.0
  H  H24  1  0.36875000  0.42896000  0.83482000  1.0
  H  H25  1  0.43423000  0.42664000  0.01798000  1.0
  H  H26  1  0.56590000  0.57325000  0.98195000  1.0
  H  H27  1  0.41079000  0.32622000  0.08248000  1.0
  H  H28  1  0.58916000  0.67367000  0.91738000  1.0
  H  H29  1  0.49657000  0.29776000  0.97161000  1.0
  H  H30  1  0.50347000  0.70213000  0.02830000  1.0
  H  H31  1  0.73189000  0.86140000  0.03355000  1.0
  H  H32  1  0.26820000  0.13881000  0.96654000  1.0
  H  H33  1  0.59715000  0.88673000  0.11192000  1.0
  H  H34  1  0.40287000  0.11337000  0.88811000  1.0
  H  H35  1  0.08858000  0.42994000  0.99289000  1.0
  H  H36  1  0.91146000  0.57016000  0.00716000  1.0
  H  H37  1  0.04916000  0.41829000  0.86590000  1.0
  H  H38  1  0.95078000  0.58165000  0.13408000  1.0
  H  H39  1  0.48403000  0.30343000  0.31630000  1.0
  H  H40  1  0.51607000  0.69661000  0.68372000  1.0
  H  H41  1  0.31705000  0.35349000  0.29441000  1.0
  H  H42  1  0.68301000  0.64660000  0.70566000  1.0
  C  C43  1  0.18615000  0.47076000  0.21979000  1.0
  C  C44  1  0.81376000  0.52899000  0.78000000  1.0
  C  C45  1  0.25900000  0.58140000  0.27849000  1.0
  C  C46  1  0.74095000  0.41838000  0.72126000  1.0
  C  C47  1  0.31263000  0.65660000  0.22997000  1.0
  C  C48  1  0.68735000  0.34332000  0.76989000  1.0
  C  C49  1  0.38060000  0.76088000  0.28511000  1.0
  C  C50  1  0.61935000  0.23911000  0.71475000  1.0
  C  C51  1  0.39387000  0.78960000  0.38877000  1.0
  C  C52  1  0.60608000  0.21030000  0.61108000  1.0
  C  C53  1  0.34257000  0.71454000  0.43776000  1.0
  C  C54  1  0.65741000  0.28526000  0.56201000  1.0
  C  C55  1  0.27480000  0.61015000  0.38252000  1.0
  C  C56  1  0.72516000  0.38964000  0.61723000  1.0
  C  C57  1  0.36450000  0.74716000  0.54913000  1.0
  C  C58  1  0.63546000  0.25260000  0.45066000  1.0
  C  C59  1  0.43936000  0.84330000  0.23602000  1.0
  C  C60  1  0.56050000  0.15682000  0.76390000  1.0
  C  C61  1  0.02101000  0.27432000  0.90430000  1.0
  C  C62  1  0.97901000  0.72579000  0.09585000  1.0
  C  C63  1  0.97714000  0.10499000  0.83382000  1.0
  C  C64  1  0.02287000  0.89510000  0.16646000  1.0
  C  C65  1  0.32437000  0.20360000  0.20699000  1.0
  C  C66  1  0.67573000  0.79656000  0.79311000  1.0
  C  C67  1  0.28454000  0.03329000  0.12461000  1.0
  C  C68  1  0.71542000  0.96691000  0.87546000  1.0
  C  C69  1  0.75655000  0.01731000  0.12286000  1.0
  C  C70  1  0.24351000  0.98289000  0.87729000  1.0
  C  C71  1  0.80316000  0.18602000  0.21060000  1.0
  C  C72  1  0.19674000  0.81418000  0.78959000  1.0
  C  C73  1  0.74672000  0.35674000  0.07463000  1.0
  C  C74  1  0.25339000  0.64306000  0.92537000  1.0
  C  C75  1  0.63629000  0.49423000  0.18627000  1.0
  C  C76  1  0.36377000  0.50559000  0.81368000  1.0
  C  C77  1  0.48415000  0.36006000  0.03882000  1.0
  C  C78  1  0.51593000  0.63981000  0.96112000  1.0
  N  N79  1  0.89770000  0.17362000  0.14673000  1.0
  N  N80  1  0.10230000  0.82661000  0.85352000  1.0
  N  N81  1  0.87031000  0.06587000  0.09038000  1.0
  N  N82  1  0.12975000  0.93438000  0.90986000  1.0
  N  N83  1  0.71337000  0.09134000  0.19947000  1.0
  N  N84  1  0.28659000  0.90883000  0.80064000  1.0
  N  N85  1  0.69093000  0.91341000  0.08730000  1.0
  N  N86  1  0.30922000  0.08674000  0.91286000  1.0
  N  N87  1  0.99381000  0.11394000  0.93168000  1.0
  N  N88  1  0.00622000  0.88626000  0.06860000  1.0
  N  N89  1  0.02119000  0.22427000  0.97899000  1.0
  N  N90  1  0.97885000  0.77594000  0.02122000  1.0
  N  N91  1  0.99228000  0.20193000  0.81307000  1.0
  N  N92  1  0.00772000  0.79812000  0.18713000  1.0
  N  N93  1  0.04504000  0.38406000  0.92277000  1.0
  N  N94  1  0.95500000  0.61603000  0.07728000  1.0
  N  N95  1  0.17241000  0.07852000  0.09357000  1.0
  N  N96  1  0.82756000  0.92172000  0.90663000  1.0
  N  N97  1  0.19741000  0.18857000  0.14425000  1.0
  N  N98  1  0.80263000  0.81165000  0.85595000  1.0
  N  N99  1  0.38182000  0.10765000  0.19601000  1.0
  N  N100  1  0.61825000  0.89252000  0.80401000  1.0
  N  N101  1  0.38815000  0.30054000  0.26968000  1.0
  N  N102  1  0.61196000  0.69961000  0.73040000  1.0
  N  N103  1  0.62811000  0.40232000  0.09845000  1.0
  N  N104  1  0.37197000  0.59748000  0.90153000  1.0
  O  O105  1  0.18151000  0.44021000  0.12544000  1.0
  O  O106  1  0.81842000  0.55943000  0.87436000  1.0
  O  O107  1  0.12966000  0.40388000  0.26377000  1.0
  O  O108  1  0.87022000  0.59589000  0.73607000  1.0
  O  O109  1  0.50088000  0.93525000  0.29689000  1.0
  O  O110  1  0.49873000  0.06497000  0.70299000  1.0
  O  O111  1  0.42863000  0.82219000  0.14261000  1.0
  O  O112  1  0.57137000  0.17786000  0.85731000  1.0
  O  O113  1  0.40614000  0.85118000  0.58890000  1.0
  O  O114  1  0.59374000  0.14861000  0.41092000  1.0
  O  O115  1  0.34689000  0.67819000  0.59727000  1.0
  O  O116  1  0.65312000  0.32155000  0.40247000  1.0
  O  O117  1  0.87393000  0.39135000  0.12293000  1.0
  O  O118  1  0.12617000  0.60838000  0.87709000  1.0
