# generated using pymatgen
data_FeH2(C2O3)2
_symmetry_space_group_name_H-M   'P 1'
_cell_length_a   8.01264000
_cell_length_b   8.18286000
_cell_length_c   16.05340000
_cell_angle_alpha   87.95050000
_cell_angle_beta   87.65410000
_cell_angle_gamma   92.18250000
_symmetry_Int_Tables_number   1
_chemical_formula_structural   FeH2(C2O3)2
_chemical_formula_sum   'Fe6 H12 C24 O36'
_cell_volume   1050.18273584
_cell_formula_units_Z   6
loop_
 _symmetry_equiv_pos_site_id
 _symmetry_equiv_pos_as_xyz
  1  'x, y, z'
loop_
 _atom_site_type_symbol
 _atom_site_label
 _atom_site_symmetry_multiplicity
 _atom_site_fract_x
 _atom_site_fract_y
 _atom_site_fract_z
 _atom_site_occupancy
  Fe  Fe0  1  0.50033000  0.99508000  0.99970000  1.0
  Fe  Fe1  1  0.00530000  0.50226000  0.50098000  1.0
  Fe  Fe2  1  0.99462000  0.50243000  0.99864000  1.0
  Fe  Fe3  1  0.49696000  0.00608000  0.50077000  1.0
  Fe  Fe4  1  0.51936000  0.47912000  0.75042000  1.0
  Fe  Fe5  1  0.48250000  0.51712000  0.24960000  1.0
  H  H6  1  0.74385000  0.46534000  0.08784000  1.0
  H  H7  1  0.53638000  0.24944000  0.41170000  1.0
  H  H8  1  0.28204000  0.52420000  0.94720000  1.0
  H  H9  1  0.46666000  0.72571000  0.55140000  1.0
  H  H10  1  0.52448000  0.77080000  0.09700000  1.0
  H  H11  1  0.23519000  0.47683000  0.40325000  1.0
  H  H12  1  0.50057000  0.26905000  0.94982000  1.0
  H  H13  1  0.72384000  0.49627000  0.54999000  1.0
  H  H14  1  0.68761000  0.52028000  0.87140000  1.0
  H  H15  1  0.47708000  0.31180000  0.63064000  1.0
  H  H16  1  0.30946000  0.47944000  0.13018000  1.0
  H  H17  1  0.52208000  0.68779000  0.36811000  1.0
  C  C18  1  0.12212000  0.96604000  0.00985000  1.0
  C  C19  1  0.03491000  0.88185000  0.49007000  1.0
  C  C20  1  0.87822000  0.04121000  0.98939000  1.0
  C  C21  1  0.95780000  0.12229000  0.51058000  1.0
  C  C22  1  0.95765000  0.87987000  0.99920000  1.0
  C  C23  1  0.12190000  0.04412000  0.49929000  1.0
  C  C24  1  0.04304000  0.12786000  0.99991000  1.0
  C  C25  1  0.87028000  0.95957000  0.50143000  1.0
  C  C26  1  0.52318000  0.02813000  0.68976000  1.0
  C  C27  1  0.97265000  0.47639000  0.81085000  1.0
  C  C28  1  0.47829000  0.97020000  0.31048000  1.0
  C  C29  1  0.02830000  0.52087000  0.18905000  1.0
  C  C30  1  0.51674000  0.86089000  0.72937000  1.0
  C  C31  1  0.14143000  0.48116000  0.76968000  1.0
  C  C32  1  0.48532000  0.13605000  0.27030000  1.0
  C  C33  1  0.86051000  0.51434000  0.23054000  1.0
  C  C34  1  0.51519000  0.93502000  0.81369000  1.0
  C  C35  1  0.06412000  0.48767000  0.68629000  1.0
  C  C36  1  0.48884000  0.06175000  0.18639000  1.0
  C  C37  1  0.93753000  0.51015000  0.31397000  1.0
  C  C38  1  0.52679000  0.10059000  0.77200000  1.0
  C  C39  1  0.89654000  0.47799000  0.72957000  1.0
  C  C40  1  0.47699000  0.89766000  0.22861000  1.0
  C  C41  1  0.10379000  0.52086000  0.27031000  1.0
  O  O42  1  0.26208000  0.91135000  0.02448000  1.0
  O  O43  1  0.08776000  0.74366000  0.47545000  1.0
  O  O44  1  0.73634000  0.09231000  0.97586000  1.0
  O  O45  1  0.90810000  0.26207000  0.52410000  1.0
  O  O46  1  0.90186000  0.73575000  0.99807000  1.0
  O  O47  1  0.26844000  0.10211000  0.49853000  1.0
  O  O48  1  0.09765000  0.27261000  0.00179000  1.0
  O  O49  1  0.72314000  0.90282000  0.50129000  1.0
  O  O50  1  0.52747000  0.09745000  0.61841000  1.0
  O  O51  1  0.90431000  0.47019000  0.88321000  1.0
  O  O52  1  0.47536000  0.90601000  0.38320000  1.0
  O  O53  1  0.09122000  0.52455000  0.11558000  1.0
  O  O54  1  0.79486000  0.42246000  0.03647000  1.0
  O  O55  1  0.58491000  0.19781000  0.46128000  1.0
  O  O56  1  0.18514000  0.59275000  0.95380000  1.0
  O  O57  1  0.40011000  0.82343000  0.54765000  1.0
  O  O58  1  0.50688000  0.87709000  0.88636000  1.0
  O  O59  1  0.12149000  0.49765000  0.61296000  1.0
  O  O60  1  0.50081000  0.11625000  0.11281000  1.0
  O  O61  1  0.88481000  0.49824000  0.38810000  1.0
  O  O62  1  0.57474000  0.81072000  0.04210000  1.0
  O  O63  1  0.19707000  0.43342000  0.45951000  1.0
  O  O64  1  0.42056000  0.17512000  0.95258000  1.0
  O  O65  1  0.81778000  0.57698000  0.54651000  1.0
  O  O66  1  0.53806000  0.24157000  0.79846000  1.0
  O  O67  1  0.75183000  0.47102000  0.70326000  1.0
  O  O68  1  0.46987000  0.75556000  0.20085000  1.0
  O  O69  1  0.24864000  0.52631000  0.29820000  1.0
  O  O70  1  0.51550000  0.72159000  0.70097000  1.0
  O  O71  1  0.28390000  0.47812000  0.79845000  1.0
  O  O72  1  0.48877000  0.27567000  0.30016000  1.0
  O  O73  1  0.71846000  0.51140000  0.20013000  1.0
  O  O74  1  0.57389000  0.53900000  0.85220000  1.0
  O  O75  1  0.45801000  0.42399000  0.64902000  1.0
  O  O76  1  0.42090000  0.45341000  0.15013000  1.0
  O  O77  1  0.54883000  0.57797000  0.34882000  1.0
