# generated using pymatgen
data_CoH24C32(N2O3)2
_symmetry_space_group_name_H-M   'P 1'
_cell_length_a   10.93620000
_cell_length_b   15.67470000
_cell_length_c   19.00470000
_cell_angle_alpha   105.40000000
_cell_angle_beta   90.00000000
_cell_angle_gamma   89.99980000
_symmetry_Int_Tables_number   1
_chemical_formula_structural   CoH24C32(N2O3)2
_chemical_formula_sum   'Co4 H96 C128 N16 O24'
_cell_volume   3140.84650398
_cell_formula_units_Z   4
loop_
 _symmetry_equiv_pos_site_id
 _symmetry_equiv_pos_as_xyz
  1  'x, y, z'
loop_
 _atom_site_type_symbol
 _atom_site_label
 _atom_site_symmetry_multiplicity
 _atom_site_fract_x
 _atom_site_fract_y
 _atom_site_fract_z
 _atom_site_occupancy
  Co  Co0  1  0.93267000  0.99678000  0.60858000  1.0
  Co  Co1  1  0.43266000  0.00322000  0.89141000  1.0
  Co  Co2  1  0.06734000  0.00322000  0.39141000  1.0
  Co  Co3  1  0.56733000  0.99678000  0.10858000  1.0
  H  H4  1  0.13178000  0.55592000  0.66944000  1.0
  H  H5  1  0.63179000  0.44408000  0.83056000  1.0
  H  H6  1  0.86821000  0.44408000  0.33056000  1.0
  H  H7  1  0.36822000  0.55592000  0.16944000  1.0
  H  H8  1  0.34012000  0.22429000  0.69696000  1.0
  H  H9  1  0.84012000  0.77570000  0.80304000  1.0
  H  H10  1  0.65988000  0.77571000  0.30303000  1.0
  H  H11  1  0.15988000  0.22429000  0.19696000  1.0
  H  H12  1  0.14502000  0.26077000  0.64315000  1.0
  H  H13  1  0.64501000  0.73923000  0.85684000  1.0
  H  H14  1  0.85499000  0.73923000  0.35685000  1.0
  H  H15  1  0.35499000  0.26077000  0.14315000  1.0
  H  H16  1  0.75582000  0.44500000  0.58607000  1.0
  H  H17  1  0.25582000  0.55500000  0.91393000  1.0
  H  H18  1  0.24418000  0.55500000  0.41393000  1.0
  H  H19  1  0.74419000  0.44500000  0.08607000  1.0
  H  H20  1  0.52323000  0.31627000  0.69844000  1.0
  H  H21  1  0.02322000  0.68373000  0.80157000  1.0
  H  H22  1  0.47678000  0.68373000  0.30157000  1.0
  H  H23  1  0.97678000  0.31628000  0.19843000  1.0
  H  H24  1  0.13339000  0.39030000  0.59336000  1.0
  H  H25  1  0.63338000  0.60970000  0.90664000  1.0
  H  H26  1  0.86661000  0.60970000  0.40664000  1.0
  H  H27  1  0.36661000  0.39030000  0.09336000  1.0
  H  H28  1  0.61594000  0.57127000  0.61184000  1.0
  H  H29  1  0.11594000  0.42873000  0.88816000  1.0
  H  H30  1  0.38405000  0.42874000  0.38816000  1.0
  H  H31  1  0.88406000  0.57128000  0.11185000  1.0
  H  H32  1  0.41924000  0.61081000  0.56253000  1.0
  H  H33  1  0.91925000  0.38918000  0.93747000  1.0
  H  H34  1  0.58075000  0.38919000  0.43747000  1.0
  H  H35  1  0.08075000  0.61082000  0.06254000  1.0
  H  H36  1  0.93427000  0.58610000  0.65061000  1.0
  H  H37  1  0.43428000  0.41391000  0.84939000  1.0
  H  H38  1  0.06572000  0.41391000  0.34939000  1.0
  H  H39  1  0.56573000  0.58609000  0.15061000  1.0
  H  H40  1  0.95096000  0.54579000  0.55526000  1.0
  H  H41  1  0.45095000  0.45421000  0.94474000  1.0
  H  H42  1  0.04905000  0.45421000  0.44474000  1.0
  H  H43  1  0.54904000  0.54579000  0.05526000  1.0
  H  H44  1  0.16725000  0.72490000  0.64053000  1.0
  H  H45  1  0.66726000  0.27511000  0.85947000  1.0
  H  H46  1  0.83274000  0.27511000  0.35947000  1.0
  H  H47  1  0.33275000  0.72489000  0.14053000  1.0
  H  H48  1  0.13866000  0.88027000  0.63219000  1.0
  H  H49  1  0.63866000  0.11973000  0.86781000  1.0
  H  H50  1  0.86134000  0.11974000  0.36781000  1.0
  H  H51  1  0.36134000  0.88026000  0.13219000  1.0
  H  H52  1  0.80270000  0.66897000  0.55312000  1.0
  H  H53  1  0.30270000  0.33103000  0.94687000  1.0
  H  H54  1  0.19730000  0.33103000  0.44688000  1.0
  H  H55  1  0.69730000  0.66897000  0.05312000  1.0
  H  H56  1  0.78914000  0.82762000  0.54987000  1.0
  H  H57  1  0.28914000  0.17238000  0.95012000  1.0
  H  H58  1  0.21086000  0.17238000  0.45012000  1.0
  H  H59  1  0.71086000  0.82761000  0.04987000  1.0
  H  H60  1  0.88463000  0.44949000  0.72401000  1.0
  H  H61  1  0.38463000  0.55051000  0.77599000  1.0
  H  H62  1  0.11536000  0.55051000  0.27599000  1.0
  H  H63  1  0.61537000  0.44948000  0.22401000  1.0
  H  H64  1  0.94876000  0.43733000  0.63580000  1.0
  H  H65  1  0.44876000  0.56267000  0.86420000  1.0
  H  H66  1  0.05124000  0.56268000  0.36420000  1.0
  H  H67  1  0.55124000  0.43732000  0.13580000  1.0
  H  H68  1  0.86571000  0.31819000  0.76831000  1.0
  H  H69  1  0.36571000  0.68181000  0.73169000  1.0
  H  H70  1  0.13428000  0.68181000  0.23169000  1.0
  H  H71  1  0.63428000  0.31819000  0.26831000  1.0
  H  H72  1  0.88130000  0.15297000  0.74256000  1.0
  H  H73  1  0.38129000  0.84703000  0.75744000  1.0
  H  H74  1  0.11870000  0.84703000  0.25744000  1.0
  H  H75  1  0.61870000  0.15297000  0.24256000  1.0
  H  H76  1  0.91813000  0.12406000  0.52094000  1.0
  H  H77  1  0.41813000  0.87594000  0.97906000  1.0
  H  H78  1  0.08187000  0.87594000  0.47906000  1.0
  H  H79  1  0.58187000  0.12405000  0.02093000  1.0
  H  H80  1  0.90105000  0.28692000  0.53661000  1.0
  H  H81  1  0.40105000  0.71308000  0.96339000  1.0
  H  H82  1  0.09895000  0.71308000  0.46339000  1.0
  H  H83  1  0.59895000  0.28691000  0.03660000  1.0
  H  H84  1  0.21448000  0.01737000  0.67616000  1.0
  H  H85  1  0.71449000  0.98263000  0.82384000  1.0
  H  H86  1  0.78552000  0.98263000  0.32384000  1.0
  H  H87  1  0.28552000  0.01737000  0.17616000  1.0
  H  H88  1  0.40846000  0.08659000  0.50181000  1.0
  H  H89  1  0.90847000  0.91341000  0.99819000  1.0
  H  H90  1  0.59153000  0.91342000  0.49819000  1.0
  H  H91  1  0.09154000  0.08659000  0.00181000  1.0
  H  H92  1  0.60286000  0.09902000  0.57330000  1.0
  H  H93  1  0.10286000  0.90098000  0.92670000  1.0
  H  H94  1  0.39714000  0.90098000  0.42670000  1.0
  H  H95  1  0.89714000  0.09902000  0.07329000  1.0
  H  H96  1  0.60428000  0.05796000  0.69156000  1.0
  H  H97  1  0.10428000  0.94205000  0.80845000  1.0
  H  H98  1  0.39572000  0.94205000  0.30844000  1.0
  H  H99  1  0.89572000  0.05795000  0.19155000  1.0
  C  C100  1  0.33516000  0.28247000  0.67589000  1.0
  C  C101  1  0.83515000  0.71753000  0.82412000  1.0
  C  C102  1  0.66485000  0.71753000  0.32412000  1.0
  C  C103  1  0.16484000  0.28247000  0.17588000  1.0
  C  C104  1  0.22474000  0.30322000  0.64561000  1.0
  C  C105  1  0.72473000  0.69678000  0.85440000  1.0
  C  C106  1  0.77526000  0.69678000  0.35439000  1.0
  C  C107  1  0.27526000  0.30322000  0.14560000  1.0
  C  C108  1  0.43768000  0.33391000  0.67671000  1.0
  C  C109  1  0.93767000  0.66609000  0.82330000  1.0
  C  C110  1  0.56233000  0.66608000  0.32329000  1.0
  C  C111  1  0.06232000  0.33392000  0.17670000  1.0
  C  C112  1  0.21826000  0.37595000  0.61790000  1.0
  C  C113  1  0.71825000  0.62405000  0.88211000  1.0
  C  C114  1  0.78174000  0.62405000  0.38211000  1.0
  C  C115  1  0.28174000  0.37595000  0.11790000  1.0
  C  C116  1  0.43446000  0.40940000  0.64847000  1.0
  C  C117  1  0.93446000  0.59060000  0.85154000  1.0
  C  C118  1  0.56555000  0.59060000  0.35153000  1.0
  C  C119  1  0.06554000  0.40940000  0.14847000  1.0
  C  C120  1  0.32120000  0.43181000  0.61912000  1.0
  C  C121  1  0.82120000  0.56819000  0.88089000  1.0
  C  C122  1  0.67881000  0.56819000  0.38088000  1.0
  C  C123  1  0.17880000  0.43182000  0.11912000  1.0
  C  C124  1  0.54035000  0.46233000  0.64590000  1.0
  C  C125  1  0.04035000  0.53767000  0.85411000  1.0
  C  C126  1  0.45965000  0.53767000  0.35411000  1.0
  C  C127  1  0.95965000  0.46233000  0.14590000  1.0
  C  C128  1  0.31763000  0.50747000  0.59031000  1.0
  C  C129  1  0.81764000  0.49252000  0.90969000  1.0
  C  C130  1  0.68237000  0.49252000  0.40969000  1.0
  C  C131  1  0.18237000  0.50748000  0.09031000  1.0
  C  C132  1  0.53442000  0.53188000  0.61377000  1.0
  C  C133  1  0.03442000  0.46811000  0.88624000  1.0
  C  C134  1  0.46557000  0.46812000  0.38624000  1.0
  C  C135  1  0.96558000  0.53189000  0.11377000  1.0
  C  C136  1  0.42320000  0.55451000  0.58605000  1.0
  C  C137  1  0.92320000  0.44549000  0.91396000  1.0
  C  C138  1  0.57680000  0.44549000  0.41396000  1.0
  C  C139  1  0.07680000  0.55452000  0.08605000  1.0
  C  C140  1  0.20026000  0.54035000  0.56608000  1.0
  C  C141  1  0.70027000  0.45965000  0.93393000  1.0
  C  C142  1  0.79973000  0.45965000  0.43392000  1.0
  C  C143  1  0.29974000  0.54035000  0.06608000  1.0
  C  C144  1  0.99182000  0.59048000  0.60417000  1.0
  C  C145  1  0.49182000  0.40952000  0.89583000  1.0
  C  C146  1  0.00818000  0.40952000  0.39583000  1.0
  C  C147  1  0.50818000  0.59048000  0.10417000  1.0
  C  C148  1  0.98630000  0.68419000  0.59806000  1.0
  C  C149  1  0.48630000  0.31582000  0.90194000  1.0
  C  C150  1  0.01370000  0.31582000  0.40194000  1.0
  C  C151  1  0.51370000  0.68418000  0.09806000  1.0
  C  C152  1  0.08180000  0.74455000  0.61977000  1.0
  C  C153  1  0.58180000  0.25546000  0.88023000  1.0
  C  C154  1  0.91820000  0.25546000  0.38023000  1.0
  C  C155  1  0.41820000  0.74454000  0.11977000  1.0
  C  C156  1  0.06673000  0.83100000  0.61519000  1.0
  C  C157  1  0.56673000  0.16901000  0.88481000  1.0
  C  C158  1  0.93327000  0.16901000  0.38481000  1.0
  C  C159  1  0.43327000  0.83099000  0.11519000  1.0
  C  C160  1  0.87941000  0.71385000  0.57167000  1.0
  C  C161  1  0.37941000  0.28615000  0.92833000  1.0
  C  C162  1  0.12059000  0.28615000  0.42833000  1.0
  C  C163  1  0.62060000  0.71385000  0.07167000  1.0
  C  C164  1  0.87103000  0.80139000  0.56928000  1.0
  C  C165  1  0.37103000  0.19861000  0.93072000  1.0
  C  C166  1  0.12897000  0.19861000  0.43072000  1.0
  C  C167  1  0.62897000  0.80138000  0.06928000  1.0
  C  C168  1  0.65752000  0.44326000  0.67919000  1.0
  C  C169  1  0.15752000  0.55674000  0.82081000  1.0
  C  C170  1  0.34248000  0.55674000  0.32081000  1.0
  C  C171  1  0.84248000  0.44326000  0.17919000  1.0
  C  C172  1  0.87521000  0.41518000  0.66591000  1.0
  C  C173  1  0.37521000  0.58482000  0.83409000  1.0
  C  C174  1  0.12479000  0.58482000  0.33409000  1.0
  C  C175  1  0.62479000  0.41517000  0.16591000  1.0
  C  C176  1  0.88353000  0.31622000  0.65448000  1.0
  C  C177  1  0.38354000  0.68378000  0.84552000  1.0
  C  C178  1  0.11646000  0.68378000  0.34552000  1.0
  C  C179  1  0.61646000  0.31621000  0.15448000  1.0
  C  C180  1  0.87711000  0.27725000  0.71256000  1.0
  C  C181  1  0.37711000  0.72274000  0.78744000  1.0
  C  C182  1  0.12288000  0.72274000  0.28744000  1.0
  C  C183  1  0.62288000  0.27725000  0.21255000  1.0
  C  C184  1  0.88541000  0.18562000  0.69865000  1.0
  C  C185  1  0.38541000  0.81438000  0.80134000  1.0
  C  C186  1  0.11458000  0.81438000  0.30134000  1.0
  C  C187  1  0.61458000  0.18562000  0.19865000  1.0
  C  C188  1  0.90481000  0.16945000  0.57471000  1.0
  C  C189  1  0.40481000  0.83055000  0.92529000  1.0
  C  C190  1  0.09519000  0.83055000  0.42529000  1.0
  C  C191  1  0.59518000  0.16945000  0.07471000  1.0
  C  C192  1  0.89656000  0.26019000  0.58405000  1.0
  C  C193  1  0.39657000  0.73981000  0.91595000  1.0
  C  C194  1  0.10343000  0.73981000  0.41595000  1.0
  C  C195  1  0.60343000  0.26019000  0.08405000  1.0
  C  C196  1  0.40914000  0.03660000  0.69114000  1.0
  C  C197  1  0.90914000  0.96341000  0.80887000  1.0
  C  C198  1  0.59086000  0.96340000  0.30886000  1.0
  C  C199  1  0.09086000  0.03660000  0.19114000  1.0
  C  C200  1  0.29957000  0.03326000  0.65247000  1.0
  C  C201  1  0.79958000  0.96674000  0.84754000  1.0
  C  C202  1  0.70043000  0.96674000  0.34753000  1.0
  C  C203  1  0.20043000  0.03326000  0.15247000  1.0
  C  C204  1  0.30049000  0.04865000  0.58309000  1.0
  C  C205  1  0.80050000  0.95135000  0.91691000  1.0
  C  C206  1  0.69950000  0.95135000  0.41691000  1.0
  C  C207  1  0.19951000  0.04866000  0.08309000  1.0
  C  C208  1  0.40944000  0.07457000  0.55569000  1.0
  C  C209  1  0.90944000  0.92542000  0.94431000  1.0
  C  C210  1  0.59056000  0.92543000  0.44431000  1.0
  C  C211  1  0.09056000  0.07457000  0.05568000  1.0
  C  C212  1  0.51775000  0.08096000  0.59556000  1.0
  C  C213  1  0.01775000  0.91904000  0.90444000  1.0
  C  C214  1  0.48225000  0.91905000  0.40444000  1.0
  C  C215  1  0.98225000  0.08095000  0.09555000  1.0
  C  C216  1  0.51893000  0.05929000  0.66215000  1.0
  C  C217  1  0.01894000  0.94072000  0.83786000  1.0
  C  C218  1  0.48107000  0.94072000  0.33785000  1.0
  C  C219  1  0.98107000  0.05928000  0.16214000  1.0
  C  C220  1  0.18867000  0.03080000  0.53625000  1.0
  C  C221  1  0.68867000  0.96919000  0.96374000  1.0
  C  C222  1  0.81133000  0.96920000  0.46374000  1.0
  C  C223  1  0.31133000  0.03080000  0.03625000  1.0
  C  C224  1  0.41086000  0.01447000  0.76264000  1.0
  C  C225  1  0.91087000  0.98553000  0.73736000  1.0
  C  C226  1  0.58913000  0.98553000  0.23736000  1.0
  C  C227  1  0.08913000  0.01447000  0.26263000  1.0
  N  N228  1  0.11192000  0.55888000  0.61705000  1.0
  N  N229  1  0.61192000  0.44112000  0.88295000  1.0
  N  N230  1  0.88808000  0.44112000  0.38295000  1.0
  N  N231  1  0.38808000  0.55888000  0.11705000  1.0
  N  N232  1  0.96293000  0.85968000  0.59091000  1.0
  N  N233  1  0.46294000  0.14032000  0.90909000  1.0
  N  N234  1  0.03707000  0.14032000  0.40909000  1.0
  N  N235  1  0.53706000  0.85967000  0.09091000  1.0
  N  N236  1  0.75962000  0.44089000  0.63915000  1.0
  N  N237  1  0.25962000  0.55911000  0.86085000  1.0
  N  N238  1  0.24038000  0.55911000  0.36085000  1.0
  N  N239  1  0.74038000  0.44089000  0.13915000  1.0
  N  N240  1  0.90002000  0.13205000  0.63094000  1.0
  N  N241  1  0.40002000  0.86795000  0.86905000  1.0
  N  N242  1  0.09998000  0.86795000  0.36905000  1.0
  N  N243  1  0.59998000  0.13205000  0.13094000  1.0
  O  O244  1  0.18699000  0.55144000  0.50359000  1.0
  O  O245  1  0.68700000  0.44855000  0.99642000  1.0
  O  O246  1  0.81300000  0.44855000  0.49642000  1.0
  O  O247  1  0.31301000  0.55145000  0.00359000  1.0
  O  O248  1  0.66141000  0.42958000  0.74107000  1.0
  O  O249  1  0.16142000  0.57042000  0.75892000  1.0
  O  O250  1  0.33858000  0.57042000  0.25893000  1.0
  O  O251  1  0.83859000  0.42958000  0.24107000  1.0
  O  O252  1  0.19964000  0.03153000  0.46947000  1.0
  O  O253  1  0.69963000  0.96846000  0.03052000  1.0
  O  O254  1  0.80036000  0.96847000  0.53052000  1.0
  O  O255  1  0.30036000  0.03153000  0.96947000  1.0
  O  O256  1  0.09000000  0.01105000  0.56370000  1.0
  O  O257  1  0.59000000  0.98896000  0.93629000  1.0
  O  O258  1  0.91000000  0.98895000  0.43629000  1.0
  O  O259  1  0.41000000  0.01104000  0.06370000  1.0
  O  O260  1  0.31370000  0.01744000  0.80052000  1.0
  O  O261  1  0.81371000  0.98256000  0.69948000  1.0
  O  O262  1  0.68630000  0.98255000  0.19948000  1.0
  O  O263  1  0.18630000  0.01744000  0.30052000  1.0
  O  O264  1  0.51290000  0.99395000  0.78705000  1.0
  O  O265  1  0.01291000  0.00605000  0.71295000  1.0
  O  O266  1  0.48709000  0.00604000  0.21295000  1.0
  O  O267  1  0.98710000  0.99395000  0.28705000  1.0
