# generated using pymatgen
data_FeH8PtC12SN6
_symmetry_space_group_name_H-M   'P 1'
_cell_length_a   9.76347000
_cell_length_b   9.77787000
_cell_length_c   15.76111794
_cell_angle_alpha   106.25504926
_cell_angle_beta   106.17088095
_cell_angle_gamma   91.25640000
_symmetry_Int_Tables_number   1
_chemical_formula_structural   FeH8PtC12SN6
_chemical_formula_sum   'Fe4 H32 Pt4 C48 S4 N24'
_cell_volume   1379.18631054
_cell_formula_units_Z   4
loop_
 _symmetry_equiv_pos_site_id
 _symmetry_equiv_pos_as_xyz
  1  'x, y, z'
loop_
 _atom_site_type_symbol
 _atom_site_label
 _atom_site_symmetry_multiplicity
 _atom_site_fract_x
 _atom_site_fract_y
 _atom_site_fract_z
 _atom_site_occupancy
  Fe  Fe0  1  0.50000000  0.00000000  0.00000000  1.0
  Fe  Fe1  1  0.00000000  0.50000000  0.00000000  1.0
  Fe  Fe2  1  0.24971000  0.75035000  0.50001000  1.0
  Fe  Fe3  1  0.75029000  0.24965000  0.49999000  1.0
  H  H4  1  0.50366000  0.31042000  0.99869000  1.0
  H  H5  1  0.49634000  0.68958000  0.00131000  1.0
  H  H6  1  0.31089000  0.50417000  0.99874000  1.0
  H  H7  1  0.68910000  0.49582000  0.00125000  1.0
  H  H8  1  0.80188000  0.01413000  0.99794000  1.0
  H  H9  1  0.19812000  0.98587000  0.00206000  1.0
  H  H10  1  0.01374000  0.80154000  0.99798000  1.0
  H  H11  1  0.98627000  0.19847000  0.00203000  1.0
  H  H12  1  0.27795000  0.06811000  0.53195000  1.0
  H  H13  1  0.25224000  0.46385000  0.53442000  1.0
  H  H14  1  0.53659000  0.74814000  0.46558000  1.0
  H  H15  1  0.93156000  0.72158000  0.46809000  1.0
  H  H16  1  0.72203000  0.93188000  0.46804000  1.0
  H  H17  1  0.74776000  0.53615000  0.46558000  1.0
  H  H18  1  0.46341000  0.25186000  0.53442000  1.0
  H  H19  1  0.06844000  0.27842000  0.53191000  1.0
  H  H20  1  0.45983000  0.94852000  0.74020000  1.0
  H  H21  1  0.28555000  0.79995000  0.75450000  1.0
  H  H22  1  0.19984000  0.71429000  0.24548000  1.0
  H  H23  1  0.05172000  0.54027000  0.25982000  1.0
  H  H24  1  0.54017000  0.05149000  0.25981000  1.0
  H  H25  1  0.71445000  0.20005000  0.24550000  1.0
  H  H26  1  0.80015000  0.28571000  0.75452000  1.0
  H  H27  1  0.94827000  0.45972000  0.74017000  1.0
  H  H28  1  0.36044000  0.19993000  0.75468000  1.0
  H  H29  1  0.39672000  0.55915000  0.76285000  1.0
  H  H30  1  0.44116000  0.60356000  0.23712000  1.0
  H  H31  1  0.79983000  0.63920000  0.24533000  1.0
  H  H32  1  0.63956000  0.80009000  0.24533000  1.0
  H  H33  1  0.60328000  0.44085000  0.23715000  1.0
  H  H34  1  0.55883000  0.39644000  0.76288000  1.0
  H  H35  1  0.20017000  0.36080000  0.75466000  1.0
  Pt  Pt36  1  0.10286000  0.10294000  0.75093000  1.0
  Pt  Pt37  1  0.64654000  0.64645000  0.74895000  1.0
  Pt  Pt38  1  0.35346000  0.35355000  0.25105000  1.0
  Pt  Pt39  1  0.89714000  0.89705000  0.24907000  1.0
  C  C40  1  0.25558000  0.06054000  0.84974000  1.0
  C  C41  1  0.59449000  0.78997000  0.84809000  1.0
  C  C42  1  0.21029000  0.40578000  0.15187000  1.0
  C  C43  1  0.93928000  0.74412000  0.15028000  1.0
  C  C44  1  0.74442000  0.93946000  0.15026000  1.0
  C  C45  1  0.40551000  0.21003000  0.15191000  1.0
  C  C46  1  0.78971000  0.59423000  0.84814000  1.0
  C  C47  1  0.06071000  0.25587000  0.84972000  1.0
  C  C48  1  0.15550000  0.96074000  0.65162000  1.0
  C  C49  1  0.49311000  0.68800000  0.65016000  1.0
  C  C50  1  0.31218000  0.50727000  0.34981000  1.0
  C  C51  1  0.03902000  0.84424000  0.34841000  1.0
  C  C52  1  0.84451000  0.03926000  0.34839000  1.0
  C  C53  1  0.50689000  0.31199000  0.34984000  1.0
  C  C54  1  0.68782000  0.49273000  0.65019000  1.0
  C  C55  1  0.96098000  0.15576000  0.65159000  1.0
  C  C56  1  0.61184000  0.28522000  0.99918000  1.0
  C  C57  1  0.38816000  0.71478000  0.00082000  1.0
  C  C58  1  0.28551000  0.61216000  0.99923000  1.0
  C  C59  1  0.71449000  0.38784000  0.00077000  1.0
  C  C60  1  0.77584000  0.12191000  0.99891000  1.0
  C  C61  1  0.22416000  0.87809000  0.00109000  1.0
  C  C62  1  0.12171000  0.77568000  0.99895000  1.0
  C  C63  1  0.87830000  0.22433000  0.00106000  1.0
  C  C64  1  0.37724000  0.03713000  0.51741000  1.0
  C  C65  1  0.13925000  0.48029000  0.51876000  1.0
  C  C66  1  0.51995000  0.86096000  0.48124000  1.0
  C  C67  1  0.96269000  0.62251000  0.48262000  1.0
  C  C68  1  0.62276000  0.96287000  0.48259000  1.0
  C  C69  1  0.86076000  0.51972000  0.48125000  1.0
  C  C70  1  0.48004000  0.13904000  0.51876000  1.0
  C  C71  1  0.03731000  0.37749000  0.51738000  1.0
  C  C72  1  0.51706000  0.04740000  0.74481000  1.0
  C  C73  1  0.23042000  0.70192000  0.75294000  1.0
  C  C74  1  0.29796000  0.76947000  0.24706000  1.0
  C  C75  1  0.95278000  0.48300000  0.25521000  1.0
  C  C76  1  0.48293000  0.95261000  0.25519000  1.0
  C  C77  1  0.76958000  0.29808000  0.24706000  1.0
  C  C78  1  0.70204000  0.23053000  0.75294000  1.0
  C  C79  1  0.04722000  0.51699000  0.74478000  1.0
  C  C80  1  0.46866000  0.17979000  0.75253000  1.0
  C  C81  1  0.28506000  0.57501000  0.75724000  1.0
  C  C82  1  0.42511000  0.71504000  0.24273000  1.0
  C  C83  1  0.82014000  0.53118000  0.24749000  1.0
  C  C84  1  0.53134000  0.82021000  0.24747000  1.0
  C  C85  1  0.71494000  0.42499000  0.24276000  1.0
  C  C86  1  0.57489000  0.28497000  0.75727000  1.0
  C  C87  1  0.17986000  0.46881000  0.75250000  1.0
  S  S88  1  0.69178000  0.05122000  0.74299000  1.0
  S  S89  1  0.05087000  0.69146000  0.74299000  1.0
  S  S90  1  0.30822000  0.94879000  0.25701000  1.0
  S  S91  1  0.94912000  0.30853000  0.25700000  1.0
  N  N92  1  0.35208000  0.04379000  0.90819000  1.0
  N  N93  1  0.55786000  0.86700000  0.90733000  1.0
  N  N94  1  0.13329000  0.44233000  0.09266000  1.0
  N  N95  1  0.95596000  0.64757000  0.09180000  1.0
  N  N96  1  0.64792000  0.95621000  0.09181000  1.0
  N  N97  1  0.44214000  0.13301000  0.09267000  1.0
  N  N98  1  0.86671000  0.55767000  0.90734000  1.0
  N  N99  1  0.04405000  0.35243000  0.90820000  1.0
  N  N100  1  0.19290000  0.88489000  0.59232000  1.0
  N  N101  1  0.39594000  0.70440000  0.59196000  1.0
  N  N102  1  0.29589000  0.60447000  0.40806000  1.0
  N  N103  1  0.11484000  0.80694000  0.40769000  1.0
  N  N104  1  0.80710000  0.11511000  0.40768000  1.0
  N  N105  1  0.60406000  0.29560000  0.40804000  1.0
  N  N106  1  0.70411000  0.39553000  0.59194000  1.0
  N  N107  1  0.88516000  0.19306000  0.59231000  1.0
  N  N108  1  0.64081000  0.15042000  0.99825000  1.0
  N  N109  1  0.35919000  0.84958000  0.00175000  1.0
  N  N110  1  0.15046000  0.64088000  0.99828000  1.0
  N  N111  1  0.84954000  0.35912000  0.00172000  1.0
  N  N112  1  0.39547000  0.89637000  0.49866000  1.0
  N  N113  1  0.10365000  0.60453000  0.50136000  1.0
  N  N114  1  0.60453000  0.10363000  0.50134000  1.0
  N  N115  1  0.89635000  0.39547000  0.49864000  1.0
