# generated using pymatgen
data_AgH13C9S(NO)3
_symmetry_space_group_name_H-M   'P 1'
_cell_length_a   5.32240000
_cell_length_b   10.51160000
_cell_length_c   10.98140000
_cell_angle_alpha   70.37730000
_cell_angle_beta   83.32290000
_cell_angle_gamma   86.84420000
_symmetry_Int_Tables_number   1
_chemical_formula_structural   AgH13C9S(NO)3
_chemical_formula_sum   'Ag2 H26 C18 S2 N6 O6'
_cell_volume   574.68625456
_cell_formula_units_Z   2
loop_
 _symmetry_equiv_pos_site_id
 _symmetry_equiv_pos_as_xyz
  1  'x, y, z'
loop_
 _atom_site_type_symbol
 _atom_site_label
 _atom_site_symmetry_multiplicity
 _atom_site_fract_x
 _atom_site_fract_y
 _atom_site_fract_z
 _atom_site_occupancy
  Ag  Ag0  1  0.69467000  0.59378000  0.51818000  1.0
  Ag  Ag1  1  0.30534000  0.40623000  0.48183000  1.0
  H  H2  1  0.47354000  0.89055000  0.74712000  1.0
  H  H3  1  0.52644000  0.10944000  0.25289000  1.0
  H  H4  1  0.88513000  0.51017000  0.80641000  1.0
  H  H5  1  0.11487000  0.48984000  0.19360000  1.0
  H  H6  1  0.98011000  0.34300000  0.81172000  1.0
  H  H7  1  0.01990000  0.65700000  0.18827000  1.0
  H  H8  1  0.69477000  0.24348000  0.00949000  1.0
  H  H9  1  0.30525000  0.75651000  0.99051000  1.0
  H  H10  1  0.88049000  0.36388000  0.03518000  1.0
  H  H11  1  0.11954000  0.63611000  0.96481000  1.0
  H  H12  1  0.44203000  0.37843000  0.12485000  1.0
  H  H13  1  0.55801000  0.62157000  0.87515000  1.0
  H  H14  1  0.32726000  0.40211000  0.97429000  1.0
  H  H15  1  0.67275000  0.59789000  0.02573000  1.0
  H  H16  1  0.26690000  0.12101000  0.47297000  1.0
  H  H17  1  0.73307000  0.87900000  0.52702000  1.0
  H  H18  1  0.16124000  0.96912000  0.59931000  1.0
  H  H19  1  0.83872000  0.03088000  0.40070000  1.0
  H  H20  1  0.01085000  0.12894000  0.58773000  1.0
  H  H21  1  0.98914000  0.87107000  0.41227000  1.0
  H  H22  1  0.77738000  0.91439000  0.00887000  1.0
  H  H23  1  0.22263000  0.08560000  0.99112000  1.0
  H  H24  1  0.79009000  0.81632000  0.90232000  1.0
  H  H25  1  0.20991000  0.18368000  0.09766000  1.0
  H  H26  1  0.02387000  0.93828000  0.88190000  1.0
  H  H27  1  0.97614000  0.06172000  0.11809000  1.0
  C  C28  1  0.37071000  0.10044000  0.66032000  1.0
  C  C29  1  0.62928000  0.89957000  0.33968000  1.0
  C  C30  1  0.50089000  0.99363000  0.74414000  1.0
  C  C31  1  0.49910000  0.00639000  0.25585000  1.0
  C  C32  1  0.66865000  0.02285000  0.81949000  1.0
  C  C33  1  0.33137000  0.97716000  0.18051000  1.0
  C  C34  1  0.56675000  0.24692000  0.73342000  1.0
  C  C35  1  0.43324000  0.75308000  0.26658000  1.0
  C  C36  1  0.82372000  0.40514000  0.83686000  1.0
  C  C37  1  0.17627000  0.59486000  0.16312000  1.0
  C  C38  1  0.72667000  0.35240000  0.98080000  1.0
  C  C39  1  0.27330000  0.64760000  0.01922000  1.0
  C  C40  1  0.48780000  0.42355000  0.01915000  1.0
  C  C41  1  0.51221000  0.57642000  0.98087000  1.0
  C  C42  1  0.19205000  0.07719000  0.57563000  1.0
  C  C43  1  0.80793000  0.92282000  0.42438000  1.0
  C  C44  1  0.82167000  0.91589000  0.90814000  1.0
  C  C45  1  0.17832000  0.08411000  0.09184000  1.0
  S  S46  1  0.58154000  0.41524000  0.73002000  1.0
  S  S47  1  0.41846000  0.58476000  0.26998000  1.0
  N  N48  1  0.40713000  0.22911000  0.65377000  1.0
  N  N49  1  0.59287000  0.77089000  0.34623000  1.0
  N  N50  1  0.69885000  0.15142000  0.81457000  1.0
  N  N51  1  0.30115000  0.84858000  0.18542000  1.0
  N  N52  1  0.15346000  0.69780000  0.64139000  1.0
  N  N53  1  0.84655000  0.30220000  0.35861000  1.0
  O  O54  1  0.37471000  0.73091000  0.64904000  1.0
  O  O55  1  0.62531000  0.26907000  0.35098000  1.0
  O  O56  1  0.12304000  0.63389000  0.56247000  1.0
  O  O57  1  0.87697000  0.36612000  0.43752000  1.0
  O  O58  1  0.96536000  0.72642000  0.70872000  1.0
  O  O59  1  0.03463000  0.27359000  0.29128000  1.0
