# generated using pymatgen
data_H14PbC17S(NO3)2
_symmetry_space_group_name_H-M   'P 1'
_cell_length_a   7.01007000
_cell_length_b   11.27380000
_cell_length_c   11.59810000
_cell_angle_alpha   98.81240000
_cell_angle_beta   97.40040000
_cell_angle_gamma   102.78800000
_symmetry_Int_Tables_number   1
_chemical_formula_structural   H14PbC17S(NO3)2
_chemical_formula_sum   'H28 Pb2 C34 S2 N4 O12'
_cell_volume   870.62998192
_cell_formula_units_Z   2
loop_
 _symmetry_equiv_pos_site_id
 _symmetry_equiv_pos_as_xyz
  1  'x, y, z'
loop_
 _atom_site_type_symbol
 _atom_site_label
 _atom_site_symmetry_multiplicity
 _atom_site_fract_x
 _atom_site_fract_y
 _atom_site_fract_z
 _atom_site_occupancy
  H  H0  1  0.72913000  0.84465000  0.35531000  1.0
  H  H1  1  0.27088000  0.15535000  0.64469000  1.0
  H  H2  1  0.16447000  0.62710000  0.37048000  1.0
  H  H3  1  0.83553000  0.37291000  0.62952000  1.0
  H  H4  1  0.42776000  0.81440000  0.37347000  1.0
  H  H5  1  0.57224000  0.18561000  0.62654000  1.0
  H  H6  1  0.34437000  0.01640000  0.36262000  1.0
  H  H7  1  0.65563000  0.98361000  0.63738000  1.0
  H  H8  1  0.39166000  0.12498000  0.21835000  1.0
  H  H9  1  0.60834000  0.87502000  0.78166000  1.0
  H  H10  1  0.16072000  0.04190000  0.02736000  1.0
  H  H11  1  0.83928000  0.95810000  0.97265000  1.0
  H  H12  1  0.28383000  0.08764000  0.83869000  1.0
  H  H13  1  0.71616000  0.91236000  0.16131000  1.0
  H  H14  1  0.62534000  0.21273000  0.85222000  1.0
  H  H15  1  0.37466000  0.78727000  0.14779000  1.0
  H  H16  1  0.90772000  0.30805000  0.86984000  1.0
  H  H17  1  0.09227000  0.69194000  0.13015000  1.0
  H  H18  1  0.25660000  0.42358000  0.90260000  1.0
  H  H19  1  0.74338000  0.57640000  0.09739000  1.0
  H  H20  1  0.45339000  0.48030000  0.11342000  1.0
  H  H21  1  0.54661000  0.51969000  0.88656000  1.0
  H  H22  1  0.27982000  0.42052000  0.27642000  1.0
  H  H23  1  0.72019000  0.57948000  0.72357000  1.0
  H  H24  1  0.48679000  0.31894000  0.48489000  1.0
  H  H25  1  0.51322000  0.68106000  0.51511000  1.0
  H  H26  1  0.34561000  0.22473000  0.37796000  1.0
  H  H27  1  0.65439000  0.77527000  0.62204000  1.0
  Pb  Pb28  1  0.83817000  0.29847000  0.34659000  1.0
  Pb  Pb29  1  0.16183000  0.70153000  0.65341000  1.0
  C  C30  1  0.97104000  0.06062000  0.34162000  1.0
  C  C31  1  0.02896000  0.93938000  0.65838000  1.0
  C  C32  1  0.02955000  0.94194000  0.35326000  1.0
  C  C33  1  0.97046000  0.05807000  0.64674000  1.0
  C  C34  1  0.88129000  0.83686000  0.35678000  1.0
  C  C35  1  0.11871000  0.16314000  0.64323000  1.0
  C  C36  1  0.92945000  0.72468000  0.36346000  1.0
  C  C37  1  0.07055000  0.27533000  0.63654000  1.0
  C  C38  1  0.12636000  0.71536000  0.36682000  1.0
  C  C39  1  0.87364000  0.28465000  0.63319000  1.0
  C  C40  1  0.27449000  0.82107000  0.36670000  1.0
  C  C41  1  0.72552000  0.17894000  0.63331000  1.0
  C  C42  1  0.22710000  0.93402000  0.36022000  1.0
  C  C43  1  0.77290000  0.06599000  0.63978000  1.0
  C  C44  1  0.43897000  0.14248000  0.13550000  1.0
  C  C45  1  0.56103000  0.85753000  0.86450000  1.0
  C  C46  1  0.30992000  0.09687000  0.02834000  1.0
  C  C47  1  0.69007000  0.90313000  0.97167000  1.0
  C  C48  1  0.37736000  0.12286000  0.92499000  1.0
  C  C49  1  0.62263000  0.87715000  0.07501000  1.0
  C  C50  1  0.57067000  0.19266000  0.93257000  1.0
  C  C51  1  0.42933000  0.80735000  0.06743000  1.0
  C  C52  1  0.69379000  0.23419000  0.04331000  1.0
  C  C53  1  0.30620000  0.76581000  0.95669000  1.0
  C  C54  1  0.90395000  0.30367000  0.05643000  1.0
  C  C55  1  0.09604000  0.69633000  0.94357000  1.0
  C  C56  1  0.99188000  0.33360000  0.95939000  1.0
  C  C57  1  0.00812000  0.66639000  0.04061000  1.0
  C  C58  1  0.19034000  0.39838000  0.97817000  1.0
  C  C59  1  0.80965000  0.60161000  0.02181000  1.0
  C  C60  1  0.29752000  0.43097000  0.09296000  1.0
  C  C61  1  0.70248000  0.56902000  0.90703000  1.0
  C  C62  1  0.20091000  0.39762000  0.18528000  1.0
  C  C63  1  0.79909000  0.60238000  0.81471000  1.0
  S  S64  1  0.74149000  0.59136000  0.37204000  1.0
  S  S65  1  0.25851000  0.40864000  0.62796000  1.0
  N  N66  1  0.62527000  0.20897000  0.14293000  1.0
  N  N67  1  0.37474000  0.79103000  0.85708000  1.0
  N  N68  1  0.00957000  0.33632000  0.16715000  1.0
  N  N69  1  0.99043000  0.66368000  0.83285000  1.0
  O  O70  1  0.10385000  0.15536000  0.33302000  1.0
  O  O71  1  0.89614000  0.84465000  0.66698000  1.0
  O  O72  1  0.78882000  0.06122000  0.33808000  1.0
  O  O73  1  0.21118000  0.93879000  0.66192000  1.0
  O  O74  1  0.80600000  0.55400000  0.48398000  1.0
  O  O75  1  0.19401000  0.44600000  0.51602000  1.0
  O  O76  1  0.55418000  0.62990000  0.36749000  1.0
  O  O77  1  0.44583000  0.37010000  0.63251000  1.0
  O  O78  1  0.74160000  0.49770000  0.26770000  1.0
  O  O79  1  0.25841000  0.50230000  0.73230000  1.0
  O  O80  1  0.48579000  0.27272000  0.40513000  1.0
  O  O81  1  0.51421000  0.72728000  0.59486000  1.0
