# generated using pymatgen
data_ZnH16C11(N2Cl)2
_symmetry_space_group_name_H-M   'P 1'
_cell_length_a   8.72375000
_cell_length_b   9.23165000
_cell_length_c   17.65060000
_cell_angle_alpha   99.18560000
_cell_angle_beta   90.00000000
_cell_angle_gamma   89.99990000
_symmetry_Int_Tables_number   1
_chemical_formula_structural   ZnH16C11(N2Cl)2
_chemical_formula_sum   'Zn4 H64 C44 N16 Cl8'
_cell_volume   1403.25560826
_cell_formula_units_Z   4
loop_
 _symmetry_equiv_pos_site_id
 _symmetry_equiv_pos_as_xyz
  1  'x, y, z'
loop_
 _atom_site_type_symbol
 _atom_site_label
 _atom_site_symmetry_multiplicity
 _atom_site_fract_x
 _atom_site_fract_y
 _atom_site_fract_z
 _atom_site_occupancy
  Zn  Zn0  1  0.67969000  0.85293000  0.14348000  1.0
  Zn  Zn1  1  0.17969000  0.64707000  0.35652000  1.0
  Zn  Zn2  1  0.32031000  0.14707000  0.85652000  1.0
  Zn  Zn3  1  0.82031000  0.35293000  0.64348000  1.0
  H  H4  1  0.00205000  0.32077000  0.97779000  1.0
  H  H5  1  0.50205000  0.17924000  0.52221000  1.0
  H  H6  1  0.99795000  0.67923000  0.02221000  1.0
  H  H7  1  0.49795000  0.82077000  0.47779000  1.0
  H  H8  1  0.23490000  0.21208000  0.04200000  1.0
  H  H9  1  0.73490000  0.28792000  0.45800000  1.0
  H  H10  1  0.76510000  0.78792000  0.95800000  1.0
  H  H11  1  0.26510000  0.71208000  0.54200000  1.0
  H  H12  1  0.26927000  0.12148000  0.11990000  1.0
  H  H13  1  0.76927000  0.37852000  0.38010000  1.0
  H  H14  1  0.73073000  0.87852000  0.88010000  1.0
  H  H15  1  0.23073000  0.62148000  0.61990000  1.0
  H  H16  1  0.87662000  0.40903000  0.05018000  1.0
  H  H17  1  0.37662000  0.09097000  0.44982000  1.0
  H  H18  1  0.12338000  0.59097000  0.94982000  1.0
  H  H19  1  0.62338000  0.90903000  0.55018000  1.0
  H  H20  1  0.80033000  0.29245000  0.96894000  1.0
  H  H21  1  0.30033000  0.20755000  0.53106000  1.0
  H  H22  1  0.19967000  0.70755000  0.03106000  1.0
  H  H23  1  0.69967000  0.79245000  0.46894000  1.0
  H  H24  1  0.06985000  0.96880000  0.22897000  1.0
  H  H25  1  0.56985000  0.53120000  0.27103000  1.0
  H  H26  1  0.93015000  0.03120000  0.77103000  1.0
  H  H27  1  0.43015000  0.46880000  0.72897000  1.0
  H  H28  1  0.01451000  0.80814000  0.16590000  1.0
  H  H29  1  0.51451000  0.69186000  0.33410000  1.0
  H  H30  1  0.98548000  0.19186000  0.83410000  1.0
  H  H31  1  0.48548000  0.30813000  0.66590000  1.0
  H  H32  1  0.68823000  0.08159000  0.03204000  1.0
  H  H33  1  0.18823000  0.41841000  0.46796000  1.0
  H  H34  1  0.31177000  0.91841000  0.96796000  1.0
  H  H35  1  0.81177000  0.58159000  0.53204000  1.0
  H  H36  1  0.18716000  0.90240000  0.14971000  1.0
  H  H37  1  0.68716000  0.59760000  0.35029000  1.0
  H  H38  1  0.81284000  0.09760000  0.85029000  1.0
  H  H39  1  0.31284000  0.40240000  0.64971000  1.0
  H  H40  1  0.33374000  0.43887000  0.01452000  1.0
  H  H41  1  0.83374000  0.06113000  0.48548000  1.0
  H  H42  1  0.66626000  0.56113000  0.98548000  1.0
  H  H43  1  0.16626000  0.93887000  0.51452000  1.0
  H  H44  1  0.43220000  0.58787000  0.07083000  1.0
  H  H45  1  0.93221000  0.91213000  0.42917000  1.0
  H  H46  1  0.56780000  0.41213000  0.92917000  1.0
  H  H47  1  0.06780000  0.08787000  0.57083000  1.0
  H  H48  1  0.31122000  0.67656000  0.20375000  1.0
  H  H49  1  0.81122000  0.82344000  0.29625000  1.0
  H  H50  1  0.68878000  0.32344000  0.79625000  1.0
  H  H51  1  0.18878000  0.17656000  0.70375000  1.0
  H  H52  1  0.49225000  0.40455000  0.07156000  1.0
  H  H53  1  0.99225000  0.09545000  0.42844000  1.0
  H  H54  1  0.50775000  0.59545000  0.92844000  1.0
  H  H55  1  0.00775000  0.90455000  0.57156000  1.0
  H  H56  1  0.99721000  0.37816000  0.32219000  1.0
  H  H57  1  0.49721000  0.12184000  0.17781000  1.0
  H  H58  1  0.00279000  0.62184000  0.67781000  1.0
  H  H59  1  0.50279000  0.87816000  0.82219000  1.0
  H  H60  1  0.91463000  0.28456000  0.23593000  1.0
  H  H61  1  0.41463000  0.21544000  0.26407000  1.0
  H  H62  1  0.08537000  0.71544000  0.76407000  1.0
  H  H63  1  0.58537000  0.78456000  0.73593000  1.0
  H  H64  1  0.07573000  0.20857000  0.27614000  1.0
  H  H65  1  0.57573000  0.29143000  0.22386000  1.0
  H  H66  1  0.92427000  0.79143000  0.72386000  1.0
  H  H67  1  0.42427000  0.70857000  0.77614000  1.0
  C  C68  1  0.19043000  0.19949000  0.09899000  1.0
  C  C69  1  0.69043000  0.30051000  0.40101000  1.0
  C  C70  1  0.80957000  0.80051000  0.90101000  1.0
  C  C71  1  0.30957000  0.69949000  0.59899000  1.0
  C  C72  1  0.98252000  0.00756000  0.11987000  1.0
  C  C73  1  0.48252000  0.49244000  0.38013000  1.0
  C  C74  1  0.01748000  0.99244000  0.88013000  1.0
  C  C75  1  0.51747000  0.50756000  0.61987000  1.0
  C  C76  1  0.03417000  0.13229000  0.09058000  1.0
  C  C77  1  0.53418000  0.36771000  0.40942000  1.0
  C  C78  1  0.96582000  0.86771000  0.90942000  1.0
  C  C79  1  0.46582000  0.63228000  0.59058000  1.0
  C  C80  1  0.90980000  0.17998000  0.05112000  1.0
  C  C81  1  0.40980000  0.32002000  0.44889000  1.0
  C  C82  1  0.09020000  0.82002000  0.94889000  1.0
  C  C83  1  0.59020000  0.67998000  0.55111000  1.0
  C  C84  1  0.19854000  0.34612000  0.14976000  1.0
  C  C85  1  0.69854000  0.15388000  0.35024000  1.0
  C  C86  1  0.80146000  0.65388000  0.85024000  1.0
  C  C87  1  0.30146000  0.84612000  0.64976000  1.0
  C  C88  1  0.89614000  0.30712000  0.00959000  1.0
  C  C89  1  0.39614000  0.19288000  0.49041000  1.0
  C  C90  1  0.10386000  0.69288000  0.99041000  1.0
  C  C91  1  0.60386000  0.80712000  0.50959000  1.0
  C  C92  1  0.06729000  0.91672000  0.16842000  1.0
  C  C93  1  0.56729000  0.58328000  0.33158000  1.0
  C  C94  1  0.93271000  0.08329000  0.83158000  1.0
  C  C95  1  0.43271000  0.41671000  0.66842000  1.0
  C  C96  1  0.28716000  0.46426000  0.13468000  1.0
  C  C97  1  0.78716000  0.03574000  0.36532000  1.0
  C  C98  1  0.71284000  0.53574000  0.86532000  1.0
  C  C99  1  0.21284000  0.96426000  0.63468000  1.0
  C  C100  1  0.12715000  0.39382000  0.22121000  1.0
  C  C101  1  0.62715000  0.10618000  0.27879000  1.0
  C  C102  1  0.87285000  0.60618000  0.77879000  1.0
  C  C103  1  0.37285000  0.89383000  0.72121000  1.0
  C  C104  1  0.39143000  0.47528000  0.06962000  1.0
  C  C105  1  0.89144000  0.02472000  0.43038000  1.0
  C  C106  1  0.60856000  0.52472000  0.93038000  1.0
  C  C107  1  0.10856000  0.97528000  0.56962000  1.0
  C  C108  1  0.02320000  0.31226000  0.26637000  1.0
  C  C109  1  0.52320000  0.18774000  0.23363000  1.0
  C  C110  1  0.97680000  0.68774000  0.73363000  1.0
  C  C111  1  0.47680000  0.81226000  0.76637000  1.0
  N  N112  1  0.83517000  0.97974000  0.09896000  1.0
  N  N113  1  0.33517000  0.52026000  0.40104000  1.0
  N  N114  1  0.16483000  0.02026000  0.90104000  1.0
  N  N115  1  0.66483000  0.47974000  0.59896000  1.0
  N  N116  1  0.79299000  0.08640000  0.05830000  1.0
  N  N117  1  0.29299000  0.41360000  0.44170000  1.0
  N  N118  1  0.20701000  0.91360000  0.94170000  1.0
  N  N119  1  0.70701000  0.58640000  0.55830000  1.0
  N  N120  1  0.16884000  0.53363000  0.24768000  1.0
  N  N121  1  0.66884000  0.96637000  0.25232000  1.0
  N  N122  1  0.83116000  0.46637000  0.75232000  1.0
  N  N123  1  0.33116000  0.03363000  0.74768000  1.0
  N  N124  1  0.26557000  0.57379000  0.19452000  1.0
  N  N125  1  0.76557000  0.92620000  0.30548000  1.0
  N  N126  1  0.73443000  0.42620000  0.80548000  1.0
  N  N127  1  0.23443000  0.07380000  0.69452000  1.0
  Cl  Cl128  1  0.46474000  0.86982000  0.07446000  1.0
  Cl  Cl129  1  0.96474000  0.63018000  0.42554000  1.0
  Cl  Cl130  1  0.53526000  0.13018000  0.92554000  1.0
  Cl  Cl131  1  0.03526000  0.36982000  0.57446000  1.0
  Cl  Cl132  1  0.76708000  0.63044000  0.15636000  1.0
  Cl  Cl133  1  0.26708000  0.86955000  0.34365000  1.0
  Cl  Cl134  1  0.23292000  0.36955000  0.84364000  1.0
  Cl  Cl135  1  0.73292000  0.13045000  0.65636000  1.0
