# generated using pymatgen
data_CuH28C28(N5O3)2
_symmetry_space_group_name_H-M   'P 1'
_cell_length_a   7.99984000
_cell_length_b   9.37049000
_cell_length_c   9.96502000
_cell_angle_alpha   90.42480000
_cell_angle_beta   103.94700000
_cell_angle_gamma   101.92800000
_symmetry_Int_Tables_number   1
_chemical_formula_structural   CuH28C28(N5O3)2
_chemical_formula_sum   'Cu1 H28 C28 N10 O6'
_cell_volume   708.03658851
_cell_formula_units_Z   1
loop_
 _symmetry_equiv_pos_site_id
 _symmetry_equiv_pos_as_xyz
  1  'x, y, z'
loop_
 _atom_site_type_symbol
 _atom_site_label
 _atom_site_symmetry_multiplicity
 _atom_site_fract_x
 _atom_site_fract_y
 _atom_site_fract_z
 _atom_site_occupancy
  Cu  Cu0  1  0.00000000  0.00000000  0.00000000  1.0
  H  H1  1  0.81168000  0.25392000  0.88399000  1.0
  H  H2  1  0.18832000  0.74608000  0.11601000  1.0
  H  H3  1  0.31116000  0.52056000  0.89061000  1.0
  H  H4  1  0.68884000  0.47944000  0.10939000  1.0
  H  H5  1  0.35552000  0.25195000  0.99825000  1.0
  H  H6  1  0.64448000  0.74805000  0.00174000  1.0
  H  H7  1  0.01612000  0.63473000  0.82802000  1.0
  H  H8  1  0.98388000  0.36527000  0.17198000  1.0
  H  H9  1  0.81584000  0.50098000  0.78187000  1.0
  H  H10  1  0.18416000  0.49901000  0.21813000  1.0
  H  H11  1  0.60537000  0.84557000  0.80634000  1.0
  H  H12  1  0.39463000  0.15443000  0.19366000  1.0
  H  H13  1  0.81054000  0.96972000  0.46164000  1.0
  H  H14  1  0.18945000  0.03028000  0.53836000  1.0
  H  H15  1  0.07764000  0.05594000  0.70801000  1.0
  H  H16  1  0.92236000  0.94406000  0.29199000  1.0
  H  H17  1  0.48487000  0.85755000  0.41616000  1.0
  H  H18  1  0.51513000  0.14245000  0.58384000  1.0
  H  H19  1  0.39041000  0.82912000  0.56195000  1.0
  H  H20  1  0.60959000  0.17089000  0.43806000  1.0
  H  H21  1  0.40182000  0.60524000  0.68993000  1.0
  H  H22  1  0.59816000  0.39476000  0.31007000  1.0
  H  H23  1  0.58913000  0.65924000  0.31916000  1.0
  H  H24  1  0.41087000  0.34077000  0.68084000  1.0
  H  H25  1  0.03677000  0.74443000  0.61534000  1.0
  H  H26  1  0.96324000  0.25556000  0.38466000  1.0
  H  H27  1  0.92948000  0.27496000  0.62302000  1.0
  H  H28  1  0.07053000  0.72503000  0.37698000  1.0
  C  C29  1  0.95358000  0.28847000  0.90006000  1.0
  C  C30  1  0.04642000  0.71153000  0.09994000  1.0
  C  C31  1  0.21742000  0.42441000  0.90572000  1.0
  C  C32  1  0.78258000  0.57559000  0.09428000  1.0
  C  C33  1  0.23635000  0.29282000  0.96049000  1.0
  C  C34  1  0.76366000  0.70718000  0.03951000  1.0
  C  C35  1  0.95615000  0.52397000  0.78135000  1.0
  C  C36  1  0.04386000  0.47603000  0.21866000  1.0
  C  C37  1  0.97929000  0.51128000  0.63576000  1.0
  C  C38  1  0.02072000  0.48872000  0.36424000  1.0
  C  C39  1  0.01953000  0.63682000  0.56487000  1.0
  C  C40  1  0.98048000  0.36318000  0.43513000  1.0
  C  C41  1  0.96060000  0.37460000  0.56967000  1.0
  C  C42  1  0.03941000  0.62540000  0.43033000  1.0
  C  C43  1  0.70221000  0.89017000  0.74944000  1.0
  C  C44  1  0.29779000  0.10983000  0.25056000  1.0
  C  C45  1  0.81270000  0.95647000  0.56985000  1.0
  C  C46  1  0.18729000  0.04353000  0.43015000  1.0
  C  C47  1  0.94072000  0.00010000  0.69061000  1.0
  C  C48  1  0.05927000  0.99990000  0.30939000  1.0
  C  C49  1  0.49681000  0.80949000  0.51719000  1.0
  C  C50  1  0.50318000  0.19051000  0.48281000  1.0
  C  C51  1  0.49443000  0.64845000  0.50545000  1.0
  C  C52  1  0.50556000  0.35155000  0.49455000  1.0
  C  C53  1  0.44595000  0.55850000  0.60743000  1.0
  C  C54  1  0.55403000  0.44150000  0.39257000  1.0
  C  C55  1  0.54859000  0.58912000  0.39791000  1.0
  C  C56  1  0.45141000  0.41088000  0.60209000  1.0
  N  N57  1  0.07077000  0.20982000  0.95679000  1.0
  N  N58  1  0.92923000  0.79018000  0.04321000  1.0
  N  N59  1  0.03815000  0.41981000  0.86816000  1.0
  N  N60  1  0.96186000  0.58019000  0.13184000  1.0
  N  N61  1  0.86999000  0.95716000  0.80120000  1.0
  N  N62  1  0.13000000  0.04283000  0.19880000  1.0
  N  N63  1  0.66329000  0.88825000  0.60929000  1.0
  N  N64  1  0.33670000  0.11176000  0.39071000  1.0
  N  N65  1  0.67037000  0.10043000  0.13635000  1.0
  N  N66  1  0.32963000  0.89958000  0.86365000  1.0
  O  O67  1  0.71540000  0.04894000  0.03584000  1.0
  O  O68  1  0.28460000  0.95107000  0.96416000  1.0
  O  O69  1  0.63329000  0.22673000  0.13073000  1.0
  O  O70  1  0.36671000  0.77328000  0.86927000  1.0
  O  O71  1  0.66151000  0.02787000  0.24231000  1.0
  O  O72  1  0.33849000  0.97214000  0.75769000  1.0
