# generated using pymatgen
data_CdH14C20N3O4
_symmetry_space_group_name_H-M   'P 1'
_cell_length_a   9.42543000
_cell_length_b   10.55100000
_cell_length_c   10.99530000
_cell_angle_alpha   66.18220000
_cell_angle_beta   70.57390000
_cell_angle_gamma   67.14400000
_symmetry_Int_Tables_number   1
_chemical_formula_structural   CdH14C20N3O4
_chemical_formula_sum   'Cd2 H28 C40 N6 O8'
_cell_volume   901.53836131
_cell_formula_units_Z   2
loop_
 _symmetry_equiv_pos_site_id
 _symmetry_equiv_pos_as_xyz
  1  'x, y, z'
loop_
 _atom_site_type_symbol
 _atom_site_label
 _atom_site_symmetry_multiplicity
 _atom_site_fract_x
 _atom_site_fract_y
 _atom_site_fract_z
 _atom_site_occupancy
  Cd  Cd0  1  0.18069000  0.36631000  0.50591000  1.0
  Cd  Cd1  1  0.81931000  0.63370000  0.49409000  1.0
  H  H2  1  0.91063000  0.21234000  0.25473000  1.0
  H  H3  1  0.08937000  0.78766000  0.74527000  1.0
  H  H4  1  0.86530000  0.88354000  0.06276000  1.0
  H  H5  1  0.13470000  0.11646000  0.93724000  1.0
  H  H6  1  0.27602000  0.95450000  0.27409000  1.0
  H  H7  1  0.72399000  0.04550000  0.72591000  1.0
  H  H8  1  0.97746000  0.03260000  0.83245000  1.0
  H  H9  1  0.02254000  0.96740000  0.16755000  1.0
  H  H10  1  0.54250000  0.37458000  0.83350000  1.0
  H  H11  1  0.45750000  0.62542000  0.16650000  1.0
  H  H12  1  0.52107000  0.37788000  0.54786000  1.0
  H  H13  1  0.47893000  0.62212000  0.45215000  1.0
  H  H14  1  0.26088000  0.33412000  0.93125000  1.0
  H  H15  1  0.73912000  0.66589000  0.06875000  1.0
  H  H16  1  0.81126000  0.61677000  0.84532000  1.0
  H  H17  1  0.18874000  0.38323000  0.15468000  1.0
  H  H18  1  0.80358000  0.34506000  0.42797000  1.0
  H  H19  1  0.19642000  0.65494000  0.57203000  1.0
  H  H20  1  0.55608000  0.86620000  0.22056000  1.0
  H  H21  1  0.44392000  0.13380000  0.77944000  1.0
  H  H22  1  0.67139000  0.91277000  0.28141000  1.0
  H  H23  1  0.32861000  0.08723000  0.71858000  1.0
  H  H24  1  0.42998000  0.22936000  0.06404000  1.0
  H  H25  1  0.57002000  0.77064000  0.93596000  1.0
  H  H26  1  0.06018000  0.13529000  0.42625000  1.0
  H  H27  1  0.93982000  0.86470000  0.57375000  1.0
  H  H28  1  0.73597000  0.11438000  0.21498000  1.0
  H  H29  1  0.26403000  0.88563000  0.78502000  1.0
  C  C30  1  0.53550000  0.19156000  0.36372000  1.0
  C  C31  1  0.46450000  0.80844000  0.63628000  1.0
  C  C32  1  0.64036000  0.04732000  0.07832000  1.0
  C  C33  1  0.35965000  0.95267000  0.92168000  1.0
  C  C34  1  0.04030000  0.47269000  0.87638000  1.0
  C  C35  1  0.95970000  0.52731000  0.12362000  1.0
  C  C36  1  0.41808000  0.13934000  0.35345000  1.0
  C  C37  1  0.58193000  0.86066000  0.64655000  1.0
  C  C38  1  0.84006000  0.30496000  0.68584000  1.0
  C  C39  1  0.15994000  0.69504000  0.31416000  1.0
  C  C40  1  0.78925000  0.22673000  0.31184000  1.0
  C  C41  1  0.21075000  0.77327000  0.68816000  1.0
  C  C42  1  0.76712000  0.21239000  0.81952000  1.0
  C  C43  1  0.23288000  0.78761000  0.18048000  1.0
  C  C44  1  0.79432000  0.99085000  0.01188000  1.0
  C  C45  1  0.20568000  0.00915000  0.98812000  1.0
  C  C46  1  0.29061000  0.02660000  0.31358000  1.0
  C  C47  1  0.70939000  0.97340000  0.68642000  1.0
  C  C48  1  0.85683000  0.07319000  0.88406000  1.0
  C  C49  1  0.14317000  0.92681000  0.11594000  1.0
  C  C50  1  0.61177000  0.26649000  0.88424000  1.0
  C  C51  1  0.38823000  0.73351000  0.11576000  1.0
  C  C52  1  0.57344000  0.31958000  0.47352000  1.0
  C  C53  1  0.42655000  0.68042000  0.52648000  1.0
  C  C54  1  0.14702000  0.40632000  0.96314000  1.0
  C  C55  1  0.85298000  0.59368000  0.03686000  1.0
  C  C56  1  0.89259000  0.56651000  0.91416000  1.0
  C  C57  1  0.10740000  0.43350000  0.08584000  1.0
  C  C58  1  0.08517000  0.44568000  0.74294000  1.0
  C  C59  1  0.91483000  0.55432000  0.25707000  1.0
  C  C60  1  0.73084000  0.30134000  0.40617000  1.0
  C  C61  1  0.26917000  0.69866000  0.59383000  1.0
  C  C62  1  0.58035000  0.95962000  0.22110000  1.0
  C  C63  1  0.41965000  0.04038000  0.77890000  1.0
  C  C64  1  0.54929000  0.18460000  0.01266000  1.0
  C  C65  1  0.45071000  0.81540000  0.98733000  1.0
  C  C66  1  0.18583000  0.11622000  0.38775000  1.0
  C  C67  1  0.81417000  0.88378000  0.61224000  1.0
  C  C68  1  0.69164000  0.17029000  0.29021000  1.0
  C  C69  1  0.30836000  0.82971000  0.70979000  1.0
  N  N70  1  0.47823000  0.26734000  0.45284000  1.0
  N  N71  1  0.52177000  0.73266000  0.54716000  1.0
  N  N72  1  0.43674000  0.04129000  0.29261000  1.0
  N  N73  1  0.56326000  0.95871000  0.70739000  1.0
  N  N74  1  0.26602000  0.18461000  0.41121000  1.0
  N  N75  1  0.73398000  0.81539000  0.58879000  1.0
  O  O76  1  0.21092000  0.34553000  0.71946000  1.0
  O  O77  1  0.78908000  0.65447000  0.28054000  1.0
  O  O78  1  0.98390000  0.25093000  0.63770000  1.0
  O  O79  1  0.01610000  0.74907000  0.36230000  1.0
  O  O80  1  0.99736000  0.52550000  0.65735000  1.0
  O  O81  1  0.00264000  0.47450000  0.34265000  1.0
  O  O82  1  0.74947000  0.42979000  0.63419000  1.0
  O  O83  1  0.25053000  0.57021000  0.36581000  1.0
