# generated using pymatgen
data_SmCuH22C18IN5O9
_symmetry_space_group_name_H-M   'P 1'
_cell_length_a   10.85410000
_cell_length_b   11.85720000
_cell_length_c   14.66550000
_cell_angle_alpha   82.48790000
_cell_angle_beta   85.14150000
_cell_angle_gamma   68.06300000
_symmetry_Int_Tables_number   1
_chemical_formula_structural   SmCuH22C18IN5O9
_chemical_formula_sum   'Sm2 Cu2 H44 C36 I2 N10 O18'
_cell_volume   1734.43285358
_cell_formula_units_Z   2
loop_
 _symmetry_equiv_pos_site_id
 _symmetry_equiv_pos_as_xyz
  1  'x, y, z'
loop_
 _atom_site_type_symbol
 _atom_site_label
 _atom_site_symmetry_multiplicity
 _atom_site_fract_x
 _atom_site_fract_y
 _atom_site_fract_z
 _atom_site_occupancy
  Sm  Sm0  1  0.90291000  0.38107000  0.03588000  1.0
  Sm  Sm1  1  0.09708000  0.61893000  0.96412000  1.0
  Cu  Cu2  1  0.51361000  0.99799000  0.41331000  1.0
  Cu  Cu3  1  0.48640000  0.00201000  0.58669000  1.0
  H  H4  1  0.56111000  0.20023000  0.29720000  1.0
  H  H5  1  0.43892000  0.79976000  0.70278000  1.0
  H  H6  1  0.45741000  0.34760000  0.16196000  1.0
  H  H7  1  0.54260000  0.65240000  0.83803000  1.0
  H  H8  1  0.13087000  0.21881000  0.19973000  1.0
  H  H9  1  0.86912000  0.78121000  0.80029000  1.0
  H  H10  1  0.25205000  0.07165000  0.33043000  1.0
  H  H11  1  0.74796000  0.92836000  0.66958000  1.0
  H  H12  1  0.78823000  0.94114000  0.33754000  1.0
  H  H13  1  0.21178000  0.05885000  0.66247000  1.0
  H  H14  1  0.93065000  0.80593000  0.21945000  1.0
  H  H15  1  0.06936000  0.19407000  0.78056000  1.0
  H  H16  1  0.65828000  0.61662000  0.24881000  1.0
  H  H17  1  0.34172000  0.38337000  0.75121000  1.0
  H  H18  1  0.52319000  0.76252000  0.36396000  1.0
  H  H19  1  0.47681000  0.23747000  0.63606000  1.0
  H  H20  1  0.27903000  0.06768000  0.07655000  1.0
  H  H21  1  0.72096000  0.93231000  0.92345000  1.0
  H  H22  1  0.39826000  0.99422000  0.98938000  1.0
  H  H23  1  0.60173000  0.00578000  0.01062000  1.0
  H  H24  1  0.33541000  0.90530000  0.07444000  1.0
  H  H25  1  0.66458000  0.09470000  0.92555000  1.0
  H  H26  1  0.14262000  0.95320000  0.86065000  1.0
  H  H27  1  0.85739000  0.04679000  0.13934000  1.0
  H  H28  1  0.26669000  0.83661000  0.92777000  1.0
  H  H29  1  0.73331000  0.16340000  0.07222000  1.0
  H  H30  1  0.31002000  0.94800000  0.85096000  1.0
  H  H31  1  0.68998000  0.05200000  0.14904000  1.0
  H  H32  1  0.01011000  0.10323000  0.93327000  1.0
  H  H33  1  0.98988000  0.89679000  0.06672000  1.0
  H  H34  1  0.56454000  0.33505000  0.97632000  1.0
  H  H35  1  0.43546000  0.66496000  0.02368000  1.0
  H  H36  1  0.48603000  0.28917000  0.89264000  1.0
  H  H37  1  0.51397000  0.71084000  0.10736000  1.0
  H  H38  1  0.44493000  0.44726000  0.90222000  1.0
  H  H39  1  0.55507000  0.55275000  0.09778000  1.0
  H  H40  1  0.68277000  0.42435000  0.70788000  1.0
  H  H41  1  0.31722000  0.57565000  0.29212000  1.0
  H  H42  1  0.51277000  0.49681000  0.74432000  1.0
  H  H43  1  0.48722000  0.50319000  0.25568000  1.0
  H  H44  1  0.57180000  0.34460000  0.71161000  1.0
  H  H45  1  0.42819000  0.65540000  0.28839000  1.0
  H  H46  1  0.82706000  0.34291000  0.81170000  1.0
  H  H47  1  0.17293000  0.65711000  0.18830000  1.0
  C  C48  1  0.46772000  0.20487000  0.27141000  1.0
  C  C49  1  0.53230000  0.79513000  0.72858000  1.0
  C  C50  1  0.40864000  0.28795000  0.19729000  1.0
  C  C51  1  0.59138000  0.71205000  0.80271000  1.0
  C  C52  1  0.28544000  0.29463000  0.16942000  1.0
  C  C53  1  0.71456000  0.70537000  0.83059000  1.0
  C  C54  1  0.22732000  0.21583000  0.21769000  1.0
  C  C55  1  0.77268000  0.78417000  0.78232000  1.0
  C  C56  1  0.29383000  0.13413000  0.29029000  1.0
  C  C57  1  0.70618000  0.86588000  0.70972000  1.0
  C  C58  1  0.21665000  0.38755000  0.09313000  1.0
  C  C59  1  0.78335000  0.61245000  0.90687000  1.0
  C  C60  1  0.76214000  0.86935000  0.31419000  1.0
  C  C61  1  0.23787000  0.13064000  0.68582000  1.0
  C  C62  1  0.84051000  0.79422000  0.24970000  1.0
  C  C63  1  0.15950000  0.20578000  0.75031000  1.0
  C  C64  1  0.80197000  0.70367000  0.22277000  1.0
  C  C65  1  0.19803000  0.29633000  0.77723000  1.0
  C  C66  1  0.68782000  0.68929000  0.26576000  1.0
  C  C67  1  0.31219000  0.31069000  0.73425000  1.0
  C  C68  1  0.61391000  0.76861000  0.32898000  1.0
  C  C69  1  0.38609000  0.23138000  0.67102000  1.0
  C  C70  1  0.87757000  0.62647000  0.14827000  1.0
  C  C71  1  0.12242000  0.37353000  0.85174000  1.0
  C  C72  1  0.31001000  0.99390000  0.03200000  1.0
  C  C73  1  0.68998000  0.00610000  0.96799000  1.0
  C  C74  1  0.23257000  0.93276000  0.89859000  1.0
  C  C75  1  0.76742000  0.06724000  0.10140000  1.0
  C  C76  1  0.08208000  0.09654000  0.98446000  1.0
  C  C77  1  0.91792000  0.90348000  0.01552000  1.0
  C  C78  1  0.52587000  0.35746000  0.90708000  1.0
  C  C79  1  0.47412000  0.64255000  0.09292000  1.0
  C  C80  1  0.59771000  0.40943000  0.74576000  1.0
  C  C81  1  0.40228000  0.59057000  0.25424000  1.0
  C  C82  1  0.75694000  0.32738000  0.86649000  1.0
  C  C83  1  0.24305000  0.67263000  0.13350000  1.0
  I  I84  1  0.65585000  0.09359000  0.49516000  1.0
  I  I85  1  0.34415000  0.90642000  0.50485000  1.0
  N  N86  1  0.41236000  0.12786000  0.31746000  1.0
  N  N87  1  0.58766000  0.87214000  0.68253000  1.0
  N  N88  1  0.64812000  0.85950000  0.35186000  1.0
  N  N89  1  0.35190000  0.14048000  0.64815000  1.0
  N  N90  1  0.20270000  0.01167000  0.97211000  1.0
  N  N91  1  0.79729000  0.98833000  0.02788000  1.0
  N  N92  1  0.63263000  0.36083000  0.84059000  1.0
  N  N93  1  0.36736000  0.63918000  0.15941000  1.0
  N  N94  1  0.76689000  0.32654000  0.20790000  1.0
  N  N95  1  0.23311000  0.67345000  0.79211000  1.0
  O  O96  1  0.27072000  0.46113000  0.05517000  1.0
  O  O97  1  0.72926000  0.53888000  0.94484000  1.0
  O  O98  1  0.10336000  0.39374000  0.06938000  1.0
  O  O99  1  0.89665000  0.60625000  0.93063000  1.0
  O  O100  1  0.97769000  0.64798000  0.11015000  1.0
  O  O101  1  0.02229000  0.35203000  0.88984000  1.0
  O  O102  1  0.83418000  0.54789000  0.12753000  1.0
  O  O103  1  0.16583000  0.45210000  0.87248000  1.0
  O  O104  1  0.04925000  0.16425000  0.04835000  1.0
  O  O105  1  0.95075000  0.83575000  0.95164000  1.0
  O  O106  1  0.79556000  0.28240000  0.94641000  1.0
  O  O107  1  0.20444000  0.71761000  0.05359000  1.0
  O  O108  1  0.89353000  0.29602000  0.20201000  1.0
  O  O109  1  0.10648000  0.70395000  0.79799000  1.0
  O  O110  1  0.70684000  0.36215000  0.13031000  1.0
  O  O111  1  0.29316000  0.63786000  0.86969000  1.0
  O  O112  1  0.70471000  0.32297000  0.28182000  1.0
  O  O113  1  0.29530000  0.67700000  0.71818000  1.0
