# generated using pymatgen
data_Zn4H15C24N3O13
_symmetry_space_group_name_H-M   'P 1'
_cell_length_a   15.50770000
_cell_length_b   16.23160000
_cell_length_c   16.91444277
_cell_angle_alpha   65.63723927
_cell_angle_beta   62.76342753
_cell_angle_gamma   62.39800000
_symmetry_Int_Tables_number   1
_chemical_formula_structural   Zn4H15C24N3O13
_chemical_formula_sum   'Zn8 H30 C48 N6 O26'
_cell_volume   3244.31786902
_cell_formula_units_Z   2
loop_
 _symmetry_equiv_pos_site_id
 _symmetry_equiv_pos_as_xyz
  1  'x, y, z'
loop_
 _atom_site_type_symbol
 _atom_site_label
 _atom_site_symmetry_multiplicity
 _atom_site_fract_x
 _atom_site_fract_y
 _atom_site_fract_z
 _atom_site_occupancy
  Zn  Zn0  1  0.03698000  0.89896000  0.94988000  1.0
  Zn  Zn1  1  0.03003000  0.09450000  0.94024000  1.0
  Zn  Zn2  1  0.23146000  0.90903000  0.95941000  1.0
  Zn  Zn3  1  0.01996000  0.92675000  0.13329000  1.0
  Zn  Zn4  1  0.63146000  0.50600000  0.55940000  1.0
  Zn  Zn5  1  0.61073000  0.32466000  0.53949000  1.0
  Zn  Zn6  1  0.60330000  0.52647000  0.37345000  1.0
  Zn  Zn7  1  0.42566000  0.52312000  0.54980000  1.0
  H  H8  1  0.44953000  0.22838000  0.01173000  1.0
  H  H9  1  0.52675000  0.13964000  0.07172000  1.0
  H  H10  1  0.52404000  0.29977000  0.84617000  1.0
  H  H11  1  0.85588000  0.19943000  0.72532000  1.0
  H  H12  1  0.71197000  0.08609000  0.01348000  1.0
  H  H13  1  0.31502000  0.01879000  0.40630000  1.0
  H  H14  1  0.24271000  0.08788000  0.48207000  1.0
  H  H15  1  0.40377000  0.84718000  0.45185000  1.0
  H  H16  1  0.37048000  0.71993000  0.73939000  1.0
  H  H17  1  0.22097000  0.02450000  0.64446000  1.0
  H  H18  1  0.11038000  0.35850000  0.23538000  1.0
  H  H19  1  0.17084000  0.42444000  0.13780000  1.0
  H  H20  1  0.94303000  0.42790000  0.33673000  1.0
  H  H21  1  0.80817000  0.73742000  0.26883000  1.0
  H  H22  1  0.11508000  0.60047000  0.10447000  1.0
  H  H23  1  0.28449000  0.36884000  0.00143000  1.0
  H  H24  1  0.23462000  0.28175000  0.07505000  1.0
  H  H25  1  0.35921000  0.38754000  0.83757000  1.0
  H  H26  1  0.33752000  0.20077000  0.73143000  1.0
  H  H27  1  0.23020000  0.16399000  0.02473000  1.0
  H  H28  1  0.44947000  0.35752000  0.18352000  1.0
  H  H29  1  0.52641000  0.28715000  0.10572000  1.0
  H  H30  1  0.52447000  0.37867000  0.27308000  1.0
  H  H31  1  0.82844000  0.18100000  0.27905000  1.0
  H  H32  1  0.71124000  0.20130000  0.08178000  1.0
  H  H33  1  0.28806000  0.37819000  0.32366000  1.0
  H  H34  1  0.23036000  0.43667000  0.24329000  1.0
  H  H35  1  0.35483000  0.44438000  0.37414000  1.0
  H  H36  1  0.32818000  0.74258000  0.25151000  1.0
  H  H37  1  0.22120000  0.60854000  0.15731000  1.0
  C  C38  1  0.60646000  0.19587000  0.94074000  1.0
  C  C39  1  0.59950000  0.25416000  0.85369000  1.0
  C  C40  1  0.68839000  0.25328000  0.77642000  1.0
  C  C41  1  0.78619000  0.19754000  0.78452000  1.0
  C  C42  1  0.79278000  0.13753000  0.87078000  1.0
  C  C43  1  0.70424000  0.13470000  0.94748000  1.0
  C  C44  1  0.89399000  0.07706000  0.88588000  1.0
  C  C45  1  0.67614000  0.31431000  0.68424000  1.0
  C  C46  1  0.31619000  0.94729000  0.53805000  1.0
  C  C47  1  0.37404000  0.85571000  0.52132000  1.0
  C  C48  1  0.39334000  0.77526000  0.59359000  1.0
  C  C49  1  0.35522000  0.78338000  0.68349000  1.0
  C  C50  1  0.29070000  0.87332000  0.70069000  1.0
  C  C51  1  0.27143000  0.95481000  0.62934000  1.0
  C  C52  1  0.23542000  0.87951000  0.79841000  1.0
  C  C53  1  0.44649000  0.67683000  0.57815000  1.0
  C  C54  1  0.04092000  0.50355000  0.22006000  1.0
  C  C55  1  0.94984000  0.49779000  0.29311000  1.0
  C  C56  1  0.86545000  0.58137000  0.30812000  1.0
  C  C57  1  0.87291000  0.67204000  0.25570000  1.0
  C  C58  1  0.96464000  0.67738000  0.18389000  1.0
  C  C59  1  0.04657000  0.59387000  0.16391000  1.0
  C  C60  1  0.97846000  0.77197000  0.12568000  1.0
  C  C61  1  0.76461000  0.56934000  0.37530000  1.0
  C  C62  1  0.29653000  0.27680000  0.94077000  1.0
  C  C63  1  0.33886000  0.32599000  0.85085000  1.0
  C  C64  1  0.35634000  0.29660000  0.77630000  1.0
  C  C65  1  0.32576000  0.22183000  0.78995000  1.0
  C  C66  1  0.27711000  0.17720000  0.87987000  1.0
  C  C67  1  0.26551000  0.20196000  0.95497000  1.0
  C  C68  1  0.22934000  0.10596000  0.89931000  1.0
  C  C69  1  0.40731000  0.34910000  0.68239000  1.0
  C  C70  1  0.60219000  0.28691000  0.17989000  1.0
  C  C71  1  0.59411000  0.32115000  0.24816000  1.0
  C  C72  1  0.67480000  0.28391000  0.28284000  1.0
  C  C73  1  0.76628000  0.21156000  0.25088000  1.0
  C  C74  1  0.77860000  0.18506000  0.17619000  1.0
  C  C75  1  0.69858000  0.22225000  0.14080000  1.0
  C  C76  1  0.87957000  0.11986000  0.12831000  1.0
  C  C77  1  0.66291000  0.32999000  0.34986000  1.0
  C  C78  1  0.28988000  0.51464000  0.26389000  1.0
  C  C79  1  0.33220000  0.51110000  0.32325000  1.0
  C  C80  1  0.34784000  0.59195000  0.31688000  1.0
  C  C81  1  0.31623000  0.67982000  0.25533000  1.0
  C  C82  1  0.26728000  0.68503000  0.20078000  1.0
  C  C83  1  0.25660000  0.60318000  0.20280000  1.0
  C  C84  1  0.22278000  0.77987000  0.14020000  1.0
  C  C85  1  0.40179000  0.57926000  0.37678000  1.0
  N  N86  1  0.51983000  0.20089000  0.02011000  1.0
  N  N87  1  0.30429000  0.02922000  0.46572000  1.0
  N  N88  1  0.12767000  0.42010000  0.20528000  1.0
  N  N89  1  0.29017000  0.29952000  0.01560000  1.0
  N  N90  1  0.52152000  0.31908000  0.14891000  1.0
  N  N91  1  0.28640000  0.43009000  0.26388000  1.0
  O  O92  1  0.08089000  0.95783000  0.99958000  1.0
  O  O93  1  0.96168000  0.11691000  0.85505000  1.0
  O  O94  1  0.90425000  0.98980000  0.93220000  1.0
  O  O95  1  0.68127000  0.27238000  0.63207000  1.0
  O  O96  1  0.66042000  0.40334000  0.66735000  1.0
  O  O97  1  0.28640000  0.87731000  0.84108000  1.0
  O  O98  1  0.14155000  0.88467000  0.82981000  1.0
  O  O99  1  0.40112000  0.65328000  0.54831000  1.0
  O  O100  1  0.52900000  0.62435000  0.59823000  1.0
  O  O101  1  0.94411000  0.83834000  0.16510000  1.0
  O  O102  1  0.02639000  0.77711000  0.03975000  1.0
  O  O103  1  0.69692000  0.59439000  0.33887000  1.0
  O  O104  1  0.75622000  0.53297000  0.45987000  1.0
  O  O105  1  0.27297000  0.01850000  0.93505000  1.0
  O  O106  1  0.14625000  0.14209000  0.88013000  1.0
  O  O107  1  0.37807000  0.44006000  0.67035000  1.0
  O  O108  1  0.47547000  0.30147000  0.62344000  1.0
  O  O109  1  0.92592000  0.04203000  0.17772000  1.0
  O  O110  1  0.91074000  0.14794000  0.04068000  1.0
  O  O111  1  0.64772000  0.42000000  0.31965000  1.0
  O  O112  1  0.66822000  0.27739000  0.42968000  1.0
  O  O113  1  0.27434000  0.79468000  0.05455000  1.0
  O  O114  1  0.13711000  0.83689000  0.17984000  1.0
  O  O115  1  0.37144000  0.53270000  0.46055000  1.0
  O  O116  1  0.47645000  0.61152000  0.34052000  1.0
  O  O117  1  0.57710000  0.46364000  0.50457000  1.0
