# generated using pymatgen
data_CdH6C8I2(N2Cl)2
_symmetry_space_group_name_H-M   'P 1'
_cell_length_a   4.12386000
_cell_length_b   10.53010000
_cell_length_c   17.02330000
_cell_angle_alpha   90.00000000
_cell_angle_beta   91.99990000
_cell_angle_gamma   90.00000000
_symmetry_Int_Tables_number   1
_chemical_formula_structural   CdH6C8I2(N2Cl)2
_chemical_formula_sum   'Cd2 H12 C16 I4 N8 Cl4'
_cell_volume   738.78070918
_cell_formula_units_Z   2
loop_
 _symmetry_equiv_pos_site_id
 _symmetry_equiv_pos_as_xyz
  1  'x, y, z'
loop_
 _atom_site_type_symbol
 _atom_site_label
 _atom_site_symmetry_multiplicity
 _atom_site_fract_x
 _atom_site_fract_y
 _atom_site_fract_z
 _atom_site_occupancy
  Cd  Cd0  1  0.50000000  0.00000000  0.50000000  1.0
  Cd  Cd1  1  0.50000000  0.50000000  0.00000000  1.0
  H  H2  1  0.35318000  0.30479000  0.48629000  1.0
  H  H3  1  0.64681000  0.80479000  0.01371000  1.0
  H  H4  1  0.64681000  0.69521000  0.51371000  1.0
  H  H5  1  0.35320000  0.19521000  0.98629000  1.0
  H  H6  1  0.58217000  0.05294000  0.30730000  1.0
  H  H7  1  0.41784000  0.55294000  0.19270000  1.0
  H  H8  1  0.41784000  0.94706000  0.69270000  1.0
  H  H9  1  0.58217000  0.44706000  0.80730000  1.0
  H  H10  1  0.55397000  0.23438000  0.20932000  1.0
  H  H11  1  0.44602000  0.73438000  0.29068000  1.0
  H  H12  1  0.44602000  0.76561000  0.79068000  1.0
  H  H13  1  0.55398000  0.26562000  0.70932000  1.0
  C  C14  1  0.36680000  0.38546000  0.36790000  1.0
  C  C15  1  0.63320000  0.88546000  0.13209000  1.0
  C  C16  1  0.63319000  0.61454000  0.63209000  1.0
  C  C17  1  0.36681000  0.11454000  0.86790000  1.0
  C  C18  1  0.39600000  0.28866000  0.42419000  1.0
  C  C19  1  0.60400000  0.78866000  0.07581000  1.0
  C  C20  1  0.60400000  0.71134000  0.57581000  1.0
  C  C21  1  0.39600000  0.21134000  0.92419000  1.0
  C  C22  1  0.52540000  0.14987000  0.32523000  1.0
  C  C23  1  0.47460000  0.64987000  0.17477000  1.0
  C  C24  1  0.47460000  0.85013000  0.67477000  1.0
  C  C25  1  0.52541000  0.35013000  0.82523000  1.0
  C  C26  1  0.50557000  0.24951000  0.27125000  1.0
  C  C27  1  0.49443000  0.74952000  0.22874000  1.0
  C  C28  1  0.49443000  0.75048000  0.72874000  1.0
  C  C29  1  0.50557000  0.25048000  0.77126000  1.0
  I  I30  1  0.99665000  0.86565000  0.40742000  1.0
  I  I31  1  0.00336000  0.36565000  0.09258000  1.0
  I  I32  1  0.00336000  0.13435000  0.59258000  1.0
  I  I33  1  0.99665000  0.63436000  0.90742000  1.0
  N  N34  1  0.42536000  0.36790000  0.29262000  1.0
  N  N35  1  0.57463000  0.86790000  0.20738000  1.0
  N  N36  1  0.57463000  0.63210000  0.70738000  1.0
  N  N37  1  0.42537000  0.13210000  0.79262000  1.0
  N  N38  1  0.47346000  0.17125000  0.40165000  1.0
  N  N39  1  0.52655000  0.67126000  0.09835000  1.0
  N  N40  1  0.52655000  0.82875000  0.59835000  1.0
  N  N41  1  0.47346000  0.32875000  0.90165000  1.0
  Cl  Cl42  1  0.24249000  0.53518000  0.39660000  1.0
  Cl  Cl43  1  0.75750000  0.03518000  0.10339000  1.0
  Cl  Cl44  1  0.75750000  0.46482000  0.60339000  1.0
  Cl  Cl45  1  0.24249000  0.96482000  0.89660000  1.0
