# generated using pymatgen
data_HgH18C20(OF4)2
_symmetry_space_group_name_H-M   'P 1'
_cell_length_a   9.22241000
_cell_length_b   10.46100000
_cell_length_c   10.91480000
_cell_angle_alpha   90.00000000
_cell_angle_beta   90.00000000
_cell_angle_gamma   93.18910000
_symmetry_Int_Tables_number   1
_chemical_formula_structural   HgH18C20(OF4)2
_chemical_formula_sum   'Hg2 H36 C40 O4 F16'
_cell_volume   1051.38148645
_cell_formula_units_Z   2
loop_
 _symmetry_equiv_pos_site_id
 _symmetry_equiv_pos_as_xyz
  1  'x, y, z'
loop_
 _atom_site_type_symbol
 _atom_site_label
 _atom_site_symmetry_multiplicity
 _atom_site_fract_x
 _atom_site_fract_y
 _atom_site_fract_z
 _atom_site_occupancy
  Hg  Hg0  1  0.00000000  0.00000000  0.00000000  1.0
  Hg  Hg1  1  0.50000000  0.00000000  0.50000000  1.0
  H  H2  1  0.48132000  0.59695000  0.55001000  1.0
  H  H3  1  0.01868000  0.40304000  0.05001000  1.0
  H  H4  1  0.51868000  0.40304000  0.44999000  1.0
  H  H5  1  0.98132000  0.59695000  0.94999000  1.0
  H  H6  1  0.35349000  0.53575000  0.66104000  1.0
  H  H7  1  0.14651000  0.46425000  0.16104000  1.0
  H  H8  1  0.64651000  0.46425000  0.33896000  1.0
  H  H9  1  0.85349000  0.53575000  0.83896000  1.0
  H  H10  1  0.41367000  0.70046000  0.66369000  1.0
  H  H11  1  0.08633000  0.29954000  0.16369000  1.0
  H  H12  1  0.58633000  0.29954000  0.33631000  1.0
  H  H13  1  0.91367000  0.70046000  0.83631000  1.0
  H  H14  1  0.16374000  0.77666000  0.64859000  1.0
  H  H15  1  0.33626000  0.22334000  0.14859000  1.0
  H  H16  1  0.83626000  0.22334000  0.35141000  1.0
  H  H17  1  0.66374000  0.77666000  0.85141000  1.0
  H  H18  1  0.08963000  0.61575000  0.65155000  1.0
  H  H19  1  0.41037000  0.38425000  0.15155000  1.0
  H  H20  1  0.91037000  0.38425000  0.34845000  1.0
  H  H21  1  0.58963000  0.61575000  0.84845000  1.0
  H  H22  1  0.04204000  0.71955000  0.53142000  1.0
  H  H23  1  0.45796000  0.28045000  0.03142000  1.0
  H  H24  1  0.95796000  0.28045000  0.46858000  1.0
  H  H25  1  0.54204000  0.71955000  0.96858000  1.0
  H  H26  1  0.12877000  0.56238000  0.37219000  1.0
  H  H27  1  0.37123000  0.43762000  0.87219000  1.0
  H  H28  1  0.87123000  0.43762000  0.62781000  1.0
  H  H29  1  0.62877000  0.56238000  0.12781000  1.0
  H  H30  1  0.17251000  0.45541000  0.49088000  1.0
  H  H31  1  0.32748000  0.54459000  0.99088000  1.0
  H  H32  1  0.82748000  0.54459000  0.50912000  1.0
  H  H33  1  0.67251000  0.45541000  0.00912000  1.0
  H  H34  1  0.30748000  0.50558000  0.38208000  1.0
  H  H35  1  0.19252000  0.49442000  0.88208000  1.0
  H  H36  1  0.69252000  0.49442000  0.61792000  1.0
  H  H37  1  0.80748000  0.50558000  0.11792000  1.0
  C  C38  1  0.16060000  0.90758000  0.36338000  1.0
  C  C39  1  0.33940000  0.09242000  0.86338000  1.0
  C  C40  1  0.83940000  0.09242000  0.63662000  1.0
  C  C41  1  0.66060000  0.90758000  0.13662000  1.0
  C  C42  1  0.24860000  0.80332000  0.34777000  1.0
  C  C43  1  0.25140000  0.19668000  0.84777000  1.0
  C  C44  1  0.75140000  0.19668000  0.65223000  1.0
  C  C45  1  0.74860000  0.80332000  0.15223000  1.0
  C  C46  1  0.11147000  0.91929000  0.14458000  1.0
  C  C47  1  0.38853000  0.08071000  0.64458000  1.0
  C  C48  1  0.88853000  0.08071000  0.85542000  1.0
  C  C49  1  0.61147000  0.91929000  0.35542000  1.0
  C  C50  1  0.26899000  0.76097000  0.22703000  1.0
  C  C51  1  0.23101000  0.23903000  0.72703000  1.0
  C  C52  1  0.73101000  0.23903000  0.77297000  1.0
  C  C53  1  0.76899000  0.76097000  0.27297000  1.0
  C  C54  1  0.20040000  0.81769000  0.12895000  1.0
  C  C55  1  0.29960000  0.18231000  0.62895000  1.0
  C  C56  1  0.79960000  0.18231000  0.87105000  1.0
  C  C57  1  0.70040000  0.81769000  0.37105000  1.0
  C  C58  1  0.09507000  0.96330000  0.26326000  1.0
  C  C59  1  0.40493000  0.03670000  0.76326000  1.0
  C  C60  1  0.90493000  0.03670000  0.73674000  1.0
  C  C61  1  0.59507000  0.96330000  0.23675000  1.0
  C  C62  1  0.25989000  0.64857000  0.51901000  1.0
  C  C63  1  0.24011000  0.35142000  0.01901000  1.0
  C  C64  1  0.74011000  0.35142000  0.48099000  1.0
  C  C65  1  0.75989000  0.64857000  0.98099000  1.0
  C  C66  1  0.38503000  0.61872000  0.60345000  1.0
  C  C67  1  0.11497000  0.38128000  0.10345000  1.0
  C  C68  1  0.61497000  0.38128000  0.39655000  1.0
  C  C69  1  0.88503000  0.61872000  0.89655000  1.0
  C  C70  1  0.13131000  0.69374000  0.59153000  1.0
  C  C71  1  0.36869000  0.30626000  0.09153000  1.0
  C  C72  1  0.86869000  0.30626000  0.40847000  1.0
  C  C73  1  0.63131000  0.69374000  0.90847000  1.0
  C  C74  1  0.21509000  0.53655000  0.43554000  1.0
  C  C75  1  0.28491000  0.46345000  0.93554000  1.0
  C  C76  1  0.78491000  0.46345000  0.56446000  1.0
  C  C77  1  0.71509000  0.53655000  0.06446000  1.0
  O  O78  1  0.32524000  0.75657000  0.44306000  1.0
  O  O79  1  0.17476000  0.24343000  0.94306000  1.0
  O  O80  1  0.67476000  0.24343000  0.55694000  1.0
  O  O81  1  0.82525000  0.75657000  0.05694000  1.0
  F  F82  1  0.01209000  0.06513000  0.28431000  1.0
  F  F83  1  0.48790000  0.93487000  0.78431000  1.0
  F  F84  1  0.98791000  0.93487000  0.71568000  1.0
  F  F85  1  0.51209000  0.06513000  0.21568000  1.0
  F  F86  1  0.22381000  0.77105000  0.01423000  1.0
  F  F87  1  0.27619000  0.22895000  0.51423000  1.0
  F  F88  1  0.77619000  0.22895000  0.98577000  1.0
  F  F89  1  0.72381000  0.77105000  0.48577000  1.0
  F  F90  1  0.35956000  0.66507000  0.20555000  1.0
  F  F91  1  0.14044000  0.33493000  0.70555000  1.0
  F  F92  1  0.64044000  0.33493000  0.79445000  1.0
  F  F93  1  0.85956000  0.66507000  0.29445000  1.0
  F  F94  1  0.14241000  0.95617000  0.47687000  1.0
  F  F95  1  0.35759000  0.04383000  0.97687000  1.0
  F  F96  1  0.85759000  0.04383000  0.52313000  1.0
  F  F97  1  0.64242000  0.95617000  0.02313000  1.0
