# generated using pymatgen
data_CuPH5C7O5
_symmetry_space_group_name_H-M   'P 1'
_cell_length_a   5.22274000
_cell_length_b   8.12010000
_cell_length_c   19.39881836
_cell_angle_alpha   102.03707557
_cell_angle_beta   96.87563057
_cell_angle_gamma   90.00720000
_symmetry_Int_Tables_number   1
_chemical_formula_structural   CuPH5C7O5
_chemical_formula_sum   'Cu4 P4 H20 C28 O20'
_cell_volume   798.54609663
_cell_formula_units_Z   4
loop_
 _symmetry_equiv_pos_site_id
 _symmetry_equiv_pos_as_xyz
  1  'x, y, z'
loop_
 _atom_site_type_symbol
 _atom_site_label
 _atom_site_symmetry_multiplicity
 _atom_site_fract_x
 _atom_site_fract_y
 _atom_site_fract_z
 _atom_site_occupancy
  Cu  Cu0  1  0.75004000  0.06217000  0.00005000  1.0
  Cu  Cu1  1  0.24992000  0.93781000  0.99994000  1.0
  Cu  Cu2  1  0.74998000  0.43426000  0.00003000  1.0
  Cu  Cu3  1  0.24999000  0.56573000  0.99998000  1.0
  P  P4  1  0.78922000  0.70138000  0.90745000  1.0
  P  P5  1  0.71048000  0.79368000  0.09256000  1.0
  P  P6  1  0.21077000  0.29860000  0.09255000  1.0
  P  P7  1  0.28949000  0.20632000  0.90744000  1.0
  H  H8  1  0.16372000  0.81010000  0.82929000  1.0
  H  H9  1  0.33607000  0.98035000  0.17071000  1.0
  H  H10  1  0.83626000  0.18993000  0.17072000  1.0
  H  H11  1  0.66390000  0.01964000  0.82929000  1.0
  H  H12  1  0.21674000  0.75141000  0.70047000  1.0
  H  H13  1  0.28391000  0.05050000  0.29959000  1.0
  H  H14  1  0.78329000  0.24863000  0.29954000  1.0
  H  H15  1  0.71607000  0.94949000  0.70042000  1.0
  H  H16  1  0.53082000  0.43589000  0.65326000  1.0
  H  H17  1  0.96912000  0.78147000  0.34674000  1.0
  H  H18  1  0.46921000  0.56412000  0.34672000  1.0
  H  H19  1  0.03088000  0.21854000  0.65326000  1.0
  H  H20  1  0.47601000  0.49115000  0.78191000  1.0
  H  H21  1  0.02352000  0.70825000  0.21801000  1.0
  H  H22  1  0.52398000  0.50883000  0.21807000  1.0
  H  H23  1  0.97647000  0.29175000  0.78199000  1.0
  H  H24  1  0.81252000  0.42175000  0.49949000  1.0
  H  H25  1  0.68759000  0.92197000  0.50056000  1.0
  H  H26  1  0.18752000  0.57825000  0.50050000  1.0
  H  H27  1  0.31244000  0.07806000  0.49945000  1.0
  C  C28  1  0.81554000  0.65539000  0.81371000  1.0
  C  C29  1  0.68393000  0.84082000  0.18629000  1.0
  C  C30  1  0.18445000  0.34460000  0.18629000  1.0
  C  C31  1  0.31605000  0.15918000  0.81371000  1.0
  C  C32  1  0.02433000  0.72918000  0.79074000  1.0
  C  C33  1  0.47538000  0.93773000  0.20925000  1.0
  C  C34  1  0.97569000  0.27082000  0.20926000  1.0
  C  C35  1  0.52460000  0.06226000  0.79075000  1.0
  C  C36  1  0.05450000  0.69670000  0.71905000  1.0
  C  C37  1  0.44561000  0.97682000  0.28096000  1.0
  C  C38  1  0.94553000  0.30330000  0.28095000  1.0
  C  C39  1  0.55439000  0.02318000  0.71905000  1.0
  C  C40  1  0.87810000  0.58996000  0.66956000  1.0
  C  C41  1  0.62213000  0.91944000  0.33042000  1.0
  C  C42  1  0.12194000  0.41005000  0.33043000  1.0
  C  C43  1  0.37786000  0.08055000  0.66958000  1.0
  C  C44  1  0.66833000  0.51716000  0.69226000  1.0
  C  C45  1  0.83148000  0.82371000  0.30771000  1.0
  C  C46  1  0.33168000  0.48283000  0.30773000  1.0
  C  C47  1  0.16851000  0.17629000  0.69229000  1.0
  C  C48  1  0.63721000  0.54947000  0.76423000  1.0
  C  C49  1  0.86235000  0.78412000  0.23573000  1.0
  C  C50  1  0.36280000  0.45053000  0.23576000  1.0
  C  C51  1  0.13764000  0.21588000  0.76427000  1.0
  C  C52  1  0.92618000  0.55298000  0.59392000  1.0
  C  C53  1  0.57426000  0.95835000  0.40607000  1.0
  C  C54  1  0.07386000  0.44703000  0.40608000  1.0
  C  C55  1  0.42575000  0.04168000  0.59394000  1.0
  O  O56  1  0.64672000  0.86851000  0.92465000  1.0
  O  O57  1  0.85316000  0.94381000  0.07552000  1.0
  O  O58  1  0.35327000  0.13147000  0.07534000  1.0
  O  O59  1  0.14681000  0.05620000  0.92448000  1.0
  O  O60  1  0.64519000  0.55379000  0.92515000  1.0
  O  O61  1  0.85480000  0.62861000  0.07477000  1.0
  O  O62  1  0.35480000  0.44620000  0.07485000  1.0
  O  O63  1  0.14517000  0.37139000  0.92524000  1.0
  O  O64  1  0.07473000  0.72372000  0.94569000  1.0
  O  O65  1  0.42504000  0.77785000  0.05428000  1.0
  O  O66  1  0.92525000  0.27626000  0.05431000  1.0
  O  O67  1  0.57492000  0.22215000  0.94573000  1.0
  O  O68  1  0.76069000  0.44544000  0.55070000  1.0
  O  O69  1  0.73948000  0.89393000  0.44939000  1.0
  O  O70  1  0.23935000  0.55458000  0.44930000  1.0
  O  O71  1  0.26050000  0.10607000  0.55061000  1.0
  O  O72  1  0.11519000  0.61950000  0.57537000  1.0
  O  O73  1  0.38567000  0.04378000  0.42456000  1.0
  O  O74  1  0.88487000  0.38049000  0.42463000  1.0
  O  O75  1  0.61436000  0.95626000  0.57544000  1.0
