# generated using pymatgen
data_AgH8C8NO2
_symmetry_space_group_name_H-M   'P 1'
_cell_length_a   4.81025000
_cell_length_b   7.94030000
_cell_length_c   11.68860000
_cell_angle_alpha   99.11630000
_cell_angle_beta   99.55850000
_cell_angle_gamma   102.88900000
_symmetry_Int_Tables_number   1
_chemical_formula_structural   AgH8C8NO2
_chemical_formula_sum   'Ag2 H16 C16 N2 O4'
_cell_volume   420.18630230
_cell_formula_units_Z   2
loop_
 _symmetry_equiv_pos_site_id
 _symmetry_equiv_pos_as_xyz
  1  'x, y, z'
loop_
 _atom_site_type_symbol
 _atom_site_label
 _atom_site_symmetry_multiplicity
 _atom_site_fract_x
 _atom_site_fract_y
 _atom_site_fract_z
 _atom_site_occupancy
  Ag  Ag0  1  0.74517000  0.94626000  0.91163000  1.0
  Ag  Ag1  1  0.25481000  0.05374000  0.08837000  1.0
  H  H2  1  0.52500000  0.79315000  0.29424000  1.0
  H  H3  1  0.47500000  0.20685000  0.70577000  1.0
  H  H4  1  0.75800000  0.64894000  0.28778000  1.0
  H  H5  1  0.24201000  0.35107000  0.71222000  1.0
  H  H6  1  0.19651000  0.61467000  0.10638000  1.0
  H  H7  1  0.80350000  0.38533000  0.89362000  1.0
  H  H8  1  0.41321000  0.46471000  0.09714000  1.0
  H  H9  1  0.58681000  0.53529000  0.90287000  1.0
  H  H10  1  0.81592000  0.32238000  0.07148000  1.0
  H  H11  1  0.18409000  0.67762000  0.92851000  1.0
  H  H12  1  0.43697000  0.53292000  0.40265000  1.0
  H  H13  1  0.56303000  0.46706000  0.59735000  1.0
  H  H14  1  0.10049000  0.33265000  0.49524000  1.0
  H  H15  1  0.89951000  0.66733000  0.50475000  1.0
  H  H16  1  0.62988000  0.14053000  0.36935000  1.0
  H  H17  1  0.37012000  0.85946000  0.63064000  1.0
  C  C18  1  0.76112000  0.80768000  0.15626000  1.0
  C  C19  1  0.23887000  0.19234000  0.84375000  1.0
  C  C20  1  0.59935000  0.69990000  0.23351000  1.0
  C  C21  1  0.40066000  0.30011000  0.76650000  1.0
  C  C22  1  0.33923000  0.55402000  0.16076000  1.0
  C  C23  1  0.66077000  0.44599000  0.83925000  1.0
  C  C24  1  0.89028000  0.32855000  0.16595000  1.0
  C  C25  1  0.10972000  0.67145000  0.83404000  1.0
  C  C26  1  0.15774000  0.44355000  0.22825000  1.0
  C  C27  1  0.84226000  0.55645000  0.77175000  1.0
  C  C28  1  0.23349000  0.44530000  0.34918000  1.0
  C  C29  1  0.76651000  0.55469000  0.65082000  1.0
  C  C30  1  0.04648000  0.33442000  0.40123000  1.0
  C  C31  1  0.95352000  0.66557000  0.59876000  1.0
  C  C32  1  0.78444000  0.22701000  0.33191000  1.0
  C  C33  1  0.21556000  0.77298000  0.66809000  1.0
  N  N34  1  0.70578000  0.22514000  0.21574000  1.0
  N  N35  1  0.29422000  0.77486000  0.78425000  1.0
  O  O36  1  0.61550000  0.80656000  0.05434000  1.0
  O  O37  1  0.38450000  0.19344000  0.94566000  1.0
  O  O38  1  0.02530000  0.89053000  0.19966000  1.0
  O  O39  1  0.97470000  0.10949000  0.80035000  1.0
