# generated using pymatgen
data_K3H3CN6O7
_symmetry_space_group_name_H-M   'P 1'
_cell_length_a   7.81358000
_cell_length_b   8.98949000
_cell_length_c   9.12221000
_cell_angle_alpha   113.26690000
_cell_angle_beta   92.27370000
_cell_angle_gamma   110.04210000
_symmetry_Int_Tables_number   1
_chemical_formula_structural   K3H3CN6O7
_chemical_formula_sum   'K6 H6 C2 N12 O14'
_cell_volume   541.49477402
_cell_formula_units_Z   2
loop_
 _symmetry_equiv_pos_site_id
 _symmetry_equiv_pos_as_xyz
  1  'x, y, z'
loop_
 _atom_site_type_symbol
 _atom_site_label
 _atom_site_symmetry_multiplicity
 _atom_site_fract_x
 _atom_site_fract_y
 _atom_site_fract_z
 _atom_site_occupancy
  K  K0  1  0.71507000  0.37965000  0.95796000  1.0
  K  K1  1  0.28494000  0.62035000  0.04204000  1.0
  K  K2  1  0.92917000  0.26803000  0.27359000  1.0
  K  K3  1  0.07082000  0.73195000  0.72640000  1.0
  K  K4  1  0.54094000  0.79274000  0.53972000  1.0
  K  K5  1  0.45906000  0.20727000  0.46028000  1.0
  H  H6  1  0.98926000  0.00094000  0.63557000  1.0
  H  H7  1  0.01074000  0.99906000  0.36443000  1.0
  H  H8  1  0.28021000  0.47280000  0.63019000  1.0
  H  H9  1  0.71980000  0.52720000  0.36982000  1.0
  H  H10  1  0.45947000  0.58328000  0.76556000  1.0
  H  H11  1  0.54053000  0.41672000  0.23445000  1.0
  C  C12  1  0.05398000  0.14052000  0.72397000  1.0
  C  C13  1  0.94603000  0.85948000  0.27603000  1.0
  N  N14  1  0.25452000  0.18493000  0.75681000  1.0
  N  N15  1  0.74549000  0.81507000  0.24320000  1.0
  N  N16  1  0.29642000  0.04557000  0.68802000  1.0
  N  N17  1  0.70358000  0.95442000  0.31198000  1.0
  N  N18  1  0.02304000  0.25035000  0.64798000  1.0
  N  N19  1  0.97696000  0.74965000  0.35203000  1.0
  N  N20  1  0.88540000  0.30072000  0.68089000  1.0
  N  N21  1  0.11460000  0.69927000  0.31911000  1.0
  N  N22  1  0.97143000  0.15507000  0.86557000  1.0
  N  N23  1  0.02857000  0.84494000  0.13444000  1.0
  N  N24  1  0.83916000  0.00168000  0.84401000  1.0
  N  N25  1  0.16082000  0.99833000  0.15599000  1.0
  O  O26  1  0.37285000  0.34639000  0.83870000  1.0
  O  O27  1  0.62715000  0.65361000  0.16130000  1.0
  O  O28  1  0.47199000  0.08070000  0.70885000  1.0
  O  O29  1  0.52802000  0.91930000  0.29115000  1.0
  O  O30  1  0.12061000  0.26672000  0.53613000  1.0
  O  O31  1  0.87939000  0.73327000  0.46387000  1.0
  O  O32  1  0.84800000  0.37577000  0.59705000  1.0
  O  O33  1  0.15200000  0.62423000  0.40294000  1.0
  O  O34  1  0.02594000  0.30250000  0.99832000  1.0
  O  O35  1  0.97407000  0.69750000  0.00169000  1.0
  O  O36  1  0.76422000  0.00755000  0.96573000  1.0
  O  O37  1  0.23575000  0.99246000  0.03426000  1.0
  O  O38  1  0.37572000  0.59582000  0.69337000  1.0
  O  O39  1  0.62429000  0.40418000  0.30663000  1.0
