# generated using pymatgen
data_AlH3C27(OF2)6
_symmetry_space_group_name_H-M   'P 1'
_cell_length_a   4.05903000
_cell_length_b   16.08650000
_cell_length_c   16.09120000
_cell_angle_alpha   119.84100000
_cell_angle_beta   91.21630000
_cell_angle_gamma   91.20140000
_symmetry_Int_Tables_number   1
_chemical_formula_structural   AlH3C27(OF2)6
_chemical_formula_sum   'Al1 H3 C27 O6 F12'
_cell_volume   910.56593578
_cell_formula_units_Z   1
loop_
 _symmetry_equiv_pos_site_id
 _symmetry_equiv_pos_as_xyz
  1  'x, y, z'
loop_
 _atom_site_type_symbol
 _atom_site_label
 _atom_site_symmetry_multiplicity
 _atom_site_fract_x
 _atom_site_fract_y
 _atom_site_fract_z
 _atom_site_occupancy
  Al  Al0  1  0.00018000  0.50005000  0.49993000  1.0
  H  H1  1  0.49987000  0.07723000  0.92289000  1.0
  H  H2  1  0.42571000  0.34218000  0.92030000  1.0
  H  H3  1  0.57385000  0.07988000  0.65807000  1.0
  C  C4  1  0.48398000  0.42771000  0.35328000  1.0
  C  C5  1  0.50012000  0.42696000  0.57302000  1.0
  C  C6  1  0.51635000  0.64674000  0.57238000  1.0
  C  C7  1  0.47547000  0.21620000  0.93404000  1.0
  C  C8  1  0.49983000  0.11622000  0.88394000  1.0
  C  C9  1  0.52422000  0.06610000  0.78399000  1.0
  C  C10  1  0.53565000  0.11740000  0.73465000  1.0
  C  C11  1  0.49972000  0.21682000  0.78339000  1.0
  C  C12  1  0.46388000  0.26555000  0.88277000  1.0
  C  C13  1  0.68315000  0.80717000  0.71608000  1.0
  C  C14  1  0.68910000  0.90705000  0.76612000  1.0
  C  C15  1  0.52968000  0.96016000  0.73044000  1.0
  C  C16  1  0.36539000  0.90578000  0.64049000  1.0
  C  C17  1  0.36486000  0.80598000  0.58942000  1.0
  C  C18  1  0.52323000  0.75484000  0.62646000  1.0
  C  C19  1  0.31096000  0.23402000  0.09302000  1.0
  C  C20  1  0.31704000  0.28403000  0.19288000  1.0
  C  C21  1  0.47692000  0.37368000  0.24521000  1.0
  C  C22  1  0.63520000  0.41074000  0.19408000  1.0
  C  C23  1  0.63457000  0.35969000  0.09432000  1.0
  C  C24  1  0.47029000  0.26973000  0.03994000  1.0
  C  C25  1  0.66475000  0.35927000  0.76586000  1.0
  C  C26  1  0.66691000  0.40950000  0.71606000  1.0
  C  C27  1  0.50013000  0.37338000  0.62662000  1.0
  C  C28  1  0.33306000  0.28397000  0.59059000  1.0
  C  C29  1  0.33486000  0.23424000  0.64090000  1.0
  C  C30  1  0.49973000  0.26986000  0.73032000  1.0
  O  O31  1  0.27836000  0.60554000  0.58908000  1.0
  O  O32  1  0.25364000  0.48462000  0.39339000  1.0
  O  O33  1  0.25829000  0.41061000  0.51464000  1.0
  O  O34  1  0.74670000  0.60667000  0.51548000  1.0
  O  O35  1  0.74217000  0.48523000  0.58928000  1.0
  O  O36  1  0.72203000  0.41096000  0.39443000  1.0
  F  F37  1  0.20322000  0.75861000  0.50318000  1.0
  F  F38  1  0.83858000  0.76067000  0.75522000  1.0
  F  F39  1  0.18998000  0.94954000  0.60139000  1.0
  F  F40  1  0.86208000  0.95244000  0.85106000  1.0
  F  F41  1  0.16157000  0.24487000  0.23934000  1.0
  F  F42  1  0.13789000  0.14907000  0.04765000  1.0
  F  F43  1  0.79679000  0.49701000  0.24146000  1.0
  F  F44  1  0.80986000  0.39882000  0.05059000  1.0
  F  F45  1  0.83876000  0.39882000  0.85051000  1.0
  F  F46  1  0.83244000  0.49485000  0.75775000  1.0
  F  F47  1  0.16074000  0.14960000  0.60145000  1.0
  F  F48  1  0.16774000  0.24218000  0.50522000  1.0
