# generated using pymatgen
data_ZnH22C20(NO)4
_symmetry_space_group_name_H-M   'P 1'
_cell_length_a   9.61065000
_cell_length_b   9.89670000
_cell_length_c   11.65410000
_cell_angle_alpha   79.08050000
_cell_angle_beta   73.60350000
_cell_angle_gamma   69.37730000
_symmetry_Int_Tables_number   1
_chemical_formula_structural   ZnH22C20(NO)4
_chemical_formula_sum   'Zn2 H44 C40 N8 O8'
_cell_volume   990.22995967
_cell_formula_units_Z   2
loop_
 _symmetry_equiv_pos_site_id
 _symmetry_equiv_pos_as_xyz
  1  'x, y, z'
loop_
 _atom_site_type_symbol
 _atom_site_label
 _atom_site_symmetry_multiplicity
 _atom_site_fract_x
 _atom_site_fract_y
 _atom_site_fract_z
 _atom_site_occupancy
  Zn  Zn0  1  0.19226000  0.29991000  0.62242000  1.0
  Zn  Zn1  1  0.80774000  0.70009000  0.37758000  1.0
  H  H2  1  0.83763000  0.36761000  0.52972000  1.0
  H  H3  1  0.16237000  0.63239000  0.47028000  1.0
  H  H4  1  0.75326000  0.41249000  0.40526000  1.0
  H  H5  1  0.24674000  0.58751000  0.59474000  1.0
  H  H6  1  0.41172000  0.46200000  0.92736000  1.0
  H  H7  1  0.58829000  0.53800000  0.07264000  1.0
  H  H8  1  0.57901000  0.51332000  0.86652000  1.0
  H  H9  1  0.42099000  0.48668000  0.13348000  1.0
  H  H10  1  0.61757000  0.99424000  0.73804000  1.0
  H  H11  1  0.38244000  0.00576000  0.26196000  1.0
  H  H12  1  0.81225000  0.14231000  0.39453000  1.0
  H  H13  1  0.18775000  0.85769000  0.60547000  1.0
  H  H14  1  0.97048000  0.20631000  0.35761000  1.0
  H  H15  1  0.02952000  0.79370000  0.64239000  1.0
  H  H16  1  0.40660000  0.97439000  0.66240000  1.0
  H  H17  1  0.59340000  0.02560000  0.33760000  1.0
  H  H18  1  0.03118000  0.88304000  0.91992000  1.0
  H  H19  1  0.96882000  0.11696000  0.08008000  1.0
  H  H20  1  0.27218000  0.70260000  0.00786000  1.0
  H  H21  1  0.72782000  0.29740000  0.99214000  1.0
  H  H22  1  0.43984000  0.75473000  0.95075000  1.0
  H  H23  1  0.56016000  0.24527000  0.04924000  1.0
  H  H24  1  0.63745000  0.00940000  0.94360000  1.0
  H  H25  1  0.36255000  0.99060000  0.05639000  1.0
  H  H26  1  0.94171000  0.17499000  0.82595000  1.0
  H  H27  1  0.05829000  0.82501000  0.17405000  1.0
  H  H28  1  0.44669000  0.72335000  0.74353000  1.0
  H  H29  1  0.55331000  0.27665000  0.25647000  1.0
  H  H30  1  0.28048000  0.66849000  0.79498000  1.0
  H  H31  1  0.71951000  0.33151000  0.20503000  1.0
  H  H32  1  0.90706000  0.55694000  0.96114000  1.0
  H  H33  1  0.09294000  0.44306000  0.03887000  1.0
  H  H34  1  0.85690000  0.04916000  0.60143000  1.0
  H  H35  1  0.14310000  0.95084000  0.39857000  1.0
  H  H36  1  0.01442000  0.11426000  0.56469000  1.0
  H  H37  1  0.98558000  0.88574000  0.43530000  1.0
  H  H38  1  0.52687000  0.27251000  0.44228000  1.0
  H  H39  1  0.47313000  0.72749000  0.55772000  1.0
  H  H40  1  0.78365000  0.78819000  0.05594000  1.0
  H  H41  1  0.21635000  0.21181000  0.94407000  1.0
  H  H42  1  0.65907000  0.37154000  0.72451000  1.0
  H  H43  1  0.34093000  0.62846000  0.27549000  1.0
  H  H44  1  0.36106000  0.35159000  0.80618000  1.0
  H  H45  1  0.63894000  0.64841000  0.19382000  1.0
  C  C46  1  0.75210000  0.76936000  0.73297000  1.0
  C  C47  1  0.24790000  0.23064000  0.26703000  1.0
  C  C48  1  0.83552000  0.64511000  0.79575000  1.0
  C  C49  1  0.16448000  0.35489000  0.20425000  1.0
  C  C50  1  0.91761000  0.50054000  0.74477000  1.0
  C  C51  1  0.08239000  0.49946000  0.25524000  1.0
  C  C52  1  0.77935000  0.32980000  0.47991000  1.0
  C  C53  1  0.22065000  0.67020000  0.52009000  1.0
  C  C54  1  0.47610000  0.52801000  0.94086000  1.0
  C  C55  1  0.52390000  0.47199000  0.05914000  1.0
  C  C56  1  0.73852000  0.77266000  0.60663000  1.0
  C  C57  1  0.26148000  0.22734000  0.39337000  1.0
  C  C58  1  0.68034000  0.89887000  0.78847000  1.0
  C  C59  1  0.31967000  0.10113000  0.21153000  1.0
  C  C60  1  0.87923000  0.18474000  0.43265000  1.0
  C  C61  1  0.12077000  0.81526000  0.56735000  1.0
  C  C62  1  0.29203000  0.99288000  0.72081000  1.0
  C  C63  1  0.70797000  0.00712000  0.27919000  1.0
  C  C64  1  0.09430000  0.94706000  0.85500000  1.0
  C  C65  1  0.90570000  0.05294000  0.14501000  1.0
  C  C66  1  0.37773000  0.68726000  0.93598000  1.0
  C  C67  1  0.62226000  0.31274000  0.06402000  1.0
  C  C68  1  0.69158000  0.90703000  0.90335000  1.0
  C  C69  1  0.30842000  0.09297000  0.09665000  1.0
  C  C70  1  0.05117000  0.08995000  0.80890000  1.0
  C  C71  1  0.94883000  0.91005000  0.19110000  1.0
  C  C72  1  0.34003000  0.73605000  0.81321000  1.0
  C  C73  1  0.65997000  0.26395000  0.18679000  1.0
  C  C74  1  0.84363000  0.65379000  0.91238000  1.0
  C  C75  1  0.15637000  0.34621000  0.08762000  1.0
  C  C76  1  0.94848000  0.07089000  0.52625000  1.0
  C  C77  1  0.05152000  0.92911000  0.47374000  1.0
  C  C78  1  0.52025000  0.29832000  0.53011000  1.0
  C  C79  1  0.47975000  0.70167000  0.46990000  1.0
  C  C80  1  0.77329000  0.78335000  0.96601000  1.0
  C  C81  1  0.22671000  0.21665000  0.03399000  1.0
  C  C82  1  0.58525000  0.34804000  0.68098000  1.0
  C  C83  1  0.41475000  0.65196000  0.31902000  1.0
  C  C84  1  0.43962000  0.33823000  0.71877000  1.0
  C  C85  1  0.56038000  0.66178000  0.28123000  1.0
  N  N86  1  0.63366000  0.32319000  0.56135000  1.0
  N  N87  1  0.36634000  0.67682000  0.43865000  1.0
  N  N88  1  0.17552000  0.11673000  0.72555000  1.0
  N  N89  1  0.82448000  0.88327000  0.27445000  1.0
  N  N90  1  0.40044000  0.30712000  0.62369000  1.0
  N  N91  1  0.59956000  0.69288000  0.37631000  1.0
  N  N92  1  0.24645000  0.88780000  0.79867000  1.0
  N  N93  1  0.75355000  0.11220000  0.20133000  1.0
  O  O94  1  0.06452000  0.47051000  0.71267000  1.0
  O  O95  1  0.93549000  0.52949000  0.28733000  1.0
  O  O96  1  0.84451000  0.41857000  0.74401000  1.0
  O  O97  1  0.15549000  0.58143000  0.25599000  1.0
  O  O98  1  0.84247000  0.67455000  0.54164000  1.0
  O  O99  1  0.15753000  0.32544000  0.45836000  1.0
  O  O100  1  0.63011000  0.86931000  0.57004000  1.0
  O  O101  1  0.36989000  0.13068000  0.42996000  1.0
