# generated using pymatgen
data_ZnH38C38N3O5
_symmetry_space_group_name_H-M   'P 1'
_cell_length_a   14.95830000
_cell_length_b   14.96760000
_cell_length_c   18.23770000
_cell_angle_alpha   107.80100000
_cell_angle_beta   113.25000000
_cell_angle_gamma   98.38980000
_symmetry_Int_Tables_number   1
_chemical_formula_structural   ZnH38C38N3O5
_chemical_formula_sum   'Zn4 H152 C152 N12 O20'
_cell_volume   3402.13003292
_cell_formula_units_Z   4
loop_
 _symmetry_equiv_pos_site_id
 _symmetry_equiv_pos_as_xyz
  1  'x, y, z'
loop_
 _atom_site_type_symbol
 _atom_site_label
 _atom_site_symmetry_multiplicity
 _atom_site_fract_x
 _atom_site_fract_y
 _atom_site_fract_z
 _atom_site_occupancy
  Zn  Zn0  1  0.61435000  0.93126000  0.66247000  1.0
  Zn  Zn1  1  0.76903000  0.95199000  0.83805000  1.0
  Zn  Zn2  1  0.38565000  0.06874000  0.33753000  1.0
  Zn  Zn3  1  0.23097000  0.04801000  0.16195000  1.0
  H  H4  1  0.51784000  0.13331000  0.76770000  1.0
  H  H5  1  0.86566000  0.75049000  0.73234000  1.0
  H  H6  1  0.48217000  0.86669000  0.23230000  1.0
  H  H7  1  0.13433000  0.24951000  0.26766000  1.0
  H  H8  1  0.45581000  0.27630000  0.81386000  1.0
  H  H9  1  0.96240000  0.64212000  0.68618000  1.0
  H  H10  1  0.54419000  0.72370000  0.18614000  1.0
  H  H11  1  0.03759000  0.35788000  0.31382000  1.0
  H  H12  1  0.68159000  0.36270000  0.07896000  1.0
  H  H13  1  0.78359000  0.60263000  0.42101000  1.0
  H  H14  1  0.31841000  0.63730000  0.92104000  1.0
  H  H15  1  0.21641000  0.39738000  0.57899000  1.0
  H  H16  1  0.74018000  0.21695000  0.03271000  1.0
  H  H17  1  0.68437000  0.70783000  0.46733000  1.0
  H  H18  1  0.25982000  0.78306000  0.96729000  1.0
  H  H19  1  0.31563000  0.29217000  0.53267000  1.0
  H  H20  1  0.75980000  0.54456000  0.06523000  1.0
  H  H21  1  0.97949000  0.69425000  0.43447000  1.0
  H  H22  1  0.24020000  0.45544000  0.93477000  1.0
  H  H23  1  0.02051000  0.30576000  0.56554000  1.0
  H  H24  1  0.71389000  0.57857000  0.97579000  1.0
  H  H25  1  0.10282000  0.73788000  0.52406000  1.0
  H  H26  1  0.28611000  0.42143000  0.02421000  1.0
  H  H27  1  0.89719000  0.26212000  0.47594000  1.0
  H  H28  1  0.69983000  0.45264000  0.95828000  1.0
  H  H29  1  0.99416000  0.74135000  0.54131000  1.0
  H  H30  1  0.30017000  0.54736000  0.04172000  1.0
  H  H31  1  0.00585000  0.25866000  0.45870000  1.0
  H  H32  1  0.40864000  0.24922000  0.94694000  1.0
  H  H33  1  0.80229000  0.46185000  0.55332000  1.0
  H  H34  1  0.59137000  0.75078000  0.05306000  1.0
  H  H35  1  0.19770000  0.53815000  0.44668000  1.0
  H  H36  1  0.29905000  0.28055000  0.89183000  1.0
  H  H37  1  0.88872000  0.40720000  0.60821000  1.0
  H  H38  1  0.70095000  0.71945000  0.10817000  1.0
  H  H39  1  0.11128000  0.59280000  0.39179000  1.0
  H  H40  1  0.34461000  0.30507000  0.00259000  1.0
  H  H41  1  0.80237000  0.34225000  0.49746000  1.0
  H  H42  1  0.65539000  0.69493000  0.99740000  1.0
  H  H43  1  0.19763000  0.65775000  0.50254000  1.0
  H  H44  1  0.79336000  0.15230000  0.63037000  1.0
  H  H45  1  0.02264000  0.16343000  0.87070000  1.0
  H  H46  1  0.20664000  0.84770000  0.36963000  1.0
  H  H47  1  0.97736000  0.83657000  0.12930000  1.0
  H  H48  1  0.91972000  0.27856000  0.63006000  1.0
  H  H49  1  0.14911000  0.29026000  0.87110000  1.0
  H  H50  1  0.08028000  0.72144000  0.36994000  1.0
  H  H51  1  0.85089000  0.70974000  0.12890000  1.0
  H  H52  1  0.20079000  0.21088000  0.64633000  1.0
  H  H53  1  0.06461000  0.55493000  0.85396000  1.0
  H  H54  1  0.79921000  0.78912000  0.35368000  1.0
  H  H55  1  0.93540000  0.44507000  0.14604000  1.0
  H  H56  1  0.14360000  0.19176000  0.71084000  1.0
  H  H57  1  0.98106000  0.43324000  0.78959000  1.0
  H  H58  1  0.85641000  0.80824000  0.28916000  1.0
  H  H59  1  0.01894000  0.56676000  0.21041000  1.0
  H  H60  1  0.27831000  0.23703000  0.75714000  1.0
  H  H61  1  0.98023000  0.52134000  0.74303000  1.0
  H  H62  1  0.72169000  0.76298000  0.24287000  1.0
  H  H63  1  0.01977000  0.47866000  0.25697000  1.0
  H  H64  1  0.42677000  0.40656000  0.78721000  1.0
  H  H65  1  0.11965000  0.63954000  0.71302000  1.0
  H  H66  1  0.57323000  0.59344000  0.21279000  1.0
  H  H67  1  0.88034000  0.36046000  0.28698000  1.0
  H  H68  1  0.39155000  0.44146000  0.69802000  1.0
  H  H69  1  0.24382000  0.69344000  0.80217000  1.0
  H  H70  1  0.60845000  0.55854000  0.30198000  1.0
  H  H71  1  0.75618000  0.30656000  0.19783000  1.0
  H  H72  1  0.34214000  0.31717000  0.68077000  1.0
  H  H73  1  0.13675000  0.66144000  0.81951000  1.0
  H  H74  1  0.65786000  0.68283000  0.31923000  1.0
  H  H75  1  0.86325000  0.33856000  0.18049000  1.0
  H  H76  1  0.46121000  0.60599000  0.87195000  1.0
  H  H77  1  0.23426000  0.58908000  0.62800000  1.0
  H  H78  1  0.53879000  0.39401000  0.12805000  1.0
  H  H79  1  0.76574000  0.41093000  0.37200000  1.0
  H  H80  1  0.58824000  0.73540000  0.87254000  1.0
  H  H81  1  0.36314000  0.71559000  0.62755000  1.0
  H  H82  1  0.41175000  0.26461000  0.12746000  1.0
  H  H83  1  0.63685000  0.28441000  0.37245000  1.0
  H  H84  1  0.37540000  0.89438000  0.59324000  1.0
  H  H85  1  0.80132000  0.78209000  0.90711000  1.0
  H  H86  1  0.62461000  0.10562000  0.40676000  1.0
  H  H87  1  0.19868000  0.21791000  0.09289000  1.0
  H  H88  1  0.40981000  0.15475000  0.54522000  1.0
  H  H89  1  0.10965000  0.86421000  0.95457000  1.0
  H  H90  1  0.59018000  0.84525000  0.45478000  1.0
  H  H91  1  0.89034000  0.13579000  0.04543000  1.0
  H  H92  1  0.59314000  0.11022000  0.59624000  1.0
  H  H93  1  0.01415000  0.99668000  0.90393000  1.0
  H  H94  1  0.40685000  0.88978000  0.40376000  1.0
  H  H95  1  0.98585000  0.00332000  0.09607000  1.0
  H  H96  1  0.25866000  0.94693000  0.63450000  1.0
  H  H97  1  0.81245000  0.62406000  0.86543000  1.0
  H  H98  1  0.74136000  0.05308000  0.36552000  1.0
  H  H99  1  0.18755000  0.37594000  0.13456000  1.0
  H  H100  1  0.08051000  0.93109000  0.59924000  1.0
  H  H101  1  0.83182000  0.48127000  0.90076000  1.0
  H  H102  1  0.91950000  0.06890000  0.40077000  1.0
  H  H103  1  0.16818000  0.51873000  0.09923000  1.0
  H  H104  1  0.06036000  0.07890000  0.42614000  1.0
  H  H105  1  0.15286000  0.63403000  0.07374000  1.0
  H  H106  1  0.93963000  0.92108000  0.57386000  1.0
  H  H107  1  0.84714000  0.36597000  0.92625000  1.0
  H  H108  1  0.23656000  0.08771000  0.45691000  1.0
  H  H109  1  0.13092000  0.77934000  0.04289000  1.0
  H  H110  1  0.76343000  0.91227000  0.54308000  1.0
  H  H111  1  0.86907000  0.22065000  0.95711000  1.0
  H  H112  1  0.31978000  0.07299000  0.02307000  1.0
  H  H113  1  0.54985000  0.29669000  0.47691000  1.0
  H  H114  1  0.68023000  0.92701000  0.97692000  1.0
  H  H115  1  0.45015000  0.70332000  0.52309000  1.0
  H  H116  1  0.22490000  0.01939000  0.76789000  1.0
  H  H117  1  0.75153000  0.45704000  0.73212000  1.0
  H  H118  1  0.77511000  0.98061000  0.23211000  1.0
  H  H119  1  0.24846000  0.54297000  0.26788000  1.0
  H  H120  1  0.15828000  0.07608000  0.82069000  1.0
  H  H121  1  0.75560000  0.33778000  0.67926000  1.0
  H  H122  1  0.84173000  0.92392000  0.17931000  1.0
  H  H123  1  0.24440000  0.66223000  0.32074000  1.0
  H  H124  1  0.03506000  0.92335000  0.69700000  1.0
  H  H125  1  0.72638000  0.33805000  0.80290000  1.0
  H  H126  1  0.96494000  0.07665000  0.30300000  1.0
  H  H127  1  0.27362000  0.66195000  0.19710000  1.0
  H  H128  1  0.05680000  0.90591000  0.79320000  1.0
  H  H129  1  0.61289000  0.26353000  0.70662000  1.0
  H  H130  1  0.94321000  0.09408000  0.20680000  1.0
  H  H131  1  0.38711000  0.73647000  0.29338000  1.0
  H  H132  1  0.11450000  0.85109000  0.72996000  1.0
  H  H133  1  0.62094000  0.38427000  0.76982000  1.0
  H  H134  1  0.88551000  0.14891000  0.27004000  1.0
  H  H135  1  0.37905000  0.61573000  0.23018000  1.0
  H  H136  1  0.35071000  0.94729000  0.95628000  1.0
  H  H137  1  0.49116000  0.39470000  0.54376000  1.0
  H  H138  1  0.64929000  0.05270000  0.04371000  1.0
  H  H139  1  0.50883000  0.60529000  0.45624000  1.0
  H  H140  1  0.27149000  0.87371000  0.84453000  1.0
  H  H141  1  0.52931000  0.42712000  0.65551000  1.0
  H  H142  1  0.72852000  0.12629000  0.15546000  1.0
  H  H143  1  0.47069000  0.57288000  0.34449000  1.0
  H  H144  1  0.45206000  0.92800000  0.87318000  1.0
  H  H145  1  0.55502000  0.57899000  0.62700000  1.0
  H  H146  1  0.54795000  0.07202000  0.12683000  1.0
  H  H147  1  0.44497000  0.42101000  0.37300000  1.0
  H  H148  1  0.45950000  0.05412000  0.92021000  1.0
  H  H149  1  0.63416000  0.53951000  0.57991000  1.0
  H  H150  1  0.54050000  0.94589000  0.07980000  1.0
  H  H151  1  0.36582000  0.46049000  0.42009000  1.0
  H  H152  1  0.37972000  0.98302000  0.80734000  1.0
  H  H153  1  0.67589000  0.57243000  0.69276000  1.0
  H  H154  1  0.62030000  0.01700000  0.19267000  1.0
  H  H155  1  0.32410000  0.42757000  0.30723000  1.0
  C  C156  1  0.66968000  0.08257000  0.86650000  1.0
  C  C157  1  0.71627000  0.80363000  0.63362000  1.0
  C  C158  1  0.33034000  0.91744000  0.13350000  1.0
  C  C159  1  0.28372000  0.19637000  0.36638000  1.0
  C  C160  1  0.63233000  0.16652000  0.89742000  1.0
  C  C161  1  0.76924000  0.73530000  0.60264000  1.0
  C  C162  1  0.36768000  0.83348000  0.10258000  1.0
  C  C163  1  0.23075000  0.26469000  0.39736000  1.0
  C  C164  1  0.55184000  0.18336000  0.83593000  1.0
  C  C165  1  0.84751000  0.71622000  0.66411000  1.0
  C  C166  1  0.44817000  0.81664000  0.16407000  1.0
  C  C167  1  0.15248000  0.28378000  0.33589000  1.0
  C  C168  1  0.51807000  0.26322000  0.86195000  1.0
  C  C169  1  0.90126000  0.65629000  0.63806000  1.0
  C  C170  1  0.48193000  0.73677000  0.13804000  1.0
  C  C171  1  0.09874000  0.34371000  0.36194000  1.0
  C  C172  1  0.56472000  0.32905000  0.94963000  1.0
  C  C173  1  0.87936000  0.61516000  0.55035000  1.0
  C  C174  1  0.43528000  0.67095000  0.05036000  1.0
  C  C175  1  0.12065000  0.38485000  0.44965000  1.0
  C  C176  1  0.64471000  0.31145000  0.01094000  1.0
  C  C177  1  0.80046000  0.63389000  0.48906000  1.0
  C  C178  1  0.35529000  0.68856000  0.98905000  1.0
  C  C179  1  0.19954000  0.36611000  0.51094000  1.0
  C  C180  1  0.67785000  0.23062000  0.98524000  1.0
  C  C181  1  0.74546000  0.69291000  0.51480000  1.0
  C  C182  1  0.32215000  0.76938000  0.01476000  1.0
  C  C183  1  0.25454000  0.30710000  0.48520000  1.0
  C  C184  1  0.53127000  0.41711000  0.97610000  1.0
  C  C185  1  0.94094000  0.55518000  0.52387000  1.0
  C  C186  1  0.46873000  0.58289000  0.02389000  1.0
  C  C187  1  0.05907000  0.44483000  0.47613000  1.0
  C  C188  1  0.59549000  0.51085000  0.99970000  1.0
  C  C189  1  0.01111000  0.59569000  0.50021000  1.0
  C  C190  1  0.40450000  0.48915000  0.00030000  1.0
  C  C191  1  0.98889000  0.40432000  0.49979000  1.0
  C  C192  1  0.43611000  0.40543000  0.97630000  1.0
  C  C193  1  0.92912000  0.45992000  0.52377000  1.0
  C  C194  1  0.56389000  0.59456000  0.02370000  1.0
  C  C195  1  0.07088000  0.54008000  0.47623000  1.0
  C  C196  1  0.69699000  0.52200000  0.99917000  1.0
  C  C197  1  0.02283000  0.69759000  0.50059000  1.0
  C  C198  1  0.30301000  0.47800000  0.00083000  1.0
  C  C199  1  0.97718000  0.30242000  0.49941000  1.0
  C  C200  1  0.36950000  0.30531000  0.95348000  1.0
  C  C201  1  0.85180000  0.41616000  0.54664000  1.0
  C  C202  1  0.63050000  0.69469000  0.04652000  1.0
  C  C203  1  0.14820000  0.58384000  0.45336000  1.0
  C  C204  1  0.82338000  0.07324000  0.75044000  1.0
  C  C205  1  0.17663000  0.92676000  0.24956000  1.0
  C  C206  1  0.89979000  0.14969000  0.75053000  1.0
  C  C207  1  0.10021000  0.85031000  0.24947000  1.0
  C  C208  1  0.87154000  0.18259000  0.68290000  1.0
  C  C209  1  0.00031000  0.18915000  0.81821000  1.0
  C  C210  1  0.12846000  0.81741000  0.31710000  1.0
  C  C211  1  0.99969000  0.81085000  0.18178000  1.0
  C  C212  1  0.94280000  0.25381000  0.68313000  1.0
  C  C213  1  0.07128000  0.26027000  0.81804000  1.0
  C  C214  1  0.05720000  0.74619000  0.31687000  1.0
  C  C215  1  0.92872000  0.73973000  0.18196000  1.0
  C  C216  1  0.04376000  0.29377000  0.75058000  1.0
  C  C217  1  0.95624000  0.70622000  0.24942000  1.0
  C  C218  1  0.11996000  0.36991000  0.75044000  1.0
  C  C219  1  0.88004000  0.63009000  0.24956000  1.0
  C  C220  1  0.20015000  0.34517000  0.73461000  1.0
  C  C221  1  0.11096000  0.46581000  0.76599000  1.0
  C  C222  1  0.79986000  0.65483000  0.26540000  1.0
  C  C223  1  0.88904000  0.53419000  0.23401000  1.0
  C  C224  1  0.27378000  0.41811000  0.73708000  1.0
  C  C225  1  0.18134000  0.53677000  0.76325000  1.0
  C  C226  1  0.72623000  0.58189000  0.26292000  1.0
  C  C227  1  0.81865000  0.46323000  0.23675000  1.0
  C  C228  1  0.26309000  0.51293000  0.75007000  1.0
  C  C229  1  0.73691000  0.48707000  0.24993000  1.0
  C  C230  1  0.20584000  0.24106000  0.71149000  1.0
  C  C231  1  0.02982000  0.49471000  0.78891000  1.0
  C  C232  1  0.79416000  0.75894000  0.28852000  1.0
  C  C233  1  0.97018000  0.50529000  0.21109000  1.0
  C  C234  1  0.36271000  0.39432000  0.72455000  1.0
  C  C235  1  0.17010000  0.63816000  0.77569000  1.0
  C  C236  1  0.63729000  0.60568000  0.27545000  1.0
  C  C237  1  0.82990000  0.36184000  0.22431000  1.0
  C  C238  1  0.33923000  0.58901000  0.74999000  1.0
  C  C239  1  0.66077000  0.41099000  0.25001000  1.0
  C  C240  1  0.43952000  0.63039000  0.81856000  1.0
  C  C241  1  0.31204000  0.62073000  0.68142000  1.0
  C  C242  1  0.56048000  0.36961000  0.18144000  1.0
  C  C243  1  0.68796000  0.37927000  0.31858000  1.0
  C  C244  1  0.51060000  0.70214000  0.81898000  1.0
  C  C245  1  0.38340000  0.69141000  0.68104000  1.0
  C  C246  1  0.48940000  0.29786000  0.18102000  1.0
  C  C247  1  0.61660000  0.30859000  0.31896000  1.0
  C  C248  1  0.48318000  0.73298000  0.75003000  1.0
  C  C249  1  0.51681000  0.26703000  0.24997000  1.0
  C  C250  1  0.55983000  0.80968000  0.75007000  1.0
  C  C251  1  0.44017000  0.19033000  0.24993000  1.0
  C  C252  1  0.41140000  0.96122000  0.59134000  1.0
  C  C253  1  0.87002000  0.81992000  0.90886000  1.0
  C  C254  1  0.58860000  0.03878000  0.40867000  1.0
  C  C255  1  0.12998000  0.18007000  0.09114000  1.0
  C  C256  1  0.43158000  0.09749000  0.56641000  1.0
  C  C257  1  0.03121000  0.86489000  0.93354000  1.0
  C  C258  1  0.56842000  0.90251000  0.43358000  1.0
  C  C259  1  0.96879000  0.13511000  0.06646000  1.0
  C  C260  1  0.52086000  0.07360000  0.59001000  1.0
  C  C261  1  0.98375000  0.93064000  0.91015000  1.0
  C  C262  1  0.47914000  0.92640000  0.40999000  1.0
  C  C263  1  0.01625000  0.06936000  0.08986000  1.0
  C  C264  1  0.25949000  0.01886000  0.54829000  1.0
  C  C265  1  0.97066000  0.71098000  0.95161000  1.0
  C  C266  1  0.74051000  0.98113000  0.45172000  1.0
  C  C267  1  0.02933000  0.28902000  0.04839000  1.0
  C  C268  1  0.21429000  0.97447000  0.58762000  1.0
  C  C269  1  0.88689000  0.62655000  0.91230000  1.0
  C  C270  1  0.78571000  0.02553000  0.41239000  1.0
  C  C271  1  0.11312000  0.37345000  0.08770000  1.0
  C  C272  1  0.11298000  0.96645000  0.56764000  1.0
  C  C273  1  0.89882000  0.54528000  0.93232000  1.0
  C  C274  1  0.88703000  0.03355000  0.43238000  1.0
  C  C275  1  0.10118000  0.45471000  0.06767000  1.0
  C  C276  1  0.05373000  0.00379000  0.50970000  1.0
  C  C277  1  0.99411000  0.54398000  0.99027000  1.0
  C  C278  1  0.94627000  0.99620000  0.49031000  1.0
  C  C279  1  0.00589000  0.45602000  0.00973000  1.0
  C  C280  1  0.10180000  0.04872000  0.47174000  1.0
  C  C281  1  0.07707000  0.62989000  0.02816000  1.0
  C  C282  1  0.89820000  0.95126000  0.52826000  1.0
  C  C283  1  0.92293000  0.37011000  0.97184000  1.0
  C  C284  1  0.20259000  0.05578000  0.48969000  1.0
  C  C285  1  0.06621000  0.71266000  0.01016000  1.0
  C  C286  1  0.79740000  0.94420000  0.51031000  1.0
  C  C287  1  0.93379000  0.28734000  0.98984000  1.0
  C  C288  1  0.26443000  0.07871000  0.96393000  1.0
  C  C289  1  0.61470000  0.30045000  0.53604000  1.0
  C  C290  1  0.73558000  0.92129000  0.03607000  1.0
  C  C291  1  0.38530000  0.69956000  0.46396000  1.0
  C  C292  1  0.18430000  0.01111000  0.80548000  1.0
  C  C293  1  0.70574000  0.37890000  0.69447000  1.0
  C  C294  1  0.81570000  0.98889000  0.19452000  1.0
  C  C295  1  0.29426000  0.62110000  0.30553000  1.0
  C  C296  1  0.09325000  0.91726000  0.75370000  1.0
  C  C297  1  0.66359000  0.33947000  0.74616000  1.0
  C  C298  1  0.90675000  0.08274000  0.24630000  1.0
  C  C299  1  0.33641000  0.66053000  0.25384000  1.0
  C  C300  1  0.32050000  0.94907000  0.89130000  1.0
  C  C301  1  0.55793000  0.42939000  0.60873000  1.0
  C  C302  1  0.67951000  0.05093000  0.10870000  1.0
  C  C303  1  0.44207000  0.57061000  0.39127000  1.0
  C  C304  1  0.40778000  0.98053000  0.87197000  1.0
  C  C305  1  0.60879000  0.53594000  0.62813000  1.0
  C  C306  1  0.59223000  0.01948000  0.12804000  1.0
  C  C307  1  0.39120000  0.46406000  0.37186000  1.0
  N  N308  1  0.50666000  0.98839000  0.60454000  1.0
  N  N309  1  0.88400000  0.90200000  0.89575000  1.0
  N  N310  1  0.49334000  0.01161000  0.39546000  1.0
  N  N311  1  0.11600000  0.09799000  0.10425000  1.0
  N  N312  1  0.36243000  0.02564000  0.56774000  1.0
  N  N313  1  0.95799000  0.79445000  0.93222000  1.0
  N  N314  1  0.63756000  0.97436000  0.43226000  1.0
  N  N315  1  0.04201000  0.20554000  0.06778000  1.0
  N  N316  1  0.25679000  0.01453000  0.88913000  1.0
  N  N317  1  0.62552000  0.36781000  0.61083000  1.0
  N  N318  1  0.74321000  0.98546000  0.11086000  1.0
  N  N319  1  0.37448000  0.63219000  0.38916000  1.0
  O  O320  1  0.62867000  0.03400000  0.78515000  1.0
  O  O321  1  0.74908000  0.84396000  0.71498000  1.0
  O  O322  1  0.37136000  0.96601000  0.21486000  1.0
  O  O323  1  0.25091000  0.15603000  0.28502000  1.0
  O  O324  1  0.74176000  0.06471000  0.92219000  1.0
  O  O325  1  0.64274000  0.82007000  0.57795000  1.0
  O  O326  1  0.25825000  0.93529000  0.07782000  1.0
  O  O327  1  0.35724000  0.17992000  0.42204000  1.0
  O  O328  1  0.73684000  0.03286000  0.68238000  1.0
  O  O329  1  0.85093000  0.05460000  0.81841000  1.0
  O  O330  1  0.26316000  0.96713000  0.31761000  1.0
  O  O331  1  0.14907000  0.94539000  0.18158000  1.0
  O  O332  1  0.64650000  0.84938000  0.81799000  1.0
  O  O333  1  0.53163000  0.82850000  0.68221000  1.0
  O  O334  1  0.35349000  0.15063000  0.18202000  1.0
  O  O335  1  0.46837000  0.17151000  0.31780000  1.0
  O  O336  1  0.21500000  0.13826000  0.96798000  1.0
  O  O337  1  0.67006000  0.24680000  0.53201000  1.0
  O  O338  1  0.78500000  0.86175000  0.03202000  1.0
  O  O339  1  0.32994000  0.75321000  0.46799000  1.0
