# generated using pymatgen
data_LiH4C3N7O
_symmetry_space_group_name_H-M   'P 1'
_cell_length_a   3.44309000
_cell_length_b   9.85001000
_cell_length_c   10.56990000
_cell_angle_alpha   115.81400000
_cell_angle_beta   92.38970000
_cell_angle_gamma   98.31970000
_symmetry_Int_Tables_number   1
_chemical_formula_structural   LiH4C3N7O
_chemical_formula_sum   'Li2 H8 C6 N14 O2'
_cell_volume   317.09170227
_cell_formula_units_Z   2
loop_
 _symmetry_equiv_pos_site_id
 _symmetry_equiv_pos_as_xyz
  1  'x, y, z'
loop_
 _atom_site_type_symbol
 _atom_site_label
 _atom_site_symmetry_multiplicity
 _atom_site_fract_x
 _atom_site_fract_y
 _atom_site_fract_z
 _atom_site_occupancy
  Li  Li0  1  0.97978000  0.67882000  0.99976000  1.0
  Li  Li1  1  0.02022000  0.32118000  0.00024000  1.0
  H  H2  1  0.57947000  0.88552000  0.08567000  1.0
  H  H3  1  0.42054000  0.11448000  0.91433000  1.0
  H  H4  1  0.51778000  0.80233000  0.91363000  1.0
  H  H5  1  0.48222000  0.19767000  0.08636000  1.0
  H  H6  1  0.69700000  0.52936000  0.64864000  1.0
  H  H7  1  0.30300000  0.47064000  0.35137000  1.0
  H  H8  1  0.96698000  0.12001000  0.64636000  1.0
  H  H9  1  0.03302000  0.87999000  0.35364000  1.0
  C  C10  1  0.71939000  0.22410000  0.44960000  1.0
  C  C11  1  0.28061000  0.77590000  0.55040000  1.0
  C  C12  1  0.78435000  0.44930000  0.68526000  1.0
  C  C13  1  0.21565000  0.55071000  0.31473000  1.0
  C  C14  1  0.91974000  0.23773000  0.68393000  1.0
  C  C15  1  0.08026000  0.76227000  0.31607000  1.0
  N  N16  1  0.64165000  0.05362000  0.23883000  1.0
  N  N17  1  0.35835000  0.94638000  0.76117000  1.0
  N  N18  1  0.55111000  0.17983000  0.23986000  1.0
  N  N19  1  0.44889000  0.82017000  0.76014000  1.0
  N  N20  1  0.59728000  0.29171000  0.37320000  1.0
  N  N21  1  0.40272000  0.70829000  0.62680000  1.0
  N  N22  1  0.75053000  0.07750000  0.37138000  1.0
  N  N23  1  0.24947000  0.92250000  0.62861000  1.0
  N  N24  1  0.80535000  0.29946000  0.59724000  1.0
  N  N25  1  0.19465000  0.70054000  0.40276000  1.0
  N  N26  1  0.87974000  0.47693000  0.81722000  1.0
  N  N27  1  0.12026000  0.52307000  0.18278000  1.0
  N  N28  1  0.96547000  0.34338000  0.81639000  1.0
  N  N29  1  0.03454000  0.65662000  0.18361000  1.0
  O  O30  1  0.53015000  0.78257000  0.99957000  1.0
  O  O31  1  0.46985000  0.21743000  0.00043000  1.0
