# generated using pymatgen
data_TbH15C15NO8
_symmetry_space_group_name_H-M   'P 1'
_cell_length_a   8.33636000
_cell_length_b   10.29270000
_cell_length_c   11.08590000
_cell_angle_alpha   65.81970000
_cell_angle_beta   70.82620000
_cell_angle_gamma   79.60110000
_symmetry_Int_Tables_number   1
_chemical_formula_structural   TbH15C15NO8
_chemical_formula_sum   'Tb2 H30 C30 N2 O16'
_cell_volume   818.44802391
_cell_formula_units_Z   2
loop_
 _symmetry_equiv_pos_site_id
 _symmetry_equiv_pos_as_xyz
  1  'x, y, z'
loop_
 _atom_site_type_symbol
 _atom_site_label
 _atom_site_symmetry_multiplicity
 _atom_site_fract_x
 _atom_site_fract_y
 _atom_site_fract_z
 _atom_site_occupancy
  Tb  Tb0  1  0.14647000  0.93950000  0.15055000  1.0
  Tb  Tb1  1  0.85353000  0.06050000  0.84945000  1.0
  H  H2  1  0.40213000  0.09457000  0.88102000  1.0
  H  H3  1  0.59786000  0.90543000  0.11898000  1.0
  H  H4  1  0.46187000  0.93677000  0.92085000  1.0
  H  H5  1  0.53813000  0.06323000  0.07915000  1.0
  H  H6  1  0.19915000  0.57803000  0.58432000  1.0
  H  H7  1  0.80086000  0.42196000  0.41568000  1.0
  H  H8  1  0.66030000  0.62378000  0.25408000  1.0
  H  H9  1  0.33970000  0.37622000  0.74591000  1.0
  H  H10  1  0.05530000  0.73549000  0.80474000  1.0
  H  H11  1  0.94470000  0.26451000  0.19525000  1.0
  H  H12  1  0.99547000  0.47717000  0.23277000  1.0
  H  H13  1  0.00453000  0.52283000  0.76723000  1.0
  H  H14  1  0.55816000  0.83512000  0.37664000  1.0
  H  H15  1  0.44184000  0.16488000  0.62336000  1.0
  H  H16  1  0.73924000  0.13026000  0.47854000  1.0
  H  H17  1  0.26076000  0.86974000  0.52146000  1.0
  H  H18  1  0.14492000  0.15497000  0.32195000  1.0
  H  H19  1  0.85507000  0.84503000  0.67805000  1.0
  H  H20  1  0.51261000  0.31746000  0.02565000  1.0
  H  H21  1  0.48739000  0.68254000  0.97435000  1.0
  H  H22  1  0.61683000  0.22408000  0.15671000  1.0
  H  H23  1  0.38317000  0.77592000  0.84329000  1.0
  H  H24  1  0.55846000  0.40939000  0.11640000  1.0
  H  H25  1  0.44154000  0.59060000  0.88361000  1.0
  H  H26  1  0.17527000  0.31195000  0.39766000  1.0
  H  H27  1  0.82473000  0.68805000  0.60234000  1.0
  H  H28  1  0.27313000  0.46793000  0.26019000  1.0
  H  H29  1  0.72687000  0.53207000  0.73981000  1.0
  H  H30  1  0.38874000  0.34286000  0.37453000  1.0
  H  H31  1  0.61126000  0.65714000  0.62547000  1.0
  C  C32  1  0.42096000  0.61167000  0.41112000  1.0
  C  C33  1  0.57904000  0.38833000  0.58888000  1.0
  C  C34  1  0.33096000  0.54232000  0.54947000  1.0
  C  C35  1  0.66904000  0.45768000  0.45053000  1.0
  C  C36  1  0.59093000  0.56878000  0.36161000  1.0
  C  C37  1  0.40907000  0.43121000  0.63839000  1.0
  C  C38  1  0.33451000  0.73266000  0.31908000  1.0
  C  C39  1  0.66549000  0.26734000  0.68092000  1.0
  C  C40  1  0.02582000  0.61797000  0.02170000  1.0
  C  C41  1  0.97418000  0.38203000  0.97830000  1.0
  C  C42  1  0.02950000  0.63229000  0.88963000  1.0
  C  C43  1  0.97050000  0.36771000  0.11036000  1.0
  C  C44  1  0.99711000  0.48557000  0.13123000  1.0
  C  C45  1  0.00290000  0.51444000  0.86876000  1.0
  C  C46  1  0.05560000  0.74240000  0.04639000  1.0
  C  C47  1  0.94440000  0.25760000  0.95360000  1.0
  C  C48  1  0.66321000  0.98062000  0.41943000  1.0
  C  C49  1  0.33679000  0.01938000  0.58057000  1.0
  C  C50  1  0.52951000  0.90687000  0.43150000  1.0
  C  C51  1  0.47049000  0.09313000  0.56849000  1.0
  C  C52  1  0.63361000  0.07449000  0.48799000  1.0
  C  C53  1  0.36639000  0.92552000  0.51201000  1.0
  C  C54  1  0.83672000  0.95846000  0.33268000  1.0
  C  C55  1  0.16328000  0.04154000  0.66732000  1.0
  C  C56  1  0.26616000  0.17504000  0.23994000  1.0
  C  C57  1  0.73383000  0.82496000  0.76007000  1.0
  C  C58  1  0.52042000  0.30861000  0.12564000  1.0
  C  C59  1  0.47958000  0.69139000  0.87436000  1.0
  C  C60  1  0.29462000  0.35432000  0.32058000  1.0
  C  C61  1  0.70538000  0.64568000  0.67942000  1.0
  N  N62  1  0.35591000  0.27526000  0.22943000  1.0
  N  N63  1  0.64409000  0.72474000  0.77057000  1.0
  O  O64  1  0.41498000  0.79686000  0.19187000  1.0
  O  O65  1  0.58502000  0.20315000  0.80813000  1.0
  O  O66  1  0.18132000  0.77138000  0.36817000  1.0
  O  O67  1  0.81868000  0.22862000  0.63183000  1.0
  O  O68  1  0.14483000  0.72041000  0.12723000  1.0
  O  O69  1  0.85517000  0.27959000  0.87277000  1.0
  O  O70  1  0.99309000  0.86619000  0.98634000  1.0
  O  O71  1  0.00691000  0.13381000  0.01366000  1.0
  O  O72  1  0.95596000  0.03488000  0.31261000  1.0
  O  O73  1  0.04404000  0.96512000  0.68739000  1.0
  O  O74  1  0.86425000  0.86629000  0.27778000  1.0
  O  O75  1  0.13575000  0.13371000  0.72222000  1.0
  O  O76  1  0.31276000  0.10528000  0.16163000  1.0
  O  O77  1  0.68724000  0.89472000  0.83838000  1.0
  O  O78  1  0.35687000  0.99835000  0.93245000  1.0
  O  O79  1  0.64313000  0.00165000  0.06755000  1.0
