# generated using pymatgen
data_ZnH26C28S2(NO5)2
_symmetry_space_group_name_H-M   'P 1'
_cell_length_a   5.57651000
_cell_length_b   10.96290000
_cell_length_c   11.28460000
_cell_angle_alpha   88.53640000
_cell_angle_beta   79.28500000
_cell_angle_gamma   86.38210000
_symmetry_Int_Tables_number   1
_chemical_formula_structural   ZnH26C28S2(NO5)2
_chemical_formula_sum   'Zn1 H26 C28 S2 N2 O10'
_cell_volume   676.43421899
_cell_formula_units_Z   1
loop_
 _symmetry_equiv_pos_site_id
 _symmetry_equiv_pos_as_xyz
  1  'x, y, z'
loop_
 _atom_site_type_symbol
 _atom_site_label
 _atom_site_symmetry_multiplicity
 _atom_site_fract_x
 _atom_site_fract_y
 _atom_site_fract_z
 _atom_site_occupancy
  Zn  Zn0  1  0.50000000  0.50000000  0.49999000  1.0
  H  H1  1  0.61698000  0.08662000  0.72916000  1.0
  H  H2  1  0.38301000  0.91339000  0.27085000  1.0
  H  H3  1  0.91657000  0.63215000  0.50353000  1.0
  H  H4  1  0.08343000  0.36786000  0.49645000  1.0
  H  H5  1  0.67866000  0.70559000  0.46630000  1.0
  H  H6  1  0.32135000  0.29443000  0.53368000  1.0
  H  H7  1  0.24699000  0.24352000  0.85488000  1.0
  H  H8  1  0.75299000  0.75648000  0.14514000  1.0
  H  H9  1  0.37063000  0.27335000  0.05129000  1.0
  H  H10  1  0.62938000  0.72664000  0.94872000  1.0
  H  H11  1  0.72424000  0.10057000  0.23261000  1.0
  H  H12  1  0.27576000  0.89943000  0.76741000  1.0
  H  H13  1  0.60713000  0.06973000  0.03780000  1.0
  H  H14  1  0.39287000  0.93026000  0.96222000  1.0
  H  H15  1  0.90373000  0.05862000  0.38655000  1.0
  H  H16  1  0.09628000  0.94138000  0.61346000  1.0
  H  H17  1  0.07530000  0.12808000  0.48097000  1.0
  H  H18  1  0.92470000  0.87193000  0.51904000  1.0
  H  H19  1  0.85480000  0.41003000  0.66744000  1.0
  H  H20  1  0.14521000  0.58996000  0.33254000  1.0
  H  H21  1  0.86489000  0.40887000  0.88401000  1.0
  H  H22  1  0.13510000  0.59111000  0.11598000  1.0
  H  H23  1  0.13695000  0.58671000  0.94176000  1.0
  H  H24  1  0.86307000  0.41330000  0.05822000  1.0
  H  H25  1  0.15641000  0.57748000  0.72180000  1.0
  H  H26  1  0.84360000  0.42253000  0.27818000  1.0
  C  C27  1  0.91835000  0.15499000  0.93196000  1.0
  C  C28  1  0.08165000  0.84501000  0.06805000  1.0
  C  C29  1  0.13323000  0.21323000  0.93822000  1.0
  C  C30  1  0.86676000  0.78676000  0.06179000  1.0
  C  C31  1  0.20207000  0.22965000  0.04817000  1.0
  C  C32  1  0.79794000  0.77034000  0.95183000  1.0
  C  C33  1  0.05951000  0.18739000  0.15654000  1.0
  C  C34  1  0.94050000  0.81260000  0.84347000  1.0
  C  C35  1  0.84126000  0.13230000  0.15096000  1.0
  C  C36  1  0.15874000  0.86769000  0.84905000  1.0
  C  C37  1  0.77311000  0.11604000  0.03985000  1.0
  C  C38  1  0.22689000  0.88395000  0.96016000  1.0
  C  C39  1  0.86276000  0.13483000  0.81107000  1.0
  C  C40  1  0.13724000  0.86516000  0.18897000  1.0
  C  C41  1  0.96545000  0.14633000  0.41004000  1.0
  C  C42  1  0.03455000  0.85367000  0.58998000  1.0
  C  C43  1  0.74695000  0.23316000  0.46330000  1.0
  C  C44  1  0.25306000  0.76685000  0.53669000  1.0
  C  C45  1  0.69858000  0.44819000  0.73116000  1.0
  C  C46  1  0.30141000  0.55181000  0.26882000  1.0
  C  C47  1  0.70247000  0.44811000  0.85376000  1.0
  C  C48  1  0.29753000  0.55189000  0.14623000  1.0
  C  C49  1  0.50064000  0.49808000  0.93464000  1.0
  C  C50  1  0.49933000  0.50193000  0.06535000  1.0
  C  C51  1  0.29992000  0.54497000  0.88580000  1.0
  C  C52  1  0.70007000  0.45504000  0.11418000  1.0
  C  C53  1  0.30884000  0.54100000  0.76238000  1.0
  C  C54  1  0.69116000  0.45901000  0.23760000  1.0
  S  S55  1  0.18240000  0.20598000  0.28625000  1.0
  S  S56  1  0.81762000  0.79401000  0.71376000  1.0
  N  N57  1  0.50515000  0.49442000  0.68588000  1.0
  N  N58  1  0.49486000  0.50559000  0.31410000  1.0
  O  O59  1  0.78728000  0.34700000  0.46787000  1.0
  O  O60  1  0.21273000  0.65300000  0.53211000  1.0
  O  O61  1  0.54660000  0.18611000  0.50179000  1.0
  O  O62  1  0.45341000  0.81390000  0.49820000  1.0
  O  O63  1  0.00485000  0.15199000  0.71570000  1.0
  O  O64  1  0.99514000  0.84801000  0.28431000  1.0
  O  O65  1  0.63537000  0.09523000  0.81346000  1.0
  O  O66  1  0.36463000  0.90477000  0.18655000  1.0
  O  O67  1  0.77941000  0.62549000  0.45944000  1.0
  O  O68  1  0.22060000  0.37452000  0.54055000  1.0
