# generated using pymatgen
data_CdH8C10(Br2N)2
_symmetry_space_group_name_H-M   'P 1'
_cell_length_a   4.00175000
_cell_length_b   11.69380000
_cell_length_c   14.66020000
_cell_angle_alpha   90.00020000
_cell_angle_beta   90.00110000
_cell_angle_gamma   87.33970000
_symmetry_Int_Tables_number   1
_chemical_formula_structural   CdH8C10(Br2N)2
_chemical_formula_sum   'Cd2 H16 C20 Br8 N4'
_cell_volume   685.29443969
_cell_formula_units_Z   2
loop_
 _symmetry_equiv_pos_site_id
 _symmetry_equiv_pos_as_xyz
  1  'x, y, z'
loop_
 _atom_site_type_symbol
 _atom_site_label
 _atom_site_symmetry_multiplicity
 _atom_site_fract_x
 _atom_site_fract_y
 _atom_site_fract_z
 _atom_site_occupancy
  Cd  Cd0  1  0.00000000  0.00000000  0.00000000  1.0
  Cd  Cd1  1  0.00000000  0.50000000  0.50000000  1.0
  H  H2  1  0.74418000  0.90010000  0.80617000  1.0
  H  H3  1  0.74421000  0.40011000  0.69384000  1.0
  H  H4  1  0.25581000  0.09989000  0.19384000  1.0
  H  H5  1  0.25580000  0.59989000  0.30617000  1.0
  H  H6  1  0.99245000  0.12018000  0.58081000  1.0
  H  H7  1  0.99257000  0.62021000  0.91919000  1.0
  H  H8  1  0.00748000  0.87981000  0.41919000  1.0
  H  H9  1  0.00752000  0.37981000  0.08081000  1.0
  H  H10  1  0.24403000  0.24994000  0.69450000  1.0
  H  H11  1  0.24407000  0.74997000  0.80548000  1.0
  H  H12  1  0.75596000  0.75005000  0.30549000  1.0
  H  H13  1  0.75594000  0.25005000  0.19451000  1.0
  H  H14  1  0.23528000  0.19656000  0.86074000  1.0
  H  H15  1  0.23526000  0.69657000  0.63925000  1.0
  H  H16  1  0.76472000  0.80343000  0.13926000  1.0
  H  H17  1  0.76471000  0.30343000  0.36075000  1.0
  C  C18  1  0.85417000  0.97640000  0.77862000  1.0
  C  C19  1  0.85423000  0.47641000  0.72138000  1.0
  C  C20  1  0.14581000  0.02360000  0.22138000  1.0
  C  C21  1  0.14581000  0.52360000  0.27862000  1.0
  C  C22  1  0.85301000  0.00017000  0.68546000  1.0
  C  C23  1  0.85310000  0.50018000  0.81454000  1.0
  C  C24  1  0.14693000  0.99982000  0.31454000  1.0
  C  C25  1  0.14696000  0.49982000  0.18547000  1.0
  C  C26  1  0.99100000  0.09974000  0.65329000  1.0
  C  C27  1  0.99109000  0.59977000  0.84670000  1.0
  C  C28  1  0.00896000  0.90025000  0.34670000  1.0
  C  C29  1  0.00898000  0.40025000  0.15330000  1.0
  C  C30  1  0.12903000  0.17218000  0.71709000  1.0
  C  C31  1  0.12907000  0.67221000  0.78290000  1.0
  C  C32  1  0.87094000  0.82780000  0.28290000  1.0
  C  C33  1  0.87095000  0.32780000  0.21710000  1.0
  C  C34  1  0.12450000  0.14310000  0.80914000  1.0
  C  C35  1  0.12449000  0.64312000  0.69085000  1.0
  C  C36  1  0.87550000  0.85689000  0.19086000  1.0
  C  C37  1  0.87550000  0.35689000  0.30915000  1.0
  Br  Br38  1  0.47652000  0.16417000  0.03080000  1.0
  Br  Br39  1  0.47650000  0.66417000  0.46919000  1.0
  Br  Br40  1  0.52348000  0.83583000  0.96920000  1.0
  Br  Br41  1  0.52350000  0.33583000  0.53081000  1.0
  Br  Br42  1  0.67311000  0.89340000  0.60334000  1.0
  Br  Br43  1  0.67326000  0.39341000  0.89667000  1.0
  Br  Br44  1  0.32679000  0.10660000  0.39667000  1.0
  Br  Br45  1  0.32684000  0.60659000  0.10334000  1.0
  N  N46  1  0.98904000  0.04702000  0.83933000  1.0
  N  N47  1  0.98903000  0.54703000  0.66066000  1.0
  N  N48  1  0.01096000  0.95297000  0.16066000  1.0
  N  N49  1  0.01095000  0.45298000  0.33934000  1.0
