# generated using pymatgen
data_CuH8C10Se2(NO2)2
_symmetry_space_group_name_H-M   'P 1'
_cell_length_a   7.63449000
_cell_length_b   8.06580000
_cell_length_c   10.53240000
_cell_angle_alpha   89.99930000
_cell_angle_beta   89.99980000
_cell_angle_gamma   67.74200000
_symmetry_Int_Tables_number   1
_chemical_formula_structural   CuH8C10Se2(NO2)2
_chemical_formula_sum   'Cu2 H16 C20 Se4 N4 O8'
_cell_volume   600.24070055
_cell_formula_units_Z   2
loop_
 _symmetry_equiv_pos_site_id
 _symmetry_equiv_pos_as_xyz
  1  'x, y, z'
loop_
 _atom_site_type_symbol
 _atom_site_label
 _atom_site_symmetry_multiplicity
 _atom_site_fract_x
 _atom_site_fract_y
 _atom_site_fract_z
 _atom_site_occupancy
  Cu  Cu0  1  0.50000000  0.00000000  0.50000000  1.0
  Cu  Cu1  1  0.50000000  0.50000000  0.00000000  1.0
  H  H2  1  0.88503000  0.93627000  0.41360000  1.0
  H  H3  1  0.11497000  0.56373000  0.91361000  1.0
  H  H4  1  0.11497000  0.06372000  0.58640000  1.0
  H  H5  1  0.88503000  0.43628000  0.08640000  1.0
  H  H6  1  0.96967000  0.48420000  0.74573000  1.0
  H  H7  1  0.03034000  0.01581000  0.24574000  1.0
  H  H8  1  0.03032000  0.51580000  0.25428000  1.0
  H  H9  1  0.96965000  0.98420000  0.75427000  1.0
  H  H10  1  0.25995000  0.50561000  0.64760000  1.0
  H  H11  1  0.74007000  0.99439000  0.14761000  1.0
  H  H12  1  0.74005000  0.49438000  0.35240000  1.0
  H  H13  1  0.25993000  0.00561000  0.85239000  1.0
  H  H14  1  0.21714000  0.73568000  0.47341000  1.0
  H  H15  1  0.78287000  0.76433000  0.97343000  1.0
  H  H16  1  0.78286000  0.26431000  0.52659000  1.0
  H  H17  1  0.21714000  0.23567000  0.02657000  1.0
  C  C18  1  0.78157000  0.69901000  0.63093000  1.0
  C  C19  1  0.21844000  0.80099000  0.13093000  1.0
  C  C20  1  0.21843000  0.30098000  0.36907000  1.0
  C  C21  1  0.78156000  0.19901000  0.86907000  1.0
  C  C22  1  0.91405000  0.83347000  0.48626000  1.0
  C  C23  1  0.08596000  0.66655000  0.98627000  1.0
  C  C24  1  0.08595000  0.16653000  0.51374000  1.0
  C  C25  1  0.91404000  0.33346000  0.01373000  1.0
  C  C26  1  0.95843000  0.58289000  0.67226000  1.0
  C  C27  1  0.04158000  0.91711000  0.17226000  1.0
  C  C28  1  0.04156000  0.41710000  0.32775000  1.0
  C  C29  1  0.95842000  0.08289000  0.82774000  1.0
  C  C30  1  0.11936000  0.59494000  0.61690000  1.0
  C  C31  1  0.88065000  0.90507000  0.11691000  1.0
  C  C32  1  0.88063000  0.40505000  0.38311000  1.0
  C  C33  1  0.11935000  0.09494000  0.88309000  1.0
  C  C34  1  0.09628000  0.72184000  0.52139000  1.0
  C  C35  1  0.90373000  0.77815000  0.02140000  1.0
  C  C36  1  0.90372000  0.27815000  0.47861000  1.0
  C  C37  1  0.09627000  0.22185000  0.97860000  1.0
  Se  Se38  1  0.54164000  0.69200000  0.70144000  1.0
  Se  Se39  1  0.45837000  0.80800000  0.20143000  1.0
  Se  Se40  1  0.45836000  0.30800000  0.29856000  1.0
  Se  Se41  1  0.54162000  0.19201000  0.79857000  1.0
  N  N42  1  0.75893000  0.82210000  0.54049000  1.0
  N  N43  1  0.24108000  0.67789000  0.04050000  1.0
  N  N44  1  0.24107000  0.17789000  0.45950000  1.0
  N  N45  1  0.75892000  0.32212000  0.95950000  1.0
  O  O46  1  0.57110000  0.72230000  0.85732000  1.0
  O  O47  1  0.42890000  0.77772000  0.35732000  1.0
  O  O48  1  0.42890000  0.27770000  0.14268000  1.0
  O  O49  1  0.57110000  0.22229000  0.64268000  1.0
  O  O50  1  0.40136000  0.90209000  0.64175000  1.0
  O  O51  1  0.59864000  0.59791000  0.14175000  1.0
  O  O52  1  0.59864000  0.09791000  0.35825000  1.0
  O  O53  1  0.40136000  0.40211000  0.85825000  1.0
