# generated using pymatgen
data_NiH11C9NO5
_symmetry_space_group_name_H-M   'P 1'
_cell_length_a   7.32827000
_cell_length_b   9.20968000
_cell_length_c   15.14706976
_cell_angle_alpha   107.43761782
_cell_angle_beta   90.00002134
_cell_angle_gamma   89.99980000
_symmetry_Int_Tables_number   1
_chemical_formula_structural   NiH11C9NO5
_chemical_formula_sum   'Ni4 H44 C36 N4 O20'
_cell_volume   975.31057984
_cell_formula_units_Z   4
loop_
 _symmetry_equiv_pos_site_id
 _symmetry_equiv_pos_as_xyz
  1  'x, y, z'
loop_
 _atom_site_type_symbol
 _atom_site_label
 _atom_site_symmetry_multiplicity
 _atom_site_fract_x
 _atom_site_fract_y
 _atom_site_fract_z
 _atom_site_occupancy
  Ni  Ni0  1  0.01260000  0.26967000  0.62651000  1.0
  Ni  Ni1  1  0.51260000  0.23033000  0.37349000  1.0
  Ni  Ni2  1  0.98740000  0.73032000  0.37349000  1.0
  Ni  Ni3  1  0.48740000  0.76968000  0.62651000  1.0
  H  H4  1  0.12966000  0.25459000  0.45813000  1.0
  H  H5  1  0.62966000  0.24542000  0.54188000  1.0
  H  H6  1  0.87034000  0.74542000  0.54188000  1.0
  H  H7  1  0.37034000  0.75458000  0.45812000  1.0
  H  H8  1  0.93418000  0.33344000  0.47088000  1.0
  H  H9  1  0.43417000  0.16656000  0.52912000  1.0
  H  H10  1  0.06583000  0.66656000  0.52912000  1.0
  H  H11  1  0.56582000  0.83344000  0.47088000  1.0
  H  H12  1  0.20547000  0.04764000  0.52653000  1.0
  H  H13  1  0.70547000  0.45237000  0.47348000  1.0
  H  H14  1  0.79452000  0.95235000  0.47347000  1.0
  H  H15  1  0.29453000  0.54764000  0.52653000  1.0
  H  H16  1  0.29426000  0.06841000  0.62730000  1.0
  H  H17  1  0.79426000  0.43158000  0.37270000  1.0
  H  H18  1  0.70574000  0.93158000  0.37270000  1.0
  H  H19  1  0.20574000  0.56841000  0.62730000  1.0
  H  H20  1  0.15993000  0.77192000  0.75391000  1.0
  H  H21  1  0.65994000  0.72808000  0.24609000  1.0
  H  H22  1  0.84006000  0.22808000  0.24609000  1.0
  H  H23  1  0.34008000  0.27192000  0.75391000  1.0
  H  H24  1  0.05151000  0.93826000  0.90379000  1.0
  H  H25  1  0.55151000  0.56174000  0.09621000  1.0
  H  H26  1  0.94849000  0.06174000  0.09621000  1.0
  H  H27  1  0.44850000  0.43826000  0.90379000  1.0
  H  H28  1  0.89467000  0.82683000  0.01670000  1.0
  H  H29  1  0.39467000  0.67317000  0.98330000  1.0
  H  H30  1  0.10533000  0.17316000  0.98329000  1.0
  H  H31  1  0.60533000  0.32683000  0.01670000  1.0
  H  H32  1  0.85456000  0.54751000  0.97491000  1.0
  H  H33  1  0.35455000  0.95249000  0.02509000  1.0
  H  H34  1  0.14544000  0.45249000  0.02508000  1.0
  H  H35  1  0.64544000  0.04751000  0.97492000  1.0
  H  H36  1  0.88861000  0.30684000  0.88254000  1.0
  H  H37  1  0.38860000  0.19316000  0.11746000  1.0
  H  H38  1  0.11138000  0.69317000  0.11746000  1.0
  H  H39  1  0.61138000  0.80684000  0.88254000  1.0
  H  H40  1  0.83127000  0.06877000  0.79397000  1.0
  H  H41  1  0.33126000  0.43122000  0.20603000  1.0
  H  H42  1  0.16873000  0.93122000  0.20603000  1.0
  H  H43  1  0.66874000  0.56878000  0.79397000  1.0
  H  H44  1  0.04880000  0.01464000  0.74149000  1.0
  H  H45  1  0.54879000  0.48535000  0.25850000  1.0
  H  H46  1  0.95120000  0.98536000  0.25851000  1.0
  H  H47  1  0.45121000  0.51465000  0.74150000  1.0
  C  C48  1  0.07165000  0.56170000  0.77614000  1.0
  C  C49  1  0.57165000  0.93829000  0.22386000  1.0
  C  C50  1  0.92835000  0.43829000  0.22386000  1.0
  C  C51  1  0.42835000  0.06171000  0.77614000  1.0
  C  C52  1  0.09409000  0.72241000  0.80264000  1.0
  C  C53  1  0.59409000  0.77759000  0.19736000  1.0
  C  C54  1  0.90591000  0.27759000  0.19736000  1.0
  C  C55  1  0.40592000  0.22242000  0.80264000  1.0
  C  C56  1  0.03322000  0.81541000  0.88737000  1.0
  C  C57  1  0.53322000  0.68459000  0.11262000  1.0
  C  C58  1  0.96677000  0.18459000  0.11262000  1.0
  C  C59  1  0.46678000  0.31541000  0.88737000  1.0
  C  C60  1  0.94642000  0.75396000  0.95090000  1.0
  C  C61  1  0.44642000  0.74603000  0.04910000  1.0
  C  C62  1  0.05358000  0.24604000  0.04910000  1.0
  C  C63  1  0.55358000  0.25396000  0.95090000  1.0
  C  C64  1  0.92361000  0.59772000  0.92722000  1.0
  C  C65  1  0.42361000  0.90228000  0.07278000  1.0
  C  C66  1  0.07638000  0.40229000  0.07278000  1.0
  C  C67  1  0.57638000  0.09771000  0.92722000  1.0
  C  C68  1  0.98406000  0.49900000  0.84152000  1.0
  C  C69  1  0.48406000  0.00100000  0.15848000  1.0
  C  C70  1  0.01594000  0.50099000  0.15847000  1.0
  C  C71  1  0.51594000  0.99901000  0.84153000  1.0
  C  C72  1  0.94588000  0.33942000  0.82405000  1.0
  C  C73  1  0.44588000  0.16058000  0.17595000  1.0
  C  C74  1  0.05411000  0.66058000  0.17595000  1.0
  C  C75  1  0.55411000  0.83942000  0.82405000  1.0
  C  C76  1  0.92275000  0.07888000  0.73866000  1.0
  C  C77  1  0.42274000  0.42112000  0.26134000  1.0
  C  C78  1  0.07725000  0.92112000  0.26134000  1.0
  C  C79  1  0.57725000  0.57888000  0.73866000  1.0
  C  C80  1  0.84016000  0.99912000  0.64461000  1.0
  C  C81  1  0.34016000  0.50088000  0.35539000  1.0
  C  C82  1  0.15983000  0.00087000  0.35539000  1.0
  C  C83  1  0.65984000  0.49913000  0.64461000  1.0
  N  N84  1  0.96969000  0.23466000  0.74616000  1.0
  N  N85  1  0.46969000  0.26534000  0.25384000  1.0
  N  N86  1  0.03030000  0.76533000  0.25383000  1.0
  N  N87  1  0.53031000  0.73467000  0.74617000  1.0
  O  O88  1  0.04533000  0.31862000  0.50530000  1.0
  O  O89  1  0.54533000  0.18138000  0.49470000  1.0
  O  O90  1  0.95467000  0.68138000  0.49470000  1.0
  O  O91  1  0.45467000  0.81862000  0.50530000  1.0
  O  O92  1  0.24754000  0.12703000  0.58435000  1.0
  O  O93  1  0.74754000  0.37297000  0.41565000  1.0
  O  O94  1  0.75246000  0.87296000  0.41565000  1.0
  O  O95  1  0.25246000  0.62704000  0.58436000  1.0
  O  O96  1  0.13127000  0.47762000  0.69470000  1.0
  O  O97  1  0.63127000  0.02237000  0.30530000  1.0
  O  O98  1  0.86873000  0.52237000  0.30530000  1.0
  O  O99  1  0.36873000  0.97763000  0.69470000  1.0
  O  O100  1  0.86205000  0.05997000  0.57995000  1.0
  O  O101  1  0.36205000  0.44003000  0.42005000  1.0
  O  O102  1  0.13795000  0.94003000  0.42005000  1.0
  O  O103  1  0.63796000  0.55997000  0.57995000  1.0
  O  O104  1  0.76559000  0.87078000  0.63420000  1.0
  O  O105  1  0.26559000  0.62922000  0.36580000  1.0
  O  O106  1  0.23442000  0.12922000  0.36580000  1.0
  O  O107  1  0.73442000  0.37078000  0.63420000  1.0
