# generated using pymatgen
data_MnH20C18(NO2)4
_symmetry_space_group_name_H-M   'P 1'
_cell_length_a   5.27850000
_cell_length_b   9.64236000
_cell_length_c   10.50890000
_cell_angle_alpha   68.67190000
_cell_angle_beta   75.73280000
_cell_angle_gamma   83.36650000
_symmetry_Int_Tables_number   1
_chemical_formula_structural   MnH20C18(NO2)4
_chemical_formula_sum   'Mn1 H20 C18 N4 O8'
_cell_volume   482.67585399
_cell_formula_units_Z   1
loop_
 _symmetry_equiv_pos_site_id
 _symmetry_equiv_pos_as_xyz
  1  'x, y, z'
loop_
 _atom_site_type_symbol
 _atom_site_label
 _atom_site_symmetry_multiplicity
 _atom_site_fract_x
 _atom_site_fract_y
 _atom_site_fract_z
 _atom_site_occupancy
  Mn  Mn0  1  0.50000000  0.00000000  0.50001000  1.0
  H  H1  1  0.27078000  0.96840000  0.32256000  1.0
  H  H2  1  0.72922000  0.03160000  0.67744000  1.0
  H  H3  1  0.05963000  0.87554000  0.46534000  1.0
  H  H4  1  0.94037000  0.12446000  0.53466000  1.0
  H  H5  1  0.02857000  0.30775000  0.13375000  1.0
  H  H6  1  0.97144000  0.69225000  0.86625000  1.0
  H  H7  1  0.36933000  0.41513000  0.91261000  1.0
  H  H8  1  0.63068000  0.58486000  0.08740000  1.0
  H  H9  1  0.08193000  0.19545000  0.70571000  1.0
  H  H10  1  0.91806000  0.80455000  0.29429000  1.0
  H  H11  1  0.71510000  0.08691000  0.91576000  1.0
  H  H12  1  0.28490000  0.91310000  0.08424000  1.0
  H  H13  1  0.52530000  0.25975000  0.65149000  1.0
  H  H14  1  0.47471000  0.74025000  0.34852000  1.0
  H  H15  1  0.60745000  0.38824000  0.72093000  1.0
  H  H16  1  0.39255000  0.61176000  0.27906000  1.0
  H  H17  1  0.32718000  0.58509000  0.59044000  1.0
  H  H18  1  0.67282000  0.41491000  0.40956000  1.0
  H  H19  1  0.21408000  0.45547000  0.53384000  1.0
  H  H20  1  0.78591000  0.54452000  0.46616000  1.0
  C  C21  1  0.74337000  0.69482000  0.65236000  1.0
  C  C22  1  0.25662000  0.30519000  0.34765000  1.0
  C  C23  1  0.65289000  0.10752000  0.17437000  1.0
  C  C24  1  0.34711000  0.89249000  0.82564000  1.0
  C  C25  1  0.84432000  0.18900000  0.04150000  1.0
  C  C26  1  0.15568000  0.81100000  0.95849000  1.0
  C  C27  1  0.02689000  0.28388000  0.04045000  1.0
  C  C28  1  0.97311000  0.71612000  0.95955000  1.0
  C  C29  1  0.21801000  0.34262000  0.92069000  1.0
  C  C30  1  0.78200000  0.65737000  0.07931000  1.0
  C  C31  1  0.05336000  0.21833000  0.80267000  1.0
  C  C32  1  0.94664000  0.78168000  0.19733000  1.0
  C  C33  1  0.85491000  0.16007000  0.91868000  1.0
  C  C34  1  0.14509000  0.83993000  0.08132000  1.0
  C  C35  1  0.45414000  0.35579000  0.68440000  1.0
  C  C36  1  0.54586000  0.64421000  0.31560000  1.0
  C  C37  1  0.38265000  0.48477000  0.56225000  1.0
  C  C38  1  0.61735000  0.51523000  0.43775000  1.0
  N  N39  1  0.75000000  0.79786000  0.54397000  1.0
  N  N40  1  0.25000000  0.20213000  0.45604000  1.0
  N  N41  1  0.23297000  0.30608000  0.80604000  1.0
  N  N42  1  0.76703000  0.69392000  0.19395000  1.0
  O  O43  1  0.72551000  0.08488000  0.28771000  1.0
  O  O44  1  0.27448000  0.91513000  0.71229000  1.0
  O  O45  1  0.44609000  0.06403000  0.16203000  1.0
  O  O46  1  0.55391000  0.93597000  0.83797000  1.0
  O  O47  1  0.24744000  0.90033000  0.42264000  1.0
  O  O48  1  0.75256000  0.09968000  0.57735000  1.0
  O  O49  1  0.73720000  0.58985000  0.76090000  1.0
  O  O50  1  0.26279000  0.41014000  0.23911000  1.0
