# generated using pymatgen
data_CdH10(C2O)8
_symmetry_space_group_name_H-M   'P 1'
_cell_length_a   5.87907000
_cell_length_b   7.33170000
_cell_length_c   18.61320000
_cell_angle_alpha   94.92290000
_cell_angle_beta   94.56600000
_cell_angle_gamma   96.29150000
_symmetry_Int_Tables_number   1
_chemical_formula_structural   CdH10(C2O)8
_chemical_formula_sum   'Cd2 H20 C32 O16'
_cell_volume   791.30575448
_cell_formula_units_Z   2
loop_
 _symmetry_equiv_pos_site_id
 _symmetry_equiv_pos_as_xyz
  1  'x, y, z'
loop_
 _atom_site_type_symbol
 _atom_site_label
 _atom_site_symmetry_multiplicity
 _atom_site_fract_x
 _atom_site_fract_y
 _atom_site_fract_z
 _atom_site_occupancy
  Cd  Cd0  1  0.98672000  0.73807000  0.95686000  1.0
  Cd  Cd1  1  0.01330000  0.26193000  0.04314000  1.0
  H  H2  1  0.91432000  0.94008000  0.25387000  1.0
  H  H3  1  0.08569000  0.05992000  0.74613000  1.0
  H  H4  1  0.12976000  0.59879000  0.20064000  1.0
  H  H5  1  0.87026000  0.40121000  0.79936000  1.0
  H  H6  1  0.06652000  0.58320000  0.46234000  1.0
  H  H7  1  0.93344000  0.41679000  0.53764000  1.0
  H  H8  1  0.23388000  0.65131000  0.59127000  1.0
  H  H9  1  0.76606000  0.34868000  0.40872000  1.0
  H  H10  1  0.86183000  0.89750000  0.51669000  1.0
  H  H11  1  0.13813000  0.10248000  0.48331000  1.0
  H  H12  1  0.63904000  0.80423000  0.61694000  1.0
  H  H13  1  0.36089000  0.19577000  0.38306000  1.0
  H  H14  1  0.24978000  0.47184000  0.91216000  1.0
  H  H15  1  0.75024000  0.52816000  0.08784000  1.0
  H  H16  1  0.37232000  0.65941000  0.88763000  1.0
  H  H17  1  0.62770000  0.34059000  0.11237000  1.0
  H  H18  1  0.64106000  0.93370000  0.91184000  1.0
  H  H19  1  0.35897000  0.06630000  0.08816000  1.0
  H  H20  1  0.68636000  0.81498000  0.84094000  1.0
  H  H21  1  0.31367000  0.18502000  0.15906000  1.0
  C  C22  1  0.74293000  0.86550000  0.24145000  1.0
  C  C23  1  0.25708000  0.13449000  0.75855000  1.0
  C  C24  1  0.64755000  0.82866000  0.17018000  1.0
  C  C25  1  0.35246000  0.17135000  0.82983000  1.0
  C  C26  1  0.42393000  0.73480000  0.15532000  1.0
  C  C27  1  0.57608000  0.26521000  0.84468000  1.0
  C  C28  1  0.30239000  0.67274000  0.21165000  1.0
  C  C29  1  0.69762000  0.32726000  0.78835000  1.0
  C  C30  1  0.39933000  0.70851000  0.28342000  1.0
  C  C31  1  0.60067000  0.29148000  0.71658000  1.0
  C  C32  1  0.26530000  0.64412000  0.34299000  1.0
  C  C33  1  0.73469000  0.35588000  0.65701000  1.0
  C  C34  1  0.36881000  0.69683000  0.41819000  1.0
  C  C35  1  0.63118000  0.30316000  0.58181000  1.0
  C  C36  1  0.24103000  0.65018000  0.47557000  1.0
  C  C37  1  0.75895000  0.34981000  0.52442000  1.0
  C  C38  1  0.33539000  0.68889000  0.54700000  1.0
  C  C39  1  0.66457000  0.31111000  0.45299000  1.0
  C  C40  1  0.56102000  0.77524000  0.56139000  1.0
  C  C41  1  0.43894000  0.22476000  0.43861000  1.0
  C  C42  1  0.68866000  0.82645000  0.50490000  1.0
  C  C43  1  0.31132000  0.17353000  0.49510000  1.0
  C  C44  1  0.59359000  0.78943000  0.43301000  1.0
  C  C45  1  0.40640000  0.21057000  0.56699000  1.0
  C  C46  1  0.72801000  0.85166000  0.37384000  1.0
  C  C47  1  0.27198000  0.14833000  0.62616000  1.0
  C  C48  1  0.62036000  0.80703000  0.29836000  1.0
  C  C49  1  0.37964000  0.19298000  0.70165000  1.0
  C  C50  1  0.78594000  0.88144000  0.10896000  1.0
  C  C51  1  0.21408000  0.11857000  0.89105000  1.0
  C  C52  1  0.30657000  0.71659000  0.08022000  1.0
  C  C53  1  0.69344000  0.28342000  0.91978000  1.0
  O  O54  1  0.20425000  0.56377000  0.05233000  1.0
  O  O55  1  0.79577000  0.43624000  0.94767000  1.0
  O  O56  1  0.30260000  0.86391000  0.04786000  1.0
  O  O57  1  0.69743000  0.13610000  0.95214000  1.0
  O  O58  1  0.77822000  0.75728000  0.05588000  1.0
  O  O59  1  0.22181000  0.24274000  0.94413000  1.0
  O  O60  1  0.89879000  0.03924000  0.11623000  1.0
  O  O61  1  0.10123000  0.96076000  0.88378000  1.0
  O  O62  1  0.07730000  0.54818000  0.32969000  1.0
  O  O63  1  0.92270000  0.45181000  0.67030000  1.0
  O  O64  1  0.92025000  0.94160000  0.38589000  1.0
  O  O65  1  0.07974000  0.05839000  0.61412000  1.0
  O  O66  1  0.22209000  0.58241000  0.88710000  1.0
  O  O67  1  0.77793000  0.41759000  0.11290000  1.0
  O  O68  1  0.63681000  0.80154000  0.88912000  1.0
  O  O69  1  0.36321000  0.19847000  0.11088000  1.0
