# generated using pymatgen
data_Cd2H18C27N9ClO6
_symmetry_space_group_name_H-M   'P 1'
_cell_length_a   7.38619000
_cell_length_b   21.19420000
_cell_length_c   26.06860000
_cell_angle_alpha   90.00000000
_cell_angle_beta   90.00010000
_cell_angle_gamma   90.00000000
_symmetry_Int_Tables_number   1
_chemical_formula_structural   Cd2H18C27N9ClO6
_chemical_formula_sum   'Cd8 H72 C108 N36 Cl4 O24'
_cell_volume   4080.89303557
_cell_formula_units_Z   4
loop_
 _symmetry_equiv_pos_site_id
 _symmetry_equiv_pos_as_xyz
  1  'x, y, z'
loop_
 _atom_site_type_symbol
 _atom_site_label
 _atom_site_symmetry_multiplicity
 _atom_site_fract_x
 _atom_site_fract_y
 _atom_site_fract_z
 _atom_site_occupancy
  Cd  Cd0  1  0.32267000  0.75000000  0.56685000  1.0
  Cd  Cd1  1  0.82267000  0.25000000  0.93315000  1.0
  Cd  Cd2  1  0.67733000  0.25000000  0.43315000  1.0
  Cd  Cd3  1  0.17733000  0.75000000  0.06685000  1.0
  Cd  Cd4  1  0.77126000  0.75000000  0.51528000  1.0
  Cd  Cd5  1  0.27126000  0.25000000  0.98472000  1.0
  Cd  Cd6  1  0.22874000  0.25000000  0.48472000  1.0
  Cd  Cd7  1  0.72874000  0.75000000  0.01528000  1.0
  H  H8  1  0.35217000  0.15138000  0.58361000  1.0
  H  H9  1  0.85217000  0.84862000  0.91639000  1.0
  H  H10  1  0.64783000  0.65138000  0.41639000  1.0
  H  H11  1  0.14783000  0.34862000  0.08361000  1.0
  H  H12  1  0.64783000  0.84862000  0.41639000  1.0
  H  H13  1  0.14783000  0.15138000  0.08361000  1.0
  H  H14  1  0.35217000  0.34862000  0.58361000  1.0
  H  H15  1  0.85217000  0.65138000  0.91639000  1.0
  H  H16  1  0.86791000  0.13634000  0.49926000  1.0
  H  H17  1  0.36791000  0.86366000  0.00074000  1.0
  H  H18  1  0.13209000  0.63634000  0.50074000  1.0
  H  H19  1  0.63209000  0.36366000  0.99926000  1.0
  H  H20  1  0.13209000  0.86366000  0.50074000  1.0
  H  H21  1  0.63209000  0.13634000  0.99926000  1.0
  H  H22  1  0.86791000  0.36366000  0.49926000  1.0
  H  H23  1  0.36791000  0.63634000  0.00074000  1.0
  H  H24  1  0.62872000  0.08804000  0.55223000  1.0
  H  H25  1  0.12872000  0.91196000  0.94777000  1.0
  H  H26  1  0.37128000  0.58804000  0.44777000  1.0
  H  H27  1  0.87128000  0.41196000  0.05223000  1.0
  H  H28  1  0.37128000  0.91196000  0.44777000  1.0
  H  H29  1  0.87128000  0.08804000  0.05223000  1.0
  H  H30  1  0.62872000  0.41196000  0.55223000  1.0
  H  H31  1  0.12872000  0.58804000  0.94777000  1.0
  H  H32  1  0.41410000  0.99701000  0.55515000  1.0
  H  H33  1  0.91411000  0.00299000  0.94485000  1.0
  H  H34  1  0.58589000  0.49701000  0.44485000  1.0
  H  H35  1  0.08590000  0.50299000  0.05515000  1.0
  H  H36  1  0.58589000  0.00299000  0.44485000  1.0
  H  H37  1  0.08590000  0.99701000  0.05515000  1.0
  H  H38  1  0.41410000  0.50299000  0.55515000  1.0
  H  H39  1  0.91411000  0.49701000  0.94485000  1.0
  H  H40  1  0.85961000  0.87113000  0.58390000  1.0
  H  H41  1  0.35961000  0.12887000  0.91610000  1.0
  H  H42  1  0.14039000  0.37113000  0.41610000  1.0
  H  H43  1  0.64039000  0.62887000  0.08390000  1.0
  H  H44  1  0.14039000  0.12887000  0.41610000  1.0
  H  H45  1  0.64039000  0.87113000  0.08390000  1.0
  H  H46  1  0.85961000  0.62887000  0.58390000  1.0
  H  H47  1  0.35961000  0.37113000  0.91610000  1.0
  H  H48  1  0.07491000  0.96121000  0.58102000  1.0
  H  H49  1  0.57491000  0.03879000  0.91898000  1.0
  H  H50  1  0.92509000  0.46121000  0.41898000  1.0
  H  H51  1  0.42509000  0.53879000  0.08102000  1.0
  H  H52  1  0.92509000  0.03879000  0.41898000  1.0
  H  H53  1  0.42509000  0.96121000  0.08102000  1.0
  H  H54  1  0.07491000  0.53879000  0.58102000  1.0
  H  H55  1  0.57491000  0.46121000  0.91898000  1.0
  H  H56  1  0.81692000  0.75000000  0.15424000  1.0
  H  H57  1  0.31693000  0.25000000  0.34576000  1.0
  H  H58  1  0.18307000  0.25000000  0.84576000  1.0
  H  H59  1  0.68307000  0.75000000  0.65424000  1.0
  H  H60  1  0.36849000  0.75000000  0.19192000  1.0
  H  H61  1  0.86850000  0.25000000  0.30808000  1.0
  H  H62  1  0.63150000  0.25000000  0.80808000  1.0
  H  H63  1  0.13150000  0.75000000  0.69192000  1.0
  H  H64  1  0.91917000  0.75000000  0.32157000  1.0
  H  H65  1  0.41918000  0.25000000  0.17843000  1.0
  H  H66  1  0.08082000  0.25000000  0.67843000  1.0
  H  H67  1  0.58082000  0.75000000  0.82157000  1.0
  H  H68  1  0.03091000  0.75000000  0.41246000  1.0
  H  H69  1  0.53092000  0.25000000  0.08754000  1.0
  H  H70  1  0.96909000  0.25000000  0.58754000  1.0
  H  H71  1  0.46908000  0.75000000  0.91246000  1.0
  H  H72  1  0.57944000  0.75000000  0.35867000  1.0
  H  H73  1  0.07945000  0.25000000  0.14133000  1.0
  H  H74  1  0.42056000  0.25000000  0.64132000  1.0
  H  H75  1  0.92055000  0.75000000  0.85867000  1.0
  H  H76  1  0.47332000  0.75000000  0.26884000  1.0
  H  H77  1  0.97333000  0.25000000  0.23115000  1.0
  H  H78  1  0.52667000  0.25000000  0.73116000  1.0
  H  H79  1  0.02667000  0.75000000  0.76885000  1.0
  C  C80  1  0.22344000  0.13409000  0.56951000  1.0
  C  C81  1  0.72344000  0.86591000  0.93049000  1.0
  C  C82  1  0.77656000  0.63409000  0.43049000  1.0
  C  C83  1  0.27656000  0.36591000  0.06951000  1.0
  C  C84  1  0.77656000  0.86591000  0.43049000  1.0
  C  C85  1  0.27656000  0.13409000  0.06951000  1.0
  C  C86  1  0.22344000  0.36591000  0.56951000  1.0
  C  C87  1  0.72344000  0.63409000  0.93049000  1.0
  C  C88  1  0.97737000  0.12931000  0.52662000  1.0
  C  C89  1  0.47737000  0.87069000  0.97338000  1.0
  C  C90  1  0.02263000  0.62931000  0.47338000  1.0
  C  C91  1  0.52263000  0.37069000  0.02662000  1.0
  C  C92  1  0.02263000  0.87069000  0.47338000  1.0
  C  C93  1  0.52263000  0.12931000  0.02662000  1.0
  C  C94  1  0.97737000  0.37069000  0.52662000  1.0
  C  C95  1  0.47737000  0.62931000  0.97338000  1.0
  C  C96  1  0.86338000  0.02923000  0.56502000  1.0
  C  C97  1  0.36339000  0.97077000  0.93497000  1.0
  C  C98  1  0.13662000  0.52923000  0.43498000  1.0
  C  C99  1  0.63662000  0.47077000  0.06503000  1.0
  C  C100  1  0.13662000  0.97077000  0.43498000  1.0
  C  C101  1  0.63662000  0.02923000  0.06503000  1.0
  C  C102  1  0.86338000  0.47077000  0.56503000  1.0
  C  C103  1  0.36338000  0.52923000  0.93498000  1.0
  C  C104  1  0.67811000  0.04025000  0.55864000  1.0
  C  C105  1  0.17811000  0.95975000  0.94136000  1.0
  C  C106  1  0.32189000  0.54025000  0.44136000  1.0
  C  C107  1  0.82189000  0.45975000  0.05864000  1.0
  C  C108  1  0.32189000  0.95975000  0.44136000  1.0
  C  C109  1  0.82189000  0.04025000  0.05864000  1.0
  C  C110  1  0.67811000  0.45975000  0.55864000  1.0
  C  C111  1  0.17811000  0.54025000  0.94136000  1.0
  C  C112  1  0.55882000  0.98947000  0.56009000  1.0
  C  C113  1  0.05882000  0.01054000  0.93991000  1.0
  C  C114  1  0.44118000  0.48947000  0.43991000  1.0
  C  C115  1  0.94118000  0.51054000  0.06009000  1.0
  C  C116  1  0.44118000  0.01054000  0.43991000  1.0
  C  C117  1  0.94119000  0.98946000  0.06009000  1.0
  C  C118  1  0.55881000  0.51053000  0.56009000  1.0
  C  C119  1  0.05882000  0.48946000  0.93991000  1.0
  C  C120  1  0.62419000  0.92804000  0.56747000  1.0
  C  C121  1  0.12419000  0.07196000  0.93253000  1.0
  C  C122  1  0.37581000  0.42804000  0.43253000  1.0
  C  C123  1  0.87581000  0.57196000  0.06747000  1.0
  C  C124  1  0.37581000  0.07196000  0.43253000  1.0
  C  C125  1  0.87581000  0.92804000  0.06747000  1.0
  C  C126  1  0.62419000  0.57196000  0.56747000  1.0
  C  C127  1  0.12419000  0.42804000  0.93253000  1.0
  C  C128  1  0.80950000  0.91862000  0.57658000  1.0
  C  C129  1  0.30950000  0.08138000  0.92342000  1.0
  C  C130  1  0.19050000  0.41862000  0.42342000  1.0
  C  C131  1  0.69050000  0.58138000  0.07658000  1.0
  C  C132  1  0.19050000  0.08138000  0.42342000  1.0
  C  C133  1  0.69051000  0.91862000  0.07658000  1.0
  C  C134  1  0.80950000  0.58138000  0.57658000  1.0
  C  C135  1  0.30950000  0.41862000  0.92342000  1.0
  C  C136  1  0.93037000  0.96889000  0.57539000  1.0
  C  C137  1  0.43038000  0.03111000  0.92461000  1.0
  C  C138  1  0.06963000  0.46889000  0.42461000  1.0
  C  C139  1  0.56963000  0.53111000  0.07539000  1.0
  C  C140  1  0.06963000  0.03111000  0.42461000  1.0
  C  C141  1  0.56963000  0.96889000  0.07539000  1.0
  C  C142  1  0.93037000  0.53111000  0.57539000  1.0
  C  C143  1  0.43038000  0.46889000  0.92461000  1.0
  C  C144  1  0.49884000  0.87261000  0.56393000  1.0
  C  C145  1  0.99884000  0.12739000  0.93607000  1.0
  C  C146  1  0.50116000  0.37261000  0.43607000  1.0
  C  C147  1  0.00116000  0.62739000  0.06393000  1.0
  C  C148  1  0.50116000  0.12739000  0.43607000  1.0
  C  C149  1  0.00116000  0.87261000  0.06393000  1.0
  C  C150  1  0.49884000  0.62739000  0.56393000  1.0
  C  C151  1  0.99884000  0.37261000  0.93607000  1.0
  C  C152  1  0.94082000  0.75000000  0.17667000  1.0
  C  C153  1  0.44083000  0.25000000  0.32333000  1.0
  C  C154  1  0.05918000  0.25000000  0.82333000  1.0
  C  C155  1  0.55917000  0.75000000  0.67667000  1.0
  C  C156  1  0.22213000  0.75000000  0.19462000  1.0
  C  C157  1  0.72214000  0.25000000  0.30538000  1.0
  C  C158  1  0.77787000  0.25000000  0.80538000  1.0
  C  C159  1  0.27786000  0.75000000  0.69462000  1.0
  C  C160  1  0.06317000  0.75000000  0.33032000  1.0
  C  C161  1  0.56318000  0.25000000  0.16968000  1.0
  C  C162  1  0.93682000  0.25000000  0.66968000  1.0
  C  C163  1  0.43682000  0.75000000  0.83032000  1.0
  C  C164  1  0.12572000  0.75000000  0.38060000  1.0
  C  C165  1  0.62573000  0.25000000  0.11940000  1.0
  C  C166  1  0.87427000  0.25000000  0.61940000  1.0
  C  C167  1  0.37427000  0.75000000  0.88060000  1.0
  C  C168  1  0.31142000  0.75000000  0.39131000  1.0
  C  C169  1  0.81143000  0.25000000  0.10869000  1.0
  C  C170  1  0.68858000  0.25000000  0.60869000  1.0
  C  C171  1  0.18857000  0.75000000  0.89131000  1.0
  C  C172  1  0.43482000  0.75000000  0.35042000  1.0
  C  C173  1  0.93483000  0.25000000  0.14958000  1.0
  C  C174  1  0.56517000  0.25000000  0.64958000  1.0
  C  C175  1  0.06517000  0.75000000  0.85042000  1.0
  C  C176  1  0.37471000  0.75000000  0.29990000  1.0
  C  C177  1  0.87471000  0.25000000  0.20010000  1.0
  C  C178  1  0.62529000  0.25000000  0.70010000  1.0
  C  C179  1  0.12528000  0.75000000  0.79990000  1.0
  C  C180  1  0.18823000  0.75000000  0.29003000  1.0
  C  C181  1  0.68824000  0.25000000  0.20997000  1.0
  C  C182  1  0.81177000  0.25000000  0.70997000  1.0
  C  C183  1  0.31175000  0.75000000  0.79003000  1.0
  C  C184  1  0.37802000  0.75000000  0.44584000  1.0
  C  C185  1  0.87803000  0.25000000  0.05416000  1.0
  C  C186  1  0.62198000  0.25000000  0.55416000  1.0
  C  C187  1  0.12198000  0.75000000  0.94584000  1.0
  N  N188  1  0.98694000  0.08016000  0.55959000  1.0
  N  N189  1  0.48694000  0.91984000  0.94041000  1.0
  N  N190  1  0.01306000  0.58016000  0.44040000  1.0
  N  N191  1  0.51306000  0.41984000  0.05960000  1.0
  N  N192  1  0.01306000  0.91984000  0.44041000  1.0
  N  N193  1  0.51307000  0.08016000  0.05960000  1.0
  N  N194  1  0.98694000  0.41984000  0.55960000  1.0
  N  N195  1  0.48694000  0.58016000  0.94040000  1.0
  N  N196  1  0.14453000  0.08236000  0.58710000  1.0
  N  N197  1  0.64453000  0.91764000  0.91290000  1.0
  N  N198  1  0.85547000  0.58236000  0.41290000  1.0
  N  N199  1  0.35547000  0.41764000  0.08710000  1.0
  N  N200  1  0.85547000  0.91764000  0.41290000  1.0
  N  N201  1  0.35547000  0.08236000  0.08710000  1.0
  N  N202  1  0.14453000  0.41764000  0.58710000  1.0
  N  N203  1  0.64453000  0.58236000  0.91290000  1.0
  N  N204  1  0.12585000  0.16450000  0.53230000  1.0
  N  N205  1  0.62585000  0.83550000  0.96770000  1.0
  N  N206  1  0.87415000  0.66450000  0.46770000  1.0
  N  N207  1  0.37415000  0.33550000  0.03230000  1.0
  N  N208  1  0.87415000  0.83550000  0.46770000  1.0
  N  N209  1  0.37415000  0.16450000  0.03230000  1.0
  N  N210  1  0.12585000  0.33550000  0.53230000  1.0
  N  N211  1  0.62585000  0.66450000  0.96770000  1.0
  N  N212  1  0.12475000  0.75000000  0.23867000  1.0
  N  N213  1  0.62477000  0.25000000  0.26133000  1.0
  N  N214  1  0.87524000  0.25000000  0.76133000  1.0
  N  N215  1  0.37523000  0.75000000  0.73867000  1.0
  N  N216  1  0.94347000  0.75000000  0.22747000  1.0
  N  N217  1  0.44348000  0.25000000  0.27253000  1.0
  N  N218  1  0.05653000  0.25000000  0.77253000  1.0
  N  N219  1  0.55652000  0.75000000  0.72747000  1.0
  N  N220  1  0.10962000  0.75000000  0.15497000  1.0
  N  N221  1  0.60962000  0.25000000  0.34503000  1.0
  N  N222  1  0.89038000  0.25000000  0.84503000  1.0
  N  N223  1  0.39038000  0.75000000  0.65497000  1.0
  Cl  Cl224  1  0.98664000  0.75000000  0.59261000  1.0
  Cl  Cl225  1  0.48665000  0.25000000  0.90739000  1.0
  Cl  Cl226  1  0.01335000  0.25000000  0.40739000  1.0
  Cl  Cl227  1  0.51335000  0.75000000  0.09261000  1.0
  O  O228  1  0.57316000  0.81719000  0.56311000  1.0
  O  O229  1  0.07317000  0.18281000  0.93689000  1.0
  O  O230  1  0.42684000  0.31719000  0.43689000  1.0
  O  O231  1  0.92684000  0.68281000  0.06311000  1.0
  O  O232  1  0.42684000  0.18281000  0.43689000  1.0
  O  O233  1  0.92684000  0.81719000  0.06311000  1.0
  O  O234  1  0.57316000  0.68281000  0.56311000  1.0
  O  O235  1  0.07316000  0.31719000  0.93689000  1.0
  O  O236  1  0.32977000  0.88002000  0.56186000  1.0
  O  O237  1  0.82978000  0.11998000  0.93814000  1.0
  O  O238  1  0.67023000  0.38002000  0.43814000  1.0
  O  O239  1  0.17023000  0.61997000  0.06186000  1.0
  O  O240  1  0.67023000  0.11997000  0.43814000  1.0
  O  O241  1  0.17023000  0.88002000  0.06186000  1.0
  O  O242  1  0.32977000  0.61998000  0.56186000  1.0
  O  O243  1  0.82977000  0.38002000  0.93814000  1.0
  O  O244  1  0.25843000  0.75000000  0.48114000  1.0
  O  O245  1  0.75843000  0.25000000  0.01886000  1.0
  O  O246  1  0.74157000  0.25000000  0.51886000  1.0
  O  O247  1  0.24157000  0.75000000  0.98114000  1.0
  O  O248  1  0.54854000  0.75000000  0.45198000  1.0
  O  O249  1  0.04854000  0.25000000  0.04802000  1.0
  O  O250  1  0.45146000  0.25000000  0.54802000  1.0
  O  O251  1  0.95146000  0.75000000  0.95198000  1.0
