# generated using pymatgen
data_AlH7C13ClO5
_symmetry_space_group_name_H-M   'P 1'
_cell_length_a   6.63520000
_cell_length_b   11.06627553
_cell_length_c   17.62419772
_cell_angle_alpha   85.37657981
_cell_angle_beta   79.35126727
_cell_angle_gamma   73.43566807
_symmetry_Int_Tables_number   1
_chemical_formula_structural   AlH7C13ClO5
_chemical_formula_sum   'Al2 H14 C26 Cl2 O10'
_cell_volume   1218.48959974
_cell_formula_units_Z   2
loop_
 _symmetry_equiv_pos_site_id
 _symmetry_equiv_pos_as_xyz
  1  'x, y, z'
loop_
 _atom_site_type_symbol
 _atom_site_label
 _atom_site_symmetry_multiplicity
 _atom_site_fract_x
 _atom_site_fract_y
 _atom_site_fract_z
 _atom_site_occupancy
  Al  Al0  1  0.51586000  0.49497000  0.49406000  1.0
  Al  Al1  1  0.01702000  0.49606000  0.49042000  1.0
  H  H2  1  0.23330000  0.63332000  0.43600000  1.0
  H  H3  1  0.74646000  0.45503000  0.58978000  1.0
  H  H4  1  0.45321000  0.48179000  0.72690000  1.0
  H  H5  1  0.38298000  0.46533000  0.87053000  1.0
  H  H6  1  0.71031000  0.62655000  0.86670000  1.0
  H  H7  1  0.26971000  0.37756000  0.11203000  1.0
  H  H8  1  0.54736000  0.51591000  0.26985000  1.0
  H  H9  1  0.59095000  0.54482000  0.12631000  1.0
  H  H10  1  0.20477000  0.11884000  0.43168000  1.0
  H  H11  1  0.33407000  0.88625000  0.42063000  1.0
  H  H12  1  0.04011000  0.88327000  0.53050000  1.0
  H  H13  1  0.86587000  0.86406000  0.61761000  1.0
  H  H14  1  0.73373000  0.09907000  0.62976000  1.0
  H  H15  1  0.90596000  0.12006000  0.54250000  1.0
  C  C16  1  0.67018000  0.72393000  0.47833000  1.0
  C  C17  1  0.84168000  0.44979000  0.35765000  1.0
  C  C18  1  0.36327000  0.27141000  0.50136000  1.0
  C  C19  1  0.18156000  0.54031000  0.62973000  1.0
  C  C20  1  0.12498000  0.55592000  0.71529000  1.0
  C  C21  1  0.29091000  0.51194000  0.75849000  1.0
  C  C22  1  0.25205000  0.50292000  0.83842000  1.0
  C  C23  1  0.04049000  0.53944000  0.87868000  1.0
  C  C24  1  0.87361000  0.59256000  0.83648000  1.0
  C  C25  1  0.91548000  0.60037000  0.75612000  1.0
  C  C26  1  0.99750000  0.51917000  0.95960000  1.0
  C  C27  1  0.96684000  0.49410000  0.02879000  1.0
  C  C28  1  0.93492000  0.46900000  0.10945000  1.0
  C  C29  1  0.11125000  0.41046000  0.14629000  1.0
  C  C30  1  0.08445000  0.39546000  0.22639000  1.0
  C  C31  1  0.88124000  0.43928000  0.27186000  1.0
  C  C32  1  0.70486000  0.48804000  0.23414000  1.0
  C  C33  1  0.72908000  0.50363000  0.15442000  1.0
  C  C34  1  0.59673000  0.86344000  0.48166000  1.0
  C  C35  1  0.44496000  0.13254000  0.49505000  1.0
  C  C36  1  0.69858000  0.93066000  0.51806000  1.0
  C  C37  1  0.34317000  0.06553000  0.45680000  1.0
  C  C38  1  0.62466000  0.06154000  0.52475000  1.0
  C  C39  1  0.41638000  0.93503000  0.45052000  1.0
  C  C40  1  0.87809000  0.91863000  0.56290000  1.0
  C  C41  1  0.79467000  0.06667000  0.57042000  1.0
  Cl  Cl42  1  0.70059000  0.66979000  0.70961000  1.0
  Cl  Cl43  1  0.30622000  0.31794000  0.26705000  1.0
  O  O44  1  0.53718000  0.66581000  0.46752000  1.0
  O  O45  1  0.98142000  0.47913000  0.38717000  1.0
  O  O46  1  0.17409000  0.32321000  0.48917000  1.0
  O  O47  1  0.36595000  0.54854000  0.59739000  1.0
  O  O48  1  0.48858000  0.32937000  0.51878000  1.0
  O  O49  1  0.04628000  0.51213000  0.59696000  1.0
  O  O50  1  0.86261000  0.67221000  0.48751000  1.0
  O  O51  1  0.66397000  0.43755000  0.39393000  1.0
  O  O52  1  0.26300000  0.54596000  0.45417000  1.0
  O  O53  1  0.76756000  0.45306000  0.53389000  1.0
