# generated using pymatgen
data_NaZnH11C9O10
_symmetry_space_group_name_H-M   'P 1'
_cell_length_a   6.94637000
_cell_length_b   11.00890000
_cell_length_c   18.38040000
_cell_angle_alpha   78.77680000
_cell_angle_beta   85.68760000
_cell_angle_gamma   73.67210000
_symmetry_Int_Tables_number   1
_chemical_formula_structural   NaZnH11C9O10
_chemical_formula_sum   'Na4 Zn4 H44 C36 O40'
_cell_volume   1322.78589739
_cell_formula_units_Z   4
loop_
 _symmetry_equiv_pos_site_id
 _symmetry_equiv_pos_as_xyz
  1  'x, y, z'
loop_
 _atom_site_type_symbol
 _atom_site_label
 _atom_site_symmetry_multiplicity
 _atom_site_fract_x
 _atom_site_fract_y
 _atom_site_fract_z
 _atom_site_occupancy
  Na  Na0  1  0.49711000  0.24719000  0.25227000  1.0
  Na  Na1  1  0.50289000  0.75281000  0.74773000  1.0
  Na  Na2  1  0.49372000  0.74761000  0.24899000  1.0
  Na  Na3  1  0.50628000  0.25240000  0.75101000  1.0
  Zn  Zn4  1  0.30480000  0.98149000  0.33748000  1.0
  Zn  Zn5  1  0.69520000  0.01851000  0.66252000  1.0
  Zn  Zn6  1  0.31348000  0.48664000  0.83806000  1.0
  Zn  Zn7  1  0.68653000  0.51336000  0.16194000  1.0
  H  H8  1  0.68404000  0.83753000  0.37092000  1.0
  H  H9  1  0.31596000  0.16247000  0.62908000  1.0
  H  H10  1  0.68923000  0.92394000  0.28731000  1.0
  H  H11  1  0.31077000  0.07606000  0.71269000  1.0
  H  H12  1  0.94774000  0.03892000  0.39526000  1.0
  H  H13  1  0.05226000  0.96108000  0.60474000  1.0
  H  H14  1  0.90417000  0.17472000  0.33798000  1.0
  H  H15  1  0.09583000  0.82529000  0.66202000  1.0
  H  H16  1  0.52220000  0.05577000  0.40923000  1.0
  H  H17  1  0.47780000  0.94423000  0.59077000  1.0
  H  H18  1  0.32978000  0.18526000  0.39967000  1.0
  H  H19  1  0.67022000  0.81474000  0.60033000  1.0
  H  H20  1  0.52638000  0.57095000  0.90677000  1.0
  H  H21  1  0.47362000  0.42905000  0.09324000  1.0
  H  H22  1  0.33017000  0.69659000  0.89510000  1.0
  H  H23  1  0.66984000  0.30341000  0.10490000  1.0
  H  H24  1  0.91207000  0.68008000  0.83587000  1.0
  H  H25  1  0.08793000  0.31992000  0.16413000  1.0
  H  H26  1  0.95908000  0.54788000  0.89618000  1.0
  H  H27  1  0.04093000  0.45212000  0.10382000  1.0
  H  H28  1  0.69237000  0.33798000  0.87550000  1.0
  H  H29  1  0.30764000  0.66202000  0.12449000  1.0
  H  H30  1  0.70376000  0.42522000  0.79224000  1.0
  H  H31  1  0.29623000  0.57478000  0.20775000  1.0
  H  H32  1  0.11978000  0.43584000  0.24296000  1.0
  H  H33  1  0.88022000  0.56416000  0.75704000  1.0
  H  H34  1  0.19933000  0.41205000  0.32511000  1.0
  H  H35  1  0.80067000  0.58795000  0.67489000  1.0
  H  H36  1  0.87103000  0.05823000  0.25789000  1.0
  H  H37  1  0.12898000  0.94177000  0.74210000  1.0
  H  H38  1  0.78977000  0.08366000  0.17553000  1.0
  H  H39  1  0.21024000  0.91633000  0.82447000  1.0
  H  H40  1  0.25195000  0.03210000  0.89789000  1.0
  H  H41  1  0.74804000  0.96790000  0.10211000  1.0
  H  H42  1  0.22795000  0.86515000  0.12969000  1.0
  H  H43  1  0.77204000  0.13485000  0.87030000  1.0
  H  H44  1  0.26297000  0.25560000  0.06223000  1.0
  H  H45  1  0.73702000  0.74440000  0.93777000  1.0
  H  H46  1  0.24980000  0.51958000  0.39988000  1.0
  H  H47  1  0.75020000  0.48043000  0.60011000  1.0
  H  H48  1  0.23299000  0.36206000  0.63347000  1.0
  H  H49  1  0.76701000  0.63793000  0.36653000  1.0
  H  H50  1  0.25856000  0.75314000  0.55889000  1.0
  H  H51  1  0.74144000  0.24687000  0.44111000  1.0
  C  C52  1  0.24154000  0.80775000  0.98933000  1.0
  C  C53  1  0.75846000  0.19225000  0.01067000  1.0
  C  C54  1  0.24071000  0.93276000  0.01141000  1.0
  C  C55  1  0.75928000  0.06724000  0.98860000  1.0
  C  C56  1  0.24840000  0.03852000  0.95622000  1.0
  C  C57  1  0.75160000  0.96148000  0.04378000  1.0
  C  C58  1  0.23772000  0.94533000  0.08578000  1.0
  C  C59  1  0.76227000  0.05468000  0.91422000  1.0
  C  C60  1  0.24599000  0.06141000  0.10440000  1.0
  C  C61  1  0.75400000  0.93859000  0.89560000  1.0
  C  C62  1  0.25263000  0.16606000  0.04845000  1.0
  C  C63  1  0.74736000  0.83394000  0.95156000  1.0
  C  C64  1  0.25176000  0.15527000  0.97428000  1.0
  C  C65  1  0.74823000  0.84474000  0.02573000  1.0
  C  C66  1  0.25384000  0.07432000  0.18317000  1.0
  C  C67  1  0.74616000  0.92569000  0.81683000  1.0
  C  C68  1  0.26233000  0.26456000  0.91327000  1.0
  C  C69  1  0.73765000  0.73545000  0.08673000  1.0
  C  C70  1  0.25522000  0.75523000  0.41110000  1.0
  C  C71  1  0.74478000  0.24478000  0.58890000  1.0
  C  C72  1  0.24771000  0.64742000  0.47356000  1.0
  C  C73  1  0.75229000  0.35258000  0.52644000  1.0
  C  C74  1  0.24637000  0.52887000  0.45774000  1.0
  C  C75  1  0.75363000  0.47113000  0.54226000  1.0
  C  C76  1  0.24197000  0.42462000  0.51450000  1.0
  C  C77  1  0.75803000  0.57538000  0.48550000  1.0
  C  C78  1  0.24472000  0.29807000  0.49391000  1.0
  C  C79  1  0.75528000  0.70194000  0.50609000  1.0
  C  C80  1  0.24039000  0.44081000  0.58824000  1.0
  C  C81  1  0.75960000  0.55919000  0.41176000  1.0
  C  C82  1  0.24772000  0.55885000  0.60459000  1.0
  C  C83  1  0.75227000  0.44115000  0.39541000  1.0
  C  C84  1  0.25018000  0.66186000  0.54702000  1.0
  C  C85  1  0.74981000  0.33815000  0.45298000  1.0
  C  C86  1  0.26092000  0.57605000  0.68234000  1.0
  C  C87  1  0.73908000  0.42395000  0.31766000  1.0
  O  O88  1  0.23511000  0.81100000  0.91875000  1.0
  O  O89  1  0.76490000  0.18899000  0.08125000  1.0
  O  O90  1  0.25234000  0.70723000  0.03716000  1.0
  O  O91  1  0.74767000  0.29276000  0.96284000  1.0
  O  O92  1  0.27965000  0.24713000  0.84734000  1.0
  O  O93  1  0.72035000  0.75287000  0.15266000  1.0
  O  O94  1  0.25693000  0.37331000  0.93201000  1.0
  O  O95  1  0.74307000  0.62669000  0.06799000  1.0
  O  O96  1  0.23766000  0.18327000  0.20029000  1.0
  O  O97  1  0.76235000  0.81672000  0.79971000  1.0
  O  O98  1  0.28078000  0.97036000  0.23178000  1.0
  O  O99  1  0.71922000  0.02964000  0.76822000  1.0
  O  O100  1  0.27005000  0.73577000  0.34567000  1.0
  O  O101  1  0.72996000  0.26423000  0.65433000  1.0
  O  O102  1  0.25010000  0.86471000  0.42888000  1.0
  O  O103  1  0.74992000  0.13529000  0.57112000  1.0
  O  O104  1  0.61785000  0.86833000  0.32094000  1.0
  O  O105  1  0.38216000  0.13167000  0.67906000  1.0
  O  O106  1  0.98205000  0.08064000  0.34614000  1.0
  O  O107  1  0.01795000  0.91936000  0.65386000  1.0
  O  O108  1  0.42301000  0.10856000  0.37290000  1.0
  O  O109  1  0.57699000  0.89144000  0.62710000  1.0
  O  O110  1  0.23727000  0.29962000  0.42367000  1.0
  O  O111  1  0.76272000  0.70039000  0.57633000  1.0
  O  O112  1  0.25790000  0.19815000  0.54267000  1.0
  O  O113  1  0.74210000  0.80185000  0.45733000  1.0
  O  O114  1  0.24484000  0.68665000  0.69708000  1.0
  O  O115  1  0.75516000  0.31335000  0.30292000  1.0
  O  O116  1  0.29274000  0.47376000  0.73240000  1.0
  O  O117  1  0.70726000  0.52624000  0.26759000  1.0
  O  O118  1  0.42681000  0.61936000  0.86965000  1.0
  O  O119  1  0.57320000  0.38063000  0.13035000  1.0
  O  O120  1  0.99111000  0.58610000  0.84592000  1.0
  O  O121  1  0.00890000  0.41390000  0.15408000  1.0
  O  O122  1  0.62803000  0.37225000  0.82539000  1.0
  O  O123  1  0.37198000  0.62775000  0.17461000  1.0
  O  O124  1  0.23430000  0.43341000  0.27208000  1.0
  O  O125  1  0.76570000  0.56659000  0.72792000  1.0
  O  O126  1  0.75615000  0.06115000  0.22877000  1.0
  O  O127  1  0.24386000  0.93885000  0.77123000  1.0
