# generated using pymatgen
data_CoH24C30N4(ClO3)2
_symmetry_space_group_name_H-M   'P 1'
_cell_length_a   7.51385000
_cell_length_b   9.74163000
_cell_length_c   9.87851000
_cell_angle_alpha   82.55060000
_cell_angle_beta   77.51500000
_cell_angle_gamma   73.75620000
_symmetry_Int_Tables_number   1
_chemical_formula_structural   CoH24C30N4(ClO3)2
_chemical_formula_sum   'Co1 H24 C30 N4 Cl2 O6'
_cell_volume   675.94890121
_cell_formula_units_Z   1
loop_
 _symmetry_equiv_pos_site_id
 _symmetry_equiv_pos_as_xyz
  1  'x, y, z'
loop_
 _atom_site_type_symbol
 _atom_site_label
 _atom_site_symmetry_multiplicity
 _atom_site_fract_x
 _atom_site_fract_y
 _atom_site_fract_z
 _atom_site_occupancy
  Co  Co0  1  0.50000000  0.50000000  0.50000000  1.0
  H  H1  1  0.86799000  0.42690000  0.62301000  1.0
  H  H2  1  0.13201000  0.57310000  0.37699000  1.0
  H  H3  1  0.80038000  0.55781000  0.52068000  1.0
  H  H4  1  0.19962000  0.44219000  0.47932000  1.0
  H  H5  1  0.84649000  0.55548000  0.79377000  1.0
  H  H6  1  0.15350000  0.44453000  0.20622000  1.0
  H  H7  1  0.79663000  0.24583000  0.04263000  1.0
  H  H8  1  0.20337000  0.75417000  0.95738000  1.0
  H  H9  1  0.51579000  0.33120000  0.25631000  1.0
  H  H10  1  0.48421000  0.66880000  0.74369000  1.0
  H  H11  1  0.67541000  0.24892000  0.73245000  1.0
  H  H12  1  0.32460000  0.75108000  0.26756000  1.0
  H  H13  1  0.91853000  0.78962000  0.14203000  1.0
  H  H14  1  0.08147000  0.21038000  0.85798000  1.0
  H  H15  1  0.53326000  0.09305000  0.16501000  1.0
  H  H16  1  0.46674000  0.90695000  0.83499000  1.0
  H  H17  1  0.63403000  0.93147000  0.25470000  1.0
  H  H18  1  0.36596000  0.06853000  0.74530000  1.0
  H  H19  1  0.82415000  0.83061000  0.43697000  1.0
  H  H20  1  0.17585000  0.16939000  0.56303000  1.0
  H  H21  1  0.82323000  0.99923000  0.82064000  1.0
  H  H22  1  0.17678000  0.00077000  0.17936000  1.0
  H  H23  1  0.89755000  0.79537000  0.67540000  1.0
  H  H24  1  0.10246000  0.20463000  0.32460000  1.0
  C  C25  1  0.89241000  0.53877000  0.13282000  1.0
  C  C26  1  0.10758000  0.46124000  0.86717000  1.0
  C  C27  1  0.78918000  0.57023000  0.27870000  1.0
  C  C28  1  0.21081000  0.42977000  0.72130000  1.0
  C  C29  1  0.66638000  0.17891000  0.53548000  1.0
  C  C30  1  0.33362000  0.82109000  0.46452000  1.0
  C  C31  1  0.91462000  0.53153000  0.88422000  1.0
  C  C32  1  0.08536000  0.46847000  0.11578000  1.0
  C  C33  1  0.70845000  0.06050000  0.45355000  1.0
  C  C34  1  0.29155000  0.93950000  0.54645000  1.0
  C  C35  1  0.80930000  0.57051000  0.01421000  1.0
  C  C36  1  0.19070000  0.42949000  0.98578000  1.0
  C  C37  1  0.83537000  0.01908000  0.10401000  1.0
  C  C38  1  0.16464000  0.98092000  0.89599000  1.0
  C  C39  1  0.88495000  0.13746000  0.02478000  1.0
  C  C40  1  0.11505000  0.86255000  0.97522000  1.0
  C  C41  1  0.57662000  0.26016000  0.33773000  1.0
  C  C42  1  0.42338000  0.73984000  0.66228000  1.0
  C  C43  1  0.70813000  0.15855000  0.66907000  1.0
  C  C44  1  0.29188000  0.84144000  0.33093000  1.0
  C  C45  1  0.95263000  0.88195000  0.07824000  1.0
  C  C46  1  0.04738000  0.11805000  0.92177000  1.0
  C  C47  1  0.65588000  0.03647000  0.21225000  1.0
  C  C48  1  0.34413000  0.96353000  0.78775000  1.0
  C  C49  1  0.79174000  0.92085000  0.50067000  1.0
  C  C50  1  0.20826000  0.07915000  0.49932000  1.0
  C  C51  1  0.79006000  0.01908000  0.71682000  1.0
  C  C52  1  0.20995000  0.98092000  0.28317000  1.0
  C  C53  1  0.83159000  0.90253000  0.63414000  1.0
  C  C54  1  0.16841000  0.09747000  0.36585000  1.0
  N  N55  1  0.58431000  0.30220000  0.45896000  1.0
  N  N56  1  0.41569000  0.69780000  0.54104000  1.0
  N  N57  1  0.64968000  0.11645000  0.32916000  1.0
  N  N58  1  0.35032000  0.88355000  0.67084000  1.0
  Cl  Cl59  1  0.57522000  0.66625000  0.02329000  1.0
  Cl  Cl60  1  0.42477000  0.33375000  0.97671000  1.0
  O  O61  1  0.63062000  0.53874000  0.31391000  1.0
  O  O62  1  0.36936000  0.46126000  0.68609000  1.0
  O  O63  1  0.75437000  0.50142000  0.60651000  1.0
  O  O64  1  0.24563000  0.49858000  0.39349000  1.0
  O  O65  1  0.86990000  0.61769000  0.35568000  1.0
  O  O66  1  0.13009000  0.38231000  0.64432000  1.0
