# generated using pymatgen
data_GdCrH4C6NO6
_symmetry_space_group_name_H-M   'P 1'
_cell_length_a   6.67043000
_cell_length_b   7.08498000
_cell_length_c   19.14870000
_cell_angle_alpha   89.99990000
_cell_angle_beta   90.00000000
_cell_angle_gamma   89.99990000
_symmetry_Int_Tables_number   1
_chemical_formula_structural   GdCrH4C6NO6
_chemical_formula_sum   'Gd4 Cr4 H16 C24 N4 O24'
_cell_volume   904.96494133
_cell_formula_units_Z   4
loop_
 _symmetry_equiv_pos_site_id
 _symmetry_equiv_pos_as_xyz
  1  'x, y, z'
loop_
 _atom_site_type_symbol
 _atom_site_label
 _atom_site_symmetry_multiplicity
 _atom_site_fract_x
 _atom_site_fract_y
 _atom_site_fract_z
 _atom_site_occupancy
  Gd  Gd0  1  0.38303000  0.64094000  0.22401000  1.0
  Gd  Gd1  1  0.11696000  0.35906000  0.72401000  1.0
  Gd  Gd2  1  0.61697000  0.14094000  0.27599000  1.0
  Gd  Gd3  1  0.88303000  0.85906000  0.77599000  1.0
  Cr  Cr4  1  0.82996000  0.62063000  0.27948000  1.0
  Cr  Cr5  1  0.67004000  0.37937000  0.77948000  1.0
  Cr  Cr6  1  0.17004000  0.12063000  0.22052000  1.0
  Cr  Cr7  1  0.32997000  0.87937000  0.72052000  1.0
  H  H8  1  0.39801000  0.33035000  0.95457000  1.0
  H  H9  1  0.10200000  0.66965000  0.45457000  1.0
  H  H10  1  0.60200000  0.83035000  0.54543000  1.0
  H  H11  1  0.89800000  0.16965000  0.04543000  1.0
  H  H12  1  0.98909000  0.70889000  0.11624000  1.0
  H  H13  1  0.51091000  0.29111000  0.61623000  1.0
  H  H14  1  0.01091000  0.20889000  0.38376000  1.0
  H  H15  1  0.48909000  0.79111000  0.88376000  1.0
  H  H16  1  0.89765000  0.70288000  0.98921000  1.0
  H  H17  1  0.60235000  0.29712000  0.48921000  1.0
  H  H18  1  0.10235000  0.20288000  0.51078000  1.0
  H  H19  1  0.39765000  0.79711000  0.01078000  1.0
  H  H20  1  0.47343000  0.35374000  0.08322000  1.0
  H  H21  1  0.02657000  0.64626000  0.58322000  1.0
  H  H22  1  0.52658000  0.85374000  0.41678000  1.0
  H  H23  1  0.97342000  0.14626000  0.91678000  1.0
  C  C24  1  0.30341000  0.41357000  0.98924000  1.0
  C  C25  1  0.19659000  0.58643000  0.48924000  1.0
  C  C26  1  0.69659000  0.91357000  0.51076000  1.0
  C  C27  1  0.80341000  0.08643000  0.01076000  1.0
  C  C28  1  0.07575000  0.62684000  0.07880000  1.0
  C  C29  1  0.42425000  0.37316000  0.57880000  1.0
  C  C30  1  0.92425000  0.12684000  0.42120000  1.0
  C  C31  1  0.57575000  0.87316000  0.92120000  1.0
  C  C32  1  0.02514000  0.62297000  0.00847000  1.0
  C  C33  1  0.47486000  0.37702000  0.50847000  1.0
  C  C34  1  0.97486000  0.12297000  0.49153000  1.0
  C  C35  1  0.52513000  0.87703000  0.99153000  1.0
  C  C36  1  0.34602000  0.42828000  0.06036000  1.0
  C  C37  1  0.15398000  0.57173000  0.56036000  1.0
  C  C38  1  0.65398000  0.92827000  0.43964000  1.0
  C  C39  1  0.84602000  0.07172000  0.93964000  1.0
  C  C40  1  0.14413000  0.51924000  0.96228000  1.0
  C  C41  1  0.35587000  0.48076000  0.46228000  1.0
  C  C42  1  0.85587000  0.01924000  0.53771000  1.0
  C  C43  1  0.64413000  0.98076000  0.03771000  1.0
  C  C44  1  0.10534000  0.53604000  0.88526000  1.0
  C  C45  1  0.39466000  0.46396000  0.38526000  1.0
  C  C46  1  0.89466000  0.03604000  0.61474000  1.0
  C  C47  1  0.60534000  0.96396000  0.11474000  1.0
  N  N48  1  0.23780000  0.53679000  0.10424000  1.0
  N  N49  1  0.26221000  0.46321000  0.60424000  1.0
  N  N50  1  0.76221000  0.03679000  0.39576000  1.0
  N  N51  1  0.73779000  0.96321000  0.89576000  1.0
  O  O52  1  0.03601000  0.69459000  0.86542000  1.0
  O  O53  1  0.46399000  0.30541000  0.36542000  1.0
  O  O54  1  0.96399000  0.19459000  0.63457000  1.0
  O  O55  1  0.53601000  0.80541000  0.13458000  1.0
  O  O56  1  0.14386000  0.39671000  0.84604000  1.0
  O  O57  1  0.35614000  0.60329000  0.34604000  1.0
  O  O58  1  0.85614000  0.89672000  0.65396000  1.0
  O  O59  1  0.64386000  0.10329000  0.15396000  1.0
  O  O60  1  0.68515000  0.81269000  0.27550000  1.0
  O  O61  1  0.81485000  0.18731000  0.77550000  1.0
  O  O62  1  0.31485000  0.31269000  0.22450000  1.0
  O  O63  1  0.18514000  0.68731000  0.72450000  1.0
  O  O64  1  0.68089000  0.45641000  0.24047000  1.0
  O  O65  1  0.81911000  0.54359000  0.74047000  1.0
  O  O66  1  0.31911000  0.95641000  0.25953000  1.0
  O  O67  1  0.18089000  0.04359000  0.75953000  1.0
  O  O68  1  0.04021000  0.65206000  0.23578000  1.0
  O  O69  1  0.45979000  0.34794000  0.73578000  1.0
  O  O70  1  0.95979000  0.15206000  0.26423000  1.0
  O  O71  1  0.54021000  0.84794000  0.76423000  1.0
  O  O72  1  0.87490000  0.56142000  0.35871000  1.0
  O  O73  1  0.62510000  0.43858000  0.85871000  1.0
  O  O74  1  0.12510000  0.06142000  0.14130000  1.0
  O  O75  1  0.37490000  0.93858000  0.64130000  1.0
