# generated using pymatgen
data_Cu3H28WC28S3IN8O
_symmetry_space_group_name_H-M   'P 1'
_cell_length_a   10.49820000
_cell_length_b   12.52300000
_cell_length_c   17.21570000
_cell_angle_alpha   70.94010000
_cell_angle_beta   88.20560000
_cell_angle_gamma   76.78250000
_symmetry_Int_Tables_number   1
_chemical_formula_structural   Cu3H28WC28S3IN8O
_chemical_formula_sum   'Cu6 H56 W2 C56 S6 I2 N16 O2'
_cell_volume   2080.26567589
_cell_formula_units_Z   2
loop_
 _symmetry_equiv_pos_site_id
 _symmetry_equiv_pos_as_xyz
  1  'x, y, z'
loop_
 _atom_site_type_symbol
 _atom_site_label
 _atom_site_symmetry_multiplicity
 _atom_site_fract_x
 _atom_site_fract_y
 _atom_site_fract_z
 _atom_site_occupancy
  Cu  Cu0  1  0.29081000  0.82489000  0.16849000  1.0
  Cu  Cu1  1  0.70918000  0.17511000  0.83151000  1.0
  Cu  Cu2  1  0.99513000  0.73579000  0.28521000  1.0
  Cu  Cu3  1  0.00487000  0.26421000  0.71478000  1.0
  Cu  Cu4  1  0.97752000  0.77022000  0.08524000  1.0
  Cu  Cu5  1  0.02248000  0.22978000  0.91476000  1.0
  H  H6  1  0.54041000  0.93690000  0.20043000  1.0
  H  H7  1  0.45959000  0.06310000  0.79958000  1.0
  H  H8  1  0.24547000  0.05886000  0.01075000  1.0
  H  H9  1  0.75454000  0.94114000  0.98924000  1.0
  H  H10  1  0.42018000  0.20447000  0.97431000  1.0
  H  H11  1  0.57983000  0.79553000  0.02569000  1.0
  H  H12  1  0.63724000  0.18915000  0.03434000  1.0
  H  H13  1  0.36278000  0.81084000  0.96566000  1.0
  H  H14  1  0.71214000  0.05994000  0.11218000  1.0
  H  H15  1  0.28786000  0.94004000  0.88783000  1.0
  H  H16  1  0.81759000  0.17169000  0.17269000  1.0
  H  H17  1  0.18242000  0.82830000  0.82731000  1.0
  H  H18  1  0.79899000  0.28259000  0.27057000  1.0
  H  H19  1  0.20101000  0.71741000  0.72944000  1.0
  H  H20  1  0.37803000  0.33987000  0.25442000  1.0
  H  H21  1  0.62197000  0.66013000  0.74558000  1.0
  H  H22  1  0.39706000  0.23075000  0.15638000  1.0
  H  H23  1  0.60295000  0.76925000  0.84363000  1.0
  H  H24  1  0.34012000  0.55813000  0.26460000  1.0
  H  H25  1  0.65987000  0.44187000  0.73540000  1.0
  H  H26  1  0.61509000  0.76284000  0.17208000  1.0
  H  H27  1  0.38489000  0.23717000  0.82791000  1.0
  H  H28  1  0.74930000  0.54042000  0.26189000  1.0
  H  H29  1  0.25069000  0.45959000  0.73810000  1.0
  H  H30  1  0.49297000  0.37799000  0.36621000  1.0
  H  H31  1  0.50702000  0.62201000  0.63379000  1.0
  H  H32  1  0.66429000  0.36680000  0.36498000  1.0
  H  H33  1  0.33571000  0.63321000  0.63502000  1.0
  H  H34  1  0.90028000  0.50757000  0.38377000  1.0
  H  H35  1  0.09972000  0.49244000  0.61623000  1.0
  H  H36  1  0.91079000  0.80375000  0.44646000  1.0
  H  H37  1  0.08921000  0.19626000  0.55354000  1.0
  H  H38  1  0.80915000  0.64930000  0.57648000  1.0
  H  H39  1  0.19084000  0.35070000  0.42352000  1.0
  H  H40  1  0.80066000  0.43391000  0.60329000  1.0
  H  H41  1  0.19933000  0.56610000  0.39671000  1.0
  H  H42  1  0.83230000  0.37827000  0.52135000  1.0
  H  H43  1  0.16770000  0.62174000  0.47865000  1.0
  H  H44  1  0.61595000  0.31696000  0.60555000  1.0
  H  H45  1  0.38405000  0.68304000  0.39445000  1.0
  H  H46  1  0.62109000  0.64859000  0.42446000  1.0
  H  H47  1  0.37891000  0.35142000  0.57553000  1.0
  H  H48  1  0.88026000  0.53636000  0.12402000  1.0
  H  H49  1  0.11973000  0.46364000  0.87598000  1.0
  H  H50  1  0.92550000  0.79168000  0.90041000  1.0
  H  H51  1  0.07451000  0.20832000  0.09959000  1.0
  H  H52  1  0.83065000  0.61841000  0.86634000  1.0
  H  H53  1  0.16936000  0.38158000  0.13366000  1.0
  H  H54  1  0.82281000  0.38487000  0.07123000  1.0
  H  H55  1  0.17719000  0.61513000  0.92877000  1.0
  H  H56  1  0.82506000  0.40769000  0.96427000  1.0
  H  H57  1  0.17494000  0.59231000  0.03573000  1.0
  H  H58  1  0.61261000  0.56910000  0.09249000  1.0
  H  H59  1  0.38739000  0.43090000  0.90751000  1.0
  H  H60  1  0.62995000  0.38893000  0.91643000  1.0
  H  H61  1  0.37005000  0.61107000  0.08357000  1.0
  W  W62  1  0.03274000  0.91356000  0.15743000  1.0
  W  W63  1  0.96725000  0.08644000  0.84257000  1.0
  C  C64  1  0.48201000  0.98783000  0.14416000  1.0
  C  C65  1  0.51799000  0.01217000  0.85584000  1.0
  C  C66  1  0.33263000  0.05465000  0.04482000  1.0
  C  C67  1  0.66738000  0.94535000  0.95518000  1.0
  C  C68  1  0.41763000  0.12718000  0.02572000  1.0
  C  C69  1  0.58238000  0.87282000  0.97429000  1.0
  C  C70  1  0.62382000  0.13115000  0.09597000  1.0
  C  C71  1  0.37619000  0.86884000  0.90404000  1.0
  C  C72  1  0.60846000  0.19549000  0.15737000  1.0
  C  C73  1  0.39154000  0.80451000  0.84263000  1.0
  C  C74  1  0.72135000  0.21000000  0.19018000  1.0
  C  C75  1  0.27866000  0.79000000  0.80982000  1.0
  C  C76  1  0.71043000  0.27163000  0.24538000  1.0
  C  C77  1  0.28958000  0.72837000  0.75462000  1.0
  C  C78  1  0.58738000  0.31848000  0.26929000  1.0
  C  C79  1  0.41262000  0.68152000  0.73072000  1.0
  C  C80  1  0.47494000  0.30301000  0.23689000  1.0
  C  C81  1  0.52507000  0.69700000  0.76311000  1.0
  C  C82  1  0.48545000  0.24202000  0.18130000  1.0
  C  C83  1  0.51456000  0.75797000  0.81870000  1.0
  C  C84  1  0.43217000  0.58539000  0.25193000  1.0
  C  C85  1  0.56782000  0.41461000  0.74807000  1.0
  C  C86  1  0.57686000  0.68773000  0.20459000  1.0
  C  C87  1  0.42313000  0.31227000  0.79541000  1.0
  C  C88  1  0.64505000  0.57773000  0.24939000  1.0
  C  C89  1  0.35494000  0.42228000  0.75061000  1.0
  C  C90  1  0.57514000  0.39008000  0.32575000  1.0
  C  C91  1  0.42486000  0.60992000  0.67425000  1.0
  C  C92  1  0.88663000  0.56925000  0.41700000  1.0
  C  C93  1  0.11337000  0.43075000  0.58300000  1.0
  C  C94  1  0.89159000  0.72009000  0.45242000  1.0
  C  C95  1  0.10841000  0.27991000  0.54758000  1.0
  C  C96  1  0.83970000  0.64629000  0.51633000  1.0
  C  C97  1  0.16030000  0.35371000  0.48367000  1.0
  C  C98  1  0.78017000  0.45476000  0.53698000  1.0
  C  C99  1  0.21983000  0.54525000  0.46302000  1.0
  C  C100  1  0.63503000  0.48010000  0.51718000  1.0
  C  C101  1  0.36498000  0.51991000  0.48282000  1.0
  C  C102  1  0.56524000  0.39719000  0.55893000  1.0
  C  C103  1  0.43477000  0.60281000  0.44107000  1.0
  C  C104  1  0.56861000  0.58311000  0.45814000  1.0
  C  C105  1  0.43139000  0.41690000  0.54186000  1.0
  C  C106  1  0.87626000  0.58502000  0.05884000  1.0
  C  C107  1  0.12373000  0.41498000  0.94116000  1.0
  C  C108  1  0.89958000  0.71388000  0.94115000  1.0
  C  C109  1  0.10042000  0.28612000  0.05884000  1.0
  C  C110  1  0.85161000  0.63062000  0.92377000  1.0
  C  C111  1  0.14840000  0.36938000  0.07623000  1.0
  C  C112  1  0.78513000  0.44743000  0.01068000  1.0
  C  C113  1  0.21487000  0.55257000  0.98932000  1.0
  C  C114  1  0.63737000  0.47590000  0.00504000  1.0
  C  C115  1  0.36262000  0.52410000  0.99496000  1.0
  C  C116  1  0.56359000  0.53889000  0.05156000  1.0
  C  C117  1  0.43641000  0.46111000  0.94844000  1.0
  C  C118  1  0.57276000  0.43738000  0.95328000  1.0
  C  C119  1  0.42723000  0.56262000  0.04672000  1.0
  S  S120  1  0.14825000  0.85373000  0.05900000  1.0
  S  S121  1  0.85175000  0.14627000  0.94100000  1.0
  S  S122  1  0.15700000  0.83254000  0.27714000  1.0
  S  S123  1  0.84300000  0.16746000  0.72285000  1.0
  S  S124  1  0.85125000  0.83696000  0.17557000  1.0
  S  S125  1  0.14875000  0.16304000  0.82443000  1.0
  I  I126  1  0.09065000  0.52015000  0.24861000  1.0
  I  I127  1  0.90935000  0.47985000  0.75139000  1.0
  N  N128  1  0.37383000  0.96770000  0.11883000  1.0
  N  N129  1  0.62618000  0.03230000  0.88117000  1.0
  N  N130  1  0.51220000  0.08345000  0.08901000  1.0
  N  N131  1  0.48781000  0.91654000  0.91099000  1.0
  N  N132  1  0.44402000  0.69137000  0.20666000  1.0
  N  N133  1  0.55597000  0.30863000  0.79334000  1.0
  N  N134  1  0.55173000  0.51450000  0.27905000  1.0
  N  N135  1  0.44827000  0.48550000  0.72095000  1.0
  N  N136  1  0.92078000  0.67077000  0.39092000  1.0
  N  N137  1  0.07921000  0.32923000  0.60908000  1.0
  N  N138  1  0.83820000  0.55100000  0.49298000  1.0
  N  N139  1  0.16180000  0.44900000  0.50702000  1.0
  N  N140  1  0.91480000  0.68426000  0.02585000  1.0
  N  N141  1  0.08520000  0.31574000  0.97415000  1.0
  N  N142  1  0.83804000  0.54968000  0.99870000  1.0
  N  N143  1  0.16196000  0.45032000  0.00129000  1.0
  O  O144  1  0.98597000  0.06463000  0.13189000  1.0
  O  O145  1  0.01402000  0.93537000  0.86811000  1.0
