# generated using pymatgen
data_ErH13(C4O3)4
_symmetry_space_group_name_H-M   'P 1'
_cell_length_a   8.80508000
_cell_length_b   9.68950000
_cell_length_c   12.15560000
_cell_angle_alpha   101.18100000
_cell_angle_beta   103.81500000
_cell_angle_gamma   108.47800000
_symmetry_Int_Tables_number   1
_chemical_formula_structural   ErH13(C4O3)4
_chemical_formula_sum   'Er2 H26 C32 O24'
_cell_volume   913.32165498
_cell_formula_units_Z   2
loop_
 _symmetry_equiv_pos_site_id
 _symmetry_equiv_pos_as_xyz
  1  'x, y, z'
loop_
 _atom_site_type_symbol
 _atom_site_label
 _atom_site_symmetry_multiplicity
 _atom_site_fract_x
 _atom_site_fract_y
 _atom_site_fract_z
 _atom_site_occupancy
  Er  Er0  1  0.77342000  0.03795000  0.96248000  1.0
  Er  Er1  1  0.22659000  0.96205000  0.03752000  1.0
  H  H2  1  0.18248000  0.43122000  0.32240000  1.0
  H  H3  1  0.81751000  0.56878000  0.67760000  1.0
  H  H4  1  0.18798000  0.46013000  0.68232000  1.0
  H  H5  1  0.81201000  0.53987000  0.31768000  1.0
  H  H6  1  0.77936000  0.10660000  0.39043000  1.0
  H  H7  1  0.22063000  0.89339000  0.60957000  1.0
  H  H8  1  0.84376000  0.49085000  0.04714000  1.0
  H  H9  1  0.15625000  0.50916000  0.95287000  1.0
  H  H10  1  0.40189000  0.40490000  0.15667000  1.0
  H  H11  1  0.59812000  0.59510000  0.84333000  1.0
  H  H12  1  0.72473000  0.86700000  0.20252000  1.0
  H  H13  1  0.27527000  0.13300000  0.79749000  1.0
  H  H14  1  0.52437000  0.73220000  0.50702000  1.0
  H  H15  1  0.47564000  0.26779000  0.49299000  1.0
  H  H16  1  0.95224000  0.26647000  0.70037000  1.0
  H  H17  1  0.04774000  0.73353000  0.29963000  1.0
  H  H18  1  0.37311000  0.62542000  0.25726000  1.0
  H  H19  1  0.62689000  0.37457000  0.74274000  1.0
  H  H20  1  0.65057000  0.79805000  0.74395000  1.0
  H  H21  1  0.34942000  0.20194000  0.25605000  1.0
  H  H22  1  0.56206000  0.11490000  0.77879000  1.0
  H  H23  1  0.43794000  0.88509000  0.22121000  1.0
  H  H24  1  0.43917000  0.97134000  0.79848000  1.0
  H  H25  1  0.56082000  0.02866000  0.20152000  1.0
  H  H26  1  0.84087000  0.81205000  0.80893000  1.0
  H  H27  1  0.15913000  0.18795000  0.19107000  1.0
  C  C28  1  0.89790000  0.18498000  0.21323000  1.0
  C  C29  1  0.10210000  0.81502000  0.78677000  1.0
  C  C30  1  0.97450000  0.26095000  0.34342000  1.0
  C  C31  1  0.02550000  0.73905000  0.65657000  1.0
  C  C32  1  0.12629000  0.38811000  0.38539000  1.0
  C  C33  1  0.87371000  0.61189000  0.61461000  1.0
  C  C34  1  0.20249000  0.45864000  0.50726000  1.0
  C  C35  1  0.79750000  0.54135000  0.49274000  1.0
  C  C36  1  0.12734000  0.40288000  0.58767000  1.0
  C  C37  1  0.87265000  0.59712000  0.41232000  1.0
  C  C38  1  0.97445000  0.27581000  0.54511000  1.0
  C  C39  1  0.02555000  0.72419000  0.45489000  1.0
  C  C40  1  0.89843000  0.20503000  0.42272000  1.0
  C  C41  1  0.10157000  0.79497000  0.57727000  1.0
  C  C42  1  0.36304000  0.59398000  0.55405000  1.0
  C  C43  1  0.63696000  0.40602000  0.44596000  1.0
  C  C44  1  0.94442000  0.79636000  0.09927000  1.0
  C  C45  1  0.05559000  0.20365000  0.90073000  1.0
  C  C46  1  0.79933000  0.69069000  0.12292000  1.0
  C  C47  1  0.20067000  0.30931000  0.87708000  1.0
  C  C48  1  0.76402000  0.53459000  0.08746000  1.0
  C  C49  1  0.23599000  0.46542000  0.91254000  1.0
  C  C50  1  0.61890000  0.43228000  0.09818000  1.0
  C  C51  1  0.38111000  0.56772000  0.90182000  1.0
  C  C52  1  0.51494000  0.48628000  0.14988000  1.0
  C  C53  1  0.48507000  0.51372000  0.85012000  1.0
  C  C54  1  0.55788000  0.64294000  0.19181000  1.0
  C  C55  1  0.44213000  0.35706000  0.80819000  1.0
  C  C56  1  0.69724000  0.74547000  0.17590000  1.0
  C  C57  1  0.30276000  0.25453000  0.82411000  1.0
  C  C58  1  0.57610000  0.26460000  0.05165000  1.0
  C  C59  1  0.42391000  0.73540000  0.94835000  1.0
  O  O60  1  0.98378000  0.22642000  0.14536000  1.0
  O  O61  1  0.01622000  0.77357000  0.85463000  1.0
  O  O62  1  0.75218000  0.07809000  0.16979000  1.0
  O  O63  1  0.24782000  0.92191000  0.83021000  1.0
  O  O64  1  0.42207000  0.63942000  0.46804000  1.0
  O  O65  1  0.57794000  0.36057000  0.53196000  1.0
  O  O66  1  0.43870000  0.66073000  0.65970000  1.0
  O  O67  1  0.56129000  0.33927000  0.34030000  1.0
  O  O68  1  0.89064000  0.21547000  0.61587000  1.0
  O  O69  1  0.10935000  0.78452000  0.38412000  1.0
  O  O70  1  0.92764000  0.90161000  0.05364000  1.0
  O  O71  1  0.07236000  0.09839000  0.94636000  1.0
  O  O72  1  0.08379000  0.77735000  0.12244000  1.0
  O  O73  1  0.91622000  0.22265000  0.87756000  1.0
  O  O74  1  0.67605000  0.22592000  0.00502000  1.0
  O  O75  1  0.32396000  0.77409000  0.99499000  1.0
  O  O76  1  0.44393000  0.17256000  0.06114000  1.0
  O  O77  1  0.55609000  0.82744000  0.93886000  1.0
  O  O78  1  0.46507000  0.70464000  0.24722000  1.0
  O  O79  1  0.53493000  0.29536000  0.75279000  1.0
  O  O80  1  0.55115000  0.01386000  0.78758000  1.0
  O  O81  1  0.44884000  0.98614000  0.21243000  1.0
  O  O82  1  0.76652000  0.86912000  0.79210000  1.0
  O  O83  1  0.23348000  0.13087000  0.20790000  1.0
