# generated using pymatgen
data_CuH4C6NCl
_symmetry_space_group_name_H-M   'P 1'
_cell_length_a   3.68057000
_cell_length_b   8.82148000
_cell_length_c   9.26374000
_cell_angle_alpha   112.56600000
_cell_angle_beta   95.13630000
_cell_angle_gamma   99.44720000
_symmetry_Int_Tables_number   1
_chemical_formula_structural   CuH4C6NCl
_chemical_formula_sum   'Cu2 H8 C12 N2 Cl2'
_cell_volume   270.11335698
_cell_formula_units_Z   2
loop_
 _symmetry_equiv_pos_site_id
 _symmetry_equiv_pos_as_xyz
  1  'x, y, z'
loop_
 _atom_site_type_symbol
 _atom_site_label
 _atom_site_symmetry_multiplicity
 _atom_site_fract_x
 _atom_site_fract_y
 _atom_site_fract_z
 _atom_site_occupancy
  Cu  Cu0  1  0.38225000  0.55785000  0.16031000  1.0
  Cu  Cu1  1  0.61773000  0.44214000  0.83962000  1.0
  H  H2  1  0.18330000  0.02786000  0.63923000  1.0
  H  H3  1  0.81663000  0.97214000  0.36081000  1.0
  H  H4  1  0.26149000  0.80445000  0.38604000  1.0
  H  H5  1  0.73846000  0.19559000  0.61394000  1.0
  H  H6  1  0.43870000  0.72807000  0.89173000  1.0
  H  H7  1  0.56128000  0.27190000  0.10824000  1.0
  H  H8  1  0.26254000  0.98811000  0.88957000  1.0
  H  H9  1  0.73747000  0.01191000  0.11047000  1.0
  C  C10  1  0.74150000  0.08699000  0.36243000  1.0
  C  C11  1  0.25861000  0.91300000  0.63754000  1.0
  C  C12  1  0.69668000  0.20929000  0.50192000  1.0
  C  C13  1  0.30337000  0.79069000  0.49805000  1.0
  C  C14  1  0.59840000  0.35916000  0.50518000  1.0
  C  C15  1  0.40153000  0.64081000  0.49482000  1.0
  C  C16  1  0.54317000  0.38070000  0.35891000  1.0
  C  C17  1  0.45687000  0.61932000  0.64114000  1.0
  C  C18  1  0.59634000  0.25265000  0.21753000  1.0
  C  C19  1  0.40370000  0.74739000  0.78249000  1.0
  C  C20  1  0.69377000  0.10929000  0.21904000  1.0
  C  C21  1  0.30614000  0.89070000  0.78096000  1.0
  N  N22  1  0.55790000  0.47893000  0.64570000  1.0
  N  N23  1  0.44212000  0.52106000  0.35433000  1.0
  Cl  Cl24  1  0.90297000  0.68838000  0.09577000  1.0
  Cl  Cl25  1  0.09710000  0.31162000  0.90421000  1.0
