# generated using pymatgen
data_Al4H9C28N2ClO24
_symmetry_space_group_name_H-M   'P 1'
_cell_length_a   6.67983000
_cell_length_b   16.55970000
_cell_length_c   18.98910000
_cell_angle_alpha   104.64300000
_cell_angle_beta   89.64200000
_cell_angle_gamma   89.96230000
_symmetry_Int_Tables_number   1
_chemical_formula_structural   Al4H9C28N2ClO24
_chemical_formula_sum   'Al4 H9 C28 N2 Cl1 O24'
_cell_volume   2032.22806010
_cell_formula_units_Z   1
loop_
 _symmetry_equiv_pos_site_id
 _symmetry_equiv_pos_as_xyz
  1  'x, y, z'
loop_
 _atom_site_type_symbol
 _atom_site_label
 _atom_site_symmetry_multiplicity
 _atom_site_fract_x
 _atom_site_fract_y
 _atom_site_fract_z
 _atom_site_occupancy
  Al  Al0  1  0.89158000  0.49653000  0.49965000  1.0
  Al  Al1  1  0.39310000  0.49947000  0.50192000  1.0
  Al  Al2  1  0.38180000  0.99828000  0.00298000  1.0
  Al  Al3  1  0.88297000  0.99815000  0.00236000  1.0
  H  H4  1  0.00855000  0.82551000  0.78659000  1.0
  H  H5  1  0.42875000  0.68835000  0.69960000  1.0
  H  H6  1  0.92458000  0.19176000  0.19467000  1.0
  H  H7  1  0.93315000  0.29418000  0.31020000  1.0
  H  H8  1  0.47460000  0.31455000  0.30122000  1.0
  H  H9  1  0.64534000  0.60720000  0.50961000  1.0
  H  H10  1  0.14446000  0.39798000  0.51337000  1.0
  H  H11  1  0.63224000  0.89254000  0.96119000  1.0
  H  H12  1  0.13174000  0.09990000  0.99193000  1.0
  C  C13  1  0.63948000  0.41212000  0.58727000  1.0
  C  C14  1  0.64331000  0.38746000  0.39060000  1.0
  C  C15  1  0.14341000  0.58545000  0.41669000  1.0
  C  C16  1  0.13725000  0.60848000  0.61270000  1.0
  C  C17  1  0.28195000  0.76586000  0.79561000  1.0
  C  C18  1  0.13798000  0.82374000  0.82086000  1.0
  C  C19  1  0.28177000  0.70646000  0.72430000  1.0
  C  C20  1  0.12427000  0.66907000  0.68576000  1.0
  C  C21  1  0.12968000  0.86325000  0.14048000  1.0
  C  C22  1  0.13057000  0.81981000  0.18407000  1.0
  C  C23  1  0.13355000  0.77214000  0.23157000  1.0
  C  C24  1  0.13760000  0.72787000  0.27493000  1.0
  C  C25  1  0.14139000  0.67988000  0.32212000  1.0
  C  C26  1  0.14367000  0.63595000  0.36532000  1.0
  C  C27  1  0.63887000  0.36285000  0.63969000  1.0
  C  C28  1  0.63796000  0.31989000  0.68367000  1.0
  C  C29  1  0.63744000  0.27283000  0.73165000  1.0
  C  C30  1  0.63676000  0.22928000  0.77562000  1.0
  C  C31  1  0.63565000  0.18202000  0.82345000  1.0
  C  C32  1  0.63412000  0.13870000  0.86717000  1.0
  C  C33  1  0.77987000  0.21351000  0.21953000  1.0
  C  C34  1  0.62098000  0.17352000  0.18300000  1.0
  C  C35  1  0.78512000  0.27906000  0.28637000  1.0
  C  C36  1  0.62735000  0.32317000  0.32112000  1.0
  C  C37  1  0.63187000  0.10744000  0.11359000  1.0
  C  C38  1  0.63198000  0.08872000  0.91919000  1.0
  C  C39  1  0.13476000  0.88698000  0.89134000  1.0
  C  C40  1  0.13224000  0.91264000  0.08799000  1.0
  N  N41  1  0.91585000  0.68118000  0.71296000  1.0
  N  N42  1  0.41189000  0.19176000  0.20836000  1.0
  Cl  Cl43  1  0.49121000  0.75364000  0.84498000  1.0
  O  O44  1  0.47490000  0.41382000  0.41980000  1.0
  O  O45  1  0.81004000  0.42876000  0.56416000  1.0
  O  O46  1  0.96957000  0.58313000  0.58459000  1.0
  O  O47  1  0.81538000  0.41080000  0.41665000  1.0
  O  O48  1  0.97268000  0.56477000  0.43662000  1.0
  O  O49  1  0.46893000  0.43361000  0.56835000  1.0
  O  O50  1  0.64318000  0.54844000  0.50855000  1.0
  O  O51  1  0.31344000  0.56674000  0.43816000  1.0
  O  O52  1  0.31050000  0.58863000  0.58634000  1.0
  O  O53  1  0.14359000  0.44906000  0.49719000  1.0
  O  O54  1  0.80220000  0.07142000  0.94171000  1.0
  O  O55  1  0.46367000  0.08320000  0.08511000  1.0
  O  O56  1  0.30358000  0.93410000  0.06967000  1.0
  O  O57  1  0.46026000  0.06759000  0.93790000  1.0
  O  O58  1  0.30119000  0.91094000  0.92173000  1.0
  O  O59  1  0.80349000  0.08216000  0.08877000  1.0
  O  O60  1  0.63279000  0.94842000  0.99331000  1.0
  O  O61  1  0.96151000  0.91344000  0.91558000  1.0
  O  O62  1  0.96321000  0.92907000  0.06430000  1.0
  O  O63  1  0.13181000  0.04877000  0.00802000  1.0
  O  O64  1  0.81500000  0.73471000  0.69380000  1.0
  O  O65  1  0.85648000  0.63521000  0.75058000  1.0
  O  O66  1  0.32029000  0.24467000  0.18519000  1.0
  O  O67  1  0.34332000  0.15224000  0.25013000  1.0
