# generated using pymatgen
data_CuH22C26(N6O7)2
_symmetry_space_group_name_H-M   'P 1'
_cell_length_a   12.57240000
_cell_length_b   12.83390000
_cell_length_c   12.83600000
_cell_angle_alpha   62.24920000
_cell_angle_beta   68.08870000
_cell_angle_gamma   89.60040000
_symmetry_Int_Tables_number   1
_chemical_formula_structural   CuH22C26(N6O7)2
_chemical_formula_sum   'Cu2 H44 C52 N24 O28'
_cell_volume   1665.04917426
_cell_formula_units_Z   2
loop_
 _symmetry_equiv_pos_site_id
 _symmetry_equiv_pos_as_xyz
  1  'x, y, z'
loop_
 _atom_site_type_symbol
 _atom_site_label
 _atom_site_symmetry_multiplicity
 _atom_site_fract_x
 _atom_site_fract_y
 _atom_site_fract_z
 _atom_site_occupancy
  Cu  Cu0  1  0.72322000  0.01204000  0.24543000  1.0
  Cu  Cu1  1  0.27678000  0.98796000  0.75457000  1.0
  H  H2  1  0.92191000  0.42095000  0.19283000  1.0
  H  H3  1  0.07809000  0.57905000  0.80717000  1.0
  H  H4  1  0.79720000  0.71905000  0.96063000  1.0
  H  H5  1  0.20280000  0.28096000  0.03937000  1.0
  H  H6  1  0.69284000  0.36024000  0.03860000  1.0
  H  H7  1  0.30717000  0.63976000  0.96140000  1.0
  H  H8  1  0.01055000  0.19331000  0.50176000  1.0
  H  H9  1  0.98945000  0.80669000  0.49824000  1.0
  H  H10  1  0.88720000  0.11201000  0.51813000  1.0
  H  H11  1  0.11280000  0.88799000  0.48188000  1.0
  H  H12  1  0.04521000  0.12430000  0.70824000  1.0
  H  H13  1  0.95479000  0.87569000  0.29176000  1.0
  H  H14  1  0.29623000  0.07164000  0.25428000  1.0
  H  H15  1  0.70377000  0.92836000  0.74572000  1.0
  H  H16  1  0.46744000  0.25609000  0.26784000  1.0
  H  H17  1  0.53256000  0.74391000  0.73216000  1.0
  H  H18  1  0.48129000  0.81147000  0.19840000  1.0
  H  H19  1  0.51871000  0.18853000  0.80160000  1.0
  H  H20  1  0.60817000  0.92601000  0.08723000  1.0
  H  H21  1  0.39183000  0.07399000  0.91277000  1.0
  H  H22  1  0.43562000  0.17800000  0.01761000  1.0
  H  H23  1  0.56438000  0.82200000  0.98239000  1.0
  H  H24  1  0.57995000  0.15221000  0.97599000  1.0
  H  H25  1  0.42004000  0.84779000  0.02401000  1.0
  H  H26  1  0.81527000  0.54432000  0.47546000  1.0
  H  H27  1  0.18473000  0.45567000  0.52455000  1.0
  H  H28  1  0.59062000  0.33099000  0.42763000  1.0
  H  H29  1  0.40938000  0.66902000  0.57237000  1.0
  H  H30  1  0.85482000  0.87109000  0.64213000  1.0
  H  H31  1  0.14518000  0.12891000  0.35787000  1.0
  H  H32  1  0.95803000  0.80635000  0.70346000  1.0
  H  H33  1  0.04197000  0.19365000  0.29654000  1.0
  H  H34  1  0.88246000  0.93381000  0.04079000  1.0
  H  H35  1  0.11754000  0.06619000  0.95921000  1.0
  H  H36  1  0.25804000  0.91006000  0.55590000  1.0
  H  H37  1  0.74196000  0.08994000  0.44411000  1.0
  H  H38  1  0.60491000  0.71374000  0.26941000  1.0
  H  H39  1  0.39509000  0.28626000  0.73059000  1.0
  H  H40  1  0.35451000  0.96053000  0.15367000  1.0
  H  H41  1  0.64549000  0.03947000  0.84633000  1.0
  H  H42  1  0.07478000  0.00546000  0.61171000  1.0
  H  H43  1  0.92521000  0.99453000  0.38829000  1.0
  H  H44  1  0.85734000  0.26647000  0.75791000  1.0
  H  H45  1  0.14266000  0.73353000  0.24209000  1.0
  C  C46  1  0.86433000  0.57627000  0.07952000  1.0
  C  C47  1  0.13567000  0.42373000  0.92048000  1.0
  C  C48  1  0.86955000  0.45468000  0.13747000  1.0
  C  C49  1  0.13046000  0.54533000  0.86252000  1.0
  C  C50  1  0.74038000  0.54318000  0.99245000  1.0
  C  C51  1  0.25962000  0.45683000  0.00755000  1.0
  C  C52  1  0.80031000  0.62388000  0.00569000  1.0
  C  C53  1  0.19970000  0.37613000  0.99431000  1.0
  C  C54  1  0.70595000  0.42867000  0.45842000  1.0
  C  C55  1  0.29405000  0.57133000  0.54157000  1.0
  C  C56  1  0.74114000  0.42073000  0.05068000  1.0
  C  C57  1  0.25887000  0.57927000  0.94932000  1.0
  C  C58  1  0.97904000  0.11197000  0.50447000  1.0
  C  C59  1  0.02096000  0.88802000  0.49553000  1.0
  C  C60  1  0.80584000  0.37621000  0.12456000  1.0
  C  C61  1  0.19417000  0.62380000  0.87543000  1.0
  C  C62  1  0.76820000  0.76348000  0.33835000  1.0
  C  C63  1  0.23181000  0.23652000  0.66165000  1.0
  C  C64  1  0.71563000  0.64156000  0.36919000  1.0
  C  C65  1  0.28437000  0.35844000  0.63080000  1.0
  C  C66  1  0.41787000  0.17859000  0.36228000  1.0
  C  C67  1  0.58213000  0.82141000  0.63772000  1.0
  C  C68  1  0.51650000  0.89863000  0.10811000  1.0
  C  C69  1  0.48350000  0.10137000  0.89189000  1.0
  C  C70  1  0.48956000  0.11463000  0.00168000  1.0
  C  C71  1  0.51044000  0.88537000  0.99832000  1.0
  C  C72  1  0.80697000  0.24345000  0.18969000  1.0
  C  C73  1  0.19304000  0.75654000  0.81030000  1.0
  C  C74  1  0.75180000  0.53838000  0.43856000  1.0
  C  C75  1  0.24820000  0.46161000  0.56144000  1.0
  C  C76  1  0.62583000  0.41728000  0.41128000  1.0
  C  C77  1  0.37417000  0.58273000  0.58872000  1.0
  C  C78  1  0.94795000  0.88381000  0.62328000  1.0
  C  C79  1  0.05205000  0.11618000  0.37672000  1.0
  C  C80  1  0.59090000  0.52203000  0.34422000  1.0
  C  C81  1  0.40910000  0.47798000  0.65578000  1.0
  C  C82  1  0.86166000  0.02157000  0.99647000  1.0
  C  C83  1  0.13834000  0.97842000  0.00353000  1.0
  C  C84  1  0.30908000  0.99943000  0.50975000  1.0
  C  C85  1  0.69092000  0.00057000  0.49025000  1.0
  C  C86  1  0.63302000  0.63313000  0.32322000  1.0
  C  C87  1  0.36698000  0.36687000  0.67678000  1.0
  C  C88  1  0.45242000  0.00531000  0.23552000  1.0
  C  C89  1  0.54758000  0.99469000  0.76448000  1.0
  C  C90  1  0.90743000  0.99809000  0.74394000  1.0
  C  C91  1  0.09257000  0.00191000  0.25606000  1.0
  C  C92  1  0.44719000  0.99123000  0.12714000  1.0
  C  C93  1  0.55281000  0.00877000  0.87286000  1.0
  C  C94  1  0.98419000  0.99891000  0.62056000  1.0
  C  C95  1  0.01581000  0.00108000  0.37944000  1.0
  C  C96  1  0.84691000  0.19343000  0.85147000  1.0
  C  C97  1  0.15309000  0.80657000  0.14853000  1.0
  N  N98  1  0.79849000  0.07665000  0.05545000  1.0
  N  N99  1  0.20151000  0.92335000  0.94455000  1.0
  N  N100  1  0.33187000  0.05317000  0.56720000  1.0
  N  N101  1  0.66813000  0.94683000  0.43280000  1.0
  N  N102  1  0.40075000  0.16603000  0.47524000  1.0
  N  N103  1  0.59925000  0.83397000  0.52476000  1.0
  N  N104  1  0.78901000  0.18509000  0.96491000  1.0
  N  N105  1  0.21099000  0.81491000  0.03509000  1.0
  N  N106  1  0.66956000  0.58778000  0.91703000  1.0
  N  N107  1  0.33044000  0.41222000  0.08297000  1.0
  N  N108  1  0.92583000  0.65627000  0.10111000  1.0
  N  N109  1  0.07418000  0.34373000  0.89889000  1.0
  N  N110  1  0.74533000  0.32031000  0.52997000  1.0
  N  N111  1  0.25466000  0.67968000  0.47004000  1.0
  N  N112  1  0.50836000  0.51518000  0.28997000  1.0
  N  N113  1  0.49164000  0.48482000  0.71003000  1.0
  N  N114  1  0.96075000  0.06844000  0.77123000  1.0
  N  N115  1  0.03925000  0.93156000  0.22877000  1.0
  N  N116  1  0.89444000  0.09323000  0.86703000  1.0
  N  N117  1  0.10556000  0.90677000  0.13297000  1.0
  N  N118  1  0.36303000  0.05392000  0.28482000  1.0
  N  N119  1  0.63697000  0.94608000  0.71518000  1.0
  N  N120  1  0.36040000  0.07727000  0.37962000  1.0
  N  N121  1  0.63960000  0.92273000  0.62038000  1.0
  O  O122  1  0.73413000  0.85026000  0.26432000  1.0
  O  O123  1  0.26588000  0.14974000  0.73568000  1.0
  O  O124  1  0.52845000  0.97897000  0.27721000  1.0
  O  O125  1  0.47155000  0.02103000  0.72280000  1.0
  O  O126  1  0.89218000  0.20922000  0.21453000  1.0
  O  O127  1  0.10782000  0.79078000  0.78547000  1.0
  O  O128  1  0.71443000  0.17721000  0.21416000  1.0
  O  O129  1  0.28557000  0.82279000  0.78584000  1.0
  O  O130  1  0.62417000  0.51628000  0.89909000  1.0
  O  O131  1  0.37583000  0.48372000  0.10092000  1.0
  O  O132  1  0.65956000  0.69447000  0.87720000  1.0
  O  O133  1  0.34044000  0.30553000  0.12280000  1.0
  O  O134  1  0.98291000  0.61205000  0.16626000  1.0
  O  O135  1  0.01710000  0.38796000  0.83374000  1.0
  O  O136  1  0.91503000  0.76273000  0.05515000  1.0
  O  O137  1  0.08497000  0.23727000  0.94485000  1.0
  O  O138  1  0.44857000  0.59361000  0.26935000  1.0
  O  O139  1  0.55143000  0.40639000  0.73065000  1.0
  O  O140  1  0.50551000  0.43174000  0.26756000  1.0
  O  O141  1  0.49449000  0.56826000  0.73244000  1.0
  O  O142  1  0.80809000  0.32847000  0.58191000  1.0
  O  O143  1  0.19189000  0.67152000  0.41810000  1.0
  O  O144  1  0.71392000  0.22700000  0.53320000  1.0
  O  O145  1  0.28607000  0.77300000  0.46680000  1.0
  O  O146  1  0.84048000  0.76928000  0.38263000  1.0
  O  O147  1  0.15952000  0.23071000  0.61737000  1.0
  O  O148  1  0.80409000  0.94286000  0.81299000  1.0
  O  O149  1  0.19591000  0.05714000  0.18701000  1.0
