# generated using pymatgen
data_AlH7C13O6
_symmetry_space_group_name_H-M   'P 1'
_cell_length_a   6.68604000
_cell_length_b   19.97910000
_cell_length_c   23.30040000
_cell_angle_alpha   86.91890000
_cell_angle_beta   89.99980000
_cell_angle_gamma   89.99950000
_symmetry_Int_Tables_number   1
_chemical_formula_structural   AlH7C13O6
_chemical_formula_sum   'Al4 H28 C52 O24'
_cell_volume   3107.99292336
_cell_formula_units_Z   4
loop_
 _symmetry_equiv_pos_site_id
 _symmetry_equiv_pos_as_xyz
  1  'x, y, z'
loop_
 _atom_site_type_symbol
 _atom_site_label
 _atom_site_symmetry_multiplicity
 _atom_site_fract_x
 _atom_site_fract_y
 _atom_site_fract_z
 _atom_site_occupancy
  Al  Al0  1  0.24729000  0.74899000  0.74918000  1.0
  Al  Al1  1  0.75287000  0.25068000  0.25043000  1.0
  Al  Al2  1  0.74712000  0.75069000  0.75043000  1.0
  Al  Al3  1  0.25271000  0.24899000  0.24917000  1.0
  H  H4  1  0.31343000  0.98729000  0.54572000  1.0
  H  H5  1  0.69301000  0.05528000  0.48609000  1.0
  H  H6  1  0.80702000  0.55528000  0.98609000  1.0
  H  H7  1  0.18659000  0.48728000  0.04572000  1.0
  H  H8  1  0.30917000  0.90227000  0.62750000  1.0
  H  H9  1  0.69247000  0.13577000  0.40114000  1.0
  H  H10  1  0.80755000  0.63578000  0.90114000  1.0
  H  H11  1  0.19084000  0.40227000  0.12750000  1.0
  H  H12  1  0.68244000  0.86922000  0.60095000  1.0
  H  H13  1  0.31194000  0.09332000  0.37095000  1.0
  H  H14  1  0.18809000  0.59331000  0.87096000  1.0
  H  H15  1  0.81758000  0.36922000  0.10096000  1.0
  H  H16  1  0.68693000  0.95029000  0.51633000  1.0
  H  H17  1  0.31136000  0.00887000  0.45307000  1.0
  H  H18  1  0.18867000  0.50886000  0.95307000  1.0
  H  H19  1  0.81311000  0.45029000  0.01634000  1.0
  H  H20  1  0.66275000  0.04362000  0.02555000  1.0
  H  H21  1  0.33789000  0.95651000  0.97410000  1.0
  H  H22  1  0.16209000  0.45651000  0.47410000  1.0
  H  H23  1  0.83724000  0.54361000  0.52554000  1.0
  H  H24  1  0.70104000  0.92996000  0.91345000  1.0
  H  H25  1  0.30010000  0.07103000  0.08553000  1.0
  H  H26  1  0.19989000  0.57104000  0.58553000  1.0
  H  H27  1  0.79893000  0.42995000  0.41345000  1.0
  H  H28  1  0.49331000  0.83596000  0.76125000  1.0
  H  H29  1  0.50698000  0.16188000  0.24555000  1.0
  H  H30  1  0.99302000  0.66189000  0.74555000  1.0
  H  H31  1  0.00668000  0.33596000  0.26126000  1.0
  C  C32  1  0.49657000  0.67250000  0.67346000  1.0
  C  C33  1  0.49583000  0.32749000  0.32618000  1.0
  C  C34  1  0.00417000  0.82749000  0.82618000  1.0
  C  C35  1  0.00341000  0.17250000  0.17347000  1.0
  C  C36  1  0.50063000  0.66735000  0.82965000  1.0
  C  C37  1  0.50701000  0.33228000  0.17011000  1.0
  C  C38  1  0.99299000  0.83228000  0.67011000  1.0
  C  C39  1  0.99937000  0.16735000  0.32965000  1.0
  C  C40  1  0.17515000  0.96062000  0.55669000  1.0
  C  C41  1  0.82809000  0.06198000  0.46021000  1.0
  C  C42  1  0.67193000  0.56197000  0.96021000  1.0
  C  C43  1  0.32486000  0.46062000  0.05669000  1.0
  C  C44  1  0.17354000  0.91373000  0.60296000  1.0
  C  C45  1  0.82722000  0.10771000  0.41314000  1.0
  C  C46  1  0.67279000  0.60771000  0.91314000  1.0
  C  C47  1  0.32646000  0.41373000  0.10296000  1.0
  C  C48  1  0.99543000  0.88109000  0.61949000  1.0
  C  C49  1  0.00159000  0.11911000  0.38065000  1.0
  C  C50  1  0.49841000  0.61911000  0.88065000  1.0
  C  C51  1  0.50456000  0.38108000  0.11949000  1.0
  C  C52  1  0.81986000  0.89534000  0.58825000  1.0
  C  C53  1  0.17675000  0.08409000  0.39630000  1.0
  C  C54  1  0.32327000  0.58408000  0.89631000  1.0
  C  C55  1  0.68014000  0.39534000  0.08825000  1.0
  C  C56  1  0.82302000  0.94138000  0.54137000  1.0
  C  C57  1  0.17592000  0.03749000  0.44280000  1.0
  C  C58  1  0.32410000  0.53748000  0.94280000  1.0
  C  C59  1  0.67699000  0.44137000  0.04138000  1.0
  C  C60  1  0.00009000  0.97549000  0.52489000  1.0
  C  C61  1  0.00158000  0.02531000  0.47569000  1.0
  C  C62  1  0.49844000  0.52530000  0.97570000  1.0
  C  C63  1  0.49993000  0.47548000  0.02489000  1.0
  C  C64  1  0.82763000  0.98041000  0.97061000  1.0
  C  C65  1  0.17319000  0.02001000  0.02881000  1.0
  C  C66  1  0.32679000  0.52001000  0.52881000  1.0
  C  C67  1  0.67235000  0.48040000  0.47061000  1.0
  C  C68  1  0.01915000  0.95514000  0.95617000  1.0
  C  C69  1  0.98152000  0.04513000  0.04336000  1.0
  C  C70  1  0.51847000  0.54513000  0.54336000  1.0
  C  C71  1  0.48083000  0.45513000  0.45618000  1.0
  C  C72  1  0.19111000  0.97522000  0.98556000  1.0
  C  C73  1  0.80957000  0.02498000  0.01404000  1.0
  C  C74  1  0.69042000  0.52498000  0.51404000  1.0
  C  C75  1  0.30888000  0.47521000  0.48556000  1.0
  C  C76  1  0.02632000  0.91018000  0.91165000  1.0
  C  C77  1  0.97495000  0.09011000  0.08791000  1.0
  C  C78  1  0.52503000  0.59011000  0.58790000  1.0
  C  C79  1  0.47366000  0.41017000  0.41165000  1.0
  C  C80  1  0.99395000  0.12813000  0.12691000  1.0
  C  C81  1  0.00917000  0.87216000  0.87255000  1.0
  C  C82  1  0.49082000  0.37216000  0.37255000  1.0
  C  C83  1  0.50603000  0.62814000  0.62690000  1.0
  O  O84  1  0.67057000  0.69054000  0.81360000  1.0
  O  O85  1  0.33879000  0.31631000  0.19280000  1.0
  O  O86  1  0.16120000  0.81631000  0.69280000  1.0
  O  O87  1  0.82943000  0.19054000  0.31360000  1.0
  O  O88  1  0.32370000  0.69249000  0.68804000  1.0
  O  O89  1  0.66680000  0.31448000  0.30514000  1.0
  O  O90  1  0.83318000  0.81448000  0.80514000  1.0
  O  O91  1  0.17630000  0.19249000  0.18804000  1.0
  O  O92  1  0.33341000  0.68110000  0.80535000  1.0
  O  O93  1  0.67733000  0.31094000  0.18754000  1.0
  O  O94  1  0.82265000  0.81094000  0.68753000  1.0
  O  O95  1  0.16658000  0.18110000  0.30535000  1.0
  O  O96  1  0.17312000  0.80569000  0.81026000  1.0
  O  O97  1  0.83679000  0.18702000  0.19612000  1.0
  O  O98  1  0.66321000  0.68703000  0.69611000  1.0
  O  O99  1  0.32687000  0.30569000  0.31026000  1.0
  O  O100  1  0.49627000  0.79043000  0.74897000  1.0
  O  O101  1  0.50358000  0.20952000  0.25112000  1.0
  O  O102  1  0.99642000  0.70953000  0.75112000  1.0
  O  O103  1  0.00371000  0.29043000  0.24897000  1.0
  O  O104  1  0.66031000  0.96146000  0.94222000  1.0
  O  O105  1  0.34060000  0.03918000  0.05703000  1.0
  O  O106  1  0.15939000  0.53919000  0.55702000  1.0
  O  O107  1  0.83968000  0.46145000  0.44222000  1.0
