# generated using pymatgen
data_HgH11C13(NCl)2
_symmetry_space_group_name_H-M   'P 1'
_cell_length_a   9.61021000
_cell_length_b   10.75790000
_cell_length_c   13.91040000
_cell_angle_alpha   110.42100000
_cell_angle_beta   90.00000000
_cell_angle_gamma   90.00000000
_symmetry_Int_Tables_number   1
_chemical_formula_structural   HgH11C13(NCl)2
_chemical_formula_sum   'Hg4 H44 C52 N8 Cl8'
_cell_volume   1347.75527568
_cell_formula_units_Z   4
loop_
 _symmetry_equiv_pos_site_id
 _symmetry_equiv_pos_as_xyz
  1  'x, y, z'
loop_
 _atom_site_type_symbol
 _atom_site_label
 _atom_site_symmetry_multiplicity
 _atom_site_fract_x
 _atom_site_fract_y
 _atom_site_fract_z
 _atom_site_occupancy
  Hg  Hg0  1  0.58053000  0.68375000  0.04541000  1.0
  Hg  Hg1  1  0.08053000  0.31626000  0.45459000  1.0
  Hg  Hg2  1  0.41948000  0.31626000  0.95459000  1.0
  Hg  Hg3  1  0.91947000  0.68374000  0.54541000  1.0
  H  H4  1  0.47647000  0.57788000  0.22343000  1.0
  H  H5  1  0.97647000  0.42212000  0.27657000  1.0
  H  H6  1  0.52353000  0.42211000  0.77657000  1.0
  H  H7  1  0.02353000  0.57788000  0.72343000  1.0
  H  H8  1  0.37238000  0.66073000  0.40122000  1.0
  H  H9  1  0.87238000  0.33927000  0.09878000  1.0
  H  H10  1  0.62762000  0.33927000  0.59878000  1.0
  H  H11  1  0.12762000  0.66073000  0.90122000  1.0
  H  H12  1  0.34380000  0.90512000  0.48962000  1.0
  H  H13  1  0.84380000  0.09488000  0.01038000  1.0
  H  H14  1  0.65620000  0.09488000  0.51038000  1.0
  H  H15  1  0.15620000  0.90512000  0.98962000  1.0
  H  H16  1  0.40138000  0.05744000  0.39444000  1.0
  H  H17  1  0.90139000  0.94256000  0.10556000  1.0
  H  H18  1  0.59861000  0.94255000  0.60556000  1.0
  H  H19  1  0.09862000  0.05744000  0.89444000  1.0
  H  H20  1  0.69642000  0.12359000  0.33523000  1.0
  H  H21  1  0.19642000  0.87641000  0.16477000  1.0
  H  H22  1  0.30358000  0.87641000  0.66477000  1.0
  H  H23  1  0.80358000  0.12359000  0.83523000  1.0
  H  H24  1  0.70650000  0.36835000  0.42331000  1.0
  H  H25  1  0.20650000  0.63165000  0.07669000  1.0
  H  H26  1  0.29351000  0.63165000  0.57669000  1.0
  H  H27  1  0.79350000  0.36835000  0.92331000  1.0
  H  H28  1  0.52218000  0.51056000  0.39574000  1.0
  H  H29  1  0.02218000  0.48944000  0.10426000  1.0
  H  H30  1  0.47782000  0.48944000  0.60426000  1.0
  H  H31  1  0.97782000  0.51056000  0.89574000  1.0
  H  H32  1  0.32329000  0.40914000  0.27539000  1.0
  H  H33  1  0.82329000  0.59086000  0.22461000  1.0
  H  H34  1  0.67672000  0.59086000  0.72461000  1.0
  H  H35  1  0.17672000  0.40914000  0.77539000  1.0
  H  H36  1  0.31614000  0.16798000  0.18452000  1.0
  H  H37  1  0.81614000  0.83202000  0.31548000  1.0
  H  H38  1  0.68386000  0.83202000  0.81548000  1.0
  H  H39  1  0.18386000  0.16798000  0.68452000  1.0
  H  H40  1  0.65081000  0.95245000  0.99214000  1.0
  H  H41  1  0.15081000  0.04755000  0.50786000  1.0
  H  H42  1  0.34919000  0.04755000  0.00786000  1.0
  H  H43  1  0.84919000  0.95245000  0.49214000  1.0
  H  H44  1  0.58646000  0.10672000  0.08080000  1.0
  H  H45  1  0.08646000  0.89328000  0.41920000  1.0
  H  H46  1  0.41354000  0.89328000  0.91920000  1.0
  H  H47  1  0.91354000  0.10672000  0.58080000  1.0
  C  C48  1  0.45659000  0.68305000  0.26427000  1.0
  C  C49  1  0.95659000  0.31695000  0.23573000  1.0
  C  C50  1  0.54341000  0.31695000  0.73573000  1.0
  C  C51  1  0.04342000  0.68305000  0.76427000  1.0
  C  C52  1  0.40133000  0.72976000  0.36328000  1.0
  C  C53  1  0.90133000  0.27024000  0.13672000  1.0
  C  C54  1  0.59867000  0.27024000  0.63672000  1.0
  C  C55  1  0.09867000  0.72976000  0.86328000  1.0
  C  C56  1  0.38377000  0.86552000  0.41156000  1.0
  C  C57  1  0.88377000  0.13448000  0.08844000  1.0
  C  C58  1  0.61623000  0.13448000  0.58844000  1.0
  C  C59  1  0.11623000  0.86552000  0.91156000  1.0
  C  C60  1  0.41781000  0.95072000  0.35916000  1.0
  C  C61  1  0.91782000  0.04928000  0.14084000  1.0
  C  C62  1  0.58218000  0.04928000  0.64084000  1.0
  C  C63  1  0.08219000  0.95072000  0.85916000  1.0
  C  C64  1  0.47099000  0.89692000  0.25946000  1.0
  C  C65  1  0.97099000  0.10308000  0.24054000  1.0
  C  C66  1  0.52900000  0.10308000  0.74054000  1.0
  C  C67  1  0.02901000  0.89692000  0.75946000  1.0
  C  C68  1  0.50235000  0.98371000  0.19898000  1.0
  C  C69  1  0.00235000  0.01629000  0.30102000  1.0
  C  C70  1  0.49765000  0.01629000  0.80102000  1.0
  C  C71  1  0.99766000  0.98371000  0.69898000  1.0
  C  C72  1  0.50561000  0.12953000  0.25432000  1.0
  C  C73  1  0.00561000  0.87047000  0.24568000  1.0
  C  C74  1  0.49439000  0.87047000  0.74569000  1.0
  C  C75  1  0.99439000  0.12953000  0.75432000  1.0
  C  C76  1  0.61489000  0.18664000  0.32229000  1.0
  C  C77  1  0.11489000  0.81337000  0.17772000  1.0
  C  C78  1  0.38511000  0.81337000  0.67772000  1.0
  C  C79  1  0.88511000  0.18664000  0.82229000  1.0
  C  C80  1  0.62062000  0.32365000  0.37150000  1.0
  C  C81  1  0.12062000  0.67634000  0.12850000  1.0
  C  C82  1  0.37938000  0.67634000  0.62850000  1.0
  C  C83  1  0.87938000  0.32365000  0.87150000  1.0
  C  C84  1  0.51562000  0.40393000  0.35542000  1.0
  C  C85  1  0.01562000  0.59607000  0.14458000  1.0
  C  C86  1  0.48438000  0.59607000  0.64458000  1.0
  C  C87  1  0.98438000  0.40393000  0.85542000  1.0
  C  C88  1  0.40605000  0.34765000  0.28866000  1.0
  C  C89  1  0.90605000  0.65235000  0.21134000  1.0
  C  C90  1  0.59395000  0.65235000  0.71134000  1.0
  C  C91  1  0.09395000  0.34765000  0.78866000  1.0
  C  C92  1  0.40134000  0.21081000  0.23759000  1.0
  C  C93  1  0.90134000  0.78919000  0.26241000  1.0
  C  C94  1  0.59866000  0.78919000  0.76241000  1.0
  C  C95  1  0.09866000  0.21081000  0.73758000  1.0
  C  C96  1  0.55986000  0.00273000  0.03718000  1.0
  C  C97  1  0.05986000  0.99727000  0.46282000  1.0
  C  C98  1  0.44014000  0.99727000  0.96282000  1.0
  C  C99  1  0.94014000  0.00273000  0.53718000  1.0
  N  N100  1  0.49146000  0.76483000  0.21463000  1.0
  N  N101  1  0.99146000  0.23517000  0.28537000  1.0
  N  N102  1  0.50854000  0.23517000  0.78537000  1.0
  N  N103  1  0.00854000  0.76483000  0.71463000  1.0
  N  N104  1  0.52308000  0.92783000  0.10194000  1.0
  N  N105  1  0.02308000  0.07217000  0.39806000  1.0
  N  N106  1  0.47692000  0.07216000  0.89806000  1.0
  N  N107  1  0.97692000  0.92783000  0.60194000  1.0
  Cl  Cl108  1  0.62017000  0.43587000  0.07287000  1.0
  Cl  Cl109  1  0.12017000  0.56413000  0.42713000  1.0
  Cl  Cl110  1  0.37983000  0.56413000  0.92713000  1.0
  Cl  Cl111  1  0.87983000  0.43587000  0.57287000  1.0
  Cl  Cl112  1  0.79528000  0.71937000  0.96482000  1.0
  Cl  Cl113  1  0.29528000  0.28063000  0.53518000  1.0
  Cl  Cl114  1  0.20472000  0.28063000  0.03518000  1.0
  Cl  Cl115  1  0.70472000  0.71937000  0.46482000  1.0
