# generated using pymatgen
data_LiBH16C10N8(OF)2
_symmetry_space_group_name_H-M   'P 1'
_cell_length_a   8.08826000
_cell_length_b   9.15777000
_cell_length_c   11.02820000
_cell_angle_alpha   107.14700000
_cell_angle_beta   100.95200000
_cell_angle_gamma   98.06370000
_symmetry_Int_Tables_number   1
_chemical_formula_structural   LiBH16C10N8(OF)2
_chemical_formula_sum   'Li2 B2 H32 C20 N16 O4 F4'
_cell_volume   749.37717050
_cell_formula_units_Z   2
loop_
 _symmetry_equiv_pos_site_id
 _symmetry_equiv_pos_as_xyz
  1  'x, y, z'
loop_
 _atom_site_type_symbol
 _atom_site_label
 _atom_site_symmetry_multiplicity
 _atom_site_fract_x
 _atom_site_fract_y
 _atom_site_fract_z
 _atom_site_occupancy
  Li  Li0  1  0.02778000  0.65916000  0.78968000  1.0
  Li  Li1  1  0.97222000  0.34084000  0.21032000  1.0
  B  B2  1  0.23619000  0.11336000  0.55545000  1.0
  B  B3  1  0.76381000  0.88664000  0.44455000  1.0
  H  H4  1  0.98564000  0.63386000  0.07353000  1.0
  H  H5  1  0.01436000  0.36614000  0.92647000  1.0
  H  H6  1  0.07135000  0.83711000  0.10973000  1.0
  H  H7  1  0.92865000  0.16289000  0.89027000  1.0
  H  H8  1  0.33315000  0.82918000  0.24438000  1.0
  H  H9  1  0.66685000  0.17082000  0.75562000  1.0
  H  H10  1  0.21651000  0.65802000  0.25607000  1.0
  H  H11  1  0.78350000  0.34198000  0.74393000  1.0
  H  H12  1  0.49779000  0.64361000  0.15419000  1.0
  H  H13  1  0.50221000  0.35639000  0.84581000  1.0
  H  H14  1  0.30955000  0.49143000  0.07590000  1.0
  H  H15  1  0.69045000  0.50857000  0.92410000  1.0
  H  H16  1  0.41349000  0.78400000  0.00244000  1.0
  H  H17  1  0.58651000  0.21600000  0.99756000  1.0
  H  H18  1  0.34526000  0.58479000  0.89488000  1.0
  H  H19  1  0.65474000  0.41521000  0.10512000  1.0
  H  H20  1  0.60620000  0.47695000  0.64069000  1.0
  H  H21  1  0.39380000  0.52305000  0.35931000  1.0
  H  H22  1  0.69623000  0.61270000  0.57126000  1.0
  H  H23  1  0.30377000  0.38730000  0.42874000  1.0
  H  H24  1  0.43596000  0.70707000  0.59140000  1.0
  H  H25  1  0.56404000  0.29293000  0.40860000  1.0
  H  H26  1  0.41742000  0.63715000  0.72300000  1.0
  H  H27  1  0.58258000  0.36285000  0.27700000  1.0
  H  H28  1  0.53406000  0.91599000  0.84143000  1.0
  H  H29  1  0.46594000  0.08401000  0.15857000  1.0
  H  H30  1  0.66786000  0.92707000  0.73189000  1.0
  H  H31  1  0.33213000  0.07293000  0.26810000  1.0
  H  H32  1  0.87154000  0.89168000  0.90809000  1.0
  H  H33  1  0.12846000  0.10832000  0.09191000  1.0
  H  H34  1  0.70832000  0.76685000  0.94088000  1.0
  H  H35  1  0.29168000  0.23315000  0.05912000  1.0
  C  C36  1  0.12472000  0.87254000  0.62891000  1.0
  C  C37  1  0.87528000  0.12745000  0.37108000  1.0
  C  C38  1  0.03226000  0.75721000  0.50270000  1.0
  C  C39  1  0.96774000  0.24279000  0.49730000  1.0
  C  C40  1  0.10224000  0.72020000  0.08623000  1.0
  C  C41  1  0.89776000  0.27980000  0.91377000  1.0
  C  C42  1  0.25622000  0.71205000  0.18713000  1.0
  C  C43  1  0.74379000  0.28795000  0.81287000  1.0
  C  C44  1  0.36124000  0.61747000  0.10367000  1.0
  C  C45  1  0.63876000  0.38252000  0.89632000  1.0
  C  C46  1  0.33085000  0.66933000  0.98422000  1.0
  C  C47  1  0.66915000  0.33067000  0.01578000  1.0
  C  C48  1  0.64795000  0.60167000  0.65555000  1.0
  C  C49  1  0.35205000  0.39833000  0.34445000  1.0
  C  C50  1  0.50890000  0.69533000  0.68137000  1.0
  C  C51  1  0.49110000  0.30467000  0.31863000  1.0
  C  C52  1  0.61149000  0.85228000  0.78158000  1.0
  C  C53  1  0.38851000  0.14772000  0.21842000  1.0
  C  C54  1  0.75192000  0.80231000  0.86307000  1.0
  C  C55  1  0.24808000  0.19769000  0.13693000  1.0
  N  N56  1  0.20984000  0.01961000  0.65204000  1.0
  N  N57  1  0.79016000  0.98039000  0.34796000  1.0
  N  N58  1  0.27424000  0.08458000  0.78299000  1.0
  N  N59  1  0.72577000  0.91542000  0.21701000  1.0
  N  N60  1  0.23072000  0.98019000  0.83611000  1.0
  N  N61  1  0.76928000  0.01981000  0.16389000  1.0
  N  N62  1  0.13756000  0.84578000  0.74251000  1.0
  N  N63  1  0.86244000  0.15422000  0.25749000  1.0
  N  N64  1  0.08167000  0.62601000  0.44752000  1.0
  N  N65  1  0.91833000  0.37399000  0.55248000  1.0
  N  N66  1  0.95748000  0.55069000  0.33641000  1.0
  N  N67  1  0.04252000  0.44931000  0.66359000  1.0
  N  N68  1  0.83660000  0.62953000  0.32267000  1.0
  N  N69  1  0.16340000  0.37047000  0.67733000  1.0
  N  N70  1  0.88050000  0.76088000  0.42702000  1.0
  N  N71  1  0.11950000  0.23912000  0.57298000  1.0
  O  O72  1  0.15131000  0.68266000  0.96170000  1.0
  O  O73  1  0.84869000  0.31734000  0.03830000  1.0
  O  O74  1  0.79072000  0.66828000  0.77207000  1.0
  O  O75  1  0.20928000  0.33172000  0.22793000  1.0
  F  F76  1  0.17601000  0.00870000  0.42788000  1.0
  F  F77  1  0.82399000  0.99130000  0.57212000  1.0
  F  F78  1  0.40636000  0.18833000  0.58518000  1.0
  F  F79  1  0.59364000  0.81167000  0.41482000  1.0
