# generated using pymatgen
data_Hf3H16C45(Br5O4)4
_symmetry_space_group_name_H-M   'P 1'
_cell_length_a   11.59460000
_cell_length_b   20.49030000
_cell_length_c   34.67160000
_cell_angle_alpha   91.06140000
_cell_angle_beta   99.47940000
_cell_angle_gamma   90.19630000
_symmetry_Int_Tables_number   1
_chemical_formula_structural   Hf3H16C45(Br5O4)4
_chemical_formula_sum   'Hf6 H32 C90 Br40 O32'
_cell_volume   8123.12011869
_cell_formula_units_Z   2
loop_
 _symmetry_equiv_pos_site_id
 _symmetry_equiv_pos_as_xyz
  1  'x, y, z'
loop_
 _atom_site_type_symbol
 _atom_site_label
 _atom_site_symmetry_multiplicity
 _atom_site_fract_x
 _atom_site_fract_y
 _atom_site_fract_z
 _atom_site_occupancy
  Hf  Hf0  1  0.05642000  0.89931000  0.04241000  1.0
  Hf  Hf1  1  0.01457000  0.08957000  0.96273000  1.0
  Hf  Hf2  1  0.91522000  0.04842000  0.04874000  1.0
  Hf  Hf3  1  0.16346000  0.94257000  0.95746000  1.0
  Hf  Hf4  1  0.85502000  0.94268000  0.96071000  1.0
  Hf  Hf5  1  0.22438000  0.04439000  0.04173000  1.0
  H  H6  1  0.00775000  0.83765000  0.96922000  1.0
  H  H7  1  0.77919000  0.06940000  0.96581000  1.0
  H  H8  1  0.25498000  0.06916000  0.96283000  1.0
  H  H9  1  0.11134000  0.99588000  0.10303000  1.0
  H  H10  1  0.65985000  0.91696000  0.99445000  1.0
  H  H11  1  0.96820000  0.08944000  0.12333000  1.0
  H  H12  1  0.25575000  0.10316000  0.11364000  1.0
  H  H13  1  0.82219000  0.87604000  0.89290000  1.0
  H  H14  1  0.12495000  0.83052000  0.91355000  1.0
  H  H15  1  0.38277000  0.95900000  0.93797000  1.0
  H  H16  1  0.38758000  0.99543000  0.99596000  1.0
  H  H17  1  0.77008000  0.98938000  0.89092000  1.0
  H  H18  1  0.86909000  0.17898000  0.92093000  1.0
  H  H19  1  0.23468000  0.83272000  0.09136000  1.0
  H  H20  1  0.33133000  0.98101000  0.10598000  1.0
  H  H21  1  0.99762000  0.87184000  0.90849000  1.0
  H  H22  1  0.93501000  0.13847000  0.89109000  1.0
  H  H23  1  0.68936000  0.08040000  0.03734000  1.0
  H  H24  1  0.69760000  0.99104000  0.00898000  1.0
  H  H25  1  0.43804000  0.00564000  0.04287000  1.0
  H  H26  1  0.11318000  0.11307000  0.09777000  1.0
  H  H27  1  0.14152000  0.85451000  0.11819000  1.0
  H  H28  1  0.31883000  0.49231000  0.99931000  1.0
  H  H29  1  0.74925000  0.49624000  0.02101000  1.0
  H  H30  1  0.65398000  0.94054000  0.27502000  1.0
  H  H31  1  0.87590000  0.98168000  0.38479000  1.0
  H  H32  1  0.02937000  0.94557000  0.28213000  1.0
  H  H33  1  0.24872000  0.06493000  0.71098000  1.0
  H  H34  1  0.01966000  0.05555000  0.60015000  1.0
  H  H35  1  0.87450000  0.05918000  0.70632000  1.0
  H  H36  1  0.24069000  0.02146000  0.49610000  1.0
  H  H37  1  0.66001000  0.01945000  0.48794000  1.0
  C  C38  1  0.84118000  0.80439000  0.00947000  1.0
  C  C39  1  0.22807000  0.80382000  0.00234000  1.0
  C  C40  1  0.90678000  0.93204000  0.11238000  1.0
  C  C41  1  0.86097000  0.19027000  0.00909000  1.0
  C  C42  1  0.22642000  0.18366000  0.00005000  1.0
  C  C43  1  0.12078000  0.04536000  0.88410000  1.0
  C  C44  1  0.47114000  0.55350000  0.00723000  1.0
  C  C45  1  0.59493000  0.55432000  0.01299000  1.0
  C  C46  1  0.65419000  0.49517000  0.01612000  1.0
  C  C47  1  0.59705000  0.43464000  0.01222000  1.0
  C  C48  1  0.47299000  0.43352000  0.00592000  1.0
  C  C49  1  0.41387000  0.49313000  0.00383000  1.0
  C  C50  1  0.84039000  0.94119000  0.27393000  1.0
  C  C51  1  0.74097000  0.94763000  0.29193000  1.0
  C  C52  1  0.75414000  0.96419000  0.33167000  1.0
  C  C53  1  0.86611000  0.97009000  0.35359000  1.0
  C  C54  1  0.96557000  0.96206000  0.33633000  1.0
  C  C55  1  0.95240000  0.94945000  0.29627000  1.0
  C  C56  1  0.06336000  0.06232000  0.71322000  1.0
  C  C57  1  0.16087000  0.06387000  0.69404000  1.0
  C  C58  1  0.14494000  0.06312000  0.65325000  1.0
  C  C59  1  0.03187000  0.05848000  0.63200000  1.0
  C  C60  1  0.93440000  0.05620000  0.65067000  1.0
  C  C61  1  0.95007000  0.05990000  0.69138000  1.0
  C  C62  1  0.36665000  0.00857000  0.45790000  1.0
  C  C63  1  0.48680000  0.00958000  0.45545000  1.0
  C  C64  1  0.56715000  0.01988000  0.48979000  1.0
  C  C65  1  0.53418000  0.02988000  0.52643000  1.0
  C  C66  1  0.41387000  0.03208000  0.52852000  1.0
  C  C67  1  0.33357000  0.02097000  0.49426000  1.0
  C  C68  1  0.74810000  0.10095000  0.61295000  1.0
  C  C69  1  0.82081000  0.04767000  0.62403000  1.0
  C  C70  1  0.79560000  0.98784000  0.60367000  1.0
  C  C71  1  0.70410000  0.98235000  0.57182000  1.0
  C  C72  1  0.62975000  0.03574000  0.56084000  1.0
  C  C73  1  0.65487000  0.09525000  0.58163000  1.0
  C  C74  1  0.24018000  0.11131000  0.60073000  1.0
  C  C75  1  0.23785000  0.06198000  0.62842000  1.0
  C  C76  1  0.30509000  0.00589000  0.62521000  1.0
  C  C77  1  0.36643000  0.99748000  0.59381000  1.0
  C  C78  1  0.36297000  0.04483000  0.56468000  1.0
  C  C79  1  0.29695000  0.10173000  0.56841000  1.0
  C  C80  1  0.14614000  0.02673000  0.36389000  1.0
  C  C81  1  0.07884000  0.96956000  0.36312000  1.0
  C  C82  1  0.10990000  0.92419000  0.39303000  1.0
  C  C83  1  0.20147000  0.93723000  0.42404000  1.0
  C  C84  1  0.27102000  0.99410000  0.42448000  1.0
  C  C85  1  0.24030000  0.03890000  0.39418000  1.0
  C  C86  1  0.65271000  0.04048000  0.37138000  1.0
  C  C87  1  0.65997000  0.97736000  0.35511000  1.0
  C  C88  1  0.59867000  0.92653000  0.36938000  1.0
  C  C89  1  0.53816000  0.93750000  0.40077000  1.0
  C  C90  1  0.53691000  0.99968000  0.41884000  1.0
  C  C91  1  0.59708000  0.05101000  0.40388000  1.0
  C  C92  1  0.31687000  0.63182000  0.97350000  1.0
  C  C93  1  0.40167000  0.61474000  0.00581000  1.0
  C  C94  1  0.41726000  0.65803000  0.03849000  1.0
  C  C95  1  0.36946000  0.72076000  0.03596000  1.0
  C  C96  1  0.28770000  0.73809000  0.00350000  1.0
  C  C97  1  0.25710000  0.69140000  0.97341000  1.0
  C  C98  1  0.71484000  0.26414000  0.03646000  1.0
  C  C99  1  0.79810000  0.25506000  0.01117000  1.0
  C  C100  1  0.82015000  0.30902000  0.98829000  1.0
  C  C101  1  0.75249000  0.36600000  0.98756000  1.0
  C  C102  1  0.67113000  0.37519000  0.01337000  1.0
  C  C103  1  0.66316000  0.32541000  0.04018000  1.0
  C  C104  1  0.32190000  0.35930000  0.02825000  1.0
  C  C105  1  0.40236000  0.37216000  0.00260000  1.0
  C  C106  1  0.41536000  0.32356000  0.97428000  1.0
  C  C107  1  0.36545000  0.26148000  0.97568000  1.0
  C  C108  1  0.28526000  0.24974000  0.00069000  1.0
  C  C109  1  0.26080000  0.29968000  0.02620000  1.0
  C  C110  1  0.73758000  0.64104000  0.04611000  1.0
  C  C111  1  0.66480000  0.61548000  0.01275000  1.0
  C  C112  1  0.66533000  0.64806000  0.97729000  1.0
  C  C113  1  0.72825000  0.70631000  0.97589000  1.0
  C  C114  1  0.78330000  0.73784000  0.01074000  1.0
  C  C115  1  0.78725000  0.70378000  0.04597000  1.0
  C  C116  1  0.03388000  0.00746000  0.81547000  1.0
  C  C117  1  0.10586000  0.05181000  0.83980000  1.0
  C  C118  1  0.16103000  0.10146000  0.82211000  1.0
  C  C119  1  0.14341000  0.10693000  0.78123000  1.0
  C  C120  1  0.07867000  0.05948000  0.75658000  1.0
  C  C121  1  0.02685000  0.00846000  0.77472000  1.0
  C  C122  1  0.90486000  0.87846000  0.21846000  1.0
  C  C123  1  0.83445000  0.92773000  0.23140000  1.0
  C  C124  1  0.76694000  0.96487000  0.20221000  1.0
  C  C125  1  0.77433000  0.95527000  0.16246000  1.0
  C  C126  1  0.86674000  0.91792000  0.15120000  1.0
  C  C127  1  0.92749000  0.87706000  0.17984000  1.0
  Br  Br128  1  0.57045000  0.17052000  0.56376000  1.0
  Br  Br129  1  0.78426000  0.18207000  0.63941000  1.0
  Br  Br130  1  0.68598000  0.90317000  0.54196000  1.0
  Br  Br131  1  0.89055000  0.91485000  0.61990000  1.0
  Br  Br132  1  0.27441000  0.16340000  0.52761000  1.0
  Br  Br133  1  0.16064000  0.19050000  0.60744000  1.0
  Br  Br134  1  0.44087000  0.91709000  0.58715000  1.0
  Br  Br135  1  0.30226000  0.93846000  0.66178000  1.0
  Br  Br136  1  0.31836000  0.12033000  0.39729000  1.0
  Br  Br137  1  0.10152000  0.08976000  0.32492000  1.0
  Br  Br138  1  0.22530000  0.87971000  0.46696000  1.0
  Br  Br139  1  0.02350000  0.84491000  0.39068000  1.0
  Br  Br140  1  0.61487000  0.13349000  0.43020000  1.0
  Br  Br141  1  0.72500000  0.11061000  0.34920000  1.0
  Br  Br142  1  0.47152000  0.86588000  0.42291000  1.0
  Br  Br143  1  0.60941000  0.84134000  0.34797000  1.0
  Br  Br144  1  0.12666000  0.70794000  0.93375000  1.0
  Br  Br145  1  0.27916000  0.57331000  0.93016000  1.0
  Br  Br146  1  0.42005000  0.78344000  0.07656000  1.0
  Br  Br147  1  0.49041000  0.62799000  0.08763000  1.0
  Br  Br148  1  0.58725000  0.34426000  0.08349000  1.0
  Br  Br149  1  0.65770000  0.19586000  0.06473000  1.0
  Br  Br150  1  0.76732000  0.43065000  0.94990000  1.0
  Br  Br151  1  0.94330000  0.30890000  0.95816000  1.0
  Br  Br152  1  0.14854000  0.28212000  0.05862000  1.0
  Br  Br153  1  0.29844000  0.42109000  0.06771000  1.0
  Br  Br154  1  0.40979000  0.19080000  0.94533000  1.0
  Br  Br155  1  0.49142000  0.34377000  0.93162000  1.0
  Br  Br156  1  0.85439000  0.74184000  0.09467000  1.0
  Br  Br157  1  0.77708000  0.58806000  0.09075000  1.0
  Br  Br158  1  0.74792000  0.73834000  0.92657000  1.0
  Br  Br159  1  0.58783000  0.60774000  0.93045000  1.0
  Br  Br160  1  0.95197000  0.93744000  0.74428000  1.0
  Br  Br161  1  0.94062000  0.94878000  0.83857000  1.0
  Br  Br162  1  0.20335000  0.18122000  0.75893000  1.0
  Br  Br163  1  0.25931000  0.16094000  0.85483000  1.0
  Br  Br164  1  0.04578000  0.81770000  0.16920000  1.0
  Br  Br165  1  0.96567000  0.81253000  0.25400000  1.0
  Br  Br166  1  0.65567000  0.98970000  0.12446000  1.0
  Br  Br167  1  0.66999000  0.03287000  0.21649000  1.0
  O  O168  1  0.18632000  0.86917000  0.09812000  1.0
  O  O169  1  0.93897000  0.81301000  0.03184000  1.0
  O  O170  1  0.96352000  0.88958000  0.09616000  1.0
  O  O171  1  0.23898000  0.84042000  0.97437000  1.0
  O  O172  1  0.88618000  0.98949000  0.10052000  1.0
  O  O173  1  0.17090000  0.81504000  0.03009000  1.0
  O  O174  1  0.79017000  0.84593000  0.98600000  1.0
  O  O175  1  0.92129000  0.95662000  0.02285000  1.0
  O  O176  1  0.01930000  0.88228000  0.97908000  1.0
  O  O177  1  0.09867000  0.99204000  0.07476000  1.0
  O  O178  1  0.17904000  0.95155000  0.01760000  1.0
  O  O179  1  0.34160000  0.95232000  0.95975000  1.0
  O  O180  1  0.68495000  0.95842000  0.98524000  1.0
  O  O181  1  0.00339000  0.99219000  0.94787000  1.0
  O  O182  1  0.85313000  0.05134000  0.97832000  1.0
  O  O183  1  0.05316000  0.07754000  0.02108000  1.0
  O  O184  1  0.19381000  0.04819000  0.97436000  1.0
  O  O185  1  0.73493000  0.04063000  0.04149000  1.0
  O  O186  1  0.86132000  0.15191000  0.03709000  1.0
  O  O187  1  0.90797000  0.17804000  0.97913000  1.0
  O  O188  1  0.34702000  0.01269000  0.08707000  1.0
  O  O189  1  0.13712000  0.17428000  0.97373000  1.0
  O  O190  1  0.98952000  0.10295000  0.09878000  1.0
  O  O191  1  0.19882000  0.11448000  0.09094000  1.0
  O  O192  1  0.39677000  0.02745000  0.01975000  1.0
  O  O193  1  0.27344000  0.14405000  0.02532000  1.0
  O  O194  1  0.88519000  0.13521000  0.91131000  1.0
  O  O195  1  0.09348000  0.87446000  0.90945000  1.0
  O  O196  1  0.07581000  0.09075000  0.90256000  1.0
  O  O197  1  0.17374000  0.99595000  0.89882000  1.0
  O  O198  1  0.88440000  0.87367000  0.91527000  1.0
  O  O199  1  0.74427000  0.97884000  0.91533000  1.0
