# generated using pymatgen
data_HgH11C6SI
_symmetry_space_group_name_H-M   'P 1'
_cell_length_a   4.77936000
_cell_length_b   7.21624000
_cell_length_c   26.35200000
_cell_angle_alpha   90.00020000
_cell_angle_beta   90.00020000
_cell_angle_gamma   90.00000000
_symmetry_Int_Tables_number   1
_chemical_formula_structural   HgH11C6SI
_chemical_formula_sum   'Hg4 H44 C24 S4 I4'
_cell_volume   908.85436006
_cell_formula_units_Z   4
loop_
 _symmetry_equiv_pos_site_id
 _symmetry_equiv_pos_as_xyz
  1  'x, y, z'
loop_
 _atom_site_type_symbol
 _atom_site_label
 _atom_site_symmetry_multiplicity
 _atom_site_fract_x
 _atom_site_fract_y
 _atom_site_fract_z
 _atom_site_occupancy
  Hg  Hg0  1  0.26749000  0.00001000  0.50000000  1.0
  Hg  Hg1  1  0.76748000  0.50000000  0.00000000  1.0
  Hg  Hg2  1  0.49908000  0.50001000  0.50000000  1.0
  Hg  Hg3  1  0.99909000  0.00000000  0.00000000  1.0
  H  H4  1  0.62067000  0.20583000  0.39662000  1.0
  H  H5  1  0.62067000  0.79418000  0.60338000  1.0
  H  H6  1  0.12066000  0.29417000  0.89661000  1.0
  H  H7  1  0.12068000  0.70582000  0.10338000  1.0
  H  H8  1  0.14442000  0.42699000  0.34688000  1.0
  H  H9  1  0.14442000  0.57302000  0.65312000  1.0
  H  H10  1  0.64441000  0.07301000  0.84688000  1.0
  H  H11  1  0.64442000  0.92698000  0.15312000  1.0
  H  H12  1  0.45661000  0.52138000  0.37182000  1.0
  H  H13  1  0.45661000  0.47862000  0.62818000  1.0
  H  H14  1  0.95660000  0.97862000  0.87182000  1.0
  H  H15  1  0.95662000  0.02138000  0.12818000  1.0
  H  H16  1  0.74089000  0.35634000  0.30754000  1.0
  H  H17  1  0.74089000  0.64366000  0.69246000  1.0
  H  H18  1  0.24087000  0.14365000  0.80754000  1.0
  H  H19  1  0.24089000  0.85634000  0.19246000  1.0
  H  H20  1  0.48231000  0.49199000  0.27759000  1.0
  H  H21  1  0.48231000  0.50802000  0.72241000  1.0
  H  H22  1  0.98230000  0.00801000  0.77759000  1.0
  H  H23  1  0.98232000  0.99198000  0.22241000  1.0
  H  H24  1  0.51680000  0.17353000  0.23853000  1.0
  H  H25  1  0.51681000  0.82647000  0.76147000  1.0
  H  H26  1  0.01679000  0.32647000  0.73853000  1.0
  H  H27  1  0.01682000  0.67352000  0.26147000  1.0
  H  H28  1  0.18328000  0.21754000  0.26438000  1.0
  H  H29  1  0.18329000  0.78246000  0.73562000  1.0
  H  H30  1  0.68328000  0.28246000  0.76438000  1.0
  H  H31  1  0.68329000  0.71754000  0.23562000  1.0
  H  H32  1  0.33794000  0.90242000  0.28992000  1.0
  H  H33  1  0.33794000  0.09759000  0.71008000  1.0
  H  H34  1  0.83793000  0.59758000  0.78992000  1.0
  H  H35  1  0.83794000  0.40241000  0.21008000  1.0
  H  H36  1  0.65125000  0.99208000  0.31529000  1.0
  H  H37  1  0.65125000  0.00793000  0.68471000  1.0
  H  H38  1  0.15124000  0.50792000  0.81529000  1.0
  H  H39  1  0.15125000  0.49207000  0.18471000  1.0
  H  H40  1  0.30774000  0.93295000  0.38379000  1.0
  H  H41  1  0.30774000  0.06706000  0.61621000  1.0
  H  H42  1  0.80773000  0.56705000  0.88379000  1.0
  H  H43  1  0.80774000  0.43295000  0.11621000  1.0
  H  H44  1  0.05694000  0.07549000  0.35352000  1.0
  H  H45  1  0.05695000  0.92452000  0.64648000  1.0
  H  H46  1  0.55694000  0.42452000  0.85352000  1.0
  H  H47  1  0.55694000  0.57548000  0.14648000  1.0
  C  C48  1  0.39943000  0.22716000  0.38637000  1.0
  C  C49  1  0.39943000  0.77285000  0.61363000  1.0
  C  C50  1  0.89942000  0.27284000  0.88637000  1.0
  C  C51  1  0.89943000  0.72716000  0.11363000  1.0
  C  C52  1  0.36897000  0.39914000  0.35276000  1.0
  C  C53  1  0.36897000  0.60087000  0.64724000  1.0
  C  C54  1  0.86896000  0.10086000  0.85276000  1.0
  C  C55  1  0.86897000  0.89913000  0.14724000  1.0
  C  C56  1  0.51321000  0.36881000  0.30151000  1.0
  C  C57  1  0.51322000  0.63119000  0.69849000  1.0
  C  C58  1  0.01320000  0.13118000  0.80150000  1.0
  C  C59  1  0.01322000  0.86881000  0.19850000  1.0
  C  C60  1  0.40471000  0.19560000  0.27453000  1.0
  C  C61  1  0.40470000  0.80440000  0.72547000  1.0
  C  C62  1  0.90469000  0.30439000  0.77453000  1.0
  C  C63  1  0.90470000  0.69560000  0.22547000  1.0
  C  C64  1  0.42885000  0.02482000  0.30857000  1.0
  C  C65  1  0.42885000  0.97519000  0.69143000  1.0
  C  C66  1  0.92884000  0.47518000  0.80857000  1.0
  C  C67  1  0.92885000  0.52481000  0.19143000  1.0
  C  C68  1  0.28327000  0.05580000  0.35961000  1.0
  C  C69  1  0.28326000  0.94420000  0.64039000  1.0
  C  C70  1  0.78325000  0.44420000  0.85961000  1.0
  C  C71  1  0.78326000  0.55580000  0.14039000  1.0
  S  S72  1  0.20352000  0.26840000  0.44539000  1.0
  S  S73  1  0.20352000  0.73161000  0.55461000  1.0
  S  S74  1  0.70352000  0.23160000  0.94539000  1.0
  S  S75  1  0.70353000  0.76839000  0.05461000  1.0
  I  I76  1  0.78984000  0.74984000  0.43601000  1.0
  I  I77  1  0.78985000  0.25016000  0.56399000  1.0
  I  I78  1  0.28984000  0.75015000  0.93601000  1.0
  I  I79  1  0.28984000  0.24984000  0.06399000  1.0
