# generated using pymatgen
data_Cu3H14C12(N8O3)2
_symmetry_space_group_name_H-M   'P 1'
_cell_length_a   6.07219000
_cell_length_b   10.09810000
_cell_length_c   10.65940000
_cell_angle_alpha   112.03300000
_cell_angle_beta   100.66000000
_cell_angle_gamma   105.70100000
_symmetry_Int_Tables_number   1
_chemical_formula_structural   Cu3H14C12(N8O3)2
_chemical_formula_sum   'Cu3 H14 C12 N16 O6'
_cell_volume   552.39008995
_cell_formula_units_Z   1
loop_
 _symmetry_equiv_pos_site_id
 _symmetry_equiv_pos_as_xyz
  1  'x, y, z'
loop_
 _atom_site_type_symbol
 _atom_site_label
 _atom_site_symmetry_multiplicity
 _atom_site_fract_x
 _atom_site_fract_y
 _atom_site_fract_z
 _atom_site_occupancy
  Cu  Cu0  1  0.50001000  0.00000000  0.00000000  1.0
  Cu  Cu1  1  0.75978000  0.51994000  0.50211000  1.0
  Cu  Cu2  1  0.24022000  0.48007000  0.49789000  1.0
  H  H3  1  0.85092000  0.82038000  0.00033000  1.0
  H  H4  1  0.14910000  0.17962000  0.99968000  1.0
  H  H5  1  0.66049000  0.94956000  0.44560000  1.0
  H  H6  1  0.33949000  0.05044000  0.55439000  1.0
  H  H7  1  0.15129000  0.70917000  0.26474000  1.0
  H  H8  1  0.84871000  0.29083000  0.73526000  1.0
  H  H9  1  0.11901000  0.70063000  0.09019000  1.0
  H  H10  1  0.88100000  0.29938000  0.90982000  1.0
  H  H11  1  0.89447000  0.56938000  0.11554000  1.0
  H  H12  1  0.10554000  0.43062000  0.88447000  1.0
  H  H13  1  0.90038000  0.77728000  0.46401000  1.0
  H  H14  1  0.09963000  0.22273000  0.53600000  1.0
  H  H15  1  0.79198000  0.80998000  0.59018000  1.0
  H  H16  1  0.20800000  0.19002000  0.40982000  1.0
  C  C17  1  0.80697000  0.84636000  0.09924000  1.0
  C  C18  1  0.19304000  0.15363000  0.90076000  1.0
  C  C19  1  0.61397000  0.96671000  0.24709000  1.0
  C  C20  1  0.38603000  0.03328000  0.75290000  1.0
  C  C21  1  0.88870000  0.79374000  0.19709000  1.0
  C  C22  1  0.11130000  0.20626000  0.80291000  1.0
  C  C23  1  0.45288000  0.05688000  0.26560000  1.0
  C  C24  1  0.54711000  0.94311000  0.73439000  1.0
  C  C25  1  0.70225000  0.91910000  0.34562000  1.0
  C  C26  1  0.29774000  0.08089000  0.65438000  1.0
  C  C27  1  0.02453000  0.68916000  0.16588000  1.0
  C  C28  1  0.97547000  0.31084000  0.83413000  1.0
  N  N29  1  0.66856000  0.92962000  0.12490000  1.0
  N  N30  1  0.33144000  0.07038000  0.87509000  1.0
  N  N31  1  0.83611000  0.83246000  0.32010000  1.0
  N  N32  1  0.16388000  0.16753000  0.67990000  1.0
  N  N33  1  0.94905000  0.46606000  0.36139000  1.0
  N  N34  1  0.05095000  0.53395000  0.63862000  1.0
  N  N35  1  0.56110000  0.54947000  0.63961000  1.0
  N  N36  1  0.43889000  0.45053000  0.36038000  1.0
  N  N37  1  0.87748000  0.36463000  0.24014000  1.0
  N  N38  1  0.12251000  0.63537000  0.75986000  1.0
  N  N39  1  0.57994000  0.51982000  0.74070000  1.0
  N  N40  1  0.42006000  0.48019000  0.25930000  1.0
  N  N41  1  0.81657000  0.27220000  0.12192000  1.0
  N  N42  1  0.18345000  0.72781000  0.87809000  1.0
  N  N43  1  0.59994000  0.49697000  0.84039000  1.0
  N  N44  1  0.40006000  0.50304000  0.15961000  1.0
  O  O45  1  0.36757000  0.07727000  0.15692000  1.0
  O  O46  1  0.63244000  0.92273000  0.84307000  1.0
  O  O47  1  0.40778000  0.10387000  0.38074000  1.0
  O  O48  1  0.59218000  0.89611000  0.61925000  1.0
  O  O49  1  0.90405000  0.76205000  0.55150000  1.0
  O  O50  1  0.09595000  0.23796000  0.44851000  1.0
