# generated using pymatgen
data_NiH13C18N3O7
_symmetry_space_group_name_H-M   'P 1'
_cell_length_a   8.33305000
_cell_length_b   10.23260000
_cell_length_c   11.74330000
_cell_angle_alpha   73.49460000
_cell_angle_beta   69.84170000
_cell_angle_gamma   66.18950000
_symmetry_Int_Tables_number   1
_chemical_formula_structural   NiH13C18N3O7
_chemical_formula_sum   'Ni2 H26 C36 N6 O14'
_cell_volume   847.64970566
_cell_formula_units_Z   2
loop_
 _symmetry_equiv_pos_site_id
 _symmetry_equiv_pos_as_xyz
  1  'x, y, z'
loop_
 _atom_site_type_symbol
 _atom_site_label
 _atom_site_symmetry_multiplicity
 _atom_site_fract_x
 _atom_site_fract_y
 _atom_site_fract_z
 _atom_site_occupancy
  Ni  Ni0  1  0.01130000  0.01636000  0.79438000  1.0
  Ni  Ni1  1  0.98876000  0.98365000  0.20565000  1.0
  H  H2  1  0.81742000  0.98105000  0.01492000  1.0
  H  H3  1  0.18374000  0.01845000  0.98507000  1.0
  H  H4  1  0.85540000  0.12695000  0.98101000  1.0
  H  H5  1  0.14602000  0.87271000  0.01845000  1.0
  H  H6  1  0.08255000  0.52366000  0.75915000  1.0
  H  H7  1  0.91762000  0.47641000  0.24087000  1.0
  H  H8  1  0.26331000  0.58654000  0.03629000  1.0
  H  H9  1  0.73689000  0.41404000  0.96348000  1.0
  H  H10  1  0.35727000  0.15561000  0.99285000  1.0
  H  H11  1  0.64349000  0.84478000  0.00717000  1.0
  H  H12  1  0.37701000  0.79611000  0.71364000  1.0
  H  H13  1  0.62343000  0.20420000  0.28598000  1.0
  H  H14  1  0.49286000  0.91245000  0.31802000  1.0
  H  H15  1  0.50495000  0.08687000  0.68157000  1.0
  H  H16  1  0.67094000  0.27426000  0.83379000  1.0
  H  H17  1  0.33110000  0.72716000  0.16682000  1.0
  H  H18  1  0.19854000  0.11785000  0.34431000  1.0
  H  H19  1  0.79933000  0.88153000  0.65587000  1.0
  H  H20  1  0.58601000  0.74974000  0.50517000  1.0
  H  H21  1  0.41331000  0.25034000  0.49418000  1.0
  H  H22  1  0.67756000  0.50574000  0.46207000  1.0
  H  H23  1  0.32137000  0.49356000  0.53838000  1.0
  H  H24  1  0.95947000  0.30177000  0.38907000  1.0
  H  H25  1  0.03819000  0.69666000  0.61120000  1.0
  H  H26  1  0.52620000  0.48779000  0.69107000  1.0
  H  H27  1  0.47519000  0.51330000  0.30958000  1.0
  C  C28  1  0.16448000  0.57470000  0.89169000  1.0
  C  C29  1  0.83582000  0.42555000  0.10813000  1.0
  C  C30  1  0.15190000  0.48012000  0.83205000  1.0
  C  C31  1  0.84827000  0.52001000  0.16798000  1.0
  C  C32  1  0.19578000  0.23729000  0.79763000  1.0
  C  C33  1  0.80490000  0.76271000  0.20251000  1.0
  C  C34  1  0.96652000  0.18715000  0.57221000  1.0
  C  C35  1  0.03270000  0.81239000  0.42807000  1.0
  C  C36  1  0.22169000  0.32981000  0.86543000  1.0
  C  C37  1  0.77874000  0.67036000  0.13467000  1.0
  C  C38  1  0.25191000  0.51739000  0.98639000  1.0
  C  C39  1  0.74854000  0.48311000  0.01334000  1.0
  C  C40  1  0.30587000  0.27185000  0.96130000  1.0
  C  C41  1  0.69481000  0.72852000  0.03869000  1.0
  C  C42  1  0.31964000  0.36700000  0.01945000  1.0
  C  C43  1  0.68097000  0.63356000  0.98039000  1.0
  C  C44  1  0.13434000  0.06665000  0.54241000  1.0
  C  C45  1  0.86467000  0.93284000  0.45765000  1.0
  C  C46  1  0.34095000  0.86307000  0.62991000  1.0
  C  C47  1  0.65888000  0.13685000  0.36976000  1.0
  C  C48  1  0.40489000  0.92885000  0.40959000  1.0
  C  C49  1  0.59342000  0.07056000  0.59009000  1.0
  C  C50  1  0.73090000  0.28644000  0.73494000  1.0
  C  C51  1  0.27016000  0.71435000  0.26564000  1.0
  C  C52  1  0.24211000  0.04503000  0.42404000  1.0
  C  C53  1  0.75620000  0.95428000  0.57593000  1.0
  C  C54  1  0.45595000  0.83783000  0.51395000  1.0
  C  C55  1  0.54310000  0.16188000  0.48557000  1.0
  C  C56  1  0.73336000  0.41303000  0.52791000  1.0
  C  C57  1  0.26592000  0.58656000  0.47256000  1.0
  C  C58  1  0.89246000  0.30183000  0.48674000  1.0
  C  C59  1  0.10611000  0.69727000  0.51356000  1.0
  C  C60  1  0.65065000  0.40408000  0.65392000  1.0
  C  C61  1  0.34994000  0.59646000  0.34668000  1.0
  C  C62  1  0.07474000  0.73361000  0.85179000  1.0
  C  C63  1  0.92532000  0.26654000  0.14784000  1.0
  N  N64  1  0.18177000  0.97375000  0.64390000  1.0
  N  N65  1  0.81792000  0.02607000  0.35606000  1.0
  N  N66  1  0.88666000  0.18065000  0.69557000  1.0
  N  N67  1  0.11363000  0.81955000  0.30488000  1.0
  N  N68  1  0.39988000  0.30508000  0.12431000  1.0
  N  N69  1  0.60066000  0.69550000  0.87567000  1.0
  O  O70  1  0.18586000  0.11267000  0.85734000  1.0
  O  O71  1  0.81526000  0.88723000  0.14272000  1.0
  O  O72  1  0.18368000  0.28892000  0.68958000  1.0
  O  O73  1  0.81685000  0.71090000  0.31056000  1.0
  O  O74  1  0.40219000  0.39043000  0.18085000  1.0
  O  O75  1  0.59874000  0.60988000  0.81921000  1.0
  O  O76  1  0.46017000  0.17144000  0.15213000  1.0
  O  O77  1  0.53996000  0.82915000  0.84787000  1.0
  O  O78  1  0.82593000  0.06685000  0.94363000  1.0
  O  O79  1  0.17505000  0.93266000  0.05624000  1.0
  O  O80  1  0.96596000  0.77190000  0.78785000  1.0
  O  O81  1  0.03420000  0.22790000  0.21181000  1.0
  O  O82  1  0.11904000  0.82504000  0.88301000  1.0
  O  O83  1  0.88077000  0.17539000  0.11645000  1.0
