# generated using pymatgen
data_AlH15C16O5
_symmetry_space_group_name_H-M   'P 1'
_cell_length_a   6.59598000
_cell_length_b   11.16746575
_cell_length_c   11.18642499
_cell_angle_alpha   86.58476438
_cell_angle_beta   73.10948406
_cell_angle_gamma   73.24942111
_symmetry_Int_Tables_number   1
_chemical_formula_structural   AlH15C16O5
_chemical_formula_sum   'Al2 H30 C32 O10'
_cell_volume   754.73272667
_cell_formula_units_Z   2
loop_
 _symmetry_equiv_pos_site_id
 _symmetry_equiv_pos_as_xyz
  1  'x, y, z'
loop_
 _atom_site_type_symbol
 _atom_site_label
 _atom_site_symmetry_multiplicity
 _atom_site_fract_x
 _atom_site_fract_y
 _atom_site_fract_z
 _atom_site_occupancy
  Al  Al0  1  0.48004000  0.50789000  0.51097000  1.0
  Al  Al1  1  0.98433000  0.50007000  0.50627000  1.0
  H  H2  1  0.18449000  0.64987000  0.44316000  1.0
  H  H3  1  0.67901000  0.46633000  0.66339000  1.0
  H  H4  1  0.77005000  0.72740000  0.81882000  1.0
  H  H5  1  0.44832000  0.57242000  0.23173000  1.0
  H  H6  1  0.86354000  0.77606000  0.62710000  1.0
  H  H7  1  0.66902000  0.23663000  0.61460000  1.0
  H  H8  1  0.32455000  0.22860000  0.09767000  1.0
  H  H9  1  0.28200000  0.34507000  0.21125000  1.0
  H  H10  1  0.46432000  0.34469000  0.05941000  1.0
  H  H11  1  0.51878000  0.33411000  0.84265000  1.0
  H  H12  1  0.34263000  0.30464000  0.76253000  1.0
  H  H13  1  0.37145000  0.22384000  0.89979000  1.0
  H  H14  1  0.20750000  0.90315000  0.95364000  1.0
  H  H15  1  0.46621000  0.90938000  0.84863000  1.0
  H  H16  1  0.38947000  0.96024000  0.00680000  1.0
  H  H17  1  0.09518000  0.85296000  0.18172000  1.0
  H  H18  1  0.09710000  0.70024000  0.23778000  1.0
  H  H19  1  0.05509000  0.74341000  0.08980000  1.0
  H  H20  1  0.25478000  0.10180000  0.26314000  1.0
  H  H21  1  0.13281000  0.23181000  0.36960000  1.0
  H  H22  1  0.03594000  0.09826000  0.39759000  1.0
  H  H23  1  0.16288000  0.87797000  0.38843000  1.0
  H  H24  1  0.43032000  0.76970000  0.33600000  1.0
  H  H25  1  0.36244000  0.90940000  0.25643000  1.0
  H  H26  1  0.21198000  0.90295000  0.73739000  1.0
  H  H27  1  0.12145000  0.76927000  0.73379000  1.0
  H  H28  1  0.98671000  0.88065000  0.85968000  1.0
  H  H29  1  0.87932000  0.13714000  0.85654000  1.0
  H  H30  1  0.90461000  0.24426000  0.73185000  1.0
  H  H31  1  0.12487000  0.10843000  0.73165000  1.0
  C  C32  1  0.62118000  0.73301000  0.50257000  1.0
  C  C33  1  0.85946000  0.47863000  0.28200000  1.0
  C  C34  1  0.35967000  0.27791000  0.50107000  1.0
  C  C35  1  0.09936000  0.52077000  0.73946000  1.0
  C  C36  1  0.03432000  0.50851000  0.87899000  1.0
  C  C37  1  0.83068000  0.58648000  0.95564000  1.0
  C  C38  1  0.16788000  0.41454000  0.93279000  1.0
  C  C39  1  0.70157000  0.69453000  0.91096000  1.0
  C  C40  1  0.49399000  0.76119000  0.98143000  1.0
  C  C41  1  0.91467000  0.47760000  0.14194000  1.0
  C  C42  1  0.12196000  0.41028000  0.06589000  1.0
  C  C43  1  0.75369000  0.55597000  0.08426000  1.0
  C  C44  1  0.52419000  0.60932000  0.14359000  1.0
  C  C45  1  0.39289000  0.70628000  0.09286000  1.0
  C  C46  1  0.56568000  0.87279000  0.49671000  1.0
  C  C47  1  0.66188000  0.93935000  0.55995000  1.0
  C  C48  1  0.42047000  0.93636000  0.43016000  1.0
  C  C49  1  0.81501000  0.87758000  0.62603000  1.0
  C  C50  1  0.90747000  0.94055000  0.68829000  1.0
  C  C51  1  0.43703000  0.13757000  0.49627000  1.0
  C  C52  1  0.34930000  0.07023000  0.43304000  1.0
  C  C53  1  0.60135000  0.07361000  0.55760000  1.0
  C  C54  1  0.70313000  0.13584000  0.62025000  1.0
  C  C55  1  0.84933000  0.07360000  0.68575000  1.0
  C  C56  1  0.30668000  0.32811000  0.11269000  1.0
  C  C57  1  0.35947000  0.31494000  0.85523000  1.0
  C  C58  1  0.38273000  0.88921000  0.94454000  1.0
  C  C59  1  0.14809000  0.75326000  0.15428000  1.0
  C  C60  1  0.18491000  0.13020000  0.36256000  1.0
  C  C61  1  0.34047000  0.86877000  0.34959000  1.0
  C  C62  1  0.06504000  0.86936000  0.75800000  1.0
  C  C63  1  0.94405000  0.14499000  0.75462000  1.0
  O  O64  1  0.46245000  0.68330000  0.52760000  1.0
  O  O65  1  0.01203000  0.46224000  0.33591000  1.0
  O  O66  1  0.15279000  0.33240000  0.52379000  1.0
  O  O67  1  0.30208000  0.51253000  0.68440000  1.0
  O  O68  1  0.50456000  0.33635000  0.48461000  1.0
  O  O69  1  0.95067000  0.53501000  0.68353000  1.0
  O  O70  1  0.82441000  0.67150000  0.48193000  1.0
  O  O71  1  0.65664000  0.50196000  0.34331000  1.0
  O  O72  1  0.23013000  0.56028000  0.45535000  1.0
  O  O73  1  0.72344000  0.45654000  0.57285000  1.0
