# generated using pymatgen
data_CuH8C10N4ClO4
_symmetry_space_group_name_H-M   'P 1'
_cell_length_a   4.76306000
_cell_length_b   5.07888000
_cell_length_c   26.43730000
_cell_angle_alpha   90.02420000
_cell_angle_beta   90.00310000
_cell_angle_gamma   90.78140000
_symmetry_Int_Tables_number   1
_chemical_formula_structural   CuH8C10N4ClO4
_chemical_formula_sum   'Cu2 H16 C20 N8 Cl2 O8'
_cell_volume   639.48545985
_cell_formula_units_Z   2
loop_
 _symmetry_equiv_pos_site_id
 _symmetry_equiv_pos_as_xyz
  1  'x, y, z'
loop_
 _atom_site_type_symbol
 _atom_site_label
 _atom_site_symmetry_multiplicity
 _atom_site_fract_x
 _atom_site_fract_y
 _atom_site_fract_z
 _atom_site_occupancy
  Cu  Cu0  1  0.56231000  0.18142000  0.49921000  1.0
  Cu  Cu1  1  0.93716000  0.81853000  0.99917000  1.0
  H  H2  1  0.78926000  0.33005000  0.59888000  1.0
  H  H3  1  0.22435000  0.31538000  0.40403000  1.0
  H  H4  1  0.27510000  0.68450000  0.90404000  1.0
  H  H5  1  0.71022000  0.66994000  0.09886000  1.0
  H  H6  1  0.13708000  0.61330000  0.63709000  1.0
  H  H7  1  0.84904000  0.60283000  0.35859000  1.0
  H  H8  1  0.65166000  0.39776000  0.85861000  1.0
  H  H9  1  0.36311000  0.38635000  0.13710000  1.0
  H  H10  1  0.18601000  0.79044000  0.54803000  1.0
  H  H11  1  0.80582000  0.75353000  0.44892000  1.0
  H  H12  1  0.69373000  0.24657000  0.94888000  1.0
  H  H13  1  0.31309000  0.20962000  0.04799000  1.0
  H  H14  1  0.80765000  0.17234000  0.77361000  1.0
  H  H15  1  0.20020000  0.18941000  0.22829000  1.0
  H  H16  1  0.30043000  0.81030000  0.72833000  1.0
  H  H17  1  0.69312000  0.82771000  0.27362000  1.0
  C  C18  1  0.63744000  0.17459000  0.60770000  1.0
  C  C19  1  0.36846000  0.15947000  0.39378000  1.0
  C  C20  1  0.13122000  0.84051000  0.89379000  1.0
  C  C21  1  0.86220000  0.82538000  0.10769000  1.0
  C  C22  1  0.59961000  0.08236000  0.65700000  1.0
  C  C23  1  0.39959000  0.07732000  0.34372000  1.0
  C  C24  1  0.10056000  0.92279000  0.84375000  1.0
  C  C25  1  0.90041000  0.91751000  0.15699000  1.0
  C  C26  1  0.27809000  0.77823000  0.62832000  1.0
  C  C27  1  0.71255000  0.76502000  0.36896000  1.0
  C  C28  1  0.78775000  0.23531000  0.86896000  1.0
  C  C29  1  0.22186000  0.22162000  0.12831000  1.0
  C  C30  1  0.30698000  0.87489000  0.57924000  1.0
  C  C31  1  0.68829000  0.84849000  0.41870000  1.0
  C  C32  1  0.81151000  0.15168000  0.91869000  1.0
  C  C33  1  0.19244000  0.12511000  0.07921000  1.0
  C  C34  1  0.77169000  0.20341000  0.69907000  1.0
  C  C35  1  0.23115000  0.20552000  0.30254000  1.0
  C  C36  1  0.26928000  0.79459000  0.80258000  1.0
  C  C37  1  0.72867000  0.79650000  0.19908000  1.0
  N  N38  1  0.48993000  0.07271000  0.56877000  1.0
  N  N39  1  0.51739000  0.04915000  0.43161000  1.0
  N  N40  1  0.98205000  0.95087000  0.93161000  1.0
  N  N41  1  0.00940000  0.92732000  0.06874000  1.0
  N  N42  1  0.42169000  0.88188000  0.66728000  1.0
  N  N43  1  0.57168000  0.87998000  0.33118000  1.0
  N  N44  1  0.92883000  0.12031000  0.83121000  1.0
  N  N45  1  0.07856000  0.11787000  0.16728000  1.0
  Cl  Cl46  1  0.98912000  0.40648000  0.50236000  1.0
  Cl  Cl47  1  0.51011000  0.59345000  0.00229000  1.0
  O  O48  1  0.98528000  0.33346000  0.68944000  1.0
  O  O49  1  0.01901000  0.33099000  0.31243000  1.0
  O  O50  1  0.48154000  0.66938000  0.81251000  1.0
  O  O51  1  0.51515000  0.66623000  0.18946000  1.0
  O  O52  1  0.66893000  0.14752000  0.74387000  1.0
  O  O53  1  0.33614000  0.16016000  0.25737000  1.0
  O  O54  1  0.16441000  0.83955000  0.75740000  1.0
  O  O55  1  0.83168000  0.85242000  0.24386000  1.0
