# generated using pymatgen
data_LiH26C15N2
_symmetry_space_group_name_H-M   'P 1'
_cell_length_a   8.25842000
_cell_length_b   8.94189000
_cell_length_c   10.87110000
_cell_angle_alpha   75.14580000
_cell_angle_beta   88.54160000
_cell_angle_gamma   73.54200000
_symmetry_Int_Tables_number   1
_chemical_formula_structural   LiH26C15N2
_chemical_formula_sum   'Li2 H52 C30 N4'
_cell_volume   743.20067899
_cell_formula_units_Z   2
loop_
 _symmetry_equiv_pos_site_id
 _symmetry_equiv_pos_as_xyz
  1  'x, y, z'
loop_
 _atom_site_type_symbol
 _atom_site_label
 _atom_site_symmetry_multiplicity
 _atom_site_fract_x
 _atom_site_fract_y
 _atom_site_fract_z
 _atom_site_occupancy
  Li  Li0  1  0.36301000  0.00088000  0.46088000  1.0
  Li  Li1  1  0.63700000  0.99911000  0.53912000  1.0
  H  H2  1  0.61193000  0.83197000  0.38844000  1.0
  H  H3  1  0.38808000  0.16803000  0.61156000  1.0
  H  H4  1  0.85457000  0.93759000  0.00536000  1.0
  H  H5  1  0.14542000  0.06241000  0.99463000  1.0
  H  H6  1  0.80461000  0.23447000  0.94313000  1.0
  H  H7  1  0.19538000  0.76554000  0.05687000  1.0
  H  H8  1  0.62355000  0.40023000  0.07403000  1.0
  H  H9  1  0.37645000  0.59978000  0.92597000  1.0
  H  H10  1  0.62507000  0.73177000  0.25453000  1.0
  H  H11  1  0.37493000  0.26824000  0.74547000  1.0
  H  H12  1  0.65730000  0.74501000  0.02391000  1.0
  H  H13  1  0.34270000  0.25499000  0.97609000  1.0
  H  H14  1  0.76551000  0.55283000  0.12490000  1.0
  H  H15  1  0.23449000  0.44717000  0.87509000  1.0
  H  H16  1  0.88179000  0.68594000  0.04874000  1.0
  H  H17  1  0.11821000  0.31406000  0.95126000  1.0
  H  H18  1  0.01009000  0.66758000  0.26728000  1.0
  H  H19  1  0.98992000  0.33242000  0.73271000  1.0
  H  H20  1  0.89677000  0.52947000  0.34153000  1.0
  H  H21  1  0.10323000  0.47053000  0.65846000  1.0
  H  H22  1  0.87836000  0.70634000  0.39374000  1.0
  H  H23  1  0.12165000  0.29365000  0.60626000  1.0
  H  H24  1  0.40751000  0.23071000  0.35653000  1.0
  H  H25  1  0.59249000  0.76929000  0.64346000  1.0
  H  H26  1  0.43612000  0.54422000  0.17224000  1.0
  H  H27  1  0.56386000  0.45579000  0.82777000  1.0
  H  H28  1  0.28349000  0.52063000  0.28724000  1.0
  H  H29  1  0.71650000  0.47937000  0.71276000  1.0
  H  H30  1  0.28722000  0.44232000  0.15216000  1.0
  H  H31  1  0.71276000  0.55768000  0.84785000  1.0
  H  H32  1  0.69092000  0.22387000  0.44793000  1.0
  H  H33  1  0.30907000  0.77613000  0.55207000  1.0
  H  H34  1  0.52295000  0.39387000  0.46173000  1.0
  H  H35  1  0.47703000  0.60613000  0.53827000  1.0
  H  H36  1  0.67205000  0.41369000  0.34175000  1.0
  H  H37  1  0.32794000  0.58632000  0.65826000  1.0
  H  H38  1  0.18016000  0.22357000  0.22950000  1.0
  H  H39  1  0.81984000  0.77643000  0.77050000  1.0
  H  H40  1  0.05584000  0.26806000  0.35831000  1.0
  H  H41  1  0.94417000  0.73192000  0.64169000  1.0
  H  H42  1  0.96641000  0.21441000  0.23318000  1.0
  H  H43  1  0.03359000  0.78558000  0.76683000  1.0
  H  H44  1  0.25131000  0.79371000  0.32198000  1.0
  H  H45  1  0.74869000  0.20629000  0.67802000  1.0
  H  H46  1  0.29504000  0.96072000  0.21164000  1.0
  H  H47  1  0.70496000  0.03927000  0.78836000  1.0
  H  H48  1  0.08942000  0.93147000  0.20816000  1.0
  H  H49  1  0.91058000  0.06852000  0.79185000  1.0
  H  H50  1  0.05781000  0.83350000  0.47229000  1.0
  H  H51  1  0.94221000  0.16649000  0.52771000  1.0
  H  H52  1  0.89505000  0.99930000  0.38430000  1.0
  H  H53  1  0.10497000  0.00069000  0.61571000  1.0
  C  C54  1  0.62835000  0.02490000  0.26059000  1.0
  C  C55  1  0.37165000  0.97510000  0.73941000  1.0
  C  C56  1  0.71767000  0.93270000  0.17665000  1.0
  C  C57  1  0.28233000  0.06731000  0.82335000  1.0
  C  C58  1  0.78135000  0.00954000  0.06592000  1.0
  C  C59  1  0.21864000  0.99047000  0.93408000  1.0
  C  C60  1  0.75329000  0.17680000  0.02981000  1.0
  C  C61  1  0.24671000  0.82321000  0.97019000  1.0
  C  C62  1  0.65382000  0.26889000  0.10500000  1.0
  C  C63  1  0.34618000  0.73111000  0.89500000  1.0
  C  C64  1  0.59077000  0.19737000  0.21836000  1.0
  C  C65  1  0.40922000  0.80264000  0.78163000  1.0
  C  C66  1  0.74224000  0.75163000  0.21052000  1.0
  C  C67  1  0.25776000  0.24838000  0.78947000  1.0
  C  C68  1  0.76272000  0.68075000  0.09497000  1.0
  C  C69  1  0.23728000  0.31926000  0.90503000  1.0
  C  C70  1  0.88985000  0.65836000  0.30944000  1.0
  C  C71  1  0.11016000  0.34164000  0.69055000  1.0
  C  C72  1  0.48656000  0.30080000  0.29953000  1.0
  C  C73  1  0.51343000  0.69920000  0.70048000  1.0
  C  C74  1  0.36699000  0.46053000  0.22309000  1.0
  C  C75  1  0.63300000  0.53946000  0.77691000  1.0
  C  C76  1  0.59861000  0.33447000  0.39366000  1.0
  C  C77  1  0.40138000  0.66553000  0.60634000  1.0
  C  C78  1  0.08260000  0.19069000  0.29218000  1.0
  C  C79  1  0.91741000  0.80930000  0.70782000  1.0
  C  C80  1  0.19762000  0.92110000  0.27065000  1.0
  C  C81  1  0.80238000  0.07889000  0.72936000  1.0
  C  C82  1  0.01462000  0.96612000  0.44178000  1.0
  C  C83  1  0.98540000  0.03387000  0.55822000  1.0
  N  N84  1  0.57930000  0.95396000  0.37804000  1.0
  N  N85  1  0.42071000  0.04604000  0.62196000  1.0
  N  N86  1  0.14586000  0.01929000  0.36266000  1.0
  N  N87  1  0.85415000  0.98070000  0.63734000  1.0
