# generated using pymatgen
data_CdH24C22N6O5
_symmetry_space_group_name_H-M   'P 1'
_cell_length_a   8.21916000
_cell_length_b   10.45060000
_cell_length_c   29.25160000
_cell_angle_alpha   94.48620000
_cell_angle_beta   90.00000000
_cell_angle_gamma   89.99960000
_symmetry_Int_Tables_number   1
_chemical_formula_structural   CdH24C22N6O5
_chemical_formula_sum   'Cd4 H96 C88 N24 O20'
_cell_volume   2504.87266324
_cell_formula_units_Z   4
loop_
 _symmetry_equiv_pos_site_id
 _symmetry_equiv_pos_as_xyz
  1  'x, y, z'
loop_
 _atom_site_type_symbol
 _atom_site_label
 _atom_site_symmetry_multiplicity
 _atom_site_fract_x
 _atom_site_fract_y
 _atom_site_fract_z
 _atom_site_occupancy
  Cd  Cd0  1  0.64186000  0.43874000  0.24162000  1.0
  Cd  Cd1  1  0.14186000  0.06125000  0.25839000  1.0
  Cd  Cd2  1  0.35815000  0.56126000  0.75839000  1.0
  Cd  Cd3  1  0.85814000  0.93873000  0.74162000  1.0
  H  H4  1  0.77268000  0.65819000  0.68308000  1.0
  H  H5  1  0.27267000  0.84181000  0.81692000  1.0
  H  H6  1  0.22732000  0.34181000  0.31692000  1.0
  H  H7  1  0.72732000  0.15819000  0.18308000  1.0
  H  H8  1  0.12636000  0.71755000  0.52122000  1.0
  H  H9  1  0.62635000  0.78247000  0.97878000  1.0
  H  H10  1  0.87364000  0.28246000  0.47878000  1.0
  H  H11  1  0.37363000  0.21753000  0.02122000  1.0
  H  H12  1  0.47622000  0.75794000  0.41307000  1.0
  H  H13  1  0.97623000  0.74206000  0.08693000  1.0
  H  H14  1  0.52377000  0.24206000  0.58693000  1.0
  H  H15  1  0.02376000  0.25794000  0.91307000  1.0
  H  H16  1  0.82961000  0.73207000  0.28689000  1.0
  H  H17  1  0.32960000  0.76794000  0.21312000  1.0
  H  H18  1  0.17042000  0.26793000  0.71311000  1.0
  H  H19  1  0.67041000  0.23207000  0.78689000  1.0
  H  H20  1  0.32850000  0.75644000  0.56485000  1.0
  H  H21  1  0.82850000  0.74356000  0.93516000  1.0
  H  H22  1  0.67150000  0.24356000  0.43515000  1.0
  H  H23  1  0.17148000  0.25643000  0.06484000  1.0
  H  H24  1  0.82451000  0.54845000  0.49685000  1.0
  H  H25  1  0.32451000  0.95154000  0.00315000  1.0
  H  H26  1  0.17549000  0.45155000  0.50314000  1.0
  H  H27  1  0.67547000  0.04846000  0.99685000  1.0
  H  H28  1  0.90635000  0.76643000  0.46871000  1.0
  H  H29  1  0.40634000  0.73359000  0.03129000  1.0
  H  H30  1  0.09365000  0.23358000  0.53129000  1.0
  H  H31  1  0.59364000  0.26641000  0.96871000  1.0
  H  H32  1  0.10893000  0.92075000  0.63518000  1.0
  H  H33  1  0.60894000  0.57925000  0.86482000  1.0
  H  H34  1  0.89108000  0.07925000  0.36482000  1.0
  H  H35  1  0.39107000  0.42076000  0.13519000  1.0
  H  H36  1  0.61054000  0.61880000  0.44644000  1.0
  H  H37  1  0.11054000  0.88122000  0.05356000  1.0
  H  H38  1  0.38945000  0.38121000  0.55355000  1.0
  H  H39  1  0.88944000  0.11879000  0.94645000  1.0
  H  H40  1  0.82801000  0.86302000  0.39688000  1.0
  H  H41  1  0.32801000  0.63698000  0.10312000  1.0
  H  H42  1  0.17199000  0.13699000  0.60311000  1.0
  H  H43  1  0.67198000  0.36301000  0.89689000  1.0
  H  H44  1  0.96611000  0.86278000  0.34967000  1.0
  H  H45  1  0.46610000  0.63722000  0.15033000  1.0
  H  H46  1  0.03391000  0.13723000  0.65033000  1.0
  H  H47  1  0.53390000  0.36277000  0.84967000  1.0
  H  H48  1  0.71294000  0.40932000  0.35855000  1.0
  H  H49  1  0.21292000  0.09067000  0.14145000  1.0
  H  H50  1  0.28711000  0.59067000  0.64145000  1.0
  H  H51  1  0.78708000  0.90932000  0.85855000  1.0
  H  H52  1  0.25404000  0.80710000  0.36063000  1.0
  H  H53  1  0.75405000  0.69289000  0.13937000  1.0
  H  H54  1  0.74595000  0.19291000  0.63938000  1.0
  H  H55  1  0.24595000  0.30710000  0.86062000  1.0
  H  H56  1  0.77970000  0.49506000  0.61350000  1.0
  H  H57  1  0.27969000  0.00494000  0.88650000  1.0
  H  H58  1  0.22031000  0.50494000  0.38649000  1.0
  H  H59  1  0.72028000  0.99506000  0.11350000  1.0
  H  H60  1  0.92816000  0.51327000  0.57071000  1.0
  H  H61  1  0.42815000  0.98673000  0.92929000  1.0
  H  H62  1  0.07184000  0.48674000  0.42929000  1.0
  H  H63  1  0.57183000  0.01328000  0.07070000  1.0
  H  H64  1  0.54516000  0.68547000  0.61530000  1.0
  H  H65  1  0.04516000  0.81453000  0.88471000  1.0
  H  H66  1  0.45483000  0.31453000  0.38470000  1.0
  H  H67  1  0.95483000  0.18546000  0.11530000  1.0
  H  H68  1  0.09557000  0.62172000  0.24921000  1.0
  H  H69  1  0.59556000  0.87828000  0.25079000  1.0
  H  H70  1  0.90444000  0.37828000  0.75079000  1.0
  H  H71  1  0.40443000  0.12172000  0.74921000  1.0
  H  H72  1  0.20674000  0.71164000  0.29185000  1.0
  H  H73  1  0.70674000  0.78837000  0.20815000  1.0
  H  H74  1  0.79326000  0.28837000  0.70815000  1.0
  H  H75  1  0.29323000  0.21164000  0.79185000  1.0
  H  H76  1  0.11750000  0.56038000  0.30388000  1.0
  H  H77  1  0.61749000  0.93963000  0.19612000  1.0
  H  H78  1  0.88250000  0.43962000  0.69612000  1.0
  H  H79  1  0.38249000  0.06038000  0.80389000  1.0
  H  H80  1  0.17398000  0.48143000  0.16895000  1.0
  H  H81  1  0.67398000  0.01856000  0.33105000  1.0
  H  H82  1  0.82603000  0.51856000  0.83105000  1.0
  H  H83  1  0.32603000  0.98144000  0.66895000  1.0
  H  H84  1  0.06583000  0.62108000  0.15346000  1.0
  H  H85  1  0.56584000  0.87892000  0.34654000  1.0
  H  H86  1  0.93417000  0.37892000  0.84654000  1.0
  H  H87  1  0.43417000  0.12107000  0.65346000  1.0
  H  H88  1  0.03430000  0.46938000  0.12239000  1.0
  H  H89  1  0.53430000  0.03061000  0.37761000  1.0
  H  H90  1  0.96570000  0.53061000  0.87761000  1.0
  H  H91  1  0.46570000  0.96938000  0.62239000  1.0
  H  H92  1  0.76331000  0.19467000  0.26258000  1.0
  H  H93  1  0.26332000  0.30533000  0.23742000  1.0
  H  H94  1  0.23668000  0.80534000  0.73742000  1.0
  H  H95  1  0.73668000  0.69467000  0.76258000  1.0
  H  H96  1  0.58816000  0.20355000  0.28581000  1.0
  H  H97  1  0.08818000  0.29645000  0.21419000  1.0
  H  H98  1  0.41184000  0.79645000  0.71419000  1.0
  H  H99  1  0.91183000  0.70354000  0.78581000  1.0
  C  C100  1  0.85890000  0.70817000  0.66228000  1.0
  C  C101  1  0.35890000  0.79183000  0.83772000  1.0
  C  C102  1  0.14110000  0.29182000  0.33772000  1.0
  C  C103  1  0.64110000  0.20817000  0.16228000  1.0
  C  C104  1  0.15680000  0.73605000  0.48604000  1.0
  C  C105  1  0.65680000  0.76397000  0.01397000  1.0
  C  C106  1  0.84320000  0.26396000  0.51396000  1.0
  C  C107  1  0.34319000  0.23604000  0.98603000  1.0
  C  C108  1  0.45248000  0.69473000  0.50155000  1.0
  C  C109  1  0.95248000  0.80527000  0.99845000  1.0
  C  C110  1  0.54752000  0.30527000  0.49844000  1.0
  C  C111  1  0.04750000  0.19472000  0.00155000  1.0
  C  C112  1  0.35092000  0.75708000  0.42536000  1.0
  C  C113  1  0.85092000  0.74293000  0.07464000  1.0
  C  C114  1  0.64909000  0.24294000  0.57464000  1.0
  C  C115  1  0.14908000  0.25706000  0.92536000  1.0
  C  C116  1  0.80893000  0.66506000  0.31310000  1.0
  C  C117  1  0.30891000  0.83494000  0.18690000  1.0
  C  C118  1  0.19110000  0.33494000  0.68690000  1.0
  C  C119  1  0.69109000  0.16506000  0.81310000  1.0
  C  C120  1  0.43762000  0.71168000  0.54961000  1.0
  C  C121  1  0.93760000  0.78832000  0.95039000  1.0
  C  C122  1  0.56239000  0.28832000  0.45038000  1.0
  C  C123  1  0.06237000  0.21167000  0.04961000  1.0
  C  C124  1  0.71671000  0.59579000  0.51194000  1.0
  C  C125  1  0.21670000  0.90422000  0.98806000  1.0
  C  C126  1  0.28330000  0.40421000  0.48805000  1.0
  C  C127  1  0.78328000  0.09579000  0.01194000  1.0
  C  C128  1  0.92104000  0.48613000  0.18848000  1.0
  C  C129  1  0.42104000  0.01386000  0.31152000  1.0
  C  C130  1  0.07897000  0.51386000  0.81153000  1.0
  C  C131  1  0.57897000  0.98613000  0.68847000  1.0
  C  C132  1  0.31959000  0.73059000  0.47095000  1.0
  C  C133  1  0.81959000  0.76942000  0.02905000  1.0
  C  C134  1  0.68041000  0.26942000  0.52905000  1.0
  C  C135  1  0.18040000  0.23057000  0.97095000  1.0
  C  C136  1  0.06373000  0.78542000  0.41058000  1.0
  C  C137  1  0.56373000  0.71458000  0.08942000  1.0
  C  C138  1  0.93628000  0.21460000  0.58942000  1.0
  C  C139  1  0.43626000  0.28541000  0.91058000  1.0
  C  C140  1  0.03152000  0.76369000  0.45632000  1.0
  C  C141  1  0.53153000  0.73633000  0.04369000  1.0
  C  C142  1  0.96847000  0.23632000  0.54368000  1.0
  C  C143  1  0.46846000  0.26368000  0.95632000  1.0
  C  C144  1  0.02860000  0.83913000  0.63692000  1.0
  C  C145  1  0.52861000  0.66087000  0.86308000  1.0
  C  C146  1  0.97140000  0.16087000  0.36308000  1.0
  C  C147  1  0.47139000  0.33914000  0.13692000  1.0
  C  C148  1  0.59513000  0.63693000  0.48336000  1.0
  C  C149  1  0.09512000  0.86309000  0.01664000  1.0
  C  C150  1  0.40488000  0.36307000  0.51664000  1.0
  C  C151  1  0.90486000  0.13693000  0.98336000  1.0
  C  C152  1  0.92592000  0.80900000  0.37840000  1.0
  C  C153  1  0.42592000  0.69100000  0.12160000  1.0
  C  C154  1  0.07409000  0.19101000  0.62160000  1.0
  C  C155  1  0.57408000  0.30899000  0.87840000  1.0
  C  C156  1  0.75280000  0.50417000  0.35092000  1.0
  C  C157  1  0.25278000  0.99583000  0.14908000  1.0
  C  C158  1  0.24725000  0.49583000  0.64908000  1.0
  C  C159  1  0.74722000  0.00417000  0.85092000  1.0
  C  C160  1  0.69986000  0.61071000  0.55953000  1.0
  C  C161  1  0.19984000  0.88929000  0.94046000  1.0
  C  C162  1  0.30016000  0.38930000  0.44046000  1.0
  C  C163  1  0.80013000  0.11071000  0.05954000  1.0
  C  C164  1  0.22548000  0.78396000  0.39550000  1.0
  C  C165  1  0.72549000  0.71605000  0.10450000  1.0
  C  C166  1  0.77451000  0.21606000  0.60450000  1.0
  C  C167  1  0.27451000  0.28394000  0.89550000  1.0
  C  C168  1  0.33399000  0.54720000  0.26164000  1.0
  C  C169  1  0.83399000  0.95280000  0.23835000  1.0
  C  C170  1  0.66602000  0.45280000  0.73836000  1.0
  C  C171  1  0.16601000  0.04721000  0.76164000  1.0
  C  C172  1  0.83007000  0.56275000  0.59029000  1.0
  C  C173  1  0.33005000  0.93725000  0.90971000  1.0
  C  C174  1  0.16994000  0.43726000  0.40970000  1.0
  C  C175  1  0.66992000  0.06275000  0.09029000  1.0
  C  C176  1  0.55931000  0.67047000  0.57810000  1.0
  C  C177  1  0.05929000  0.82954000  0.92190000  1.0
  C  C178  1  0.44071000  0.32955000  0.42190000  1.0
  C  C179  1  0.94069000  0.17046000  0.07810000  1.0
  C  C180  1  0.17915000  0.61335000  0.27810000  1.0
  C  C181  1  0.67914000  0.88665000  0.22189000  1.0
  C  C182  1  0.82085000  0.38665000  0.72189000  1.0
  C  C183  1  0.32085000  0.11335000  0.77811000  1.0
  C  C184  1  0.05816000  0.51748000  0.15655000  1.0
  C  C185  1  0.55816000  0.98252000  0.34345000  1.0
  C  C186  1  0.94185000  0.48252000  0.84345000  1.0
  C  C187  1  0.44185000  0.01747000  0.65655000  1.0
  N  N188  1  0.85411000  0.68978000  0.35715000  1.0
  N  N189  1  0.35410000  0.81021000  0.14285000  1.0
  N  N190  1  0.14591000  0.31022000  0.64284000  1.0
  N  N191  1  0.64589000  0.18977000  0.85716000  1.0
  N  N192  1  0.90213000  0.66767000  0.61930000  1.0
  N  N193  1  0.40211000  0.83232000  0.88070000  1.0
  N  N194  1  0.09788000  0.33232000  0.38070000  1.0
  N  N195  1  0.59787000  0.16768000  0.11930000  1.0
  N  N196  1  0.74418000  0.54745000  0.30813000  1.0
  N  N197  1  0.24416000  0.95254000  0.19187000  1.0
  N  N198  1  0.25586000  0.45254000  0.69187000  1.0
  N  N199  1  0.75584000  0.04745000  0.80813000  1.0
  N  N200  1  0.93809000  0.81720000  0.67459000  1.0
  N  N201  1  0.43808000  0.68280000  0.82541000  1.0
  N  N202  1  0.06192000  0.18279000  0.32541000  1.0
  N  N203  1  0.56192000  0.31720000  0.17459000  1.0
  N  N204  1  0.01033000  0.75050000  0.60220000  1.0
  N  N205  1  0.51033000  0.74950000  0.89780000  1.0
  N  N206  1  0.98967000  0.24950000  0.39780000  1.0
  N  N207  1  0.48966000  0.25050000  0.10220000  1.0
  N  N208  1  0.81834000  0.58830000  0.38203000  1.0
  N  N209  1  0.31833000  0.91169000  0.11797000  1.0
  N  N210  1  0.18169000  0.41170000  0.61797000  1.0
  N  N211  1  0.68167000  0.08829000  0.88203000  1.0
  O  O212  1  0.69041000  0.25396000  0.28069000  1.0
  O  O213  1  0.19042000  0.24604000  0.21931000  1.0
  O  O214  1  0.30959000  0.74604000  0.71931000  1.0
  O  O215  1  0.80959000  0.75396000  0.78069000  1.0
  O  O216  1  0.42900000  0.60420000  0.23559000  1.0
  O  O217  1  0.92898000  0.89580000  0.26441000  1.0
  O  O218  1  0.57102000  0.39580000  0.76441000  1.0
  O  O219  1  0.07101000  0.10419000  0.73559000  1.0
  O  O220  1  0.36698000  0.43516000  0.27451000  1.0
  O  O221  1  0.86696000  0.06484000  0.22549000  1.0
  O  O222  1  0.63303000  0.56484000  0.72549000  1.0
  O  O223  1  0.13302000  0.93516000  0.77451000  1.0
  O  O224  1  0.92399000  0.37924000  0.20689000  1.0
  O  O225  1  0.42398000  0.12075000  0.29311000  1.0
  O  O226  1  0.07602000  0.62075000  0.79311000  1.0
  O  O227  1  0.57603000  0.87924000  0.70689000  1.0
  O  O228  1  0.80543000  0.56632000  0.19551000  1.0
  O  O229  1  0.30544000  0.93367000  0.30449000  1.0
  O  O230  1  0.19458000  0.43367000  0.80449000  1.0
  O  O231  1  0.69457000  0.06632000  0.69551000  1.0
