# generated using pymatgen
data_Al6H69C84S3NO37
_symmetry_space_group_name_H-M   'P 1'
_cell_length_a   13.17370000
_cell_length_b   13.27248413
_cell_length_c   28.22910000
_cell_angle_alpha   89.90422145
_cell_angle_beta   89.97810000
_cell_angle_gamma   119.34630732
_symmetry_Int_Tables_number   1
_chemical_formula_structural   Al6H69C84S3NO37
_chemical_formula_sum   'Al6 H69 C84 S3 N1 O37'
_cell_volume   4302.39044574
_cell_formula_units_Z   1
loop_
 _symmetry_equiv_pos_site_id
 _symmetry_equiv_pos_as_xyz
  1  'x, y, z'
loop_
 _atom_site_type_symbol
 _atom_site_label
 _atom_site_symmetry_multiplicity
 _atom_site_fract_x
 _atom_site_fract_y
 _atom_site_fract_z
 _atom_site_occupancy
  Al  Al0  1  0.58539000  0.16882000  0.50279000  1.0
  Al  Al1  1  0.58012000  0.92419000  0.49906000  1.0
  Al  Al2  1  0.35076000  0.92258000  0.50009000  1.0
  Al  Al3  1  0.07738000  0.16144000  0.00131000  1.0
  Al  Al4  1  0.31772000  0.40208000  0.99973000  1.0
  Al  Al5  1  0.09445000  0.41113000  0.99746000  1.0
  H  H6  1  0.57342000  0.80610000  0.79404000  1.0
  H  H7  1  0.14463000  0.01577000  0.71569000  1.0
  H  H8  1  0.12964000  0.08415000  0.79045000  1.0
  H  H9  1  0.20790000  0.23005000  0.77220000  1.0
  H  H10  1  0.50436000  0.27506000  0.70380000  1.0
  H  H11  1  0.39782000  0.31817000  0.70346000  1.0
  H  H12  1  0.50544000  0.26630000  0.78728000  1.0
  H  H13  1  0.43916000  0.06493000  0.72667000  1.0
  H  H14  1  0.39766000  0.05351000  0.80812000  1.0
  H  H15  1  0.43094000  0.34650000  0.78522000  1.0
  H  H16  1  0.73938000  0.26322000  0.79545000  1.0
  H  H17  1  0.72100000  0.24130000  0.71309000  1.0
  H  H18  1  0.96931000  0.18201000  0.70347000  1.0
  H  H19  1  0.92780000  0.28970000  0.69730000  1.0
  H  H20  1  0.95277000  0.32715000  0.77835000  1.0
  H  H21  1  0.00389000  0.22725000  0.78300000  1.0
  H  H22  1  0.67225000  0.93775000  0.72862000  1.0
  H  H23  1  0.81830000  0.97591000  0.71856000  1.0
  H  H24  1  0.71348000  0.97172000  0.81035000  1.0
  H  H25  1  0.61118000  0.09749000  0.72178000  1.0
  H  H26  1  0.64046000  0.11492000  0.80421000  1.0
  H  H27  1  0.48515000  0.93076000  0.74345000  1.0
  H  H28  1  0.86136000  0.01626000  0.79898000  1.0
  H  H29  1  0.17906000  0.67327000  0.20343000  1.0
  H  H30  1  0.17869000  0.68364000  0.28645000  1.0
  H  H31  1  0.35331000  0.53216000  0.30079000  1.0
  H  H32  1  0.21155000  0.51388000  0.30807000  1.0
  H  H33  1  0.17503000  0.48935000  0.22641000  1.0
  H  H34  1  0.30061000  0.47407000  0.22260000  1.0
  H  H35  1  0.50304000  0.84864000  0.27514000  1.0
  H  H36  1  0.52674000  0.73282000  0.29052000  1.0
  H  H37  1  0.49646000  0.79830000  0.19581000  1.0
  H  H38  1  0.27352000  0.81518000  0.79536000  1.0
  H  H39  1  0.29905000  0.82419000  0.28112000  1.0
  H  H40  1  0.31376000  0.80195000  0.19941000  1.0
  H  H41  1  0.51922000  0.25920000  0.20513000  1.0
  H  H42  1  0.52750000  0.21788000  0.28532000  1.0
  H  H43  1  0.27048000  0.26210000  0.30494000  1.0
  H  H44  1  0.42352000  0.33359000  0.29856000  1.0
  H  H45  1  0.40054000  0.35978000  0.21852000  1.0
  H  H46  1  0.24716000  0.27563000  0.22339000  1.0
  H  H47  1  0.22479000  0.96396000  0.28193000  1.0
  H  H48  1  0.18233000  0.63699000  0.72543000  1.0
  H  H49  1  0.15305000  0.04498000  0.29055000  1.0
  H  H50  1  0.22679000  0.99028000  0.19965000  1.0
  H  H51  1  0.44529000  0.06783000  0.27443000  1.0
  H  H52  1  0.44965000  0.10928000  0.19341000  1.0
  H  H53  1  0.14517000  0.06161000  0.20806000  1.0
  H  H54  1  0.74752000  0.02058000  0.19426000  1.0
  H  H55  1  0.71839000  0.98416000  0.27555000  1.0
  H  H56  1  0.00685000  0.23937000  0.30406000  1.0
  H  H57  1  0.93307000  0.08825000  0.29562000  1.0
  H  H58  1  0.96245000  0.11299000  0.21358000  1.0
  H  H59  1  0.04535000  0.26352000  0.22260000  1.0
  H  H60  1  0.74434000  0.27638000  0.28984000  1.0
  H  H61  1  0.89359000  0.34951000  0.30424000  1.0
  H  H62  1  0.79465000  0.32140000  0.20992000  1.0
  H  H63  1  0.63853000  0.05932000  0.27656000  1.0
  H  H64  1  0.67699000  0.10463000  0.19604000  1.0
  H  H65  1  0.94390000  0.38468000  0.22382000  1.0
  H  H66  1  0.24531000  0.97615000  0.79837000  1.0
  H  H67  1  0.29212000  0.95695000  0.71933000  1.0
  H  H68  1  0.63404000  0.61900000  0.76569000  1.0
  H  H69  1  0.71383000  0.79321000  0.18643000  1.0
  H  H70  1  0.16574000  0.48882000  0.84685000  1.0
  H  H71  1  0.15288000  0.14548000  0.65484000  1.0
  H  H72  1  0.19645000  0.25261000  0.69328000  1.0
  H  H73  1  0.68216000  0.36065000  0.47567000  1.0
  H  H74  1  0.97727000  0.97033000  0.97415000  1.0
  C  C75  1  0.70396000  0.08267000  0.56856000  1.0
  C  C76  1  0.39451000  0.76708000  0.61847000  1.0
  C  C77  1  0.31881000  0.60926000  0.76855000  1.0
  C  C78  1  0.36990000  0.70635000  0.80843000  1.0
  C  C79  1  0.26919000  0.67721000  0.74108000  1.0
  C  C80  1  0.38558000  0.74109000  0.71128000  1.0
  C  C81  1  0.31988000  0.77461000  0.77930000  1.0
  C  C82  1  0.43688000  0.83838000  0.75102000  1.0
  C  C83  1  0.35432000  0.67376000  0.85694000  1.0
  C  C84  1  0.39172000  0.75628000  0.66140000  1.0
  C  C85  1  0.34878000  0.04429000  0.73324000  1.0
  C  C86  1  0.40768000  0.79895000  0.56896000  1.0
  C  C87  1  0.20220000  0.10999000  0.71892000  1.0
  C  C88  1  0.20719000  0.14719000  0.77096000  1.0
  C  C89  1  0.30336000  0.20376000  0.88689000  1.0
  C  C90  1  0.32707000  0.13222000  0.70494000  1.0
  C  C91  1  0.32704000  0.05135000  0.78662000  1.0
  C  C92  1  0.31878000  0.16193000  0.79580000  1.0
  C  C93  1  0.42705000  0.26601000  0.77358000  1.0
  C  C94  1  0.42016000  0.25587000  0.71919000  1.0
  C  C95  1  0.31147000  0.18142000  0.84581000  1.0
  C  C96  1  0.33350000  0.11443000  0.65483000  1.0
  C  C97  1  0.37434000  0.08324000  0.56622000  1.0
  C  C98  1  0.34276000  0.10141000  0.61276000  1.0
  C  C99  1  0.70193000  0.15992000  0.73062000  1.0
  C  C100  1  0.91057000  0.21185000  0.71730000  1.0
  C  C101  1  0.93082000  0.23792000  0.77064000  1.0
  C  C102  1  0.89029000  0.21269000  0.88917000  1.0
  C  C103  1  0.78282000  0.11748000  0.70917000  1.0
  C  C104  1  0.71952000  0.17586000  0.78481000  1.0
  C  C105  1  0.82118000  0.15598000  0.79985000  1.0
  C  C106  1  0.78871000  0.02984000  0.78836000  1.0
  C  C107  1  0.76228000  0.00598000  0.73486000  1.0
  C  C108  1  0.71151000  0.09152000  0.43327000  1.0
  C  C109  1  0.85214000  0.18337000  0.84931000  1.0
  C  C110  1  0.76141000  0.09981000  0.65882000  1.0
  C  C111  1  0.74425000  0.09295000  0.61638000  1.0
  C  C112  1  0.26719000  0.73315000  0.27196000  1.0
  C  C113  1  0.29244000  0.55968000  0.28750000  1.0
  C  C114  1  0.26876000  0.53236000  0.23417000  1.0
  C  C115  1  0.29376000  0.58897000  0.11276000  1.0
  C  C116  1  0.34589000  0.69149000  0.29588000  1.0
  C  C117  1  0.26799000  0.71802000  0.21765000  1.0
  C  C118  1  0.32761000  0.64545000  0.20440000  1.0
  C  C119  1  0.39411000  0.78374000  0.43591000  1.0
  C  C120  1  0.45787000  0.72147000  0.21877000  1.0
  C  C121  1  0.46731000  0.75492000  0.27181000  1.0
  C  C122  1  0.31204000  0.61718000  0.15418000  1.0
  C  C123  1  0.35770000  0.71587000  0.34643000  1.0
  C  C124  1  0.36944000  0.73697000  0.38865000  1.0
  C  C125  1  0.44754000  0.15087000  0.26858000  1.0
  C  C126  1  0.34196000  0.26212000  0.28483000  1.0
  C  C127  1  0.32952000  0.27689000  0.23122000  1.0
  C  C128  1  0.31527000  0.21361000  0.11151000  1.0
  C  C129  1  0.34101000  0.14663000  0.29407000  1.0
  C  C130  1  0.38795000  0.08966000  0.43231000  1.0
  C  C131  1  0.44489000  0.17541000  0.21520000  1.0
  C  C132  1  0.33116000  0.17720000  0.20321000  1.0
  C  C133  1  0.22520000  0.06145000  0.21887000  1.0
  C  C134  1  0.22825000  0.04627000  0.27307000  1.0
  C  C135  1  0.32474000  0.19640000  0.15312000  1.0
  C  C136  1  0.34945000  0.12931000  0.34422000  1.0
  C  C137  1  0.36041000  0.11327000  0.38581000  1.0
  C  C138  1  0.72225000  0.06639000  0.26626000  1.0
  C  C139  1  0.93703000  0.16896000  0.28374000  1.0
  C  C140  1  0.96042000  0.18717000  0.22984000  1.0
  C  C141  1  0.43630000  0.67289000  0.74069000  1.0
  C  C142  1  0.91336000  0.23749000  0.11315000  1.0
  C  C143  1  0.82016000  0.16433000  0.29580000  1.0
  C  C144  1  0.74554000  0.09239000  0.21276000  1.0
  C  C145  1  0.86407000  0.20367000  0.20525000  1.0
  C  C146  1  0.85905000  0.30637000  0.22871000  1.0
  C  C147  1  0.82812000  0.28092000  0.28180000  1.0
  C  C148  1  0.88952000  0.22366000  0.15509000  1.0
  C  C149  1  0.79254000  0.14070000  0.34567000  1.0
  C  C150  1  0.76409000  0.11943000  0.38699000  1.0
  C  C151  1  0.27556000  0.23328000  0.93203000  1.0
  C  C152  1  0.48646000  0.77027000  0.77879000  1.0
  C  C153  1  0.29254000  0.55994000  0.93863000  1.0
  C  C154  1  0.95358000  0.24509000  0.93300000  1.0
  C  C155  1  0.28533000  0.23692000  0.06553000  1.0
  C  C156  1  0.27017000  0.53909000  0.06604000  1.0
  C  C157  1  0.96104000  0.25180000  0.06624000  1.0
  C  C158  1  0.33181000  0.63114000  0.89653000  1.0
  S  S159  1  0.51556000  0.61393000  0.71292000  1.0
  S  S160  1  0.54761000  0.65495000  0.20660000  1.0
  S  S161  1  0.23664000  0.46175000  0.78266000  1.0
  N  N162  1  0.15199000  0.16471000  0.68982000  1.0
  O  O163  1  0.47335000  0.15665000  0.55103000  1.0
  O  O164  1  0.49241000  0.80715000  0.45368000  1.0
  O  O165  1  0.31842000  0.80406000  0.45559000  1.0
  O  O166  1  0.31349000  0.99226000  0.45099000  1.0
  O  O167  1  0.50389000  0.00220000  0.50010000  1.0
  O  O168  1  0.97338000  0.17101000  0.95265000  1.0
  O  O169  1  0.17757000  0.16302000  0.94962000  1.0
  O  O170  1  0.35097000  0.33108000  0.95013000  1.0
  O  O171  1  0.36086000  0.52798000  0.95667000  1.0
  O  O172  1  0.18894000  0.52962000  0.95232000  1.0
  O  O173  1  0.98954000  0.34968000  0.94782000  1.0
  O  O174  1  0.67570000  0.15602000  0.55474000  1.0
  O  O175  1  0.98735000  0.17683000  0.05303000  1.0
  O  O176  1  0.18491000  0.16757000  0.05038000  1.0
  O  O177  1  0.36202000  0.32969000  0.04423000  1.0
  O  O178  1  0.34277000  0.51110000  0.04918000  1.0
  O  O179  1  0.17609000  0.52225000  0.04574000  1.0
  O  O180  1  0.97700000  0.34158000  0.04230000  1.0
  O  O181  1  0.16466000  0.32798000  0.99898000  1.0
  O  O182  1  0.69547000  0.99670000  0.54396000  1.0
  O  O183  1  0.50038000  0.81409000  0.54836000  1.0
  O  O184  1  0.32849000  0.81534000  0.55050000  1.0
  O  O185  1  0.30038000  0.98991000  0.54458000  1.0
  O  O186  1  0.48390000  0.16329000  0.44997000  1.0
  O  O187  1  0.69006000  0.16458000  0.45269000  1.0
  O  O188  1  0.68622000  0.99119000  0.44992000  1.0
  O  O189  1  0.43608000  0.51602000  0.68569000  1.0
  O  O190  1  0.61917000  0.70895000  0.69335000  1.0
  O  O191  1  0.55299000  0.56373000  0.75798000  1.0
  O  O192  1  0.52852000  0.57106000  0.24284000  1.0
  O  O193  1  0.54364000  0.62731000  0.15718000  1.0
  O  O194  1  0.67573000  0.76559000  0.21723000  1.0
  O  O195  1  0.17999000  0.39972000  0.74051000  1.0
  O  O196  1  0.30440000  0.42877000  0.81217000  1.0
  O  O197  1  0.13704000  0.46609000  0.81425000  1.0
  O  O198  1  0.65995000  0.31987000  0.50556000  1.0
  O  O199  1  0.99721000  0.01014000  0.00421000  1.0
