# generated using pymatgen
data_NaH15C11S2N2O3
_symmetry_space_group_name_H-M   'P 1'
_cell_length_a   5.36960000
_cell_length_b   9.24310000
_cell_length_c   15.00554406
_cell_angle_alpha   89.41318625
_cell_angle_beta   81.78159672
_cell_angle_gamma   86.15110000
_symmetry_Int_Tables_number   1
_chemical_formula_structural   NaH15C11S2N2O3
_chemical_formula_sum   'Na2 H30 C22 S4 N4 O6'
_cell_volume   735.44042247
_cell_formula_units_Z   2
loop_
 _symmetry_equiv_pos_site_id
 _symmetry_equiv_pos_as_xyz
  1  'x, y, z'
loop_
 _atom_site_type_symbol
 _atom_site_label
 _atom_site_symmetry_multiplicity
 _atom_site_fract_x
 _atom_site_fract_y
 _atom_site_fract_z
 _atom_site_occupancy
  Na  Na0  1  0.60633000  0.54438000  0.69190000  1.0
  Na  Na1  1  0.39365000  0.45562000  0.30811000  1.0
  H  H2  1  0.64724000  0.39555000  0.46494000  1.0
  H  H3  1  0.35271000  0.60443000  0.53507000  1.0
  H  H4  1  0.70050000  0.81995000  0.75025000  1.0
  H  H5  1  0.29952000  0.18007000  0.24975000  1.0
  H  H6  1  0.20502000  0.23869000  0.62286000  1.0
  H  H7  1  0.79497000  0.76131000  0.37714000  1.0
  H  H8  1  0.33706000  0.12825000  0.51409000  1.0
  H  H9  1  0.66291000  0.87175000  0.48593000  1.0
  H  H10  1  0.40741000  0.94964000  0.39009000  1.0
  H  H11  1  0.59260000  0.05035000  0.60992000  1.0
  H  H12  1  0.10449000  0.94569000  0.28016000  1.0
  H  H13  1  0.89556000  0.05432000  0.71983000  1.0
  H  H14  1  0.74900000  0.13663000  0.28602000  1.0
  H  H15  1  0.25104000  0.86337000  0.71397000  1.0
  H  H16  1  0.24578000  0.48225000  0.98675000  1.0
  H  H17  1  0.75421000  0.51776000  0.01325000  1.0
  H  H18  1  0.23893000  0.30358000  0.94212000  1.0
  H  H19  1  0.76105000  0.69643000  0.05788000  1.0
  H  H20  1  0.48754000  0.41495000  0.89846000  1.0
  H  H21  1  0.51244000  0.58505000  0.10154000  1.0
  H  H22  1  0.48617000  0.70112000  0.91615000  1.0
  H  H23  1  0.51385000  0.29890000  0.08385000  1.0
  H  H24  1  0.35491000  0.86831000  0.87815000  1.0
  H  H25  1  0.64513000  0.13172000  0.12185000  1.0
  H  H26  1  0.91169000  0.80949000  0.90411000  1.0
  H  H27  1  0.08835000  0.19051000  0.09588000  1.0
  H  H28  1  0.67732000  0.90715000  0.98103000  1.0
  H  H29  1  0.32275000  0.09285000  0.01897000  1.0
  H  H30  1  0.76917000  0.97851000  0.87199000  1.0
  H  H31  1  0.23090000  0.02150000  0.12801000  1.0
  C  C32  1  0.93046000  0.33258000  0.54975000  1.0
  C  C33  1  0.06952000  0.66741000  0.45026000  1.0
  C  C34  1  0.99875000  0.23310000  0.47271000  1.0
  C  C35  1  0.00122000  0.76689000  0.52729000  1.0
  C  C36  1  0.20589000  0.13024000  0.46495000  1.0
  C  C37  1  0.79407000  0.86977000  0.53507000  1.0
  C  C38  1  0.24722000  0.02928000  0.39579000  1.0
  C  C39  1  0.75278000  0.97071000  0.60422000  1.0
  C  C40  1  0.07942000  0.02898000  0.33218000  1.0
  C  C41  1  0.92057000  0.97103000  0.66781000  1.0
  C  C42  1  0.87886000  0.13321000  0.33562000  1.0
  C  C43  1  0.12116000  0.86678000  0.66438000  1.0
  C  C44  1  0.83897000  0.23684000  0.40475000  1.0
  C  C45  1  0.16100000  0.76314000  0.59525000  1.0
  C  C46  1  0.15258000  0.36777000  0.75666000  1.0
  C  C47  1  0.84739000  0.63223000  0.24334000  1.0
  C  C48  1  0.28674000  0.41494000  0.92581000  1.0
  C  C49  1  0.71325000  0.58506000  0.07419000  1.0
  C  C50  1  0.53013000  0.79767000  0.87516000  1.0
  C  C51  1  0.46991000  0.20235000  0.12484000  1.0
  C  C52  1  0.73458000  0.87771000  0.90990000  1.0
  C  C53  1  0.26548000  0.12229000  0.09009000  1.0
  S  S54  1  0.38039000  0.22993000  0.75238000  1.0
  S  S55  1  0.61959000  0.77007000  0.24762000  1.0
  S  S56  1  0.09068000  0.49329000  0.84787000  1.0
  S  S57  1  0.90931000  0.50671000  0.15212000  1.0
  N  N58  1  0.00743000  0.40377000  0.69422000  1.0
  N  N59  1  0.99253000  0.59624000  0.30579000  1.0
  N  N60  1  0.06154000  0.31788000  0.61922000  1.0
  N  N61  1  0.93842000  0.68212000  0.38078000  1.0
  O  O62  1  0.74456000  0.42737000  0.55188000  1.0
  O  O63  1  0.25539000  0.57261000  0.44812000  1.0
  O  O64  1  0.64391000  0.33760000  0.40665000  1.0
  O  O65  1  0.35607000  0.66238000  0.59336000  1.0
  O  O66  1  0.60572000  0.74556000  0.78455000  1.0
  O  O67  1  0.39430000  0.25445000  0.21545000  1.0
