# generated using pymatgen
data_BiH9C9S2Br3
_symmetry_space_group_name_H-M   'P 1'
_cell_length_a   5.78651000
_cell_length_b   9.25970000
_cell_length_c   14.18930000
_cell_angle_alpha   101.03180000
_cell_angle_beta   96.28950000
_cell_angle_gamma   106.27600000
_symmetry_Int_Tables_number   1
_chemical_formula_structural   BiH9C9S2Br3
_chemical_formula_sum   'Bi2 H18 C18 S4 Br6'
_cell_volume   705.50025531
_cell_formula_units_Z   2
loop_
 _symmetry_equiv_pos_site_id
 _symmetry_equiv_pos_as_xyz
  1  'x, y, z'
loop_
 _atom_site_type_symbol
 _atom_site_label
 _atom_site_symmetry_multiplicity
 _atom_site_fract_x
 _atom_site_fract_y
 _atom_site_fract_z
 _atom_site_occupancy
  Bi  Bi0  1  0.03246000  0.45574000  0.14735000  1.0
  Bi  Bi1  1  0.96749000  0.54425000  0.85266000  1.0
  H  H2  1  0.17557000  0.19320000  0.56383000  1.0
  H  H3  1  0.82448000  0.80679000  0.43617000  1.0
  H  H4  1  0.87953000  0.29590000  0.48426000  1.0
  H  H5  1  0.12052000  0.70411000  0.51574000  1.0
  H  H6  1  0.30866000  0.99069000  0.28239000  1.0
  H  H7  1  0.69132000  0.00930000  0.71760000  1.0
  H  H8  1  0.83876000  0.49889000  0.41415000  1.0
  H  H9  1  0.16124000  0.50112000  0.58586000  1.0
  H  H10  1  0.55293000  0.35684000  0.41693000  1.0
  H  H11  1  0.44710000  0.64317000  0.58309000  1.0
  H  H12  1  0.56624000  0.48095000  0.33386000  1.0
  H  H13  1  0.43375000  0.51905000  0.66616000  1.0
  H  H14  1  0.58807000  0.02459000  0.12698000  1.0
  H  H15  1  0.41190000  0.97543000  0.87302000  1.0
  H  H16  1  0.71657000  0.86780000  0.12571000  1.0
  H  H17  1  0.28337000  0.13221000  0.87430000  1.0
  H  H18  1  0.71719000  0.95660000  0.02468000  1.0
  H  H19  1  0.28275000  0.04340000  0.97533000  1.0
  C  C20  1  0.14228000  0.17348000  0.48464000  1.0
  C  C21  1  0.85776000  0.82653000  0.51535000  1.0
  C  C22  1  0.97757000  0.23329000  0.43953000  1.0
  C  C23  1  0.02247000  0.76670000  0.56048000  1.0
  C  C24  1  0.93497000  0.21124000  0.33793000  1.0
  C  C25  1  0.06505000  0.78876000  0.66207000  1.0
  C  C26  1  0.05885000  0.12470000  0.28119000  1.0
  C  C27  1  0.94114000  0.87530000  0.71881000  1.0
  C  C28  1  0.21845000  0.06025000  0.32649000  1.0
  C  C29  1  0.78155000  0.93975000  0.67350000  1.0
  C  C30  1  0.26483000  0.08505000  0.42911000  1.0
  C  C31  1  0.73519000  0.91493000  0.57088000  1.0
  C  C32  1  0.42992000  0.02433000  0.47696000  1.0
  C  C33  1  0.57011000  0.97567000  0.52302000  1.0
  C  C34  1  0.66700000  0.41786000  0.37120000  1.0
  C  C35  1  0.33302000  0.58214000  0.62882000  1.0
  C  C36  1  0.73178000  0.97709000  0.10417000  1.0
  C  C37  1  0.26818000  0.02291000  0.89583000  1.0
  S  S38  1  0.72854000  0.28275000  0.27611000  1.0
  S  S39  1  0.27147000  0.71725000  0.72390000  1.0
  S  S40  1  0.03620000  0.11074000  0.15361000  1.0
  S  S41  1  0.96376000  0.88925000  0.84638000  1.0
  Br  Br42  1  0.23429000  0.65395000  0.32428000  1.0
  Br  Br43  1  0.76575000  0.34607000  0.67572000  1.0
  Br  Br44  1  0.51179000  0.45548000  0.12005000  1.0
  Br  Br45  1  0.48817000  0.54448000  0.87995000  1.0
  Br  Br46  1  0.11523000  0.72155000  0.06676000  1.0
  Br  Br47  1  0.88473000  0.27845000  0.93325000  1.0
