# generated using pymatgen
data_CuH18C28N4O5
_symmetry_space_group_name_H-M   'P 1'
_cell_length_a   8.78561000
_cell_length_b   10.92400000
_cell_length_c   12.59280000
_cell_angle_alpha   93.15790000
_cell_angle_beta   101.45900000
_cell_angle_gamma   103.74100000
_symmetry_Int_Tables_number   1
_chemical_formula_structural   CuH18C28N4O5
_chemical_formula_sum   'Cu2 H36 C56 N8 O10'
_cell_volume   1143.93086566
_cell_formula_units_Z   2
loop_
 _symmetry_equiv_pos_site_id
 _symmetry_equiv_pos_as_xyz
  1  'x, y, z'
loop_
 _atom_site_type_symbol
 _atom_site_label
 _atom_site_symmetry_multiplicity
 _atom_site_fract_x
 _atom_site_fract_y
 _atom_site_fract_z
 _atom_site_occupancy
  Cu  Cu0  1  0.52014000  0.43444000  0.22985000  1.0
  Cu  Cu1  1  0.47987000  0.56556000  0.77015000  1.0
  H  H2  1  0.14042000  0.60002000  0.63896000  1.0
  H  H3  1  0.85958000  0.39997000  0.36105000  1.0
  H  H4  1  0.41291000  0.21787000  0.36787000  1.0
  H  H5  1  0.58710000  0.78213000  0.63213000  1.0
  H  H6  1  0.27084000  0.20191000  0.52344000  1.0
  H  H7  1  0.72916000  0.79808000  0.47656000  1.0
  H  H8  1  0.17994000  0.38883000  0.58786000  1.0
  H  H9  1  0.82007000  0.61116000  0.41214000  1.0
  H  H10  1  0.99466000  0.68957000  0.72293000  1.0
  H  H11  1  0.00535000  0.31043000  0.27708000  1.0
  H  H12  1  0.89154000  0.81603000  0.84849000  1.0
  H  H13  1  0.10846000  0.18397000  0.15151000  1.0
  H  H14  1  0.91967000  0.21904000  0.94180000  1.0
  H  H15  1  0.08032000  0.78095000  0.05820000  1.0
  H  H16  1  0.94625000  0.23373000  0.80554000  1.0
  H  H17  1  0.05374000  0.76627000  0.19446000  1.0
  H  H18  1  0.11171000  0.22203000  0.91239000  1.0
  H  H19  1  0.88828000  0.77796000  0.08761000  1.0
  H  H20  1  0.09547000  0.15637000  0.71371000  1.0
  H  H21  1  0.90451000  0.84363000  0.28629000  1.0
  H  H22  1  0.19177000  0.02720000  0.58520000  1.0
  H  H23  1  0.80822000  0.97280000  0.41481000  1.0
  H  H24  1  0.35809000  0.91737000  0.30593000  1.0
  H  H25  1  0.64191000  0.08264000  0.69407000  1.0
  H  H26  1  0.50405000  0.89122000  0.15750000  1.0
  H  H27  1  0.49594000  0.10878000  0.84250000  1.0
  H  H28  1  0.57077000  0.68356000  0.12056000  1.0
  H  H29  1  0.42923000  0.31643000  0.87944000  1.0
  H  H30  1  0.73166000  0.15055000  0.12506000  1.0
  H  H31  1  0.26834000  0.84945000  0.87493000  1.0
  H  H32  1  0.22556000  0.03233000  0.98384000  1.0
  H  H33  1  0.77444000  0.96767000  0.01616000  1.0
  H  H34  1  0.72632000  0.53587000  0.95768000  1.0
  H  H35  1  0.27369000  0.46414000  0.04231000  1.0
  H  H36  1  0.11650000  0.46280000  0.18795000  1.0
  H  H37  1  0.88352000  0.53720000  0.81204000  1.0
  C  C38  1  0.37028000  0.29625000  0.39772000  1.0
  C  C39  1  0.62972000  0.70375000  0.60229000  1.0
  C  C40  1  0.29118000  0.28920000  0.48470000  1.0
  C  C41  1  0.70882000  0.71080000  0.51530000  1.0
  C  C42  1  0.23987000  0.39183000  0.51961000  1.0
  C  C43  1  0.76013000  0.60818000  0.48039000  1.0
  C  C44  1  0.26786000  0.50306000  0.46638000  1.0
  C  C45  1  0.73214000  0.49694000  0.53362000  1.0
  C  C46  1  0.22985000  0.61889000  0.49311000  1.0
  C  C47  1  0.77016000  0.38111000  0.50690000  1.0
  C  C48  1  0.16128000  0.77942000  0.56904000  1.0
  C  C49  1  0.83873000  0.22058000  0.43096000  1.0
  C  C50  1  0.10126000  0.85070000  0.64502000  1.0
  C  C51  1  0.89875000  0.14930000  0.35498000  1.0
  C  C52  1  0.01635000  0.79173000  0.72015000  1.0
  C  C53  1  0.98365000  0.20828000  0.27985000  1.0
  C  C54  1  0.95917000  0.86165000  0.79122000  1.0
  C  C55  1  0.04082000  0.13835000  0.20878000  1.0
  C  C56  1  0.98821000  0.99384000  0.79017000  1.0
  C  C57  1  0.01178000  0.00615000  0.20982000  1.0
  C  C58  1  0.98106000  0.19072000  0.88061000  1.0
  C  C59  1  0.01893000  0.80928000  0.11939000  1.0
  C  C60  1  0.07306000  0.05433000  0.71605000  1.0
  C  C61  1  0.92693000  0.94567000  0.28394000  1.0
  C  C62  1  0.12712000  0.98244000  0.64405000  1.0
  C  C63  1  0.87287000  0.01756000  0.35595000  1.0
  C  C64  1  0.26576000  0.72738000  0.43779000  1.0
  C  C65  1  0.73425000  0.27262000  0.56222000  1.0
  C  C66  1  0.34423000  0.72618000  0.34855000  1.0
  C  C67  1  0.65577000  0.27382000  0.65146000  1.0
  C  C68  1  0.38828000  0.82845000  0.28777000  1.0
  C  C69  1  0.61172000  0.17156000  0.71223000  1.0
  C  C70  1  0.46854000  0.81405000  0.20561000  1.0
  C  C71  1  0.53145000  0.18595000  0.79439000  1.0
  C  C72  1  0.50737000  0.69878000  0.18442000  1.0
  C  C73  1  0.49262000  0.30123000  0.81557000  1.0
  C  C74  1  0.38640000  0.61259000  0.32167000  1.0
  C  C75  1  0.61360000  0.38741000  0.67833000  1.0
  C  C76  1  0.34842000  0.50279000  0.37906000  1.0
  C  C77  1  0.65158000  0.49721000  0.62095000  1.0
  C  C78  1  0.45240000  0.21674000  0.11890000  1.0
  C  C79  1  0.54760000  0.78325000  0.88109000  1.0
  C  C80  1  0.47618000  0.10253000  0.06023000  1.0
  C  C81  1  0.52381000  0.89746000  0.93976000  1.0
  C  C82  1  0.63095000  0.08429000  0.07002000  1.0
  C  C83  1  0.36904000  0.91570000  0.92997000  1.0
  C  C84  1  0.34516000  0.01770000  0.99000000  1.0
  C  C85  1  0.65483000  0.98229000  0.01000000  1.0
  C  C86  1  0.81765000  0.49418000  0.16842000  1.0
  C  C87  1  0.18236000  0.50582000  0.83158000  1.0
  C  C88  1  0.91159000  0.49753000  0.08110000  1.0
  C  C89  1  0.08843000  0.50247000  0.91889000  1.0
  C  C90  1  0.84506000  0.51830000  0.97503000  1.0
  C  C91  1  0.15495000  0.48171000  0.02496000  1.0
  C  C92  1  0.06672000  0.47924000  0.10533000  1.0
  C  C93  1  0.93329000  0.52077000  0.89466000  1.0
  N  N94  1  0.39800000  0.40072000  0.34720000  1.0
  N  N95  1  0.60200000  0.59928000  0.65280000  1.0
  N  N96  1  0.46779000  0.60175000  0.24194000  1.0
  N  N97  1  0.53221000  0.39826000  0.75806000  1.0
  N  N98  1  0.16237000  0.65401000  0.57513000  1.0
  N  N99  1  0.83764000  0.34599000  0.42488000  1.0
  N  N100  1  0.22207000  0.82568000  0.48535000  1.0
  N  N101  1  0.77794000  0.17432000  0.51466000  1.0
  O  O102  1  0.34380000  0.26767000  0.07733000  1.0
  O  O103  1  0.65619000  0.73233000  0.92267000  1.0
  O  O104  1  0.55287000  0.26200000  0.21105000  1.0
  O  O105  1  0.44712000  0.73800000  0.78895000  1.0
  O  O106  1  0.66741000  0.48844000  0.13462000  1.0
  O  O107  1  0.33260000  0.51157000  0.86538000  1.0
  O  O108  1  0.88825000  0.49732000  0.26666000  1.0
  O  O109  1  0.11177000  0.50268000  0.73334000  1.0
  O  O110  1  0.92926000  0.05478000  0.86363000  1.0
  O  O111  1  0.07072000  0.94521000  0.13636000  1.0
