# generated using pymatgen
data_ZnH98C86(N2O)6
_symmetry_space_group_name_H-M   'P 1'
_cell_length_a   9.13502000
_cell_length_b   13.28340000
_cell_length_c   19.03320000
_cell_angle_alpha   98.35940000
_cell_angle_beta   93.76310000
_cell_angle_gamma   99.48620000
_symmetry_Int_Tables_number   1
_chemical_formula_structural   ZnH98C86(N2O)6
_chemical_formula_sum   'Zn1 H98 C86 N12 O6'
_cell_volume   2244.26360641
_cell_formula_units_Z   1
loop_
 _symmetry_equiv_pos_site_id
 _symmetry_equiv_pos_as_xyz
  1  'x, y, z'
loop_
 _atom_site_type_symbol
 _atom_site_label
 _atom_site_symmetry_multiplicity
 _atom_site_fract_x
 _atom_site_fract_y
 _atom_site_fract_z
 _atom_site_occupancy
  Zn  Zn0  1  0.50000000  0.00000000  0.50000000  1.0
  H  H1  1  0.78008000  0.90140000  0.46372000  1.0
  H  H2  1  0.21992000  0.09860000  0.53629000  1.0
  H  H3  1  0.01774000  0.88226000  0.52917000  1.0
  H  H4  1  0.98226000  0.11774000  0.47083000  1.0
  H  H5  1  0.06694000  0.95294000  0.66042000  1.0
  H  H6  1  0.93306000  0.04706000  0.33959000  1.0
  H  H7  1  0.64566000  0.05761000  0.64603000  1.0
  H  H8  1  0.35435000  0.94239000  0.35397000  1.0
  H  H9  1  0.64997000  0.96008000  0.75112000  1.0
  H  H10  1  0.35002000  0.03992000  0.24888000  1.0
  H  H11  1  0.09283000  0.12922000  0.74952000  1.0
  H  H12  1  0.90717000  0.87077000  0.25048000  1.0
  H  H13  1  0.60908000  0.05015000  0.93586000  1.0
  H  H14  1  0.39092000  0.94985000  0.06414000  1.0
  H  H15  1  0.78504000  0.93639000  0.97259000  1.0
  H  H16  1  0.21496000  0.06362000  0.02741000  1.0
  H  H17  1  0.70445000  0.83938000  0.89950000  1.0
  H  H18  1  0.29555000  0.16062000  0.10051000  1.0
  H  H19  1  0.59526000  0.87593000  0.96980000  1.0
  H  H20  1  0.40473000  0.12408000  0.03020000  1.0
  H  H21  1  0.39883000  0.91793000  0.88421000  1.0
  H  H22  1  0.60117000  0.08208000  0.11579000  1.0
  H  H23  1  0.49798000  0.87068000  0.81357000  1.0
  H  H24  1  0.50202000  0.12932000  0.18643000  1.0
  H  H25  1  0.44799000  0.99464000  0.81757000  1.0
  H  H26  1  0.55201000  0.00536000  0.18243000  1.0
  H  H27  1  0.13591000  0.20780000  0.94957000  1.0
  H  H28  1  0.86409000  0.79219000  0.05043000  1.0
  H  H29  1  0.28216000  0.08225000  0.89195000  1.0
  H  H30  1  0.71784000  0.91775000  0.10805000  1.0
  H  H31  1  0.38711000  0.20994000  0.90649000  1.0
  H  H32  1  0.61289000  0.79007000  0.09351000  1.0
  H  H33  1  0.30617000  0.15161000  0.81948000  1.0
  H  H34  1  0.69384000  0.84839000  0.18053000  1.0
  H  H35  1  0.05787000  0.34519000  0.88537000  1.0
  H  H36  1  0.94212000  0.65481000  0.11463000  1.0
  H  H37  1  0.17142000  0.31190000  0.81629000  1.0
  H  H38  1  0.82858000  0.68810000  0.18372000  1.0
  H  H39  1  0.25529000  0.36453000  0.90374000  1.0
  H  H40  1  0.74471000  0.63546000  0.09627000  1.0
  H  H41  1  0.75590000  0.24904000  0.90983000  1.0
  H  H42  1  0.24410000  0.75096000  0.09017000  1.0
  H  H43  1  0.81433000  0.34406000  0.98839000  1.0
  H  H44  1  0.18567000  0.65594000  0.01161000  1.0
  H  H45  1  0.64715000  0.25658000  0.98503000  1.0
  H  H46  1  0.35285000  0.74342000  0.01498000  1.0
  H  H47  1  0.97349000  0.07120000  0.08274000  1.0
  H  H48  1  0.02651000  0.92879000  0.91726000  1.0
  H  H49  1  0.98461000  0.08976000  0.21623000  1.0
  H  H50  1  0.01539000  0.91024000  0.78377000  1.0
  H  H51  1  0.86910000  0.23089000  0.28301000  1.0
  H  H52  1  0.13090000  0.76911000  0.71699000  1.0
  H  H53  1  0.62102000  0.49740000  0.20786000  1.0
  H  H54  1  0.37897000  0.50259000  0.79214000  1.0
  H  H55  1  0.59154000  0.39360000  0.13348000  1.0
  H  H56  1  0.40845000  0.60638000  0.86652000  1.0
  H  H57  1  0.76305000  0.47802000  0.14906000  1.0
  H  H58  1  0.23694000  0.52197000  0.85094000  1.0
  H  H59  1  0.72150000  0.69145000  0.42364000  1.0
  H  H60  1  0.27850000  0.30855000  0.57636000  1.0
  H  H61  1  0.31964000  0.46525000  0.39734000  1.0
  H  H62  1  0.68036000  0.53475000  0.60266000  1.0
  H  H63  1  0.90444000  0.55196000  0.28837000  1.0
  H  H64  1  0.09556000  0.44805000  0.71163000  1.0
  H  H65  1  0.95930000  0.43296000  0.37189000  1.0
  H  H66  1  0.04071000  0.56704000  0.62811000  1.0
  H  H67  1  0.98783000  0.53740000  0.44474000  1.0
  H  H68  1  0.01218000  0.46261000  0.55526000  1.0
  H  H69  1  0.11105000  0.53737000  0.37624000  1.0
  H  H70  1  0.88895000  0.46264000  0.62376000  1.0
  H  H71  1  0.07058000  0.70860000  0.34651000  1.0
  H  H72  1  0.92942000  0.29141000  0.65349000  1.0
  H  H73  1  0.96357000  0.72063000  0.42042000  1.0
  H  H74  1  0.03642000  0.27937000  0.57958000  1.0
  H  H75  1  0.88814000  0.73801000  0.33548000  1.0
  H  H76  1  0.11185000  0.26199000  0.66452000  1.0
  H  H77  1  0.49430000  0.26262000  0.29409000  1.0
  H  H78  1  0.50570000  0.73738000  0.70591000  1.0
  H  H79  1  0.26356000  0.18303000  0.33870000  1.0
  H  H80  1  0.73644000  0.81697000  0.66130000  1.0
  H  H81  1  0.23388000  0.30374000  0.38227000  1.0
  H  H82  1  0.76612000  0.69626000  0.61773000  1.0
  H  H83  1  0.38993000  0.25146000  0.41143000  1.0
  H  H84  1  0.61007000  0.74854000  0.58857000  1.0
  H  H85  1  0.37679000  0.35543000  0.20502000  1.0
  H  H86  1  0.62321000  0.64456000  0.79498000  1.0
  H  H87  1  0.22882000  0.36805000  0.25988000  1.0
  H  H88  1  0.77117000  0.63195000  0.74012000  1.0
  H  H89  1  0.25342000  0.24335000  0.21967000  1.0
  H  H90  1  0.74658000  0.75665000  0.78033000  1.0
  H  H91  1  0.30088000  0.54856000  0.51092000  1.0
  H  H92  1  0.69912000  0.45144000  0.48908000  1.0
  H  H93  1  0.19129000  0.68297000  0.58552000  1.0
  H  H94  1  0.80873000  0.31704000  0.41449000  1.0
  H  H95  1  0.27901000  0.86949000  0.57804000  1.0
  H  H96  1  0.72100000  0.13052000  0.42196000  1.0
  H  H97  1  0.54971000  0.79531000  0.41934000  1.0
  H  H98  1  0.45030000  0.20469000  0.58066000  1.0
  C  C99  1  0.80614000  0.93210000  0.52033000  1.0
  C  C100  1  0.19386000  0.06790000  0.47967000  1.0
  C  C101  1  0.93814000  0.92178000  0.55737000  1.0
  C  C102  1  0.06186000  0.07821000  0.44264000  1.0
  C  C103  1  0.96559000  0.96129000  0.62977000  1.0
  C  C104  1  0.03441000  0.03870000  0.37023000  1.0
  C  C105  1  0.85847000  0.00956000  0.66425000  1.0
  C  C106  1  0.14153000  0.99044000  0.33575000  1.0
  C  C107  1  0.73148000  0.01936000  0.62247000  1.0
  C  C108  1  0.26852000  0.98065000  0.37753000  1.0
  C  C109  1  0.86979000  0.04289000  0.74207000  1.0
  C  C110  1  0.13021000  0.95711000  0.25793000  1.0
  C  C111  1  0.74971000  0.00861000  0.78025000  1.0
  C  C112  1  0.25028000  0.99139000  0.21975000  1.0
  C  C113  1  0.75652000  0.03228000  0.85436000  1.0
  C  C114  1  0.24347000  0.96773000  0.14564000  1.0
  C  C115  1  0.88696000  0.09721000  0.89055000  1.0
  C  C116  1  0.11303000  0.90280000  0.10945000  1.0
  C  C117  1  0.00868000  0.13287000  0.85312000  1.0
  C  C118  1  0.99132000  0.86713000  0.14688000  1.0
  C  C119  1  0.99892000  0.10382000  0.77915000  1.0
  C  C120  1  0.00108000  0.89618000  0.22085000  1.0
  C  C121  1  0.63216000  0.98695000  0.89604000  1.0
  C  C122  1  0.36784000  0.01305000  0.10396000  1.0
  C  C123  1  0.68290000  0.90519000  0.93719000  1.0
  C  C124  1  0.31710000  0.09481000  0.06281000  1.0
  C  C125  1  0.48667000  0.94072000  0.85000000  1.0
  C  C126  1  0.51333000  0.05928000  0.15000000  1.0
  C  C127  1  0.14710000  0.20308000  0.89203000  1.0
  C  C128  1  0.85290000  0.79692000  0.10797000  1.0
  C  C129  1  0.28870000  0.15914000  0.87645000  1.0
  C  C130  1  0.71130000  0.84086000  0.12355000  1.0
  C  C131  1  0.15828000  0.31265000  0.87339000  1.0
  C  C132  1  0.84172000  0.68735000  0.12661000  1.0
  C  C133  1  0.84362000  0.19045000  0.00040000  1.0
  C  C134  1  0.15638000  0.80954000  0.99960000  1.0
  C  C135  1  0.76068000  0.26386000  0.96812000  1.0
  C  C136  1  0.23932000  0.73613000  0.03188000  1.0
  C  C137  1  0.85972000  0.20086000  0.07962000  1.0
  C  C138  1  0.14028000  0.79914000  0.92038000  1.0
  C  C139  1  0.92820000  0.13205000  0.11419000  1.0
  C  C140  1  0.07180000  0.86795000  0.88581000  1.0
  C  C141  1  0.93390000  0.14306000  0.18822000  1.0
  C  C142  1  0.06610000  0.85694000  0.81177000  1.0
  C  C143  1  0.87101000  0.22102000  0.22531000  1.0
  C  C144  1  0.12899000  0.77898000  0.77469000  1.0
  C  C145  1  0.80543000  0.28680000  0.18658000  1.0
  C  C146  1  0.19457000  0.71320000  0.81342000  1.0
  C  C147  1  0.73170000  0.36984000  0.22225000  1.0
  C  C148  1  0.26830000  0.63016000  0.77775000  1.0
  C  C149  1  0.67253000  0.43945000  0.17616000  1.0
  C  C150  1  0.32747000  0.56055000  0.82384000  1.0
  C  C151  1  0.65111000  0.44798000  0.32909000  1.0
  C  C152  1  0.34889000  0.55203000  0.67091000  1.0
  C  C153  1  0.73296000  0.54708000  0.35893000  1.0
  C  C154  1  0.26705000  0.45292000  0.64106000  1.0
  C  C155  1  0.66069000  0.61470000  0.40126000  1.0
  C  C156  1  0.33931000  0.38530000  0.59874000  1.0
  C  C157  1  0.51178000  0.58689000  0.41566000  1.0
  C  C158  1  0.48822000  0.41311000  0.58433000  1.0
  C  C159  1  0.43559000  0.48768000  0.38703000  1.0
  C  C160  1  0.56441000  0.51232000  0.61297000  1.0
  C  C161  1  0.50189000  0.41748000  0.34374000  1.0
  C  C162  1  0.49810000  0.58252000  0.65626000  1.0
  C  C163  1  0.89591000  0.57646000  0.34569000  1.0
  C  C164  1  0.10409000  0.42354000  0.65431000  1.0
  C  C165  1  0.99402000  0.51694000  0.38702000  1.0
  C  C166  1  0.00599000  0.48307000  0.61298000  1.0
  C  C167  1  0.95695000  0.69257000  0.36277000  1.0
  C  C168  1  0.04304000  0.30743000  0.63723000  1.0
  C  C169  1  0.41349000  0.31220000  0.31113000  1.0
  C  C170  1  0.58651000  0.68780000  0.68887000  1.0
  C  C171  1  0.32053000  0.26010000  0.36420000  1.0
  C  C172  1  0.67947000  0.73990000  0.63580000  1.0
  C  C173  1  0.31289000  0.32022000  0.24485000  1.0
  C  C174  1  0.68711000  0.67977000  0.75515000  1.0
  C  C175  1  0.43732000  0.66060000  0.45930000  1.0
  C  C176  1  0.56268000  0.33941000  0.54070000  1.0
  C  C177  1  0.33107000  0.62986000  0.50561000  1.0
  C  C178  1  0.66894000  0.37015000  0.49439000  1.0
  C  C179  1  0.26961000  0.70439000  0.54727000  1.0
  C  C180  1  0.73040000  0.29561000  0.45273000  1.0
  C  C181  1  0.31646000  0.80822000  0.54315000  1.0
  C  C182  1  0.68355000  0.19178000  0.45685000  1.0
  C  C183  1  0.47287000  0.76678000  0.45646000  1.0
  C  C184  1  0.52714000  0.23322000  0.54354000  1.0
  N  N185  1  0.70530000  0.98158000  0.55257000  1.0
  N  N186  1  0.29470000  0.01842000  0.44743000  1.0
  N  N187  1  0.90071000  0.11878000  0.96521000  1.0
  N  N188  1  0.09929000  0.88122000  0.03479000  1.0
  N  N189  1  0.80080000  0.27720000  0.11520000  1.0
  N  N190  1  0.19919000  0.72279000  0.88480000  1.0
  N  N191  1  0.72152000  0.37532000  0.28969000  1.0
  N  N192  1  0.27848000  0.62468000  0.71032000  1.0
  N  N193  1  0.41593000  0.83872000  0.49788000  1.0
  N  N194  1  0.58407000  0.16128000  0.50212000  1.0
  N  N195  1  0.33134000  0.05606000  0.65778000  1.0
  N  N196  1  0.66866000  0.94395000  0.34222000  1.0
  O  O197  1  0.41600000  0.03389000  0.60818000  1.0
  O  O198  1  0.58401000  0.96611000  0.39182000  1.0
  O  O199  1  0.30160000  0.99357000  0.70059000  1.0
  O  O200  1  0.69840000  0.00643000  0.29941000  1.0
  O  O201  1  0.28040000  0.13912000  0.66142000  1.0
  O  O202  1  0.71960000  0.86088000  0.33858000  1.0
