# generated using pymatgen
data_Zn4H24C30O13
_symmetry_space_group_name_H-M   'P 1'
_cell_length_a   10.83630000
_cell_length_b   10.87230000
_cell_length_c   15.57010000
_cell_angle_alpha   71.66190000
_cell_angle_beta   86.66340000
_cell_angle_gamma   83.90260000
_symmetry_Int_Tables_number   1
_chemical_formula_structural   Zn4H24C30O13
_chemical_formula_sum   'Zn4 H24 C30 O13'
_cell_volume   1730.79436220
_cell_formula_units_Z   1
loop_
 _symmetry_equiv_pos_site_id
 _symmetry_equiv_pos_as_xyz
  1  'x, y, z'
loop_
 _atom_site_type_symbol
 _atom_site_label
 _atom_site_symmetry_multiplicity
 _atom_site_fract_x
 _atom_site_fract_y
 _atom_site_fract_z
 _atom_site_occupancy
  Zn  Zn0  1  0.59836000  0.55692000  0.58021000  1.0
  Zn  Zn1  1  0.61593000  0.41312000  0.42787000  1.0
  Zn  Zn2  1  0.41058000  0.64454000  0.41642000  1.0
  Zn  Zn3  1  0.39207000  0.37579000  0.58077000  1.0
  H  H4  1  0.52411000  0.82614000  0.13949000  1.0
  H  H5  1  0.74559000  0.10232000  0.62243000  1.0
  H  H6  1  0.62423000  0.06236000  0.70551000  1.0
  H  H7  1  0.76533000  0.96059000  0.71753000  1.0
  H  H8  1  0.60631000  0.85489000  0.66404000  1.0
  H  H9  1  0.72206000  0.89827000  0.58103000  1.0
  H  H10  1  0.68934000  0.87661000  0.88000000  1.0
  H  H11  1  0.67516000  0.04024000  0.88219000  1.0
  H  H12  1  0.72571000  0.91016000  0.97945000  1.0
  H  H13  1  0.46393000  0.96035000  0.90008000  1.0
  H  H14  1  0.50337000  0.98949000  0.99954000  1.0
  H  H15  1  0.01683000  0.56812000  0.37755000  1.0
  H  H16  1  0.46462000  0.11146000  0.17315000  1.0
  H  H17  1  0.54203000  0.23659000  0.19074000  1.0
  H  H18  1  0.41897000  0.17013000  0.26574000  1.0
  H  H19  1  0.33317000  0.38309000  0.16036000  1.0
  H  H20  1  0.26797000  0.25379000  0.14054000  1.0
  H  H21  1  0.00692000  0.41270000  0.58113000  1.0
  H  H22  1  0.49585000  0.82038000  0.83376000  1.0
  H  H23  1  0.50472000  0.42668000  0.16373000  1.0
  H  H24  1  0.37317000  0.21580000  0.86172000  1.0
  H  H25  1  0.32874000  0.16824000  0.02646000  1.0
  H  H26  1  0.47996000  0.65258000  0.76365000  1.0
  H  H27  1  0.41108000  0.02843000  0.45421000  1.0
  C  C28  1  0.52875000  0.15695000  0.53178000  1.0
  C  C29  1  0.49698000  0.52683000  0.12042000  1.0
  C  C30  1  0.51348000  0.75313000  0.10655000  1.0
  C  C31  1  0.48871000  0.82788000  0.50026000  1.0
  C  C32  1  0.43431000  0.40306000  0.84538000  1.0
  C  C33  1  0.47983000  0.96385000  0.49987000  1.0
  C  C34  1  0.54898000  0.01252000  0.54869000  1.0
  C  C35  1  0.04847000  0.51471000  0.44552000  1.0
  C  C36  1  0.97080000  0.45893000  0.51340000  1.0
  C  C37  1  0.83402000  0.46820000  0.50632000  1.0
  C  C38  1  0.18167000  0.51488000  0.46344000  1.0
  C  C39  1  0.36862000  0.25843000  0.98862000  1.0
  C  C40  1  0.52623000  0.58528000  0.25932000  1.0
  C  C41  1  0.45850000  0.42408000  0.74669000  1.0
  C  C42  1  0.50728000  0.78780000  0.01333000  1.0
  C  C43  1  0.51318000  0.62203000  0.15984000  1.0
  C  C44  1  0.39119000  0.28519000  0.89592000  1.0
  C  C45  1  0.64636000  0.94020000  0.61659000  1.0
  C  C46  1  0.69800000  0.02140000  0.66815000  1.0
  C  C47  1  0.52720000  0.92566000  0.95732000  1.0
  C  C48  1  0.66220000  0.93929000  0.92251000  1.0
  C  C49  1  0.35510000  0.29982000  0.13487000  1.0
  C  C50  1  0.39253000  0.34353000  0.03531000  1.0
  C  C51  1  0.45082000  0.19932000  0.19450000  1.0
  C  C52  1  0.44195000  0.46367000  0.98590000  1.0
  C  C53  1  0.45448000  0.49646000  0.88899000  1.0
  C  C54  1  0.47406000  0.55918000  0.02740000  1.0
  C  C55  1  0.48826000  0.69076000  0.97254000  1.0
  C  C56  1  0.48626000  0.72093000  0.87654000  1.0
  C  C57  1  0.47597000  0.62718000  0.83697000  1.0
  O  O58  1  0.50355000  0.49508000  0.50171000  1.0
  O  O59  1  0.56626000  0.46739000  0.30137000  1.0
  O  O60  1  0.39116000  0.36762000  0.70841000  1.0
  O  O61  1  0.49533000  0.67390000  0.29661000  1.0
  O  O62  1  0.54660000  0.49272000  0.70801000  1.0
  O  O63  1  0.77405000  0.49398000  0.57266000  1.0
  O  O64  1  0.22325000  0.43371000  0.53678000  1.0
  O  O65  1  0.60689000  0.22297000  0.47710000  1.0
  O  O66  1  0.41042000  0.80207000  0.45097000  1.0
  O  O67  1  0.43799000  0.19802000  0.57402000  1.0
  O  O68  1  0.57237000  0.74695000  0.54782000  1.0
  O  O69  1  0.78872000  0.45051000  0.43784000  1.0
  O  O70  1  0.24221000  0.59843000  0.40408000  1.0
