# generated using pymatgen
data_CuH28C30S2(N4O3)2
_symmetry_space_group_name_H-M   'P 1'
_cell_length_a   7.30995000
_cell_length_b   9.75894000
_cell_length_c   12.76350000
_cell_angle_alpha   100.21500000
_cell_angle_beta   105.76400000
_cell_angle_gamma   109.71400000
_symmetry_Int_Tables_number   1
_chemical_formula_structural   CuH28C30S2(N4O3)2
_chemical_formula_sum   'Cu1 H28 C30 S2 N8 O6'
_cell_volume   787.71302294
_cell_formula_units_Z   1
loop_
 _symmetry_equiv_pos_site_id
 _symmetry_equiv_pos_as_xyz
  1  'x, y, z'
loop_
 _atom_site_type_symbol
 _atom_site_label
 _atom_site_symmetry_multiplicity
 _atom_site_fract_x
 _atom_site_fract_y
 _atom_site_fract_z
 _atom_site_occupancy
  Cu  Cu0  1  0.00001000  0.99999000  0.00000000  1.0
  H  H1  1  0.41223000  0.08538000  0.98369000  1.0
  H  H2  1  0.58778000  0.91459000  0.01631000  1.0
  H  H3  1  0.82413000  0.97030000  0.75270000  1.0
  H  H4  1  0.17588000  0.02969000  0.24731000  1.0
  H  H5  1  0.96338000  0.03287000  0.60129000  1.0
  H  H6  1  0.03663000  0.96714000  0.39871000  1.0
  H  H7  1  0.35276000  0.12943000  0.64647000  1.0
  H  H8  1  0.64724000  0.87058000  0.35353000  1.0
  H  H9  1  0.66426000  0.32623000  0.77984000  1.0
  H  H10  1  0.33575000  0.67377000  0.22017000  1.0
  H  H11  1  0.03417000  0.28049000  0.90757000  1.0
  H  H12  1  0.96583000  0.71951000  0.09244000  1.0
  H  H13  1  0.02740000  0.36545000  0.79492000  1.0
  H  H14  1  0.97260000  0.63455000  0.20508000  1.0
  H  H15  1  0.78960000  0.43976000  0.01751000  1.0
  H  H16  1  0.21040000  0.56023000  0.98250000  1.0
  H  H17  1  0.01661000  0.41925000  0.09254000  1.0
  H  H18  1  0.98340000  0.58075000  0.90747000  1.0
  H  H19  1  0.58611000  0.20244000  0.26681000  1.0
  H  H20  1  0.41388000  0.79756000  0.73319000  1.0
  H  H21  1  0.87538000  0.30105000  0.19518000  1.0
  H  H22  1  0.12461000  0.69895000  0.80482000  1.0
  H  H23  1  0.24327000  0.41181000  0.32824000  1.0
  H  H24  1  0.75672000  0.58820000  0.67175000  1.0
  H  H25  1  0.32287000  0.42465000  0.53450000  1.0
  H  H26  1  0.67712000  0.57538000  0.46550000  1.0
  H  H27  1  0.03341000  0.33192000  0.60585000  1.0
  H  H28  1  0.96659000  0.66811000  0.39416000  1.0
  C  C29  1  0.33956000  0.32584000  0.14136000  1.0
  C  C30  1  0.66044000  0.67412000  0.85863000  1.0
  C  C31  1  0.41133000  0.11268000  0.81850000  1.0
  C  C32  1  0.58868000  0.88732000  0.18150000  1.0
  C  C33  1  0.31955000  0.07666000  0.89816000  1.0
  C  C34  1  0.68046000  0.92331000  0.10183000  1.0
  C  C35  1  0.99003000  0.01270000  0.76854000  1.0
  C  C36  1  0.00998000  0.98729000  0.23146000  1.0
  C  C37  1  0.07046000  0.04846000  0.68500000  1.0
  C  C38  1  0.92955000  0.95154000  0.31500000  1.0
  C  C39  1  0.28464000  0.10118000  0.71018000  1.0
  C  C40  1  0.71537000  0.89883000  0.28982000  1.0
  C  C41  1  0.64158000  0.15970000  0.85659000  1.0
  C  C42  1  0.35843000  0.84031000  0.14341000  1.0
  C  C43  1  0.97087000  0.35167000  0.86545000  1.0
  C  C44  1  0.02913000  0.64833000  0.13455000  1.0
  C  C45  1  0.03918000  0.50656000  0.95062000  1.0
  C  C46  1  0.96083000  0.49344000  0.04939000  1.0
  C  C47  1  0.79701000  0.26115000  0.43931000  1.0
  C  C48  1  0.20298000  0.73887000  0.56069000  1.0
  C  C49  1  0.74784000  0.25126000  0.32384000  1.0
  C  C50  1  0.25216000  0.74875000  0.67617000  1.0
  C  C51  1  0.91046000  0.30710000  0.28486000  1.0
  C  C52  1  0.08954000  0.69290000  0.71514000  1.0
  C  C53  1  0.11704000  0.36870000  0.35980000  1.0
  C  C54  1  0.88295000  0.63131000  0.64020000  1.0
  C  C55  1  0.16245000  0.37650000  0.47513000  1.0
  C  C56  1  0.83754000  0.62352000  0.52488000  1.0
  C  C57  1  0.00204000  0.32422000  0.51621000  1.0
  C  C58  1  0.99796000  0.67580000  0.48380000  1.0
  S  S59  1  0.52129000  0.49589000  0.20403000  1.0
  S  S60  1  0.47869000  0.50408000  0.79596000  1.0
  N  N61  1  0.20663000  0.20085000  0.09748000  1.0
  N  N62  1  0.79336000  0.79912000  0.90251000  1.0
  N  N63  1  0.11435000  0.03029000  0.87375000  1.0
  N  N64  1  0.88566000  0.96968000  0.12625000  1.0
  N  N65  1  0.74554000  0.27145000  0.81982000  1.0
  N  N66  1  0.25446000  0.72855000  0.18018000  1.0
  N  N67  1  0.62767000  0.20523000  0.48161000  1.0
  N  N68  1  0.37232000  0.79478000  0.51839000  1.0
  O  O69  1  0.72368000  0.09659000  0.92043000  1.0
  O  O70  1  0.27633000  0.90341000  0.07957000  1.0
  O  O71  1  0.66472000  0.25453000  0.58524000  1.0
  O  O72  1  0.33525000  0.74548000  0.41475000  1.0
  O  O73  1  0.45432000  0.11114000  0.41221000  1.0
  O  O74  1  0.54568000  0.88886000  0.58779000  1.0
