# generated using pymatgen
data_Zn4H2C24S4Cl4O13F2
_symmetry_space_group_name_H-M   'P 1'
_cell_length_a   19.65850000
_cell_length_b   19.79230000
_cell_length_c   33.35290000
_cell_angle_alpha   78.78270000
_cell_angle_beta   79.17720000
_cell_angle_gamma   63.95520000
_symmetry_Int_Tables_number   1
_chemical_formula_structural   Zn4H2C24S4Cl4O13F2
_chemical_formula_sum   'Zn16 H8 C96 S16 Cl16 O52 F8'
_cell_volume   11359.22042811
_cell_formula_units_Z   4
loop_
 _symmetry_equiv_pos_site_id
 _symmetry_equiv_pos_as_xyz
  1  'x, y, z'
loop_
 _atom_site_type_symbol
 _atom_site_label
 _atom_site_symmetry_multiplicity
 _atom_site_fract_x
 _atom_site_fract_y
 _atom_site_fract_z
 _atom_site_occupancy
  Zn  Zn0  1  0.05560000  0.40101000  0.47813000  1.0
  Zn  Zn1  1  0.98537000  0.48365000  0.56020000  1.0
  Zn  Zn2  1  0.05858000  0.56150000  0.48214000  1.0
  Zn  Zn3  1  0.89991000  0.55476000  0.47944000  1.0
  Zn  Zn4  1  0.69381000  0.34900000  0.27188000  1.0
  Zn  Zn5  1  0.69073000  0.18861000  0.26636000  1.0
  Zn  Zn6  1  0.76905000  0.26624000  0.18969000  1.0
  Zn  Zn7  1  0.84779000  0.19556000  0.27197000  1.0
  Zn  Zn8  1  0.26485000  0.76603000  0.68995000  1.0
  Zn  Zn9  1  0.34937000  0.69712000  0.77146000  1.0
  Zn  Zn10  1  0.19221000  0.84930000  0.77121000  1.0
  Zn  Zn11  1  0.19129000  0.68832000  0.76786000  1.0
  Zn  Zn12  1  0.55877000  0.06188000  0.98368000  1.0
  Zn  Zn13  1  0.40249000  0.05269000  0.97715000  1.0
  Zn  Zn14  1  0.55760000  0.90051000  0.97910000  1.0
  Zn  Zn15  1  0.48133000  0.98371000  0.06028000  1.0
  H  H16  1  0.74854000  0.45134000  0.34962000  1.0
  H  H17  1  0.00088000  0.29971000  0.40019000  1.0
  H  H18  1  0.20086000  0.70041000  0.59970000  1.0
  H  H19  1  0.04930000  0.54984000  0.65012000  1.0
  H  H20  1  0.64991000  0.15079000  0.04921000  1.0
  H  H21  1  0.60052000  0.09914000  0.20073000  1.0
  H  H22  1  0.30013000  0.99977000  0.89985000  1.0
  H  H23  1  0.45055000  0.74969000  0.84972000  1.0
  C  C24  1  0.06173000  0.31689000  0.56197000  1.0
  C  C25  1  0.07012000  0.57050000  0.56806000  1.0
  C  C26  1  0.18338000  0.43985000  0.43839000  1.0
  C  C27  1  0.93609000  0.68394000  0.43852000  1.0
  C  C28  1  0.92947000  0.43182000  0.43113000  1.0
  C  C29  1  0.81731000  0.56070000  0.56287000  1.0
  C  C30  1  0.56622000  0.30941000  0.31119000  1.0
  C  C31  1  0.68284000  0.18072000  0.18004000  1.0
  C  C32  1  0.68985000  0.43305000  0.18831000  1.0
  C  C33  1  0.93542000  0.18803000  0.18959000  1.0
  C  C34  1  0.81956000  0.31876000  0.31919000  1.0
  C  C35  1  0.81204000  0.06600000  0.31128000  1.0
  C  C36  1  0.43274000  0.68967000  0.68800000  1.0
  C  C37  1  0.31728000  0.82139000  0.81877000  1.0
  C  C38  1  0.18822000  0.93282000  0.68758000  1.0
  C  C39  1  0.06551000  0.80953000  0.81124000  1.0
  C  C40  1  0.18005000  0.67959000  0.68181000  1.0
  C  C41  1  0.31465000  0.56652000  0.81165000  1.0
  C  C42  1  0.43691000  0.18365000  0.93843000  1.0
  C  C43  1  0.43342000  0.92816000  0.93076000  1.0
  C  C44  1  0.68389000  0.94148000  0.93918000  1.0
  C  C45  1  0.56087000  0.81682000  0.06246000  1.0
  C  C46  1  0.56758000  0.06925000  0.06990000  1.0
  C  C47  1  0.31497000  0.06133000  0.05991000  1.0
  C  C48  1  0.89995000  0.40453000  0.40224000  1.0
  C  C49  1  0.84938000  0.34652000  0.34768000  1.0
  C  C50  1  0.82868000  0.44608000  0.38720000  1.0
  C  C51  1  0.92080000  0.30508000  0.36257000  1.0
  C  C52  1  0.80401000  0.41788000  0.36065000  1.0
  C  C53  1  0.94541000  0.33325000  0.38916000  1.0
  C  C54  1  0.09906000  0.59936000  0.59640000  1.0
  C  C55  1  0.15105000  0.65089000  0.65342000  1.0
  C  C56  1  0.14218000  0.64226000  0.58314000  1.0
  C  C57  1  0.10790000  0.60803000  0.66666667  1.0
  C  C58  1  0.16754000  0.66738000  0.61086000  1.0
  C  C59  1  0.08257000  0.58289000  0.63895000  1.0
  C  C60  1  0.30516000  0.45390000  0.40042000  1.0
  C  C61  1  0.44449000  0.29520000  0.34931000  1.0
  C  C62  1  0.25832000  0.41567000  0.41364000  1.0
  C  C63  1  0.49135000  0.33338000  0.33609000  1.0
  C  C64  1  0.37660000  0.33920000  0.37278000  1.0
  C  C65  1  0.37307000  0.40986000  0.37697000  1.0
  C  C66  1  0.72552000  0.57584000  0.63078000  1.0
  C  C67  1  0.52451000  0.67399000  0.62013000  1.0
  C  C68  1  0.74296000  0.58506000  0.58818000  1.0
  C  C69  1  0.50715000  0.66494000  0.66276000  1.0
  C  C70  1  0.60423000  0.64147000  0.60847000  1.0
  C  C71  1  0.64582000  0.60835000  0.64241000  1.0
  C  C72  1  0.07672000  0.22461000  0.62990000  1.0
  C  C73  1  0.17394000  0.02486000  0.61961000  1.0
  C  C74  1  0.08591000  0.24248000  0.58727000  1.0
  C  C75  1  0.16455000  0.00711000  0.66223000  1.0
  C  C76  1  0.14184000  0.10426000  0.60785000  1.0
  C  C77  1  0.10888000  0.14520000  0.64165000  1.0
  C  C78  1  0.84182000  0.80179000  0.39686000  1.0
  C  C79  1  0.90627000  0.94824000  0.35292000  1.0
  C  C80  1  0.91032000  0.75858000  0.41361000  1.0
  C  C81  1  0.83775000  0.99132000  0.33617000  1.0
  C  C82  1  0.90779000  0.87896000  0.37502000  1.0
  C  C83  1  0.84050000  0.87090000  0.37467000  1.0
  C  C84  1  0.65419000  0.15279000  0.15102000  1.0
  C  C85  1  0.59636000  0.09701000  0.09892000  1.0
  C  C86  1  0.66707000  0.16636000  0.10786000  1.0
  C  C87  1  0.58342000  0.08349000  0.14209000  1.0
  C  C88  1  0.63897000  0.13926000  0.08248000  1.0
  C  C89  1  0.61156000  0.11056000  0.16746000  1.0
  C  C90  1  0.67387000  0.52503000  0.12033000  1.0
  C  C91  1  0.57607000  0.72482000  0.13047000  1.0
  C  C92  1  0.66498000  0.50736000  0.16297000  1.0
  C  C93  1  0.58517000  0.74256000  0.08784000  1.0
  C  C94  1  0.60849000  0.64545000  0.14227000  1.0
  C  C95  1  0.64138000  0.60442000  0.10850000  1.0
  C  C96  1  0.08299000  0.12334000  0.17777000  1.0
  C  C97  1  0.16740000  0.12641000  0.07191000  1.0
  C  C98  1  0.01044000  0.16266000  0.16508000  1.0
  C  C99  1  0.23998000  0.08707000  0.08450000  1.0
  C  C100  1  0.11017000  0.13959000  0.10597000  1.0
  C  C101  1  0.14030000  0.11014000  0.14373000  1.0
  C  C102  1  0.34544000  0.85035000  0.84750000  1.0
  C  C103  1  0.40523000  0.89904000  0.90212000  1.0
  C  C104  1  0.30429000  0.92104000  0.86232000  1.0
  C  C105  1  0.44638000  0.82840000  0.88729000  1.0
  C  C106  1  0.33333333  0.94478000  0.88892000  1.0
  C  C107  1  0.41735000  0.80463000  0.86070000  1.0
  C  C108  1  0.40869000  0.44793000  0.85322000  1.0
  C  C109  1  0.34296000  0.30220000  0.89682000  1.0
  C  C110  1  0.34038000  0.49161000  0.83639000  1.0
  C  C111  1  0.41130000  0.25855000  0.91367000  1.0
  C  C112  1  0.34200000  0.37134000  0.87479000  1.0
  C  C113  1  0.40952000  0.37888000  0.87531000  1.0
  C  C114  1  0.94371000  0.79586000  0.84958000  1.0
  C  C115  1  0.80550000  0.95521000  0.90053000  1.0
  C  C116  1  0.99070000  0.83383000  0.83606000  1.0
  C  C117  1  0.75847000  0.91733000  0.91410000  1.0
  C  C118  1  0.87304000  0.91085000  0.87697000  1.0
  C  C119  1  0.87610000  0.84022000  0.87311000  1.0
  S  S120  1  0.29739000  0.32620000  0.39739000  1.0
  S  S121  1  0.45232000  0.42280000  0.35238000  1.0
  S  S122  1  0.66202000  0.63315000  0.56244000  1.0
  S  S123  1  0.58811000  0.61685000  0.68846000  1.0
  S  S124  1  0.13367000  0.16230000  0.56175000  1.0
  S  S125  1  0.11688000  0.08725000  0.68776000  1.0
  S  S126  1  0.97278000  0.80248000  0.40227000  1.0
  S  S127  1  0.77549000  0.94725000  0.34738000  1.0
  S  S128  1  0.61699000  0.58758000  0.18843000  1.0
  S  S129  1  0.63306000  0.66233000  0.06236000  1.0
  S  S130  1  0.01232000  0.18335000  0.11176000  1.0
  S  S131  1  0.23819000  0.06651000  0.13785000  1.0
  S  S132  1  0.27745000  0.44822000  0.84749000  1.0
  S  S133  1  0.47403000  0.30211000  0.90266000  1.0
  S  S134  1  0.95222000  0.92347000  0.85201000  1.0
  S  S135  1  0.79684000  0.82772000  0.89809000  1.0
  Cl  Cl136  1  0.28726000  0.54209000  0.41003000  1.0
  Cl  Cl137  1  0.46247000  0.20690000  0.33982000  1.0
  Cl  Cl138  1  0.78876000  0.53157000  0.66630000  1.0
  Cl  Cl139  1  0.46134000  0.71818000  0.58457000  1.0
  Cl  Cl140  1  0.03282000  0.28685000  0.66535000  1.0
  Cl  Cl141  1  0.21771000  0.96242000  0.58425000  1.0
  Cl  Cl142  1  0.76676000  0.77839000  0.40116000  1.0
  Cl  Cl143  1  0.98128000  0.97172000  0.34865000  1.0
  Cl  Cl144  1  0.71725000  0.46262000  0.08495000  1.0
  Cl  Cl145  1  0.53261000  0.78727000  0.16582000  1.0
  Cl  Cl146  1  0.10446000  0.09313000  0.22717000  1.0
  Cl  Cl147  1  0.14564000  0.15697000  0.02255000  1.0
  Cl  Cl148  1  0.48410000  0.47080000  0.84904000  1.0
  Cl  Cl149  1  0.26750000  0.27941000  0.90101000  1.0
  Cl  Cl150  1  0.96133000  0.70764000  0.84016000  1.0
  Cl  Cl151  1  0.78805000  0.04351000  0.90978000  1.0
  O  O152  1  0.00037000  0.49927000  0.49977000  1.0
  O  O153  1  0.07672000  0.31571000  0.52292000  1.0
  O  O154  1  0.03335000  0.53098000  0.58542000  1.0
  O  O155  1  0.15498000  0.50545000  0.44989000  1.0
  O  O156  1  0.02849000  0.37529000  0.58080000  1.0
  O  O157  1  0.15351000  0.39198000  0.44604000  1.0
  O  O158  1  0.08415000  0.58729000  0.52958000  1.0
  O  O159  1  0.00329000  0.65792000  0.44918000  1.0
  O  O160  1  0.88624000  0.49592000  0.44316000  1.0
  O  O161  1  0.89038000  0.65197000  0.44732000  1.0
  O  O162  1  0.99593000  0.38773000  0.44128000  1.0
  O  O163  1  0.87679000  0.52688000  0.58146000  1.0
  O  O164  1  0.81493000  0.57623000  0.52386000  1.0
  O  O165  1  0.74893000  0.25090000  0.25010000  1.0
  O  O166  1  0.59623000  0.35711000  0.30405000  1.0
  O  O167  1  0.66549000  0.16368000  0.21835000  1.0
  O  O168  1  0.72581000  0.37468000  0.16959000  1.0
  O  O169  1  0.59430000  0.24431000  0.29905000  1.0
  O  O170  1  0.67276000  0.43432000  0.22730000  1.0
  O  O171  1  0.72159000  0.21862000  0.16438000  1.0
  O  O172  1  0.87796000  0.22318000  0.16904000  1.0
  O  O173  1  0.86212000  0.25374000  0.30817000  1.0
  O  O174  1  0.93381000  0.17319000  0.22857000  1.0
  O  O175  1  0.75358000  0.36310000  0.30848000  1.0
  O  O176  1  0.74581000  0.09153000  0.29938000  1.0
  O  O177  1  0.85717000  0.09854000  0.30381000  1.0
  O  O178  1  0.24958000  0.75043000  0.75038000  1.0
  O  O179  1  0.37353000  0.72259000  0.66918000  1.0
  O  O180  1  0.36284000  0.75660000  0.80772000  1.0
  O  O181  1  0.17207000  0.93433000  0.72655000  1.0
  O  O182  1  0.43472000  0.67543000  0.72706000  1.0
  O  O183  1  0.22207000  0.87420000  0.66892000  1.0
  O  O184  1  0.25129000  0.86295000  0.80789000  1.0
  O  O185  1  0.09455000  0.85808000  0.80297000  1.0
  O  O186  1  0.16578000  0.66290000  0.72028000  1.0
  O  O187  1  0.09466000  0.74344000  0.80027000  1.0
  O  O188  1  0.21714000  0.71881000  0.66449000  1.0
  O  O189  1  0.35961000  0.59936000  0.80368000  1.0
  O  O190  1  0.24799000  0.59189000  0.80039000  1.0
  O  O191  1  0.50063000  0.99951000  0.99986000  1.0
  O  O192  1  0.50264000  0.15876000  0.95082000  1.0
  O  O193  1  0.38868000  0.99394000  0.94073000  1.0
  O  O194  1  0.65450000  0.89325000  0.94692000  1.0
  O  O195  1  0.39251000  0.15030000  0.94526000  1.0
  O  O196  1  0.65538000  0.00699000  0.95086000  1.0
  O  O197  1  0.49850000  0.88590000  0.94266000  1.0
  O  O198  1  0.57890000  0.81530000  0.02354000  1.0
  O  O199  1  0.52901000  0.03117000  0.08553000  1.0
  O  O200  1  0.52454000  0.87542000  0.08098000  1.0
  O  O201  1  0.58462000  0.08660000  0.03158000  1.0
  O  O202  1  0.31660000  0.07447000  0.02088000  1.0
  O  O203  1  0.37237000  0.02738000  0.08053000  1.0
  F  F204  1  0.78106000  0.51553000  0.39803000  1.0
  F  F205  1  0.96861000  0.23578000  0.35161000  1.0
  F  F206  1  0.16086000  0.66075000  0.54264000  1.0
  F  F207  1  0.08922000  0.58955000  0.70718000  1.0
  F  F208  1  0.70754000  0.20662000  0.08923000  1.0
  F  F209  1  0.54278000  0.04339000  0.16073000  1.0
  F  F210  1  0.23452000  0.96904000  0.85114000  1.0
  F  F211  1  0.51626000  0.78056000  0.89837000  1.0
