# generated using pymatgen
data_NaH10C9SN2O5F3
_symmetry_space_group_name_H-M   'P 1'
_cell_length_a   4.89247000
_cell_length_b   6.32579000
_cell_length_c   40.45600000
_cell_angle_alpha   90.00000000
_cell_angle_beta   90.00000000
_cell_angle_gamma   90.00000000
_symmetry_Int_Tables_number   1
_chemical_formula_structural   NaH10C9SN2O5F3
_chemical_formula_sum   'Na4 H40 C36 S4 N8 O20 F12'
_cell_volume   1252.06213649
_cell_formula_units_Z   4
loop_
 _symmetry_equiv_pos_site_id
 _symmetry_equiv_pos_as_xyz
  1  'x, y, z'
loop_
 _atom_site_type_symbol
 _atom_site_label
 _atom_site_symmetry_multiplicity
 _atom_site_fract_x
 _atom_site_fract_y
 _atom_site_fract_z
 _atom_site_occupancy
  Na  Na0  1  0.68308000  0.49029000  0.48838000  1.0
  Na  Na1  1  0.81693000  0.50971000  0.98838000  1.0
  Na  Na2  1  0.31692000  0.99029000  0.01162000  1.0
  Na  Na3  1  0.18308000  0.00971000  0.51162000  1.0
  H  H4  1  0.15969000  0.64709000  0.45547000  1.0
  H  H5  1  0.34031000  0.35291000  0.95547000  1.0
  H  H6  1  0.84031000  0.14709000  0.04453000  1.0
  H  H7  1  0.65969000  0.85291000  0.54453000  1.0
  H  H8  1  0.14323000  0.40972000  0.44507000  1.0
  H  H9  1  0.35677000  0.59028000  0.94507000  1.0
  H  H10  1  0.85677000  0.90971000  0.05493000  1.0
  H  H11  1  0.64324000  0.09028000  0.55493000  1.0
  H  H12  1  0.86163000  0.15685000  0.39290000  1.0
  H  H13  1  0.63837000  0.84316000  0.89290000  1.0
  H  H14  1  0.13837000  0.65684000  0.10710000  1.0
  H  H15  1  0.36163000  0.34316000  0.60710000  1.0
  H  H16  1  0.78965000  0.38269000  0.35374000  1.0
  H  H17  1  0.71035000  0.61732000  0.85374000  1.0
  H  H18  1  0.21036000  0.88268000  0.14626000  1.0
  H  H19  1  0.28965000  0.11732000  0.64626000  1.0
  H  H20  1  0.92910000  0.91875000  0.34823000  1.0
  H  H21  1  0.57090000  0.08125000  0.84823000  1.0
  H  H22  1  0.07090000  0.41875000  0.15177000  1.0
  H  H23  1  0.42911000  0.58126000  0.65176000  1.0
  H  H24  1  0.14165000  0.62426000  0.37970000  1.0
  H  H25  1  0.35834000  0.37575000  0.87970000  1.0
  H  H26  1  0.85835000  0.12426000  0.12030000  1.0
  H  H27  1  0.64167000  0.87575000  0.62030000  1.0
  H  H28  1  0.68871000  0.80532000  0.40950000  1.0
  H  H29  1  0.81129000  0.19468000  0.90950000  1.0
  H  H30  1  0.31129000  0.30532000  0.09050000  1.0
  H  H31  1  0.18871000  0.69468000  0.59050000  1.0
  H  H32  1  0.35136000  0.91909000  0.40979000  1.0
  H  H33  1  0.14864000  0.08091000  0.90979000  1.0
  H  H34  1  0.64865000  0.41909000  0.09021000  1.0
  H  H35  1  0.85136000  0.58091000  0.59021000  1.0
  H  H36  1  0.73491000  0.54591000  0.30177000  1.0
  H  H37  1  0.76508000  0.45409000  0.80177000  1.0
  H  H38  1  0.26509000  0.04590000  0.19823000  1.0
  H  H39  1  0.23492000  0.95409000  0.69823000  1.0
  H  H40  1  0.52468000  0.83967000  0.27077000  1.0
  H  H41  1  0.97532000  0.16031000  0.77077000  1.0
  H  H42  1  0.47532000  0.33967000  0.22923000  1.0
  H  H43  1  0.02468000  0.66032000  0.72923000  1.0
  C  C44  1  0.47175000  0.25891000  0.38040000  1.0
  C  C45  1  0.02826000  0.74109000  0.88040000  1.0
  C  C46  1  0.52826000  0.75891000  0.11960000  1.0
  C  C47  1  0.97175000  0.24109000  0.61960000  1.0
  C  C48  1  0.10565000  0.83673000  0.33813000  1.0
  C  C49  1  0.39435000  0.16327000  0.83813000  1.0
  C  C50  1  0.89435000  0.33673000  0.16187000  1.0
  C  C51  1  0.60566000  0.66327000  0.66187000  1.0
  C  C52  1  0.45421000  0.56766000  0.34291000  1.0
  C  C53  1  0.04578000  0.43235000  0.84291000  1.0
  C  C54  1  0.54578000  0.06765000  0.15709000  1.0
  C  C55  1  0.95422000  0.93235000  0.65709000  1.0
  C  C56  1  0.21477000  0.89945000  0.30778000  1.0
  C  C57  1  0.28523000  0.10055000  0.80779000  1.0
  C  C58  1  0.78523000  0.39944000  0.19222000  1.0
  C  C59  1  0.71476000  0.60055000  0.69221000  1.0
  C  C60  1  0.22354000  0.67099000  0.35576000  1.0
  C  C61  1  0.27645000  0.32902000  0.85576000  1.0
  C  C62  1  0.77646000  0.17099000  0.14424000  1.0
  C  C63  1  0.72355000  0.82902000  0.64423000  1.0
  C  C64  1  0.56875000  0.94951000  0.41401000  1.0
  C  C65  1  0.93125000  0.05049000  0.91401000  1.0
  C  C66  1  0.43125000  0.44951000  0.08599000  1.0
  C  C67  1  0.06875000  0.55049000  0.58599000  1.0
  C  C68  1  0.55988000  0.62902000  0.31207000  1.0
  C  C69  1  0.94013000  0.37098000  0.81207000  1.0
  C  C70  1  0.44013000  0.12902000  0.18793000  1.0
  C  C71  1  0.05988000  0.87098000  0.68793000  1.0
  C  C72  1  0.44110000  0.79355000  0.29464000  1.0
  C  C73  1  0.05890000  0.20644000  0.79464000  1.0
  C  C74  1  0.55890000  0.29355000  0.20536000  1.0
  C  C75  1  0.94110000  0.70645000  0.70536000  1.0
  C  C76  1  0.10072000  0.08217000  0.28899000  1.0
  C  C77  1  0.39928000  0.91782000  0.78900000  1.0
  C  C78  1  0.89928000  0.58217000  0.21101000  1.0
  C  C79  1  0.60071000  0.41783000  0.71100000  1.0
  S  S80  1  0.60472000  0.99852000  0.45786000  1.0
  S  S81  1  0.89527000  0.00149000  0.95786000  1.0
  S  S82  1  0.39527000  0.49851000  0.04214000  1.0
  S  S83  1  0.10473000  0.50149000  0.54214000  1.0
  N  N84  1  0.65697000  0.12163000  0.39392000  1.0
  N  N85  1  0.84303000  0.87838000  0.89392000  1.0
  N  N86  1  0.34303000  0.62162000  0.10608000  1.0
  N  N87  1  0.15698000  0.37838000  0.60608000  1.0
  N  N88  1  0.59194000  0.40951000  0.36042000  1.0
  N  N89  1  0.90806000  0.59049000  0.86042000  1.0
  N  N90  1  0.40807000  0.90951000  0.13958000  1.0
  N  N91  1  0.09195000  0.09049000  0.63958000  1.0
  O  O92  1  0.45742000  0.19610000  0.46580000  1.0
  O  O93  1  0.04257000  0.80390000  0.96580000  1.0
  O  O94  1  0.54257000  0.69610000  0.03420000  1.0
  O  O95  1  0.95744000  0.30390000  0.53420000  1.0
  O  O96  1  0.47196000  0.81171000  0.47319000  1.0
  O  O97  1  0.02803000  0.18830000  0.97319000  1.0
  O  O98  1  0.52802000  0.31170000  0.02681000  1.0
  O  O99  1  0.97198000  0.68830000  0.52681000  1.0
  O  O100  1  0.22020000  0.24631000  0.38480000  1.0
  O  O101  1  0.27980000  0.75369000  0.88480000  1.0
  O  O102  1  0.77981000  0.74631000  0.11520000  1.0
  O  O103  1  0.72020000  0.25369000  0.61520000  1.0
  O  O104  1  0.89775000  0.01293000  0.46450000  1.0
  O  O105  1  0.60224000  0.98708000  0.96449000  1.0
  O  O106  1  0.10224000  0.51292000  0.03551000  1.0
  O  O107  1  0.39776000  0.48708000  0.53550000  1.0
  O  O108  1  0.03292000  0.53778000  0.44753000  1.0
  O  O109  1  0.46708000  0.46223000  0.94753000  1.0
  O  O110  1  0.96708000  0.03777000  0.05247000  1.0
  O  O111  1  0.53292000  0.96223000  0.55247000  1.0
  F  F112  1  0.00394000  0.02651000  0.25832000  1.0
  F  F113  1  0.49610000  0.97349000  0.75832000  1.0
  F  F114  1  0.99604000  0.52650000  0.24168000  1.0
  F  F115  1  0.50390000  0.47349000  0.74168000  1.0
  F  F116  1  0.29457000  0.23502000  0.28341000  1.0
  F  F117  1  0.20543000  0.76498000  0.78341000  1.0
  F  F118  1  0.70544000  0.73502000  0.21659000  1.0
  F  F119  1  0.79455000  0.26499000  0.71659000  1.0
  F  F120  1  0.88857000  0.17937000  0.30505000  1.0
  F  F121  1  0.61140000  0.82061000  0.80506000  1.0
  F  F122  1  0.11144000  0.67936000  0.19495000  1.0
  F  F123  1  0.38858000  0.32062000  0.69494000  1.0
