# generated using pymatgen
data_ZnH13C22(N4O7)2
_symmetry_space_group_name_H-M   'P 1'
_cell_length_a   11.79920000
_cell_length_b   13.07110000
_cell_length_c   19.32810000
_cell_angle_alpha   91.66580000
_cell_angle_beta   91.56110000
_cell_angle_gamma   91.60210000
_symmetry_Int_Tables_number   1
_chemical_formula_structural   ZnH13C22(N4O7)2
_chemical_formula_sum   'Zn2 H26 C44 N16 O28'
_cell_volume   2977.34538465
_cell_formula_units_Z   2
loop_
 _symmetry_equiv_pos_site_id
 _symmetry_equiv_pos_as_xyz
  1  'x, y, z'
loop_
 _atom_site_type_symbol
 _atom_site_label
 _atom_site_symmetry_multiplicity
 _atom_site_fract_x
 _atom_site_fract_y
 _atom_site_fract_z
 _atom_site_occupancy
  Zn  Zn0  1  0.61576000  0.51316000  0.49447000  1.0
  Zn  Zn1  1  0.38425000  0.48678000  0.50554000  1.0
  H  H2  1  0.66132000  0.45490000  0.15192000  1.0
  H  H3  1  0.33864000  0.54533000  0.84809000  1.0
  H  H4  1  0.37044000  0.99461000  0.37662000  1.0
  H  H5  1  0.62955000  0.00532000  0.62336000  1.0
  H  H6  1  0.79961000  0.40831000  0.54588000  1.0
  H  H7  1  0.20045000  0.59165000  0.45413000  1.0
  H  H8  1  0.19783000  0.33688000  0.25289000  1.0
  H  H9  1  0.26463000  0.34452000  0.33689000  1.0
  H  H10  1  0.12715000  0.39434000  0.32313000  1.0
  H  H11  1  0.27433000  0.53713000  0.33192000  1.0
  H  H12  1  0.20425000  0.53159000  0.25093000  1.0
  H  H13  1  0.73537000  0.65543000  0.66314000  1.0
  H  H14  1  0.80217000  0.66304000  0.74715000  1.0
  H  H15  1  0.87283000  0.60555000  0.67691000  1.0
  H  H16  1  0.79565000  0.46829000  0.74908000  1.0
  H  H17  1  0.72554000  0.46283000  0.66809000  1.0
  H  H18  1  0.59393000  0.19195000  0.34295000  1.0
  H  H19  1  0.51285000  0.07799000  0.32272000  1.0
  H  H20  1  0.46925000  0.19674000  0.29010000  1.0
  H  H21  1  0.34865000  0.15213000  0.38999000  1.0
  H  H22  1  0.43044000  0.26345000  0.40824000  1.0
  H  H23  1  0.48723000  0.92191000  0.67725000  1.0
  H  H24  1  0.40618000  0.80797000  0.65701000  1.0
  H  H25  1  0.53085000  0.80318000  0.70985000  1.0
  H  H26  1  0.56967000  0.73652000  0.59171000  1.0
  H  H27  1  0.65141000  0.84783000  0.60995000  1.0
  C  C28  1  0.45896000  0.69301000  0.48712000  1.0
  C  C29  1  0.54112000  0.30692000  0.51287000  1.0
  C  C30  1  0.48947000  0.47639000  0.36549000  1.0
  C  C31  1  0.51046000  0.52355000  0.63453000  1.0
  C  C32  1  0.57935000  0.45754000  0.25010000  1.0
  C  C33  1  0.42059000  0.54257000  0.74990000  1.0
  C  C34  1  0.58208000  0.46241000  0.17890000  1.0
  C  C35  1  0.41786000  0.53775000  0.82110000  1.0
  C  C36  1  0.48182000  0.47842000  0.14088000  1.0
  C  C37  1  0.51812000  0.52178000  0.85914000  1.0
  C  C38  1  0.38126000  0.48674000  0.17760000  1.0
  C  C39  1  0.61867000  0.51337000  0.82243000  1.0
  C  C40  1  0.37613000  0.48291000  0.25012000  1.0
  C  C41  1  0.62379000  0.51710000  0.74991000  1.0
  C  C42  1  0.47964000  0.46954000  0.28760000  1.0
  C  C43  1  0.52029000  0.53048000  0.71242000  1.0
  C  C44  1  0.51011000  0.51160000  0.93452000  1.0
  C  C45  1  0.48984000  0.48865000  0.06551000  1.0
  C  C46  1  0.54080000  0.19193000  0.51595000  1.0
  C  C47  1  0.45923000  0.80801000  0.48402000  1.0
  C  C48  1  0.41292000  0.96244000  0.42120000  1.0
  C  C49  1  0.58710000  0.03749000  0.57878000  1.0
  C  C50  1  0.40797000  0.85799000  0.42771000  1.0
  C  C51  1  0.59204000  0.14195000  0.57227000  1.0
  C  C52  1  0.51551000  0.86676000  0.53619000  1.0
  C  C53  1  0.48455000  0.13316000  0.46377000  1.0
  C  C54  1  0.52556000  0.97550000  0.52905000  1.0
  C  C55  1  0.47448000  0.02442000  0.47093000  1.0
  C  C56  1  0.03411000  0.38332000  0.54830000  1.0
  C  C57  1  0.96594000  0.61663000  0.45171000  1.0
  C  C58  1  0.14885000  0.38095000  0.53743000  1.0
  C  C59  1  0.85119000  0.61902000  0.46259000  1.0
  C  C60  1  0.14937000  0.53213000  0.47776000  1.0
  C  C61  1  0.85068000  0.46783000  0.52224000  1.0
  C  C62  1  0.02974000  0.53757000  0.48095000  1.0
  C  C63  1  0.97030000  0.46241000  0.51907000  1.0
  C  C64  1  0.26284000  0.49050000  0.28428000  1.0
  C  C65  1  0.21066000  0.38492000  0.30019000  1.0
  C  C66  1  0.73709000  0.50945000  0.71573000  1.0
  C  C67  1  0.78934000  0.61502000  0.69983000  1.0
  C  C68  1  0.43650000  0.18068000  0.39947000  1.0
  C  C69  1  0.50740000  0.16014000  0.33523000  1.0
  C  C70  1  0.56358000  0.81925000  0.60048000  1.0
  C  C71  1  0.49270000  0.83978000  0.66473000  1.0
  N  N72  1  0.40525000  0.53470000  0.03092000  1.0
  N  N73  1  0.59469000  0.46555000  0.96910000  1.0
  N  N74  1  0.41537000  0.54649000  0.96407000  1.0
  N  N75  1  0.58458000  0.45376000  0.03596000  1.0
  N  N76  1  0.79422000  0.54366000  0.49467000  1.0
  N  N77  1  0.20581000  0.45630000  0.50534000  1.0
  N  N78  1  0.69060000  0.43581000  0.28379000  1.0
  N  N79  1  0.30936000  0.56426000  0.71619000  1.0
  N  N80  1  0.97800000  0.30511000  0.59058000  1.0
  N  N81  1  0.02204000  0.69489000  0.40945000  1.0
  N  N82  1  0.27203000  0.49563000  0.13841000  1.0
  N  N83  1  0.72791000  0.50447000  0.86161000  1.0
  N  N84  1  0.64839000  0.20211000  0.62977000  1.0
  N  N85  1  0.35162000  0.79782000  0.37021000  1.0
  N  N86  1  0.78341000  0.70732000  0.44034000  1.0
  N  N87  1  0.21664000  0.29265000  0.55969000  1.0
  O  O88  1  0.55571000  0.65497000  0.48056000  1.0
  O  O89  1  0.44435000  0.34495000  0.51936000  1.0
  O  O90  1  0.36754000  0.64349000  0.49923000  1.0
  O  O91  1  0.63258000  0.35644000  0.50085000  1.0
  O  O92  1  0.58900000  0.49377000  0.39040000  1.0
  O  O93  1  0.41096000  0.50598000  0.60965000  1.0
  O  O94  1  0.40059000  0.46570000  0.40074000  1.0
  O  O95  1  0.59932000  0.53432000  0.59926000  1.0
  O  O96  1  0.70161000  0.34931000  0.30679000  1.0
  O  O97  1  0.76580000  0.50318000  0.28172000  1.0
  O  O98  1  0.29842000  0.65070000  0.69308000  1.0
  O  O99  1  0.23414000  0.49691000  0.71834000  1.0
  O  O100  1  0.91326000  0.33785000  0.63462000  1.0
  O  O101  1  0.00078000  0.21515000  0.57791000  1.0
  O  O102  1  0.08679000  0.66217000  0.36542000  1.0
  O  O103  1  0.99923000  0.78485000  0.42211000  1.0
  O  O104  1  0.22804000  0.57991000  0.13846000  1.0
  O  O105  1  0.23255000  0.41520000  0.11093000  1.0
  O  O106  1  0.77188000  0.42019000  0.86158000  1.0
  O  O107  1  0.76741000  0.58491000  0.88906000  1.0
  O  O108  1  0.61671000  0.29124000  0.63968000  1.0
  O  O109  1  0.72161000  0.16030000  0.66517000  1.0
  O  O110  1  0.38321000  0.70864000  0.36034000  1.0
  O  O111  1  0.27844000  0.83964000  0.33479000  1.0
  O  O112  1  0.76398000  0.76908000  0.48747000  1.0
  O  O113  1  0.75453000  0.70934000  0.37893000  1.0
  O  O114  1  0.24549000  0.29065000  0.62110000  1.0
  O  O115  1  0.23608000  0.23089000  0.51256000  1.0
