# generated using pymatgen
data_ZnH24C30(NO)4
_symmetry_space_group_name_H-M   'P 1'
_cell_length_a   8.22745000
_cell_length_b   17.93080000
_cell_length_c   18.81600000
_cell_angle_alpha   89.99950000
_cell_angle_beta   77.88000000
_cell_angle_gamma   89.99980000
_symmetry_Int_Tables_number   1
_chemical_formula_structural   ZnH24C30(NO)4
_chemical_formula_sum   'Zn4 H96 C120 N16 O16'
_cell_volume   2713.95275162
_cell_formula_units_Z   4
loop_
 _symmetry_equiv_pos_site_id
 _symmetry_equiv_pos_as_xyz
  1  'x, y, z'
loop_
 _atom_site_type_symbol
 _atom_site_label
 _atom_site_symmetry_multiplicity
 _atom_site_fract_x
 _atom_site_fract_y
 _atom_site_fract_z
 _atom_site_occupancy
  Zn  Zn0  1  0.58509000  0.89373000  0.27798000  1.0
  Zn  Zn1  1  0.41490000  0.39373000  0.22202000  1.0
  Zn  Zn2  1  0.41491000  0.10627000  0.72201000  1.0
  Zn  Zn3  1  0.58511000  0.60627000  0.77798000  1.0
  H  H4  1  0.22837000  0.85418000  0.23812000  1.0
  H  H5  1  0.77161000  0.35417000  0.26189000  1.0
  H  H6  1  0.77162000  0.14581000  0.76188000  1.0
  H  H7  1  0.22840000  0.64582000  0.73811000  1.0
  H  H8  1  0.21459000  0.79200000  0.16617000  1.0
  H  H9  1  0.78540000  0.29200000  0.33384000  1.0
  H  H10  1  0.78541000  0.20799000  0.83383000  1.0
  H  H11  1  0.21459000  0.70800000  0.66616000  1.0
  H  H12  1  0.22941000  0.77746000  0.35881000  1.0
  H  H13  1  0.77059000  0.27745000  0.14120000  1.0
  H  H14  1  0.77060000  0.22255000  0.64120000  1.0
  H  H15  1  0.22940000  0.72255000  0.85880000  1.0
  H  H16  1  0.57650000  0.54508000  0.31955000  1.0
  H  H17  1  0.42348000  0.04508000  0.18045000  1.0
  H  H18  1  0.42351000  0.45492000  0.68046000  1.0
  H  H19  1  0.57650000  0.95492000  0.81954000  1.0
  H  H20  1  0.72285000  0.50683000  0.19523000  1.0
  H  H21  1  0.27709000  0.00683000  0.30477000  1.0
  H  H22  1  0.27713000  0.49316000  0.80478000  1.0
  H  H23  1  0.72289000  0.99317000  0.69523000  1.0
  H  H24  1  0.69586000  0.58049000  0.08742000  1.0
  H  H25  1  0.30408000  0.08049000  0.41259000  1.0
  H  H26  1  0.30412000  0.41949000  0.91259000  1.0
  H  H27  1  0.69591000  0.91950000  0.58741000  1.0
  H  H28  1  0.52662000  0.69671000  0.09971000  1.0
  H  H29  1  0.47334000  0.19671000  0.40029000  1.0
  H  H30  1  0.47338000  0.30328000  0.90029000  1.0
  H  H31  1  0.52665000  0.80329000  0.59971000  1.0
  H  H32  1  0.28788000  0.97172000  0.49874000  1.0
  H  H33  1  0.71211000  0.47172000  0.00127000  1.0
  H  H34  1  0.71214000  0.02828000  0.50128000  1.0
  H  H35  1  0.28790000  0.52828000  0.99872000  1.0
  H  H36  1  0.35149000  0.89046000  0.53759000  1.0
  H  H37  1  0.64850000  0.39046000  0.96242000  1.0
  H  H38  1  0.64852000  0.10953000  0.46242000  1.0
  H  H39  1  0.35150000  0.60953000  0.03757000  1.0
  H  H40  1  0.98971000  0.96485000  0.45032000  1.0
  H  H41  1  0.01030000  0.46485000  0.04968000  1.0
  H  H42  1  0.01031000  0.03516000  0.54968000  1.0
  H  H43  1  0.98971000  0.53516000  0.95031000  1.0
  H  H44  1  0.71326000  0.71530000  0.50520000  1.0
  H  H45  1  0.28673000  0.21529000  0.99479000  1.0
  H  H46  1  0.28674000  0.28471000  0.49479000  1.0
  H  H47  1  0.71327000  0.78471000  0.00521000  1.0
  H  H48  1  0.86738000  0.60737000  0.53711000  1.0
  H  H49  1  0.13261000  0.10736000  0.96288000  1.0
  H  H50  1  0.13261000  0.39264000  0.46289000  1.0
  H  H51  1  0.86740000  0.89264000  0.03713000  1.0
  H  H52  1  0.16536000  0.61943000  0.54806000  1.0
  H  H53  1  0.83463000  0.11943000  0.95193000  1.0
  H  H54  1  0.83462000  0.38058000  0.45194000  1.0
  H  H55  1  0.16539000  0.88057000  0.04807000  1.0
  H  H56  1  0.30907000  0.73900000  0.53012000  1.0
  H  H57  1  0.69092000  0.23900000  0.96988000  1.0
  H  H58  1  0.69092000  0.26101000  0.46988000  1.0
  H  H59  1  0.30909000  0.76100000  0.03012000  1.0
  H  H60  1  0.71734000  0.99708000  0.37692000  1.0
  H  H61  1  0.28264000  0.49707000  0.12308000  1.0
  H  H62  1  0.28269000  0.00291000  0.62307000  1.0
  H  H63  1  0.71735000  0.50291000  0.87692000  1.0
  H  H64  1  0.90140000  0.10775000  0.36694000  1.0
  H  H65  1  0.09857000  0.60774000  0.13306000  1.0
  H  H66  1  0.09862000  0.89224000  0.63306000  1.0
  H  H67  1  0.90142000  0.39225000  0.86694000  1.0
  H  H68  1  0.98239000  0.08388000  0.13287000  1.0
  H  H69  1  0.01760000  0.58388000  0.36713000  1.0
  H  H70  1  0.01756000  0.91614000  0.86712000  1.0
  H  H71  1  0.98242000  0.41612000  0.63287000  1.0
  H  H72  1  0.79192000  0.97472000  0.15404000  1.0
  H  H73  1  0.20808000  0.47473000  0.34596000  1.0
  H  H74  1  0.20805000  0.02529000  0.84595000  1.0
  H  H75  1  0.79193000  0.52527000  0.65404000  1.0
  H  H76  1  0.03142000  0.19942000  0.35634000  1.0
  H  H77  1  0.96857000  0.69942000  0.14367000  1.0
  H  H78  1  0.96857000  0.80059000  0.64367000  1.0
  H  H79  1  0.03145000  0.30058000  0.85633000  1.0
  H  H80  1  0.21378000  0.30887000  0.33781000  1.0
  H  H81  1  0.78621000  0.80888000  0.16219000  1.0
  H  H82  1  0.78623000  0.69112000  0.66219000  1.0
  H  H83  1  0.21381000  0.19113000  0.83781000  1.0
  H  H84  1  0.31818000  0.28270000  0.11431000  1.0
  H  H85  1  0.68180000  0.78270000  0.38569000  1.0
  H  H86  1  0.68182000  0.71730000  0.88568000  1.0
  H  H87  1  0.31823000  0.21730000  0.61431000  1.0
  H  H88  1  0.14055000  0.17070000  0.12199000  1.0
  H  H89  1  0.85942000  0.67069000  0.37801000  1.0
  H  H90  1  0.85943000  0.82930000  0.87800000  1.0
  H  H91  1  0.14060000  0.32931000  0.62199000  1.0
  H  H92  1  0.36185000  0.66035000  0.39149000  1.0
  H  H93  1  0.63814000  0.16035000  0.10853000  1.0
  H  H94  1  0.63817000  0.33965000  0.60852000  1.0
  H  H95  1  0.36184000  0.83966000  0.89147000  1.0
  H  H96  1  0.76336000  0.86931000  0.46160000  1.0
  H  H97  1  0.23664000  0.36931000  0.03840000  1.0
  H  H98  1  0.23665000  0.13070000  0.53840000  1.0
  H  H99  1  0.76336000  0.63069000  0.96160000  1.0
  C  C100  1  0.44490000  0.85236000  0.14979000  1.0
  C  C101  1  0.55509000  0.35236000  0.35021000  1.0
  C  C102  1  0.55510000  0.14763000  0.85021000  1.0
  C  C103  1  0.44489000  0.64764000  0.64978000  1.0
  C  C104  1  0.29798000  0.81274000  0.20040000  1.0
  C  C105  1  0.70201000  0.31274000  0.29961000  1.0
  C  C106  1  0.70203000  0.18725000  0.79960000  1.0
  C  C107  1  0.29798000  0.68726000  0.70040000  1.0
  C  C108  1  0.35012000  0.75032000  0.24384000  1.0
  C  C109  1  0.64987000  0.25031000  0.25617000  1.0
  C  C110  1  0.64989000  0.24968000  0.75616000  1.0
  C  C111  1  0.35012000  0.74969000  0.74383000  1.0
  C  C112  1  0.30575000  0.74185000  0.31850000  1.0
  C  C113  1  0.69425000  0.24184000  0.18151000  1.0
  C  C114  1  0.69427000  0.25815000  0.68150000  1.0
  C  C115  1  0.30574000  0.75816000  0.81849000  1.0
  C  C116  1  0.47026000  0.64338000  0.27869000  1.0
  C  C117  1  0.52971000  0.14338000  0.22131000  1.0
  C  C118  1  0.52974000  0.35662000  0.72131000  1.0
  C  C119  1  0.47026000  0.85662000  0.77869000  1.0
  C  C120  1  0.56664000  0.57863000  0.27229000  1.0
  C  C121  1  0.43332000  0.07863000  0.22772000  1.0
  C  C122  1  0.43337000  0.42137000  0.72772000  1.0
  C  C123  1  0.56664000  0.92137000  0.77228000  1.0
  C  C124  1  0.64744000  0.55728000  0.20261000  1.0
  C  C125  1  0.35251000  0.05728000  0.29740000  1.0
  C  C126  1  0.35256000  0.44272000  0.79740000  1.0
  C  C127  1  0.64746000  0.94272000  0.70261000  1.0
  C  C128  1  0.63119000  0.59899000  0.14104000  1.0
  C  C129  1  0.36877000  0.09899000  0.35897000  1.0
  C  C130  1  0.36881000  0.40100000  0.85897000  1.0
  C  C131  1  0.63121000  0.90101000  0.64103000  1.0
  C  C132  1  0.53601000  0.66379000  0.14740000  1.0
  C  C133  1  0.46395000  0.16379000  0.35261000  1.0
  C  C134  1  0.46399000  0.33620000  0.85261000  1.0
  C  C135  1  0.53605000  0.83621000  0.64739000  1.0
  C  C136  1  0.45403000  0.68736000  0.21701000  1.0
  C  C137  1  0.54594000  0.18736000  0.28299000  1.0
  C  C138  1  0.54597000  0.31263000  0.78299000  1.0
  C  C139  1  0.45404000  0.81264000  0.71701000  1.0
  C  C140  1  0.44120000  0.90214000  0.42379000  1.0
  C  C141  1  0.55881000  0.40213000  0.07621000  1.0
  C  C142  1  0.55881000  0.09787000  0.57622000  1.0
  C  C143  1  0.44120000  0.59787000  0.92379000  1.0
  C  C144  1  0.30275000  0.91091000  0.49106000  1.0
  C  C145  1  0.69725000  0.41090000  0.00894000  1.0
  C  C146  1  0.69725000  0.08910000  0.50895000  1.0
  C  C147  1  0.30275000  0.58910000  0.99105000  1.0
  C  C148  1  0.14092000  0.87514000  0.48752000  1.0
  C  C149  1  0.85908000  0.37514000  0.01249000  1.0
  C  C150  1  0.85909000  0.12487000  0.51249000  1.0
  C  C151  1  0.14093000  0.62487000  0.98751000  1.0
  C  C152  1  0.00464000  0.90812000  0.46810000  1.0
  C  C153  1  0.99535000  0.40812000  0.03189000  1.0
  C  C154  1  0.99537000  0.09189000  0.53190000  1.0
  C  C155  1  0.00465000  0.59188000  0.96810000  1.0
  C  C156  1  0.92910000  0.78932000  0.49376000  1.0
  C  C157  1  0.07089000  0.28932000  0.00624000  1.0
  C  C158  1  0.07090000  0.21069000  0.50624000  1.0
  C  C159  1  0.92912000  0.71068000  0.99376000  1.0
  C  C160  1  0.84418000  0.72139000  0.50719000  1.0
  C  C161  1  0.15581000  0.22139000  0.99281000  1.0
  C  C162  1  0.15582000  0.27861000  0.49281000  1.0
  C  C163  1  0.84419000  0.77861000  0.00719000  1.0
  C  C164  1  0.93215000  0.66054000  0.52578000  1.0
  C  C165  1  0.06784000  0.16054000  0.97422000  1.0
  C  C166  1  0.06786000  0.33947000  0.47422000  1.0
  C  C167  1  0.93216000  0.83946000  0.02578000  1.0
  C  C168  1  0.09937000  0.66743000  0.53239000  1.0
  C  C169  1  0.90063000  0.16743000  0.96760000  1.0
  C  C170  1  0.90064000  0.33258000  0.46760000  1.0
  C  C171  1  0.09938000  0.83258000  0.03240000  1.0
  C  C172  1  0.18194000  0.73568000  0.52177000  1.0
  C  C173  1  0.81806000  0.23568000  0.97822000  1.0
  C  C174  1  0.81806000  0.26433000  0.47823000  1.0
  C  C175  1  0.18195000  0.76432000  0.02177000  1.0
  C  C176  1  0.09688000  0.79814000  0.50255000  1.0
  C  C177  1  0.90311000  0.29814000  0.99745000  1.0
  C  C178  1  0.90314000  0.20187000  0.49745000  1.0
  C  C179  1  0.09689000  0.70186000  0.00254000  1.0
  C  C180  1  0.77935000  0.01883000  0.32419000  1.0
  C  C181  1  0.22062000  0.51883000  0.17581000  1.0
  C  C182  1  0.22065000  0.98117000  0.67580000  1.0
  C  C183  1  0.77938000  0.48117000  0.82419000  1.0
  C  C184  1  0.88249000  0.08064000  0.31755000  1.0
  C  C185  1  0.11750000  0.58064000  0.18245000  1.0
  C  C186  1  0.11751000  0.91936000  0.68244000  1.0
  C  C187  1  0.88251000  0.41935000  0.81755000  1.0
  C  C188  1  0.95949000  0.10705000  0.24848000  1.0
  C  C189  1  0.04049000  0.60705000  0.25152000  1.0
  C  C190  1  0.04049000  0.89295000  0.75151000  1.0
  C  C191  1  0.95952000  0.39295000  0.74848000  1.0
  C  C192  1  0.92805000  0.06714000  0.18841000  1.0
  C  C193  1  0.07195000  0.56714000  0.31159000  1.0
  C  C194  1  0.07192000  0.93287000  0.81159000  1.0
  C  C195  1  0.92807000  0.43286000  0.68841000  1.0
  C  C196  1  0.82279000  0.00580000  0.19927000  1.0
  C  C197  1  0.17719000  0.50579000  0.30073000  1.0
  C  C198  1  0.17719000  0.99421000  0.80072000  1.0
  C  C199  1  0.82281000  0.49420000  0.69927000  1.0
  C  C200  1  0.06719000  0.17371000  0.24036000  1.0
  C  C201  1  0.93280000  0.67372000  0.25964000  1.0
  C  C202  1  0.93279000  0.82629000  0.75963000  1.0
  C  C203  1  0.06722000  0.32628000  0.74037000  1.0
  C  C204  1  0.09049000  0.21462000  0.30103000  1.0
  C  C205  1  0.90949000  0.71462000  0.19897000  1.0
  C  C206  1  0.90950000  0.78538000  0.69896000  1.0
  C  C207  1  0.09053000  0.28538000  0.80103000  1.0
  C  C208  1  0.19249000  0.27685000  0.29142000  1.0
  C  C209  1  0.80750000  0.77686000  0.20858000  1.0
  C  C210  1  0.80751000  0.72314000  0.70858000  1.0
  C  C211  1  0.19252000  0.22314000  0.79142000  1.0
  C  C212  1  0.25119000  0.26175000  0.16650000  1.0
  C  C213  1  0.74880000  0.76175000  0.33350000  1.0
  C  C214  1  0.74881000  0.73825000  0.83350000  1.0
  C  C215  1  0.25122000  0.23825000  0.66649000  1.0
  C  C216  1  0.15148000  0.19893000  0.17190000  1.0
  C  C217  1  0.84849000  0.69893000  0.32810000  1.0
  C  C218  1  0.84851000  0.80107000  0.82810000  1.0
  C  C219  1  0.15152000  0.30107000  0.67190000  1.0
  N  N220  1  0.37761000  0.67816000  0.33933000  1.0
  N  N221  1  0.62238000  0.17816000  0.16068000  1.0
  N  N222  1  0.62241000  0.32184000  0.66068000  1.0
  N  N223  1  0.37760000  0.82184000  0.83932000  1.0
  N  N224  1  0.87813000  0.85706000  0.47209000  1.0
  N  N225  1  0.12186000  0.35706000  0.02790000  1.0
  N  N226  1  0.12188000  0.14294000  0.52790000  1.0
  N  N227  1  0.87813000  0.64294000  0.97210000  1.0
  N  N228  1  0.74859000  0.98174000  0.26616000  1.0
  N  N229  1  0.25140000  0.48174000  0.23385000  1.0
  N  N230  1  0.25142000  0.01826000  0.73384000  1.0
  N  N231  1  0.74860000  0.51825000  0.76616000  1.0
  N  N232  1  0.27133000  0.30073000  0.22526000  1.0
  N  N233  1  0.72865000  0.80073000  0.27474000  1.0
  N  N234  1  0.72869000  0.69926000  0.77474000  1.0
  N  N235  1  0.27136000  0.19927000  0.72526000  1.0
  O  O236  1  0.53930000  0.89490000  0.18043000  1.0
  O  O237  1  0.46068000  0.39490000  0.31957000  1.0
  O  O238  1  0.46068000  0.10510000  0.81957000  1.0
  O  O239  1  0.53931000  0.60511000  0.68043000  1.0
  O  O240  1  0.46805000  0.84383000  0.08285000  1.0
  O  O241  1  0.53193000  0.34384000  0.41717000  1.0
  O  O242  1  0.53194000  0.15617000  0.91716000  1.0
  O  O243  1  0.46804000  0.65617000  0.58284000  1.0
  O  O244  1  0.39753000  0.89944000  0.36210000  1.0
  O  O245  1  0.60246000  0.39943000  0.13791000  1.0
  O  O246  1  0.60250000  0.10055000  0.63791000  1.0
  O  O247  1  0.39754000  0.60057000  0.86209000  1.0
  O  O248  1  0.59020000  0.90066000  0.43073000  1.0
  O  O249  1  0.40980000  0.40065000  0.06928000  1.0
  O  O250  1  0.40981000  0.09935000  0.56927000  1.0
  O  O251  1  0.59020000  0.59934000  0.93072000  1.0
