# generated using pymatgen
data_Zn2H8C5O7
_symmetry_space_group_name_H-M   'P 1'
_cell_length_a   9.62165000
_cell_length_b   9.80656000
_cell_length_c   10.65580000
_cell_angle_alpha   102.10500000
_cell_angle_beta   97.76300000
_cell_angle_gamma   110.27900000
_symmetry_Int_Tables_number   1
_chemical_formula_structural   Zn2H8C5O7
_chemical_formula_sum   'Zn8 H32 C20 O28'
_cell_volume   898.17012144
_cell_formula_units_Z   4
loop_
 _symmetry_equiv_pos_site_id
 _symmetry_equiv_pos_as_xyz
  1  'x, y, z'
loop_
 _atom_site_type_symbol
 _atom_site_label
 _atom_site_symmetry_multiplicity
 _atom_site_fract_x
 _atom_site_fract_y
 _atom_site_fract_z
 _atom_site_occupancy
  Zn  Zn0  1  0.38737000  0.88945000  0.18785000  1.0
  Zn  Zn1  1  0.61263000  0.11055000  0.81215000  1.0
  Zn  Zn2  1  0.12893000  0.87211000  0.33855000  1.0
  Zn  Zn3  1  0.87107000  0.12789000  0.66146000  1.0
  Zn  Zn4  1  0.49288000  0.19901000  0.43015000  1.0
  Zn  Zn5  1  0.50712000  0.80099000  0.56985000  1.0
  Zn  Zn6  1  0.22162000  0.19438000  0.56127000  1.0
  Zn  Zn7  1  0.77837000  0.80562000  0.43873000  1.0
  H  H8  1  0.89348000  0.92250000  0.28196000  1.0
  H  H9  1  0.10653000  0.07750000  0.71804000  1.0
  H  H10  1  0.08247000  0.06969000  0.95129000  1.0
  H  H11  1  0.91754000  0.93031000  0.04871000  1.0
  H  H12  1  0.99791000  0.17504000  0.14881000  1.0
  H  H13  1  0.00209000  0.82495000  0.85119000  1.0
  H  H14  1  0.04256000  0.29595000  0.04485000  1.0
  H  H15  1  0.95744000  0.70405000  0.95515000  1.0
  H  H16  1  0.14540000  0.45008000  0.26679000  1.0
  H  H17  1  0.85460000  0.54991000  0.73321000  1.0
  H  H18  1  0.30939000  0.53455000  0.12735000  1.0
  H  H19  1  0.69060000  0.46544000  0.87265000  1.0
  H  H20  1  0.50834000  0.44988000  0.07044000  1.0
  H  H21  1  0.49166000  0.55012000  0.92956000  1.0
  H  H22  1  0.46984000  0.32123000  0.16590000  1.0
  H  H23  1  0.53016000  0.67877000  0.83411000  1.0
  H  H24  1  0.24577000  0.30533000  0.92577000  1.0
  H  H25  1  0.75424000  0.69467000  0.07423000  1.0
  H  H26  1  0.66943000  0.45764000  0.35688000  1.0
  H  H27  1  0.33056000  0.54235000  0.64312000  1.0
  H  H28  1  0.69371000  0.32151000  0.27325000  1.0
  H  H29  1  0.30629000  0.67849000  0.72675000  1.0
  H  H30  1  0.15933000  0.67523000  0.51937000  1.0
  H  H31  1  0.84067000  0.32477000  0.48063000  1.0
  H  H32  1  0.01572000  0.71482000  0.53205000  1.0
  H  H33  1  0.98429000  0.28518000  0.46795000  1.0
  H  H34  1  0.25885000  0.70027000  0.29007000  1.0
  H  H35  1  0.74115000  0.29973000  0.70993000  1.0
  H  H36  1  0.63831000  0.05208000  0.29878000  1.0
  H  H37  1  0.36170000  0.94792000  0.70122000  1.0
  H  H38  1  0.35444000  0.01191000  0.54302000  1.0
  H  H39  1  0.64556000  0.98809000  0.45698000  1.0
  C  C40  1  0.21428000  0.05466000  0.11799000  1.0
  C  C41  1  0.78572000  0.94535000  0.88201000  1.0
  C  C42  1  0.16747000  0.15142000  0.03909000  1.0
  C  C43  1  0.83253000  0.84858000  0.96090000  1.0
  C  C44  1  0.09152000  0.24633000  0.11366000  1.0
  C  C45  1  0.90848000  0.75367000  0.88633000  1.0
  C  C46  1  0.20434000  0.37692000  0.23109000  1.0
  C  C47  1  0.79565000  0.62308000  0.76891000  1.0
  C  C48  1  0.34717000  0.46983000  0.18808000  1.0
  C  C49  1  0.65282000  0.53017000  0.81191000  1.0
  C  C50  1  0.41724000  0.37534000  0.10525000  1.0
  C  C51  1  0.58276000  0.62466000  0.89475000  1.0
  C  C52  1  0.29760000  0.25216000  0.98994000  1.0
  C  C53  1  0.70240000  0.74784000  0.01006000  1.0
  C  C54  1  0.24862000  0.31828000  0.34503000  1.0
  C  C55  1  0.75138000  0.68172000  0.65497000  1.0
  C  C56  1  0.46208000  0.59012000  0.30712000  1.0
  C  C57  1  0.53791000  0.40988000  0.69288000  1.0
  C  C58  1  0.36226000  0.15986000  0.89886000  1.0
  C  C59  1  0.63775000  0.84014000  0.10114000  1.0
  O  O60  1  0.13377000  0.00661000  0.19611000  1.0
  O  O61  1  0.86623000  0.99338000  0.80389000  1.0
  O  O62  1  0.33048000  0.02521000  0.09722000  1.0
  O  O63  1  0.66953000  0.97479000  0.90278000  1.0
  O  O64  1  0.38034000  0.31479000  0.36296000  1.0
  O  O65  1  0.61967000  0.68521000  0.63704000  1.0
  O  O66  1  0.15470000  0.27856000  0.41787000  1.0
  O  O67  1  0.84530000  0.72143000  0.58212000  1.0
  O  O68  1  0.40713000  0.66467000  0.38576000  1.0
  O  O69  1  0.59286000  0.33532000  0.61424000  1.0
  O  O70  1  0.60310000  0.61383000  0.32198000  1.0
  O  O71  1  0.39690000  0.38618000  0.67802000  1.0
  O  O72  1  0.50819000  0.21343000  0.91694000  1.0
  O  O73  1  0.49182000  0.78657000  0.08307000  1.0
  O  O74  1  0.27154000  0.04376000  0.80891000  1.0
  O  O75  1  0.72846000  0.95625000  0.19109000  1.0
  O  O76  1  0.30461000  0.05003000  0.47615000  1.0
  O  O77  1  0.69540000  0.94997000  0.52385000  1.0
  O  O78  1  0.21510000  0.74930000  0.23332000  1.0
  O  O79  1  0.78490000  0.25070000  0.76668000  1.0
  O  O80  1  0.55401000  0.03988000  0.34582000  1.0
  O  O81  1  0.44600000  0.96013000  0.65418000  1.0
  O  O82  1  0.09255000  0.71794000  0.47892000  1.0
  O  O83  1  0.90745000  0.28206000  0.52108000  1.0
  O  O84  1  0.92944000  0.87271000  0.34306000  1.0
  O  O85  1  0.07056000  0.12729000  0.65694000  1.0
  O  O86  1  0.69475000  0.36948000  0.36350000  1.0
  O  O87  1  0.30525000  0.63052000  0.63650000  1.0
