# generated using pymatgen
data_CuH7C6NCl
_symmetry_space_group_name_H-M   'P 1'
_cell_length_a   5.51864000
_cell_length_b   7.32243000
_cell_length_c   16.92510000
_cell_angle_alpha   90.00000000
_cell_angle_beta   90.00050000
_cell_angle_gamma   89.99950000
_symmetry_Int_Tables_number   1
_chemical_formula_structural   CuH7C6NCl
_chemical_formula_sum   'Cu4 H28 C24 N4 Cl4'
_cell_volume   683.94083842
_cell_formula_units_Z   4
loop_
 _symmetry_equiv_pos_site_id
 _symmetry_equiv_pos_as_xyz
  1  'x, y, z'
loop_
 _atom_site_type_symbol
 _atom_site_label
 _atom_site_symmetry_multiplicity
 _atom_site_fract_x
 _atom_site_fract_y
 _atom_site_fract_z
 _atom_site_occupancy
  Cu  Cu0  1  0.95605000  0.59399000  0.67583000  1.0
  Cu  Cu1  1  0.04394000  0.90599000  0.17584000  1.0
  Cu  Cu2  1  0.54394000  0.09399000  0.32416000  1.0
  Cu  Cu3  1  0.45606000  0.40601000  0.82416000  1.0
  H  H4  1  0.66083000  0.28706000  0.54720000  1.0
  H  H5  1  0.33914000  0.21295000  0.04722000  1.0
  H  H6  1  0.83915000  0.78705000  0.45279000  1.0
  H  H7  1  0.16088000  0.71293000  0.95279000  1.0
  H  H8  1  0.27360000  0.41910000  0.34153000  1.0
  H  H9  1  0.72640000  0.08092000  0.84155000  1.0
  H  H10  1  0.22641000  0.91908000  0.65847000  1.0
  H  H11  1  0.77361000  0.58090000  0.15846000  1.0
  H  H12  1  0.43693000  0.61930000  0.36515000  1.0
  H  H13  1  0.56305000  0.88070000  0.86517000  1.0
  H  H14  1  0.06306000  0.11929000  0.63485000  1.0
  H  H15  1  0.93695000  0.38069000  0.13484000  1.0
  H  H16  1  0.20185000  0.54211000  0.42922000  1.0
  H  H17  1  0.79813000  0.95790000  0.92925000  1.0
  H  H18  1  0.29816000  0.04210000  0.57077000  1.0
  H  H19  1  0.70188000  0.45790000  0.07076000  1.0
  H  H20  1  0.86053000  0.22305000  0.42695000  1.0
  H  H21  1  0.13949000  0.27697000  0.92696000  1.0
  H  H22  1  0.63948000  0.72305000  0.57304000  1.0
  H  H23  1  0.36057000  0.77694000  0.07304000  1.0
  H  H24  1  0.93304000  0.26580000  0.28409000  1.0
  H  H25  1  0.06694000  0.23422000  0.78409000  1.0
  H  H26  1  0.56694000  0.76579000  0.71591000  1.0
  H  H27  1  0.43304000  0.73419000  0.21591000  1.0
  H  H28  1  0.66129000  0.41466000  0.27650000  1.0
  H  H29  1  0.33870000  0.08533000  0.77651000  1.0
  H  H30  1  0.83870000  0.91467000  0.72350000  1.0
  H  H31  1  0.16130000  0.58532000  0.22349000  1.0
  C  C32  1  0.33429000  0.43292000  0.56206000  1.0
  C  C33  1  0.66569000  0.06708000  0.06208000  1.0
  C  C34  1  0.16570000  0.93292000  0.43793000  1.0
  C  C35  1  0.83432000  0.56709000  0.93793000  1.0
  C  C36  1  0.52245000  0.36401000  0.51523000  1.0
  C  C37  1  0.47751000  0.13601000  0.01523000  1.0
  C  C38  1  0.97752000  0.86400000  0.48477000  1.0
  C  C39  1  0.02248000  0.63600000  0.98476000  1.0
  C  C40  1  0.53309000  0.38647000  0.43485000  1.0
  C  C41  1  0.46685000  0.11355000  0.93487000  1.0
  C  C42  1  0.96688000  0.88646000  0.56514000  1.0
  C  C43  1  0.03311000  0.61353000  0.06513000  1.0
  C  C44  1  0.35038000  0.49763000  0.39088000  1.0
  C  C45  1  0.64959000  0.00240000  0.89090000  1.0
  C  C46  1  0.14960000  0.99760000  0.60911000  1.0
  C  C47  1  0.85040000  0.50237000  0.10911000  1.0
  C  C48  1  0.72774000  0.29770000  0.39154000  1.0
  C  C49  1  0.27224000  0.20233000  0.89157000  1.0
  C  C50  1  0.77225000  0.79769000  0.60845000  1.0
  C  C51  1  0.22777000  0.70230000  0.10845000  1.0
  C  C52  1  0.76702000  0.31759000  0.31102000  1.0
  C  C53  1  0.23298000  0.18243000  0.81104000  1.0
  C  C54  1  0.73298000  0.81758000  0.68896000  1.0
  C  C55  1  0.26703000  0.68239000  0.18897000  1.0
  N  N56  1  0.17716000  0.48443000  0.60284000  1.0
  N  N57  1  0.82282000  0.01555000  0.10285000  1.0
  N  N58  1  0.32286000  0.98443000  0.39715000  1.0
  N  N59  1  0.67718000  0.51557000  0.89715000  1.0
  Cl  Cl60  1  0.19638000  0.65556000  0.78672000  1.0
  Cl  Cl61  1  0.80363000  0.84443000  0.28673000  1.0
  Cl  Cl62  1  0.30362000  0.15555000  0.21327000  1.0
  Cl  Cl63  1  0.69637000  0.34444000  0.71327000  1.0
