# generated using pymatgen
data_ZnC9N(O2F3)2
_symmetry_space_group_name_H-M   'P 1'
_cell_length_a   8.24171000
_cell_length_b   9.27770000
_cell_length_c   16.09570000
_cell_angle_alpha   90.00020000
_cell_angle_beta   90.00000000
_cell_angle_gamma   89.90100000
_symmetry_Int_Tables_number   1
_chemical_formula_structural   ZnC9N(O2F3)2
_chemical_formula_sum   'Zn2 C18 N2 O8 F12'
_cell_volume   1230.74158424
_cell_formula_units_Z   2
loop_
 _symmetry_equiv_pos_site_id
 _symmetry_equiv_pos_as_xyz
  1  'x, y, z'
loop_
 _atom_site_type_symbol
 _atom_site_label
 _atom_site_symmetry_multiplicity
 _atom_site_fract_x
 _atom_site_fract_y
 _atom_site_fract_z
 _atom_site_occupancy
  Zn  Zn0  1  0.33934000  0.50018000  0.50000000  1.0
  Zn  Zn1  1  0.66060000  0.49983000  0.50000000  1.0
  C  C2  1  0.49999000  0.77891000  0.50000000  1.0
  C  C3  1  0.66235000  0.56643000  0.95066000  1.0
  C  C4  1  0.35380000  0.59168000  0.04935000  1.0
  C  C5  1  0.66235000  0.56643000  0.04934000  1.0
  C  C6  1  0.49990000  0.49977000  0.24883000  1.0
  C  C7  1  0.49990000  0.49978000  0.75116000  1.0
  C  C8  1  0.50007000  0.50022000  0.91611000  1.0
  C  C9  1  0.50007000  0.50022000  0.08389000  1.0
  C  C10  1  0.48398000  0.34200000  0.04940000  1.0
  C  C11  1  0.48398000  0.34200000  0.95060000  1.0
  C  C12  1  0.49997000  0.49995000  0.17362000  1.0
  C  C13  1  0.49996000  0.49995000  0.82638000  1.0
  C  C14  1  0.49990000  0.49985000  0.66133000  1.0
  C  C15  1  0.49991000  0.49984000  0.33867000  1.0
  C  C16  1  0.50007000  0.06538000  0.50000000  1.0
  C  C17  1  0.49998000  0.93464000  0.50000000  1.0
  C  C18  1  0.49996000  0.22111000  0.50000000  1.0
  C  C19  1  0.35380000  0.59168000  0.95065000  1.0
  N  N20  1  0.93280000  0.49985000  0.50000000  1.0
  N  N21  1  0.06714000  0.50013000  0.50000000  1.0
  O  O22  1  0.36156000  0.71780000  0.50000000  1.0
  O  O23  1  0.63856000  0.71750000  0.50000000  1.0
  O  O24  1  0.36140000  0.49997000  0.62617000  1.0
  O  O25  1  0.63846000  0.49983000  0.62618000  1.0
  O  O26  1  0.36140000  0.49996000  0.37382000  1.0
  O  O27  1  0.63847000  0.49983000  0.37382000  1.0
  O  O28  1  0.36145000  0.28249000  0.50000000  1.0
  O  O29  1  0.63844000  0.28225000  0.50000000  1.0
  F  F30  1  0.34442000  0.28110000  0.92238000  1.0
  F  F31  1  0.21123000  0.53662000  0.92237000  1.0
  F  F32  1  0.79143000  0.48917000  0.07765000  1.0
  F  F33  1  0.21123000  0.53662000  0.07764000  1.0
  F  F34  1  0.60899000  0.25943000  0.92236000  1.0
  F  F35  1  0.34442000  0.28110000  0.07761000  1.0
  F  F36  1  0.60898000  0.25943000  0.07764000  1.0
  F  F37  1  0.36414000  0.72970000  0.07767000  1.0
  F  F38  1  0.68000000  0.70380000  0.07771000  1.0
  F  F39  1  0.36413000  0.72970000  0.92233000  1.0
  F  F40  1  0.67999000  0.70381000  0.92230000  1.0
  F  F41  1  0.79143000  0.48918000  0.92235000  1.0
