# generated using pymatgen
data_CoH18C22(NO)4
_symmetry_space_group_name_H-M   'P 1'
_cell_length_a   10.33880000
_cell_length_b   10.43940000
_cell_length_c   10.73479534
_cell_angle_alpha   84.03738797
_cell_angle_beta   61.21361666
_cell_angle_gamma   77.54450000
_symmetry_Int_Tables_number   1
_chemical_formula_structural   CoH18C22(NO)4
_chemical_formula_sum   'Co2 H36 C44 N8 O8'
_cell_volume   991.53590126
_cell_formula_units_Z   2
loop_
 _symmetry_equiv_pos_site_id
 _symmetry_equiv_pos_as_xyz
  1  'x, y, z'
loop_
 _atom_site_type_symbol
 _atom_site_label
 _atom_site_symmetry_multiplicity
 _atom_site_fract_x
 _atom_site_fract_y
 _atom_site_fract_z
 _atom_site_occupancy
  Co  Co0  1  0.20322000  0.91271000  0.39872000  1.0
  Co  Co1  1  0.60191000  0.41273000  0.60129000  1.0
  H  H2  1  0.53879000  0.77635000  0.37166000  1.0
  H  H3  1  0.91042000  0.27636000  0.62835000  1.0
  H  H4  1  0.23594000  0.12990000  0.55029000  1.0
  H  H5  1  0.78619000  0.62992000  0.44972000  1.0
  H  H6  1  0.51750000  0.14407000  0.52307000  1.0
  H  H7  1  0.04052000  0.64409000  0.47695000  1.0
  H  H8  1  0.74472000  0.82598000  0.46690000  1.0
  H  H9  1  0.21160000  0.32599000  0.53309000  1.0
  H  H10  1  0.75053000  0.99394000  0.45003000  1.0
  H  H11  1  0.20054000  0.49396000  0.54995000  1.0
  H  H12  1  0.99115000  0.73732000  0.28036000  1.0
  H  H13  1  0.27153000  0.23734000  0.71962000  1.0
  H  H14  1  0.16583000  0.70301000  0.02542000  1.0
  H  H15  1  0.19128000  0.20302000  0.97457000  1.0
  H  H16  1  0.88756000  0.01989000  0.92476000  1.0
  H  H17  1  0.81233000  0.51988000  0.07523000  1.0
  H  H18  1  0.70567000  0.04782000  0.18093000  1.0
  H  H19  1  0.88659000  0.54780000  0.81907000  1.0
  H  H20  1  0.09330000  0.79362000  0.74934000  1.0
  H  H21  1  0.84266000  0.29362000  0.25064000  1.0
  H  H22  1  0.16130000  0.93465000  0.74579000  1.0
  H  H23  1  0.90712000  0.43463000  0.25420000  1.0
  H  H24  1  0.27155000  0.58395000  0.68538000  1.0
  H  H25  1  0.95695000  0.08392000  0.31460000  1.0
  H  H26  1  0.38844000  0.88240000  0.82762000  1.0
  H  H27  1  0.21607000  0.38238000  0.17238000  1.0
  H  H28  1  0.62037000  0.66550000  0.74530000  1.0
  H  H29  1  0.36566000  0.16548000  0.25473000  1.0
  H  H30  1  0.65423000  0.25781000  0.21137000  1.0
  H  H31  1  0.86560000  0.75782000  0.78863000  1.0
  H  H32  1  0.63832000  0.23515000  0.98975000  1.0
  H  H33  1  0.62810000  0.73515000  0.01025000  1.0
  H  H34  1  0.49434000  0.41657000  0.91358000  1.0
  H  H35  1  0.40794000  0.91656000  0.08642000  1.0
  H  H36  1  0.36073000  0.62088000  0.06169000  1.0
  H  H37  1  0.42242000  0.12088000  0.93831000  1.0
  C  C38  1  0.49298000  0.87556000  0.41449000  1.0
  C  C39  1  0.90744000  0.37557000  0.58551000  1.0
  C  C40  1  0.34167000  0.06093000  0.50814000  1.0
  C  C41  1  0.84976000  0.56095000  0.49187000  1.0
  C  C42  1  0.47725000  0.06721000  0.49887000  1.0
  C  C43  1  0.97608000  0.56723000  0.50115000  1.0
  C  C44  1  0.72915000  0.91424000  0.40685000  1.0
  C  C45  1  0.13599000  0.41424000  0.59314000  1.0
  C  C46  1  0.83531000  0.89478000  0.24960000  1.0
  C  C47  1  0.08493000  0.39478000  0.75039000  1.0
  C  C48  1  0.96613000  0.79871000  0.20330000  1.0
  C  C49  1  0.16945000  0.29872000  0.79669000  1.0
  C  C50  1  0.06598000  0.78011000  0.05866000  1.0
  C  C51  1  0.12467000  0.28012000  0.94133000  1.0
  C  C52  1  0.03919000  0.85893000  0.95696000  1.0
  C  C53  1  0.99617000  0.35893000  0.04302000  1.0
  C  C54  1  0.90958000  0.95718000  0.00303000  1.0
  C  C55  1  0.91263000  0.45718000  0.99695000  1.0
  C  C56  1  0.80830000  0.97365000  0.14738000  1.0
  C  C57  1  0.95568000  0.47365000  0.85261000  1.0
  C  C58  1  0.14326000  0.83965000  0.79907000  1.0
  C  C59  1  0.94234000  0.33964000  0.20092000  1.0
  C  C60  1  0.33564000  0.63222000  0.71471000  1.0
  C  C61  1  0.05036000  0.13220000  0.28528000  1.0
  C  C62  1  0.40015000  0.78830000  0.78564000  1.0
  C  C63  1  0.18579000  0.28828000  0.21437000  1.0
  C  C64  1  0.51358000  0.67985000  0.74523000  1.0
  C  C65  1  0.25881000  0.17983000  0.25478000  1.0
  C  C66  1  0.42963000  0.55183000  0.21986000  1.0
  C  C67  1  0.64949000  0.05183000  0.78014000  1.0
  C  C68  1  0.51652000  0.45062000  0.26018000  1.0
  C  C69  1  0.77670000  0.95063000  0.73981000  1.0
  C  C70  1  0.58867000  0.33622000  0.17813000  1.0
  C  C71  1  0.76680000  0.83622000  0.82187000  1.0
  C  C72  1  0.58083000  0.32408000  0.05385000  1.0
  C  C73  1  0.63469000  0.82409000  0.94615000  1.0
  C  C74  1  0.50014000  0.42696000  0.01040000  1.0
  C  C75  1  0.51056000  0.92694000  0.98960000  1.0
  C  C76  1  0.42473000  0.53972000  0.09353000  1.0
  C  C77  1  0.51826000  0.03972000  0.90647000  1.0
  C  C78  1  0.33751000  0.66842000  0.31321000  1.0
  C  C79  1  0.65072000  0.16844000  0.68679000  1.0
  C  C80  1  0.55349000  0.46818000  0.37572000  1.0
  C  C81  1  0.92922000  0.96818000  0.62430000  1.0
  N  N82  1  0.35295000  0.94196000  0.45409000  1.0
  N  N83  1  0.80702000  0.44197000  0.54591000  1.0
  N  N84  1  0.57121000  0.94941000  0.43982000  1.0
  N  N85  1  0.01100000  0.44941000  0.56019000  1.0
  N  N86  1  0.28855000  0.75655000  0.76542000  1.0
  N  N87  1  0.05398000  0.25653000  0.23458000  1.0
  N  N88  1  0.47238000  0.58294000  0.70043000  1.0
  N  N89  1  0.17281000  0.08291000  0.29958000  1.0
  O  O90  1  0.30382000  0.77466000  0.25216000  1.0
  O  O91  1  0.55597000  0.27468000  0.74785000  1.0
  O  O92  1  0.29252000  0.66184000  0.44512000  1.0
  O  O93  1  0.73763000  0.16188000  0.55490000  1.0
  O  O94  1  0.62312000  0.55719000  0.36393000  1.0
  O  O95  1  0.98707000  0.05717000  0.63610000  1.0
  O  O96  1  0.52349000  0.38079000  0.47586000  1.0
  O  O97  1  0.99936000  0.88079000  0.52415000  1.0
