# generated using pymatgen
data_CdH14(C7O4)2
_symmetry_space_group_name_H-M   'P 1'
_cell_length_a   6.87678000
_cell_length_b   8.26562000
_cell_length_c   13.23870000
_cell_angle_alpha   89.67700000
_cell_angle_beta   82.70090000
_cell_angle_gamma   68.77930000
_symmetry_Int_Tables_number   1
_chemical_formula_structural   CdH14(C7O4)2
_chemical_formula_sum   'Cd2 H28 C28 O16'
_cell_volume   695.12709060
_cell_formula_units_Z   2
loop_
 _symmetry_equiv_pos_site_id
 _symmetry_equiv_pos_as_xyz
  1  'x, y, z'
loop_
 _atom_site_type_symbol
 _atom_site_label
 _atom_site_symmetry_multiplicity
 _atom_site_fract_x
 _atom_site_fract_y
 _atom_site_fract_z
 _atom_site_occupancy
  Cd  Cd0  1  0.12149000  0.76389000  0.01462000  1.0
  Cd  Cd1  1  0.87852000  0.23611000  0.98538000  1.0
  H  H2  1  0.20323000  0.50491000  0.34724000  1.0
  H  H3  1  0.79676000  0.49510000  0.65276000  1.0
  H  H4  1  0.30883000  0.31637000  0.26237000  1.0
  H  H5  1  0.69117000  0.68363000  0.73763000  1.0
  H  H6  1  0.86341000  0.46175000  0.31520000  1.0
  H  H7  1  0.13658000  0.53825000  0.68480000  1.0
  H  H8  1  0.06217000  0.33259000  0.45877000  1.0
  H  H9  1  0.93783000  0.66741000  0.54123000  1.0
  H  H10  1  0.09284000  0.16551000  0.61606000  1.0
  H  H11  1  0.90717000  0.83449000  0.38393000  1.0
  H  H12  1  0.93594000  0.02207000  0.75200000  1.0
  H  H13  1  0.06407000  0.97793000  0.24799000  1.0
  H  H14  1  0.39625000  0.12196000  0.59359000  1.0
  H  H15  1  0.60375000  0.87804000  0.40641000  1.0
  H  H16  1  0.37749000  0.26817000  0.43212000  1.0
  H  H17  1  0.62251000  0.73183000  0.56788000  1.0
  H  H18  1  0.32414000  0.95885000  0.70890000  1.0
  H  H19  1  0.67586000  0.04115000  0.29109000  1.0
  H  H20  1  0.26426000  0.16000000  0.77781000  1.0
  H  H21  1  0.73574000  0.84000000  0.22219000  1.0
  H  H22  1  0.77152000  0.66155000  0.01665000  1.0
  H  H23  1  0.22848000  0.33845000  0.98335000  1.0
  H  H24  1  0.69181000  0.81496000  0.94221000  1.0
  H  H25  1  0.30819000  0.18503000  0.05779000  1.0
  H  H26  1  0.16203000  0.49672000  0.86383000  1.0
  H  H27  1  0.83797000  0.50328000  0.13617000  1.0
  H  H28  1  0.40340000  0.46424000  0.88263000  1.0
  H  H29  1  0.59660000  0.53576000  0.11737000  1.0
  C  C30  1  0.21664000  0.55863000  0.18963000  1.0
  C  C31  1  0.78336000  0.44137000  0.81037000  1.0
  C  C32  1  0.30793000  0.44821000  0.27618000  1.0
  C  C33  1  0.69206000  0.55179000  0.72382000  1.0
  C  C34  1  0.60906000  0.37115000  0.36506000  1.0
  C  C35  1  0.39094000  0.62885000  0.63494000  1.0
  C  C36  1  0.80404000  0.38979000  0.37256000  1.0
  C  C37  1  0.19595000  0.61021000  0.62744000  1.0
  C  C38  1  0.91269000  0.31828000  0.45211000  1.0
  C  C39  1  0.08731000  0.68171000  0.54790000  1.0
  C  C40  1  0.83358000  0.22778000  0.52791000  1.0
  C  C41  1  0.16642000  0.77222000  0.47209000  1.0
  C  C42  1  0.94117000  0.15432000  0.61127000  1.0
  C  C43  1  0.05883000  0.84568000  0.38873000  1.0
  C  C44  1  0.85611000  0.07507000  0.68658000  1.0
  C  C45  1  0.14389000  0.92493000  0.31342000  1.0
  C  C46  1  0.65525000  0.06694000  0.68163000  1.0
  C  C47  1  0.34475000  0.93306000  0.31837000  1.0
  C  C48  1  0.54829000  0.13090000  0.59956000  1.0
  C  C49  1  0.45171000  0.86910000  0.40044000  1.0
  C  C50  1  0.63490000  0.21268000  0.52117000  1.0
  C  C51  1  0.36510000  0.78732000  0.47883000  1.0
  C  C52  1  0.52663000  0.28332000  0.43732000  1.0
  C  C53  1  0.47337000  0.71668000  0.56268000  1.0
  C  C54  1  0.36130000  0.02045000  0.77402000  1.0
  C  C55  1  0.63871000  0.97955000  0.22598000  1.0
  C  C56  1  0.29764000  0.93723000  0.86793000  1.0
  C  C57  1  0.70236000  0.06277000  0.13207000  1.0
  O  O58  1  0.02674000  0.58853000  0.18044000  1.0
  O  O59  1  0.97326000  0.41147000  0.81956000  1.0
  O  O60  1  0.33428000  0.61800000  0.12942000  1.0
  O  O61  1  0.66571000  0.38200000  0.87058000  1.0
  O  O62  1  0.51439000  0.44592000  0.28263000  1.0
  O  O63  1  0.48561000  0.55408000  0.71737000  1.0
  O  O64  1  0.58012000  0.99291000  0.76354000  1.0
  O  O65  1  0.41988000  0.00709000  0.23646000  1.0
  O  O66  1  0.42920000  0.83366000  0.91789000  1.0
  O  O67  1  0.57079000  0.16634000  0.08211000  1.0
  O  O68  1  0.09727000  0.97108000  0.88959000  1.0
  O  O69  1  0.90274000  0.02892000  0.11041000  1.0
  O  O70  1  0.80730000  0.75675000  0.98234000  1.0
  O  O71  1  0.19269000  0.24325000  0.01766000  1.0
  O  O72  1  0.25221000  0.50334000  0.91473000  1.0
  O  O73  1  0.74779000  0.49666000  0.08528000  1.0
