# generated using pymatgen
data_CuH12Pd(C7N4)2
_symmetry_space_group_name_H-M   'P 1'
_cell_length_a   6.59869000
_cell_length_b   7.72224000
_cell_length_c   8.74507000
_cell_angle_alpha   113.07300000
_cell_angle_beta   94.97000000
_cell_angle_gamma   91.80800000
_symmetry_Int_Tables_number   1
_chemical_formula_structural   CuH12Pd(C7N4)2
_chemical_formula_sum   'Cu1 H12 Pd1 C14 N8'
_cell_volume   407.38707531
_cell_formula_units_Z   1
loop_
 _symmetry_equiv_pos_site_id
 _symmetry_equiv_pos_as_xyz
  1  'x, y, z'
loop_
 _atom_site_type_symbol
 _atom_site_label
 _atom_site_symmetry_multiplicity
 _atom_site_fract_x
 _atom_site_fract_y
 _atom_site_fract_z
 _atom_site_occupancy
  Cu  Cu0  1  0.50000000  0.50000000  0.50000000  1.0
  H  H1  1  0.91419000  0.43816000  0.39028000  1.0
  H  H2  1  0.08582000  0.56185000  0.60972000  1.0
  H  H3  1  0.07708000  0.29635000  0.12387000  1.0
  H  H4  1  0.92293000  0.70364000  0.87613000  1.0
  H  H5  1  0.83484000  0.15114000  0.85304000  1.0
  H  H6  1  0.16516000  0.84885000  0.14696000  1.0
  H  H7  1  0.26234000  0.13932000  0.86855000  1.0
  H  H8  1  0.73767000  0.86068000  0.13145000  1.0
  H  H9  1  0.45397000  0.00949000  0.74670000  1.0
  H  H10  1  0.54603000  0.99051000  0.25330000  1.0
  H  H11  1  0.42236000  0.24276000  0.76761000  1.0
  H  H12  1  0.57764000  0.75725000  0.23240000  1.0
  Pd  Pd13  1  0.00000000  0.00000000  0.50000000  1.0
  C  C14  1  0.19660000  0.16841000  0.45690000  1.0
  C  C15  1  0.80340000  0.83158000  0.54309000  1.0
  C  C16  1  0.82979000  0.21771000  0.58337000  1.0
  C  C17  1  0.17020000  0.78228000  0.41662000  1.0
  C  C18  1  0.82301000  0.37307000  0.27029000  1.0
  C  C19  1  0.17699000  0.62694000  0.72971000  1.0
  C  C20  1  0.91116000  0.29314000  0.12080000  1.0
  C  C21  1  0.08885000  0.70686000  0.87920000  1.0
  C  C22  1  0.77975000  0.21549000  0.97535000  1.0
  C  C23  1  0.22025000  0.78451000  0.02465000  1.0
  C  C24  1  0.56810000  0.22266000  0.98677000  1.0
  C  C25  1  0.43190000  0.77734000  0.01323000  1.0
  C  C26  1  0.41701000  0.14850000  0.83454000  1.0
  C  C27  1  0.58299000  0.85151000  0.16546000  1.0
  N  N28  1  0.30953000  0.28073000  0.44440000  1.0
  N  N29  1  0.69047000  0.71926000  0.55560000  1.0
  N  N30  1  0.73310000  0.35007000  0.62806000  1.0
  N  N31  1  0.26689000  0.64994000  0.37195000  1.0
  N  N32  1  0.62124000  0.37367000  0.27323000  1.0
  N  N33  1  0.37876000  0.62633000  0.72677000  1.0
  N  N34  1  0.49305000  0.29978000  0.13504000  1.0
  N  N35  1  0.50695000  0.70022000  0.86497000  1.0
