# generated using pymatgen
data_AgH9C6(NO)4
_symmetry_space_group_name_H-M   'P 1'
_cell_length_a   8.75767000
_cell_length_b   9.18449000
_cell_length_c   12.17510000
_cell_angle_alpha   90.00000000
_cell_angle_beta   90.00000000
_cell_angle_gamma   106.29500000
_symmetry_Int_Tables_number   1
_chemical_formula_structural   AgH9C6(NO)4
_chemical_formula_sum   'Ag4 H36 C24 N16 O16'
_cell_volume   939.96218013
_cell_formula_units_Z   4
loop_
 _symmetry_equiv_pos_site_id
 _symmetry_equiv_pos_as_xyz
  1  'x, y, z'
loop_
 _atom_site_type_symbol
 _atom_site_label
 _atom_site_symmetry_multiplicity
 _atom_site_fract_x
 _atom_site_fract_y
 _atom_site_fract_z
 _atom_site_occupancy
  Ag  Ag0  1  0.83068000  0.07657000  0.20161000  1.0
  Ag  Ag1  1  0.66932000  0.92342000  0.70161000  1.0
  Ag  Ag2  1  0.16932000  0.92342000  0.79839000  1.0
  Ag  Ag3  1  0.33068000  0.07658000  0.29839000  1.0
  H  H4  1  0.58697000  0.87067000  0.92516000  1.0
  H  H5  1  0.91303000  0.12933000  0.42515000  1.0
  H  H6  1  0.41303000  0.12934000  0.07485000  1.0
  H  H7  1  0.08697000  0.87067000  0.57485000  1.0
  H  H8  1  0.65485000  0.91000000  0.06179000  1.0
  H  H9  1  0.84515000  0.09000000  0.56179000  1.0
  H  H10  1  0.34515000  0.09000000  0.93821000  1.0
  H  H11  1  0.15485000  0.91000000  0.43821000  1.0
  H  H12  1  0.22456000  0.41622000  0.03447000  1.0
  H  H13  1  0.27544000  0.58378000  0.53447000  1.0
  H  H14  1  0.77544000  0.58378000  0.96553000  1.0
  H  H15  1  0.72456000  0.41622000  0.46553000  1.0
  H  H16  1  0.16862000  0.26355000  0.13013000  1.0
  H  H17  1  0.33138000  0.73645000  0.63013000  1.0
  H  H18  1  0.83138000  0.73645000  0.86987000  1.0
  H  H19  1  0.66862000  0.26355000  0.36987000  1.0
  H  H20  1  0.05527000  0.39558000  0.12249000  1.0
  H  H21  1  0.44473000  0.60442000  0.62249000  1.0
  H  H22  1  0.94473000  0.60442000  0.87751000  1.0
  H  H23  1  0.55527000  0.39558000  0.37751000  1.0
  H  H24  1  0.14514000  0.36572000  0.85272000  1.0
  H  H25  1  0.35486000  0.63428000  0.35272000  1.0
  H  H26  1  0.85486000  0.63428000  0.14728000  1.0
  H  H27  1  0.64514000  0.36572000  0.64728000  1.0
  H  H28  1  0.05778000  0.32735000  0.56378000  1.0
  H  H29  1  0.44222000  0.67265000  0.06378000  1.0
  H  H30  1  0.94222000  0.67265000  0.43622000  1.0
  H  H31  1  0.55778000  0.32735000  0.93623000  1.0
  H  H32  1  0.19265000  0.30538000  0.67011000  1.0
  H  H33  1  0.30735000  0.69462000  0.17011000  1.0
  H  H34  1  0.80735000  0.69462000  0.32989000  1.0
  H  H35  1  0.69265000  0.30538000  0.82989000  1.0
  H  H36  1  0.07165000  0.43337000  0.68815000  1.0
  H  H37  1  0.42835000  0.56663000  0.18815000  1.0
  H  H38  1  0.92834000  0.56663000  0.31185000  1.0
  H  H39  1  0.57166000  0.43337000  0.81185000  1.0
  C  C40  1  0.79594000  0.04050000  0.94623000  1.0
  C  C41  1  0.70406000  0.95950000  0.44623000  1.0
  C  C42  1  0.20406000  0.95950000  0.05377000  1.0
  C  C43  1  0.29594000  0.04050000  0.55377000  1.0
  C  C44  1  0.01788000  0.23987000  0.98948000  1.0
  C  C45  1  0.48212000  0.76013000  0.48948000  1.0
  C  C46  1  0.98212000  0.76013000  0.01052000  1.0
  C  C47  1  0.51788000  0.23987000  0.51052000  1.0
  C  C48  1  0.12352000  0.33481000  0.07362000  1.0
  C  C49  1  0.37648000  0.66519000  0.57362000  1.0
  C  C50  1  0.87648000  0.66519000  0.92638000  1.0
  C  C51  1  0.62352000  0.33481000  0.42638000  1.0
  C  C52  1  0.04579000  0.27154000  0.87823000  1.0
  C  C53  1  0.45421000  0.72846000  0.37823000  1.0
  C  C54  1  0.95421000  0.72846000  0.12177000  1.0
  C  C55  1  0.54579000  0.27154000  0.62177000  1.0
  C  C56  1  0.93935000  0.18093000  0.80390000  1.0
  C  C57  1  0.56065000  0.81907000  0.30390000  1.0
  C  C58  1  0.06065000  0.81907000  0.19609000  1.0
  C  C59  1  0.43935000  0.18093000  0.69610000  1.0
  C  C60  1  0.07756000  0.32577000  0.65239000  1.0
  C  C61  1  0.42244000  0.67423000  0.15239000  1.0
  C  C62  1  0.92244000  0.67423000  0.34761000  1.0
  C  C63  1  0.57756000  0.32577000  0.84761000  1.0
  N  N64  1  0.89468000  0.12438000  0.02411000  1.0
  N  N65  1  0.60532000  0.87562000  0.52411000  1.0
  N  N66  1  0.10532000  0.87563000  0.97589000  1.0
  N  N67  1  0.39468000  0.12438000  0.47589000  1.0
  N  N68  1  0.67441000  0.92605000  0.97963000  1.0
  N  N69  1  0.82559000  0.07395000  0.47963000  1.0
  N  N70  1  0.32559000  0.07395000  0.02037000  1.0
  N  N71  1  0.17441000  0.92605000  0.52037000  1.0
  N  N72  1  0.81459000  0.06622000  0.83607000  1.0
  N  N73  1  0.68541000  0.93378000  0.33607000  1.0
  N  N74  1  0.18541000  0.93378000  0.16393000  1.0
  N  N75  1  0.31459000  0.06622000  0.66393000  1.0
  N  N76  1  0.15973000  0.32498000  0.34162000  1.0
  N  N77  1  0.34027000  0.67502000  0.84162000  1.0
  N  N78  1  0.84027000  0.67502000  0.65838000  1.0
  N  N79  1  0.65973000  0.32498000  0.15838000  1.0
  O  O80  1  0.94974000  0.20103000  0.69453000  1.0
  O  O81  1  0.55026000  0.79897000  0.19453000  1.0
  O  O82  1  0.05026000  0.79897000  0.30547000  1.0
  O  O83  1  0.44974000  0.20103000  0.80547000  1.0
  O  O84  1  0.07566000  0.18469000  0.33628000  1.0
  O  O85  1  0.42433000  0.81531000  0.83628000  1.0
  O  O86  1  0.92433000  0.81531000  0.66372000  1.0
  O  O87  1  0.57567000  0.18469000  0.16372000  1.0
  O  O88  1  0.29930000  0.35925000  0.30300000  1.0
  O  O89  1  0.20070000  0.64075000  0.80300000  1.0
  O  O90  1  0.70070000  0.64075000  0.69700000  1.0
  O  O91  1  0.79930000  0.35925000  0.19700000  1.0
  O  O92  1  0.10263000  0.42230000  0.38447000  1.0
  O  O93  1  0.39737000  0.57770000  0.88447000  1.0
  O  O94  1  0.89737000  0.57770000  0.61553000  1.0
  O  O95  1  0.60263000  0.42230000  0.11553000  1.0
