# generated using pymatgen
data_CuH16C10(NO2)2
_symmetry_space_group_name_H-M   'P 1'
_cell_length_a   7.26336000
_cell_length_b   8.03961000
_cell_length_c   11.13591301
_cell_angle_alpha   75.96244786
_cell_angle_beta   71.97420297
_cell_angle_gamma   71.00300000
_symmetry_Int_Tables_number   1
_chemical_formula_structural   CuH16C10(NO2)2
_chemical_formula_sum   'Cu2 H32 C20 N4 O8'
_cell_volume   577.36129825
_cell_formula_units_Z   2
loop_
 _symmetry_equiv_pos_site_id
 _symmetry_equiv_pos_as_xyz
  1  'x, y, z'
loop_
 _atom_site_type_symbol
 _atom_site_label
 _atom_site_symmetry_multiplicity
 _atom_site_fract_x
 _atom_site_fract_y
 _atom_site_fract_z
 _atom_site_occupancy
  Cu  Cu0  1  0.71594000  0.68833000  0.81717000  1.0
  Cu  Cu1  1  0.28405000  0.31167000  0.18283000  1.0
  H  H2  1  0.81885000  0.64470000  0.05176000  1.0
  H  H3  1  0.18114000  0.35530000  0.94824000  1.0
  H  H4  1  0.98292000  0.66248000  0.92533000  1.0
  H  H5  1  0.01709000  0.33753000  0.07467000  1.0
  H  H6  1  0.73728000  0.04434000  0.99829000  1.0
  H  H7  1  0.26270000  0.95569000  0.00171000  1.0
  H  H8  1  0.86855000  0.14981000  0.05236000  1.0
  H  H9  1  0.13144000  0.85019000  0.94765000  1.0
  H  H10  1  0.82710000  0.87125000  0.19354000  1.0
  H  H11  1  0.17290000  0.12873000  0.80644000  1.0
  H  H12  1  0.69242000  0.05118000  0.27892000  1.0
  H  H13  1  0.30759000  0.94879000  0.72109000  1.0
  H  H14  1  0.52227000  0.79801000  0.29568000  1.0
  H  H15  1  0.47772000  0.20198000  0.70431000  1.0
  H  H16  1  0.49481000  0.89934000  0.13988000  1.0
  H  H17  1  0.50518000  0.10068000  0.86010000  1.0
  H  H18  1  0.42357000  0.11058000  0.42202000  1.0
  H  H19  1  0.57645000  0.88940000  0.57797000  1.0
  H  H20  1  0.15877000  0.14852000  0.45788000  1.0
  H  H21  1  0.84125000  0.85147000  0.54212000  1.0
  H  H22  1  0.31813000  0.92411000  0.47516000  1.0
  H  H23  1  0.68191000  0.07587000  0.52483000  1.0
  H  H24  1  0.16564000  0.84845000  0.33403000  1.0
  H  H25  1  0.83437000  0.15156000  0.66596000  1.0
  H  H26  1  0.00613000  0.07211000  0.33133000  1.0
  H  H27  1  0.99386000  0.92790000  0.66867000  1.0
  H  H28  1  0.14805000  0.99128000  0.18474000  1.0
  H  H29  1  0.85194000  0.00875000  0.81526000  1.0
  H  H30  1  0.52741000  0.54271000  0.70708000  1.0
  H  H31  1  0.47259000  0.45730000  0.29293000  1.0
  H  H32  1  0.16621000  0.51171000  0.47545000  1.0
  H  H33  1  0.83380000  0.48828000  0.52454000  1.0
  C  C34  1  0.58750000  0.41865000  0.99192000  1.0
  C  C35  1  0.41249000  0.58135000  0.00810000  1.0
  C  C36  1  0.72572000  0.11533000  0.07453000  1.0
  C  C37  1  0.27426000  0.88467000  0.92548000  1.0
  C  C38  1  0.69581000  0.98866000  0.20030000  1.0
  C  C39  1  0.30419000  0.01133000  0.79970000  1.0
  C  C40  1  0.50881000  0.92484000  0.22886000  1.0
  C  C41  1  0.49118000  0.07516000  0.77113000  1.0
  C  C42  1  0.30390000  0.05890000  0.41814000  1.0
  C  C43  1  0.69611000  0.94109000  0.58186000  1.0
  C  C44  1  0.14848000  0.98669000  0.28359000  1.0
  C  C45  1  0.85151000  0.01332000  0.71641000  1.0
  C  C46  1  0.14892000  0.56564000  0.71390000  1.0
  C  C47  1  0.85108000  0.43437000  0.28610000  1.0
  C  C48  1  0.32886000  0.53161000  0.60212000  1.0
  C  C49  1  0.67114000  0.46839000  0.39788000  1.0
  C  C50  1  0.51735000  0.52486000  0.61545000  1.0
  C  C51  1  0.48264000  0.47515000  0.38454000  1.0
  C  C52  1  0.31240000  0.50671000  0.48590000  1.0
  C  C53  1  0.68758000  0.49330000  0.51410000  1.0
  N  N54  1  0.56086000  0.27735000  0.07639000  1.0
  N  N55  1  0.43914000  0.72264000  0.92363000  1.0
  N  N56  1  0.31646000  0.05163000  0.28455000  1.0
  N  N57  1  0.68354000  0.94837000  0.71544000  1.0
  O  O58  1  0.74437000  0.42975000  0.90057000  1.0
  O  O59  1  0.25564000  0.57024000  0.09945000  1.0
  O  O60  1  0.97590000  0.61478000  0.68899000  1.0
  O  O61  1  0.02410000  0.38521000  0.31102000  1.0
  O  O62  1  0.18037000  0.54927000  0.82221000  1.0
  O  O63  1  0.81964000  0.45075000  0.17779000  1.0
  O  O64  1  0.84917000  0.72993000  0.97325000  1.0
  O  O65  1  0.15083000  0.27007000  0.02675000  1.0
