# generated using pymatgen
data_InH14C24(NO3)2
_symmetry_space_group_name_H-M   'P 1'
_cell_length_a   12.28380000
_cell_length_b   12.28420000
_cell_length_c   17.20000000
_cell_angle_alpha   70.73870000
_cell_angle_beta   70.74040000
_cell_angle_gamma   73.33390000
_symmetry_Int_Tables_number   1
_chemical_formula_structural   InH14C24(NO3)2
_chemical_formula_sum   'In4 H56 C96 N8 O24'
_cell_volume   2266.41786101
_cell_formula_units_Z   4
loop_
 _symmetry_equiv_pos_site_id
 _symmetry_equiv_pos_as_xyz
  1  'x, y, z'
loop_
 _atom_site_type_symbol
 _atom_site_label
 _atom_site_symmetry_multiplicity
 _atom_site_fract_x
 _atom_site_fract_y
 _atom_site_fract_z
 _atom_site_occupancy
  In  In0  1  0.43692000  0.25122000  0.54069000  1.0
  In  In1  1  0.74884000  0.56310000  0.95931000  1.0
  In  In2  1  0.56309000  0.74882000  0.45932000  1.0
  In  In3  1  0.25125000  0.43687000  0.04067000  1.0
  H  H4  1  0.09864000  0.02689000  0.78925000  1.0
  H  H5  1  0.97311000  0.90137000  0.71078000  1.0
  H  H6  1  0.90104000  0.97310000  0.21085000  1.0
  H  H7  1  0.02697000  0.09865000  0.28919000  1.0
  H  H8  1  0.07538000  0.82994000  0.89384000  1.0
  H  H9  1  0.17006000  0.92465000  0.60619000  1.0
  H  H10  1  0.92448000  0.16998000  0.10621000  1.0
  H  H11  1  0.83005000  0.07534000  0.39381000  1.0
  H  H12  1  0.44513000  0.69770000  0.80365000  1.0
  H  H13  1  0.30231000  0.55488000  0.69633000  1.0
  H  H14  1  0.55476000  0.30248000  0.19630000  1.0
  H  H15  1  0.69771000  0.44508000  0.30367000  1.0
  H  H16  1  0.46696000  0.89136000  0.69896000  1.0
  H  H17  1  0.10866000  0.53304000  0.80101000  1.0
  H  H18  1  0.53278000  0.10890000  0.30104000  1.0
  H  H19  1  0.89133000  0.46697000  0.19896000  1.0
  H  H20  1  0.74751000  0.17944000  0.70460000  1.0
  H  H21  1  0.82058000  0.25248000  0.79539000  1.0
  H  H22  1  0.25249000  0.82053000  0.29540000  1.0
  H  H23  1  0.17947000  0.74748000  0.20459000  1.0
  H  H24  1  0.45719000  0.47282000  0.70360000  1.0
  H  H25  1  0.52718000  0.54282000  0.79639000  1.0
  H  H26  1  0.54285000  0.52717000  0.29640000  1.0
  H  H27  1  0.47288000  0.45719000  0.20360000  1.0
  H  H28  1  0.32932000  0.51383000  0.56919000  1.0
  H  H29  1  0.48618000  0.67075000  0.93077000  1.0
  H  H30  1  0.67073000  0.48617000  0.43080000  1.0
  H  H31  1  0.51389000  0.32924000  0.06919000  1.0
  H  H32  1  0.17721000  0.69057000  0.52604000  1.0
  H  H33  1  0.30945000  0.82287000  0.97392000  1.0
  H  H34  1  0.82286000  0.30943000  0.47393000  1.0
  H  H35  1  0.69058000  0.17707000  0.02607000  1.0
  H  H36  1  0.06120000  0.68405000  0.43209000  1.0
  H  H37  1  0.31598000  0.93888000  0.06786000  1.0
  H  H38  1  0.93886000  0.31597000  0.56787000  1.0
  H  H39  1  0.68402000  0.06109000  0.93214000  1.0
  H  H40  1  0.02492000  0.57096000  0.34719000  1.0
  H  H41  1  0.42906000  0.97514000  0.15278000  1.0
  H  H42  1  0.97519000  0.42901000  0.65278000  1.0
  H  H43  1  0.57096000  0.02481000  0.84723000  1.0
  H  H44  1  0.06939000  0.38820000  0.30245000  1.0
  H  H45  1  0.61185000  0.93061000  0.19752000  1.0
  H  H46  1  0.93068000  0.61176000  0.69755000  1.0
  H  H47  1  0.38819000  0.06937000  0.80245000  1.0
  H  H48  1  0.18469000  0.17795000  0.30907000  1.0
  H  H49  1  0.82204000  0.81524000  0.19096000  1.0
  H  H50  1  0.81532000  0.82201000  0.69098000  1.0
  H  H51  1  0.17797000  0.18473000  0.80902000  1.0
  H  H52  1  0.32948000  0.00820000  0.37322000  1.0
  H  H53  1  0.99179000  0.67043000  0.12684000  1.0
  H  H54  1  0.67048000  0.99172000  0.62687000  1.0
  H  H55  1  0.00825000  0.32958000  0.87313000  1.0
  H  H56  1  0.43022000  0.04025000  0.46509000  1.0
  H  H57  1  0.95974000  0.56972000  0.03496000  1.0
  H  H58  1  0.56977000  0.95967000  0.53497000  1.0
  H  H59  1  0.04031000  0.43027000  0.96502000  1.0
  C  C60  1  0.28418000  0.97036000  0.73775000  1.0
  C  C61  1  0.02964000  0.71580000  0.76225000  1.0
  C  C62  1  0.71553000  0.02975000  0.26230000  1.0
  C  C63  1  0.97037000  0.28421000  0.23773000  1.0
  C  C64  1  0.17388000  0.95391000  0.79323000  1.0
  C  C65  1  0.04609000  0.82612000  0.70679000  1.0
  C  C66  1  0.82586000  0.04614000  0.20685000  1.0
  C  C67  1  0.95395000  0.17389000  0.29318000  1.0
  C  C68  1  0.16074000  0.84499000  0.85102000  1.0
  C  C69  1  0.15502000  0.83928000  0.64899000  1.0
  C  C70  1  0.83909000  0.15502000  0.14902000  1.0
  C  C71  1  0.84504000  0.16073000  0.35100000  1.0
  C  C72  1  0.25848000  0.75202000  0.85437000  1.0
  C  C73  1  0.24798000  0.74155000  0.64563000  1.0
  C  C74  1  0.74142000  0.24804000  0.14565000  1.0
  C  C75  1  0.75207000  0.25845000  0.35436000  1.0
  C  C76  1  0.36916000  0.76946000  0.79989000  1.0
  C  C77  1  0.23056000  0.63085000  0.70010000  1.0
  C  C78  1  0.63069000  0.23070000  0.20011000  1.0
  C  C79  1  0.76947000  0.36914000  0.29989000  1.0
  C  C80  1  0.38176000  0.87728000  0.74190000  1.0
  C  C81  1  0.12274000  0.61825000  0.75809000  1.0
  C  C82  1  0.61802000  0.12290000  0.25811000  1.0
  C  C83  1  0.87726000  0.38177000  0.24187000  1.0
  C  C84  1  0.30058000  0.08598000  0.67374000  1.0
  C  C85  1  0.91403000  0.69939000  0.82626000  1.0
  C  C86  1  0.69910000  0.91417000  0.32634000  1.0
  C  C87  1  0.08598000  0.30064000  0.17372000  1.0
  C  C88  1  0.24769000  0.63608000  0.91705000  1.0
  C  C89  1  0.36393000  0.75233000  0.58295000  1.0
  C  C90  1  0.75230000  0.36395000  0.08293000  1.0
  C  C91  1  0.63614000  0.24762000  0.41707000  1.0
  C  C92  1  0.59687000  0.32113000  0.69983000  1.0
  C  C93  1  0.67886000  0.40313000  0.80016000  1.0
  C  C94  1  0.40316000  0.67884000  0.30017000  1.0
  C  C95  1  0.32121000  0.59685000  0.19981000  1.0
  C  C96  1  0.70031000  0.25928000  0.72501000  1.0
  C  C97  1  0.74073000  0.29969000  0.77499000  1.0
  C  C98  1  0.29972000  0.74069000  0.27500000  1.0
  C  C99  1  0.25931000  0.70026000  0.22501000  1.0
  C  C100  1  0.53546000  0.42403000  0.72509000  1.0
  C  C101  1  0.57596000  0.46454000  0.77489000  1.0
  C  C102  1  0.46458000  0.57595000  0.27490000  1.0
  C  C103  1  0.42408000  0.53544000  0.22510000  1.0
  C  C104  1  0.55414000  0.27902000  0.64498000  1.0
  C  C105  1  0.72099000  0.44587000  0.85499000  1.0
  C  C106  1  0.44585000  0.72095000  0.35504000  1.0
  C  C107  1  0.27906000  0.55412000  0.14498000  1.0
  C  C108  1  0.27550000  0.51354000  0.53005000  1.0
  C  C109  1  0.48647000  0.72458000  0.96990000  1.0
  C  C110  1  0.72454000  0.48643000  0.46995000  1.0
  C  C111  1  0.51361000  0.27542000  0.03005000  1.0
  C  C112  1  0.19067000  0.61239000  0.50483000  1.0
  C  C113  1  0.38763000  0.80941000  0.99511000  1.0
  C  C114  1  0.80942000  0.38761000  0.49514000  1.0
  C  C115  1  0.61241000  0.19054000  0.00486000  1.0
  C  C116  1  0.12754000  0.60862000  0.45283000  1.0
  C  C117  1  0.39138000  0.87252000  0.04713000  1.0
  C  C118  1  0.87255000  0.39139000  0.54712000  1.0
  C  C119  1  0.60863000  0.12741000  0.95288000  1.0
  C  C120  1  0.14944000  0.50623000  0.42523000  1.0
  C  C121  1  0.49379000  0.85059000  0.07473000  1.0
  C  C122  1  0.85063000  0.49376000  0.57475000  1.0
  C  C123  1  0.50624000  0.14937000  0.92526000  1.0
  C  C124  1  0.23551000  0.41000000  0.45457000  1.0
  C  C125  1  0.59005000  0.76450000  0.04540000  1.0
  C  C126  1  0.76455000  0.59000000  0.54542000  1.0
  C  C127  1  0.41001000  0.23547000  0.95458000  1.0
  C  C128  1  0.09031000  0.49586000  0.36966000  1.0
  C  C129  1  0.50418000  0.90973000  0.13030000  1.0
  C  C130  1  0.90976000  0.50413000  0.63033000  1.0
  C  C131  1  0.49586000  0.09025000  0.86968000  1.0
  C  C132  1  0.11488000  0.39458000  0.34497000  1.0
  C  C133  1  0.60544000  0.88512000  0.15503000  1.0
  C  C134  1  0.88519000  0.60539000  0.65503000  1.0
  C  C135  1  0.39458000  0.11482000  0.84497000  1.0
  C  C136  1  0.19971000  0.29493000  0.37456000  1.0
  C  C137  1  0.70508000  0.80029000  0.12544000  1.0
  C  C138  1  0.80033000  0.70505000  0.62545000  1.0
  C  C139  1  0.29497000  0.19970000  0.87455000  1.0
  C  C140  1  0.22672000  0.18670000  0.35296000  1.0
  C  C141  1  0.81331000  0.77325000  0.14704000  1.0
  C  C142  1  0.77328000  0.81326000  0.64709000  1.0
  C  C143  1  0.18675000  0.22676000  0.85292000  1.0
  C  C144  1  0.30750000  0.09390000  0.38661000  1.0
  C  C145  1  0.90610000  0.69242000  0.11343000  1.0
  C  C146  1  0.69247000  0.90604000  0.61345000  1.0
  C  C147  1  0.09395000  0.30758000  0.88654000  1.0
  C  C148  1  0.36464000  0.11073000  0.43920000  1.0
  C  C149  1  0.88927000  0.63530000  0.06084000  1.0
  C  C150  1  0.63535000  0.88923000  0.56086000  1.0
  C  C151  1  0.11077000  0.36470000  0.93914000  1.0
  C  C152  1  0.26045000  0.30307000  0.42909000  1.0
  C  C153  1  0.69696000  0.73954000  0.07092000  1.0
  C  C154  1  0.73958000  0.69692000  0.57091000  1.0
  C  C155  1  0.30308000  0.26045000  0.92908000  1.0
  N  N156  1  0.29567000  0.41516000  0.50634000  1.0
  N  N157  1  0.58487000  0.70436000  0.99362000  1.0
  N  N158  1  0.70437000  0.58482000  0.49365000  1.0
  N  N159  1  0.41519000  0.29564000  0.00635000  1.0
  N  N160  1  0.34253000  0.21247000  0.45870000  1.0
  N  N161  1  0.78756000  0.65746000  0.04131000  1.0
  N  N162  1  0.65748000  0.78751000  0.54133000  1.0
  N  N163  1  0.21249000  0.34254000  0.95867000  1.0
  O  O164  1  0.40959000  0.08705000  0.62909000  1.0
  O  O165  1  0.91298000  0.59038000  0.87093000  1.0
  O  O166  1  0.59012000  0.91315000  0.37103000  1.0
  O  O167  1  0.08703000  0.40963000  0.12905000  1.0
  O  O168  1  0.21718000  0.17201000  0.66625000  1.0
  O  O169  1  0.82800000  0.78277000  0.83375000  1.0
  O  O170  1  0.78247000  0.82809000  0.33380000  1.0
  O  O171  1  0.17204000  0.21727000  0.16622000  1.0
  O  O172  1  0.14855000  0.60761000  0.95603000  1.0
  O  O173  1  0.39239000  0.85147000  0.54399000  1.0
  O  O174  1  0.85147000  0.39235000  0.04399000  1.0
  O  O175  1  0.60766000  0.14848000  0.45603000  1.0
  O  O176  1  0.34354000  0.56574000  0.93238000  1.0
  O  O177  1  0.43427000  0.65650000  0.56762000  1.0
  O  O178  1  0.65650000  0.43433000  0.06758000  1.0
  O  O179  1  0.56579000  0.34347000  0.43238000  1.0
  O  O180  1  0.45100000  0.33301000  0.63201000  1.0
  O  O181  1  0.66701000  0.54901000  0.86793000  1.0
  O  O182  1  0.54902000  0.66705000  0.36795000  1.0
  O  O183  1  0.33304000  0.45096000  0.13205000  1.0
  O  O184  1  0.61661000  0.19667000  0.61218000  1.0
  O  O185  1  0.80334000  0.38340000  0.88781000  1.0
  O  O186  1  0.38331000  0.80326000  0.38788000  1.0
  O  O187  1  0.19668000  0.61656000  0.11220000  1.0
