# generated using pymatgen
data_Zn2H18C39I6N2O17
_symmetry_space_group_name_H-M   'P 1'
_cell_length_a   10.91860000
_cell_length_b   12.01600000
_cell_length_c   13.01690000
_cell_angle_alpha   86.03530000
_cell_angle_beta   86.37260000
_cell_angle_gamma   82.16100000
_symmetry_Int_Tables_number   1
_chemical_formula_structural   Zn2H18C39I6N2O17
_chemical_formula_sum   'Zn2 H18 C39 I6 N2 O17'
_cell_volume   1685.27598936
_cell_formula_units_Z   1
loop_
 _symmetry_equiv_pos_site_id
 _symmetry_equiv_pos_as_xyz
  1  'x, y, z'
loop_
 _atom_site_type_symbol
 _atom_site_label
 _atom_site_symmetry_multiplicity
 _atom_site_fract_x
 _atom_site_fract_y
 _atom_site_fract_z
 _atom_site_occupancy
  Zn  Zn0  1  0.48385000  0.62360000  0.50656000  1.0
  Zn  Zn1  1  0.50389000  0.38040000  0.50207000  1.0
  H  H2  1  0.53887000  0.34864000  0.17935000  1.0
  H  H3  1  0.97254000  0.40201000  0.27491000  1.0
  H  H4  1  0.64705000  0.15401000  0.97035000  1.0
  H  H5  1  0.41265000  0.74933000  0.91084000  1.0
  H  H6  1  0.69320000  0.24428000  0.74780000  1.0
  H  H7  1  0.30769000  0.81946000  0.76725000  1.0
  H  H8  1  0.71415000  0.07503000  0.26822000  1.0
  H  H9  1  0.18194000  0.73307000  0.36558000  1.0
  H  H10  1  0.13243000  0.29856000  0.32144000  1.0
  H  H11  1  0.83058000  0.26736000  0.53378000  1.0
  H  H12  1  0.47885000  0.70939000  0.17952000  1.0
  H  H13  1  0.58088000  0.81601000  0.40143000  1.0
  H  H14  1  0.09810000  0.51600000  0.64000000  1.0
  H  H15  1  0.34983000  0.98651000  0.70136000  1.0
  H  H16  1  0.63260000  0.21515000  0.37418000  1.0
  H  H17  1  0.84617000  0.60411000  0.59755000  1.0
  H  H18  1  0.87969000  0.67121000  0.42503000  1.0
  H  H19  1  0.12235000  0.35276000  0.54006000  1.0
  C  C20  1  0.54737000  0.45851000  0.69700000  1.0
  C  C21  1  0.54498000  0.54396000  0.97380000  1.0
  C  C22  1  0.55165000  0.43481000  0.02831000  1.0
  C  C23  1  0.25752000  0.52951000  0.49157000  1.0
  C  C24  1  0.53517000  0.43009000  0.13727000  1.0
  C  C25  1  0.50339000  0.63348000  0.13744000  1.0
  C  C26  1  0.51324000  0.64274000  0.03082000  1.0
  C  C27  1  0.59069000  0.04546000  0.40402000  1.0
  C  C28  1  0.58166000  0.15810000  0.42383000  1.0
  C  C29  1  0.44339000  0.14350000  0.56620000  1.0
  C  C30  1  0.45525000  0.02384000  0.55943000  1.0
  C  C31  1  0.88158000  0.49443000  0.47217000  1.0
  C  C32  1  0.52631000  0.97444000  0.47459000  1.0
  C  C33  1  0.52881000  0.85624000  0.46626000  1.0
  C  C34  1  0.40693000  0.83914000  0.61857000  1.0
  C  C35  1  0.50193000  0.51862000  0.30624000  1.0
  C  C36  1  0.39951000  0.95236000  0.63277000  1.0
  C  C37  1  0.73817000  0.50037000  0.47832000  1.0
  C  C38  1  0.04708000  0.55779000  0.57537000  1.0
  C  C39  1  0.91397000  0.53235000  0.57737000  1.0
  C  C40  1  0.05987000  0.59573000  0.38267000  1.0
  C  C41  1  0.09855000  0.39463000  0.46464000  1.0
  C  C42  1  0.91950000  0.59052000  0.39402000  1.0
  C  C43  1  0.11955000  0.52165000  0.47293000  1.0
  C  C44  1  0.93549000  0.34900000  0.33963000  1.0
  C  C45  1  0.61276000  0.22081000  0.02360000  1.0
  C  C46  1  0.46265000  0.75437000  0.98215000  1.0
  C  C47  1  0.60970000  0.24229000  0.80121000  1.0
  C  C48  1  0.34097000  0.77127000  0.69827000  1.0
  C  C49  1  0.66634000  0.00818000  0.31033000  1.0
  C  C50  1  0.08394000  0.72016000  0.36283000  1.0
  C  C51  1  0.18101000  0.31924000  0.38921000  1.0
  C  C52  1  0.92977000  0.27353000  0.51617000  1.0
  C  C53  1  0.96025000  0.37998000  0.44973000  1.0
  C  C54  1  0.51559000  0.52694000  0.19086000  1.0
  C  C55  1  0.56938000  0.45260000  0.80993000  1.0
  C  C56  1  0.57874000  0.33452000  0.97205000  1.0
  C  C57  1  0.58016000  0.34476000  0.86420000  1.0
  C  C58  1  0.57033000  0.54796000  0.86507000  1.0
  I  I59  1  0.03444000  0.73619000  0.60857000  1.0
  I  I60  1  0.16495000  0.53822000  0.23857000  1.0
  I  I61  1  0.82288000  0.61035000  0.25129000  1.0
  I  I62  1  0.64158000  0.69189000  0.79493000  1.0
  I  I63  1  0.31141000  0.21566000  0.67343000  1.0
  I  I64  1  0.88410000  0.41388000  0.70968000  1.0
  N  N65  1  0.46964000  0.79216000  0.53414000  1.0
  N  N66  1  0.50852000  0.20653000  0.50197000  1.0
  O  O67  1  0.52832000  0.55384000  0.64972000  1.0
  O  O68  1  0.60799000  0.19712000  0.11701000  1.0
  O  O69  1  0.46170000  0.84423000  0.02112000  1.0
  O  O70  1  0.55610000  0.15884000  0.81300000  1.0
  O  O71  1  0.31956000  0.67531000  0.69125000  1.0
  O  O72  1  0.67525000  0.91322000  0.27973000  1.0
  O  O73  1  0.00120000  0.79480000  0.33988000  1.0
  O  O74  1  0.28437000  0.27143000  0.40381000  1.0
  O  O75  1  0.01164000  0.19680000  0.53669000  1.0
  O  O76  1  0.54144000  0.36500000  0.65765000  1.0
  O  O77  1  0.29599000  0.62405000  0.47620000  1.0
  O  O78  1  0.31906000  0.44098000  0.52980000  1.0
  O  O79  1  0.50151000  0.60942000  0.35072000  1.0
  O  O80  1  0.49171000  0.42164000  0.34957000  1.0
  O  O81  1  0.68187000  0.59825000  0.48994000  1.0
  O  O82  1  0.69152000  0.40971000  0.47600000  1.0
  O  O83  1  0.87594000  0.27343000  0.32397000  1.0
