# generated using pymatgen
data_FeH12C8S2(N3O)2
_symmetry_space_group_name_H-M   'P 1'
_cell_length_a   8.10734000
_cell_length_b   8.90765000
_cell_length_c   10.08700000
_cell_angle_alpha   89.56980000
_cell_angle_beta   89.11120000
_cell_angle_gamma   84.50040000
_symmetry_Int_Tables_number   1
_chemical_formula_structural   FeH12C8S2(N3O)2
_chemical_formula_sum   'Fe2 H24 C16 S4 N12 O4'
_cell_volume   725.00268777
_cell_formula_units_Z   2
loop_
 _symmetry_equiv_pos_site_id
 _symmetry_equiv_pos_as_xyz
  1  'x, y, z'
loop_
 _atom_site_type_symbol
 _atom_site_label
 _atom_site_symmetry_multiplicity
 _atom_site_fract_x
 _atom_site_fract_y
 _atom_site_fract_z
 _atom_site_occupancy
  Fe  Fe0  1  0.00000000  0.50000000  0.50000000  1.0
  Fe  Fe1  1  0.50000000  0.00000000  0.00000000  1.0
  H  H2  1  0.73806000  0.56055000  0.79141000  1.0
  H  H3  1  0.75906000  0.94317000  0.28946000  1.0
  H  H4  1  0.26194000  0.43945000  0.20859000  1.0
  H  H5  1  0.24094000  0.05682000  0.71053000  1.0
  H  H6  1  0.59248000  0.44116000  0.86019000  1.0
  H  H7  1  0.90864000  0.05681000  0.35592000  1.0
  H  H8  1  0.40752000  0.55883000  0.13981000  1.0
  H  H9  1  0.09137000  0.94318000  0.64407000  1.0
  H  H10  1  0.52975000  0.57191000  0.72755000  1.0
  H  H11  1  0.96798000  0.92776000  0.22157000  1.0
  H  H12  1  0.47025000  0.42809000  0.27245000  1.0
  H  H13  1  0.03202000  0.07224000  0.77842000  1.0
  H  H14  1  0.53588000  0.20152000  0.53689000  1.0
  H  H15  1  0.98001000  0.30405000  0.03945000  1.0
  H  H16  1  0.46412000  0.79848000  0.46311000  1.0
  H  H17  1  0.01999000  0.69595000  0.96055000  1.0
  H  H18  1  0.42500000  0.38248000  0.57657000  1.0
  H  H19  1  0.08301000  0.11886000  0.07532000  1.0
  H  H20  1  0.57499000  0.61753000  0.42343000  1.0
  H  H21  1  0.91699000  0.88114000  0.92468000  1.0
  H  H22  1  0.46384000  0.23727000  0.70301000  1.0
  H  H23  1  0.04618000  0.26026000  0.20507000  1.0
  H  H24  1  0.53616000  0.76273000  0.29699000  1.0
  H  H25  1  0.95382000  0.73974000  0.79493000  1.0
  C  C26  1  0.86369000  0.55599000  0.20652000  1.0
  C  C27  1  0.62952000  0.93991000  0.71789000  1.0
  C  C28  1  0.13632000  0.44401000  0.79348000  1.0
  C  C29  1  0.37048000  0.06009000  0.28211000  1.0
  C  C30  1  0.68131000  0.69151000  0.07282000  1.0
  C  C31  1  0.80835000  0.81924000  0.56804000  1.0
  C  C32  1  0.31870000  0.30850000  0.92718000  1.0
  C  C33  1  0.19165000  0.18077000  0.43196000  1.0
  C  C34  1  0.63189000  0.49795000  0.76982000  1.0
  C  C35  1  0.86758000  0.00328000  0.26601000  1.0
  C  C36  1  0.36811000  0.50204000  0.23018000  1.0
  C  C37  1  0.13242000  0.99672000  0.73399000  1.0
  C  C38  1  0.51091000  0.28869000  0.61261000  1.0
  C  C39  1  0.00018000  0.21404000  0.11375000  1.0
  C  C40  1  0.48909000  0.71132000  0.38739000  1.0
  C  C41  1  0.99982000  0.78596000  0.88625000  1.0
  S  S42  1  0.70574000  0.35500000  0.65208000  1.0
  S  S43  1  0.80081000  0.15116000  0.14992000  1.0
  S  S44  1  0.29426000  0.64500000  0.34792000  1.0
  S  S45  1  0.19919000  0.84883000  0.85008000  1.0
  N  N46  1  0.95087000  0.53064000  0.29810000  1.0
  N  N47  1  0.56064000  0.96478000  0.82004000  1.0
  N  N48  1  0.04913000  0.46937000  0.70190000  1.0
  N  N49  1  0.43936000  0.03522000  0.17997000  1.0
  N  N50  1  0.77629000  0.57019000  0.09951000  1.0
  N  N51  1  0.69335000  0.92476000  0.59920000  1.0
  N  N52  1  0.22371000  0.42981000  0.90050000  1.0
  N  N53  1  0.30665000  0.07524000  0.40080000  1.0
  N  N54  1  0.58942000  0.79568000  0.04159000  1.0
  N  N55  1  0.91434000  0.72824000  0.53094000  1.0
  N  N56  1  0.41058000  0.20432000  0.95841000  1.0
  N  N57  1  0.08566000  0.27176000  0.46907000  1.0
  O  O58  1  0.75240000  0.44143000  0.52655000  1.0
  O  O59  1  0.75728000  0.07400000  0.02195000  1.0
  O  O60  1  0.24760000  0.55857000  0.47345000  1.0
  O  O61  1  0.24272000  0.92600000  0.97805000  1.0
