# generated using pymatgen
data_Al2H15C26S2ClO10
_symmetry_space_group_name_H-M   'P 1'
_cell_length_a   7.30127000
_cell_length_b   12.60780000
_cell_length_c   15.12707379
_cell_angle_alpha   89.77927111
_cell_angle_beta   76.06258440
_cell_angle_gamma   75.06040000
_symmetry_Int_Tables_number   1
_chemical_formula_structural   Al2H15C26S2ClO10
_chemical_formula_sum   'Al2 H15 C26 S2 Cl1 O10'
_cell_volume   1303.29195650
_cell_formula_units_Z   1
loop_
 _symmetry_equiv_pos_site_id
 _symmetry_equiv_pos_as_xyz
  1  'x, y, z'
loop_
 _atom_site_type_symbol
 _atom_site_label
 _atom_site_symmetry_multiplicity
 _atom_site_fract_x
 _atom_site_fract_y
 _atom_site_fract_z
 _atom_site_occupancy
  Al  Al0  1  0.99661000  0.50520000  0.49866000  1.0
  Al  Al1  1  0.49842000  0.50131000  0.49960000  1.0
  H  H2  1  0.15780000  0.59221000  0.60041000  1.0
  H  H3  1  0.84036000  0.37358000  0.43803000  1.0
  H  H4  1  0.35853000  0.44752000  0.76784000  1.0
  H  H5  1  0.87614000  0.54880000  0.77285000  1.0
  H  H6  1  0.69048000  0.45446000  0.22841000  1.0
  H  H7  1  0.07899000  0.55385000  0.23053000  1.0
  H  H8  1  0.26498000  0.37300000  0.99911000  1.0
  H  H9  1  0.12803000  0.43550000  0.92304000  1.0
  H  H10  1  0.73667000  0.62458000  0.00928000  1.0
  H  H11  1  0.95374000  0.55886000  0.92891000  1.0
  H  H12  1  0.85927000  0.37283000  0.99146000  1.0
  H  H13  1  0.93557000  0.43952000  0.07211000  1.0
  H  H14  1  0.15572000  0.62409000  0.99875000  1.0
  H  H15  1  0.99595000  0.56287000  0.07442000  1.0
  H  H16  1  0.86497000  0.86460000  0.49075000  1.0
  C  C17  1  0.66453000  0.69418000  0.49008000  1.0
  C  C18  1  0.66880000  0.50223000  0.65964000  1.0
  C  C19  1  0.32574000  0.31061000  0.50635000  1.0
  C  C20  1  0.32741000  0.50474000  0.34004000  1.0
  C  C21  1  0.22658000  0.44856000  0.96296000  1.0
  C  C22  1  0.81515000  0.54719000  0.96775000  1.0
  C  C23  1  0.82604000  0.45037000  0.03294000  1.0
  C  C24  1  0.14648000  0.54877000  0.03501000  1.0
  C  C25  1  0.45216000  0.46901000  0.80723000  1.0
  C  C26  1  0.40649000  0.46825000  0.90195000  1.0
  C  C27  1  0.74533000  0.52635000  0.81007000  1.0
  C  C28  1  0.69861000  0.52536000  0.90477000  1.0
  C  C29  1  0.57811000  0.47463000  0.19030000  1.0
  C  C30  1  0.62664000  0.47211000  0.09542000  1.0
  C  C31  1  0.23141000  0.53132000  0.19155000  1.0
  C  C32  1  0.28154000  0.52892000  0.09669000  1.0
  C  C33  1  0.62163000  0.49856000  0.76099000  1.0
  C  C34  1  0.52943000  0.49682000  0.94991000  1.0
  C  C35  1  0.38001000  0.50386000  0.23848000  1.0
  C  C36  1  0.47821000  0.49888000  0.04952000  1.0
  C  C37  1  0.27767000  0.11312000  0.50343000  1.0
  C  C38  1  0.70981000  0.88963000  0.49270000  1.0
  C  C39  1  0.38367000  0.18991000  0.50486000  1.0
  C  C40  1  0.60081000  0.81497000  0.49139000  1.0
  C  C41  1  0.59169000  0.99855000  0.49695000  1.0
  C  C42  1  0.39557000  0.00399000  0.49888000  1.0
  S  S43  1  0.62731000  0.12798000  0.50080000  1.0
  S  S44  1  0.35562000  0.87580000  0.49524000  1.0
  Cl  Cl45  1  0.03476000  0.14154000  0.50684000  1.0
  O  O46  1  0.84345000  0.65096000  0.48890000  1.0
  O  O47  1  0.53062000  0.50037000  0.62161000  1.0
  O  O48  1  0.46503000  0.35525000  0.50714000  1.0
  O  O49  1  0.14992000  0.50717000  0.37843000  1.0
  O  O50  1  0.14905000  0.35709000  0.50550000  1.0
  O  O51  1  0.46539000  0.50154000  0.37916000  1.0
  O  O52  1  0.52922000  0.64624000  0.49159000  1.0
  O  O53  1  0.84187000  0.50844000  0.62079000  1.0
  O  O54  1  0.20438000  0.55376000  0.54052000  1.0
  O  O55  1  0.79163000  0.45069000  0.45926000  1.0
