# generated using pymatgen
data_CuH16C20N6Cl
_symmetry_space_group_name_H-M   'P 1'
_cell_length_a   9.55286000
_cell_length_b   10.65270000
_cell_length_c   11.20610000
_cell_angle_alpha   83.05270000
_cell_angle_beta   75.24520000
_cell_angle_gamma   77.81860000
_symmetry_Int_Tables_number   1
_chemical_formula_structural   CuH16C20N6Cl
_chemical_formula_sum   'Cu2 H32 C40 N12 Cl2'
_cell_volume   1075.21219193
_cell_formula_units_Z   2
loop_
 _symmetry_equiv_pos_site_id
 _symmetry_equiv_pos_as_xyz
  1  'x, y, z'
loop_
 _atom_site_type_symbol
 _atom_site_label
 _atom_site_symmetry_multiplicity
 _atom_site_fract_x
 _atom_site_fract_y
 _atom_site_fract_z
 _atom_site_occupancy
  Cu  Cu0  1  0.54875000  0.50576000  0.10423000  1.0
  Cu  Cu1  1  0.45125000  0.49423000  0.89577000  1.0
  H  H2  1  0.75513000  0.30186000  0.23916000  1.0
  H  H3  1  0.24485000  0.69813000  0.76084000  1.0
  H  H4  1  0.84543000  0.18409000  0.42084000  1.0
  H  H5  1  0.15455000  0.81591000  0.57916000  1.0
  H  H6  1  0.68224000  0.18690000  0.63107000  1.0
  H  H7  1  0.31775000  0.81311000  0.36894000  1.0
  H  H8  1  0.42153000  0.30231000  0.66973000  1.0
  H  H9  1  0.57846000  0.69770000  0.33027000  1.0
  H  H10  1  0.10275000  0.53993000  0.51330000  1.0
  H  H11  1  0.89724000  0.46008000  0.48670000  1.0
  H  H12  1  0.19764000  0.49354000  0.63282000  1.0
  H  H13  1  0.80235000  0.50648000  0.36718000  1.0
  H  H14  1  0.23220000  0.24852000  0.41967000  1.0
  H  H15  1  0.76781000  0.75150000  0.58033000  1.0
  H  H16  1  0.12591000  0.05097000  0.47500000  1.0
  H  H17  1  0.87412000  0.94904000  0.52499000  1.0
  H  H18  1  0.93133000  0.03351000  0.66969000  1.0
  H  H19  1  0.06870000  0.96648000  0.33029000  1.0
  H  H20  1  0.85111000  0.21209000  0.81015000  1.0
  H  H21  1  0.14891000  0.78788000  0.18985000  1.0
  H  H22  1  0.95057000  0.52687000  0.75071000  1.0
  H  H23  1  0.04943000  0.47312000  0.24929000  1.0
  H  H24  1  0.84854000  0.41978000  0.85294000  1.0
  H  H25  1  0.15146000  0.58022000  0.14706000  1.0
  H  H26  1  0.87833000  0.23507000  0.02018000  1.0
  H  H27  1  0.12167000  0.76494000  0.97982000  1.0
  H  H28  1  0.96385000  0.10398000  0.19700000  1.0
  H  H29  1  0.03614000  0.89602000  0.80299000  1.0
  H  H30  1  0.19564000  0.12375000  0.24796000  1.0
  H  H31  1  0.80434000  0.87624000  0.75204000  1.0
  H  H32  1  0.35567000  0.27426000  0.12026000  1.0
  H  H33  1  0.64432000  0.72573000  0.87975000  1.0
  C  C34  1  0.53753000  0.36686000  0.35364000  1.0
  C  C35  1  0.46246000  0.63314000  0.64636000  1.0
  C  C36  1  0.68360000  0.30004000  0.33160000  1.0
  C  C37  1  0.31639000  0.69997000  0.66840000  1.0
  C  C38  1  0.73180000  0.23547000  0.43324000  1.0
  C  C39  1  0.26819000  0.76453000  0.56676000  1.0
  C  C40  1  0.63823000  0.23632000  0.55373000  1.0
  C  C41  1  0.36177000  0.76369000  0.44627000  1.0
  C  C42  1  0.49272000  0.30066000  0.57677000  1.0
  C  C43  1  0.50727000  0.69934000  0.42323000  1.0
  C  C44  1  0.44474000  0.36562000  0.47367000  1.0
  C  C45  1  0.55525000  0.63438000  0.52633000  1.0
  C  C46  1  0.17599000  0.46007000  0.55143000  1.0
  C  C47  1  0.82401000  0.53994000  0.44857000  1.0
  C  C48  1  0.10817000  0.33999000  0.58600000  1.0
  C  C49  1  0.89184000  0.66002000  0.41400000  1.0
  C  C50  1  0.14996000  0.24003000  0.50627000  1.0
  C  C51  1  0.85005000  0.75997000  0.49372000  1.0
  C  C52  1  0.08891000  0.12920000  0.53662000  1.0
  C  C53  1  0.91112000  0.87080000  0.46337000  1.0
  C  C54  1  0.98152000  0.11875000  0.64602000  1.0
  C  C55  1  0.01851000  0.88124000  0.35398000  1.0
  C  C56  1  0.93758000  0.21806000  0.72561000  1.0
  C  C57  1  0.06244000  0.78193000  0.27438000  1.0
  C  C58  1  0.00161000  0.32795000  0.69778000  1.0
  C  C59  1  0.99839000  0.67205000  0.30222000  1.0
  C  C60  1  0.95705000  0.42793000  0.79229000  1.0
  C  C61  1  0.04295000  0.57206000  0.20771000  1.0
  C  C62  1  0.07344000  0.32399000  0.97082000  1.0
  C  C63  1  0.92656000  0.67601000  0.02918000  1.0
  C  C64  1  0.98233000  0.24095000  0.04078000  1.0
  C  C65  1  0.01766000  0.75904000  0.95922000  1.0
  C  C66  1  0.03069000  0.17015000  0.13979000  1.0
  C  C67  1  0.96930000  0.82984000  0.86022000  1.0
  C  C68  1  0.16306000  0.18186000  0.16900000  1.0
  C  C69  1  0.83693000  0.81814000  0.83100000  1.0
  C  C70  1  0.25301000  0.26444000  0.09992000  1.0
  C  C71  1  0.74699000  0.73555000  0.90008000  1.0
  C  C72  1  0.20629000  0.33572000  0.99861000  1.0
  C  C73  1  0.79371000  0.66428000  0.00140000  1.0
  N  N74  1  0.45707000  0.44179000  0.27494000  1.0
  N  N75  1  0.54292000  0.55822000  0.72506000  1.0
  N  N76  1  0.32210000  0.48269000  0.33879000  1.0
  N  N77  1  0.67790000  0.51732000  0.66121000  1.0
  N  N78  1  0.31364000  0.43886000  0.45887000  1.0
  N  N79  1  0.68635000  0.56115000  0.54113000  1.0
  N  N80  1  0.06333000  0.40858000  0.86994000  1.0
  N  N81  1  0.93667000  0.59142000  0.13007000  1.0
  N  N82  1  0.18148000  0.46728000  0.83564000  1.0
  N  N83  1  0.81852000  0.53272000  0.16436000  1.0
  N  N84  1  0.26798000  0.42526000  0.91226000  1.0
  N  N85  1  0.73202000  0.57474000  0.08774000  1.0
  Cl  Cl86  1  0.38428000  0.67311000  0.02181000  1.0
  Cl  Cl87  1  0.61573000  0.32689000  0.97819000  1.0
