# generated using pymatgen
data_CdH18C24N2O5
_symmetry_space_group_name_H-M   'P 1'
_cell_length_a   8.75332000
_cell_length_b   10.15730000
_cell_length_c   13.28155964
_cell_angle_alpha   67.59577800
_cell_angle_beta   89.05774239
_cell_angle_gamma   87.48850000
_symmetry_Int_Tables_number   1
_chemical_formula_structural   CdH18C24N2O5
_chemical_formula_sum   'Cd2 H36 C48 N4 O10'
_cell_volume   1090.68195965
_cell_formula_units_Z   2
loop_
 _symmetry_equiv_pos_site_id
 _symmetry_equiv_pos_as_xyz
  1  'x, y, z'
loop_
 _atom_site_type_symbol
 _atom_site_label
 _atom_site_symmetry_multiplicity
 _atom_site_fract_x
 _atom_site_fract_y
 _atom_site_fract_z
 _atom_site_occupancy
  Cd  Cd0  1  0.47624000  0.14097000  0.67371000  1.0
  Cd  Cd1  1  0.52376000  0.85902000  0.32629000  1.0
  H  H2  1  0.54263000  0.34804000  0.44955000  1.0
  H  H3  1  0.45737000  0.65194000  0.55046000  1.0
  H  H4  1  0.53579000  0.18983000  0.44809000  1.0
  H  H5  1  0.46419000  0.81015000  0.55191000  1.0
  H  H6  1  0.86907000  0.35992000  0.77305000  1.0
  H  H7  1  0.13091000  0.64006000  0.22696000  1.0
  H  H8  1  0.48620000  0.65691000  0.70679000  1.0
  H  H9  1  0.51381000  0.34309000  0.29321000  1.0
  H  H10  1  0.91674000  0.77220000  0.79147000  1.0
  H  H11  1  0.08326000  0.22780000  0.20854000  1.0
  H  H12  1  0.11290000  0.36528000  0.75556000  1.0
  H  H13  1  0.88708000  0.63472000  0.24444000  1.0
  H  H14  1  0.27325000  0.36570000  0.48103000  1.0
  H  H15  1  0.72676000  0.63432000  0.51897000  1.0
  H  H16  1  0.93837000  0.95444000  0.86775000  1.0
  H  H17  1  0.06163000  0.04557000  0.13225000  1.0
  H  H18  1  0.45989000  0.36397000  0.98133000  1.0
  H  H19  1  0.54011000  0.63600000  0.01868000  1.0
  H  H20  1  0.03682000  0.80227000  0.05078000  1.0
  H  H21  1  0.96320000  0.19775000  0.94922000  1.0
  H  H22  1  0.00089000  0.41578000  0.41685000  1.0
  H  H23  1  0.99912000  0.58423000  0.58315000  1.0
  H  H24  1  0.49200000  0.92961000  0.93396000  1.0
  H  H25  1  0.50801000  0.07041000  0.06604000  1.0
  H  H26  1  0.35878000  0.27095000  0.84791000  1.0
  H  H27  1  0.64120000  0.72904000  0.15209000  1.0
  H  H28  1  0.79613000  0.26962000  0.53961000  1.0
  H  H29  1  0.20388000  0.73038000  0.46039000  1.0
  H  H30  1  0.06442000  0.64781000  0.92837000  1.0
  H  H31  1  0.93557000  0.35217000  0.07163000  1.0
  H  H32  1  0.31862000  0.79535000  0.09032000  1.0
  H  H33  1  0.68139000  0.20467000  0.90968000  1.0
  H  H34  1  0.31261000  0.55665000  0.01797000  1.0
  H  H35  1  0.68738000  0.44333000  0.98204000  1.0
  H  H36  1  0.86885000  0.08975000  0.71971000  1.0
  H  H37  1  0.13116000  0.91025000  0.28029000  1.0
  C  C38  1  0.82223000  0.46398000  0.76664000  1.0
  C  C39  1  0.17775000  0.53602000  0.23336000  1.0
  C  C40  1  0.67065000  0.50082000  0.73261000  1.0
  C  C41  1  0.32932000  0.49919000  0.26738000  1.0
  C  C42  1  0.69630000  0.73063000  0.74428000  1.0
  C  C43  1  0.30369000  0.26937000  0.25571000  1.0
  C  C44  1  0.57735000  0.40797000  0.69491000  1.0
  C  C45  1  0.42265000  0.59204000  0.30508000  1.0
  C  C46  1  0.62708000  0.87670000  0.72063000  1.0
  C  C47  1  0.37294000  0.12330000  0.27937000  1.0
  C  C48  1  0.60668000  0.63169000  0.72626000  1.0
  C  C49  1  0.39331000  0.36831000  0.27373000  1.0
  C  C50  1  0.11183000  0.13001000  0.69583000  1.0
  C  C51  1  0.88817000  0.87001000  0.30416000  1.0
  C  C52  1  0.84819000  0.69355000  0.77782000  1.0
  C  C53  1  0.15180000  0.30644000  0.22218000  1.0
  C  C54  1  0.91250000  0.55826000  0.79209000  1.0
  C  C55  1  0.08750000  0.44174000  0.20791000  1.0
  C  C56  1  0.15445000  0.40635000  0.81439000  1.0
  C  C57  1  0.84553000  0.59365000  0.18561000  1.0
  C  C58  1  0.06838000  0.51251000  0.83635000  1.0
  C  C59  1  0.93162000  0.48748000  0.16366000  1.0
  C  C60  1  0.16349000  0.02764000  0.80480000  1.0
  C  C61  1  0.83652000  0.97236000  0.19520000  1.0
  C  C62  1  0.18018000  0.30634000  0.53091000  1.0
  C  C63  1  0.81983000  0.69367000  0.46909000  1.0
  C  C64  1  0.06046000  0.94859000  0.88477000  1.0
  C  C65  1  0.93954000  0.05142000  0.11523000  1.0
  C  C66  1  0.35204000  0.40693000  0.93945000  1.0
  C  C67  1  0.64794000  0.59305000  0.06055000  1.0
  C  C68  1  0.11616000  0.86317000  0.98774000  1.0
  C  C69  1  0.88385000  0.13683000  0.01226000  1.0
  C  C70  1  0.02862000  0.33406000  0.49617000  1.0
  C  C71  1  0.97138000  0.66595000  0.50383000  1.0
  C  C72  1  0.36799000  0.93385000  0.92421000  1.0
  C  C73  1  0.63202000  0.06616000  0.07579000  1.0
  C  C74  1  0.29419000  0.35346000  0.86595000  1.0
  C  C75  1  0.70579000  0.64653000  0.13404000  1.0
  C  C76  1  0.91576000  0.25410000  0.56460000  1.0
  C  C77  1  0.08424000  0.74590000  0.43540000  1.0
  C  C78  1  0.13009000  0.56753000  0.90850000  1.0
  C  C79  1  0.86990000  0.43247000  0.09149000  1.0
  C  C80  1  0.27234000  0.85665000  0.00931000  1.0
  C  C81  1  0.72768000  0.14335000  0.99070000  1.0
  C  C82  1  0.27005000  0.51544000  0.95954000  1.0
  C  C83  1  0.72993000  0.48456000  0.04046000  1.0
  C  C84  1  0.95729000  0.15181000  0.66606000  1.0
  C  C85  1  0.04271000  0.84818000  0.33395000  1.0
  N  N86  1  0.22057000  0.20585000  0.62732000  1.0
  N  N87  1  0.77944000  0.79417000  0.37268000  1.0
  N  N88  1  0.31499000  0.01725000  0.82538000  1.0
  N  N89  1  0.68502000  0.98276000  0.17462000  1.0
  O  O90  1  0.47537000  0.46601000  0.62398000  1.0
  O  O91  1  0.52463000  0.53397000  0.37602000  1.0
  O  O92  1  0.61124000  0.27326000  0.73746000  1.0
  O  O93  1  0.38875000  0.72674000  0.26254000  1.0
  O  O94  1  0.56103000  0.24355000  0.49335000  1.0
  O  O95  1  0.43896000  0.75644000  0.50665000  1.0
  O  O96  1  0.51745000  0.91863000  0.65091000  1.0
  O  O97  1  0.48256000  0.08138000  0.34911000  1.0
  O  O98  1  0.67733000  0.95320000  0.76845000  1.0
  O  O99  1  0.32271000  0.04680000  0.23155000  1.0
