# generated using pymatgen
data_ZnH13C20N5O4
_symmetry_space_group_name_H-M   'P 1'
_cell_length_a   10.26000000
_cell_length_b   16.34960000
_cell_length_c   24.20800000
_cell_angle_alpha   89.23130000
_cell_angle_beta   89.99870000
_cell_angle_gamma   89.99960000
_symmetry_Int_Tables_number   1
_chemical_formula_structural   ZnH13C20N5O4
_chemical_formula_sum   'Zn8 H104 C160 N40 O32'
_cell_volume   4060.45139257
_cell_formula_units_Z   8
loop_
 _symmetry_equiv_pos_site_id
 _symmetry_equiv_pos_as_xyz
  1  'x, y, z'
loop_
 _atom_site_type_symbol
 _atom_site_label
 _atom_site_symmetry_multiplicity
 _atom_site_fract_x
 _atom_site_fract_y
 _atom_site_fract_z
 _atom_site_occupancy
  Zn  Zn0  1  0.72511000  0.37978000  0.73174000  1.0
  Zn  Zn1  1  0.22509000  0.12022000  0.76826000  1.0
  Zn  Zn2  1  0.27489000  0.62022000  0.26826000  1.0
  Zn  Zn3  1  0.77491000  0.87979000  0.23174000  1.0
  Zn  Zn4  1  0.74620000  0.02060000  0.35991000  1.0
  Zn  Zn5  1  0.24619000  0.47940000  0.14009000  1.0
  Zn  Zn6  1  0.25381000  0.97940000  0.64009000  1.0
  Zn  Zn7  1  0.75380000  0.52060000  0.85991000  1.0
  H  H8  1  0.89347000  0.00742000  0.14483000  1.0
  H  H9  1  0.39344000  0.49259000  0.35516000  1.0
  H  H10  1  0.10654000  0.99258000  0.85517000  1.0
  H  H11  1  0.60657000  0.50741000  0.64484000  1.0
  H  H12  1  0.51553000  0.93398000  0.17608000  1.0
  H  H13  1  0.01551000  0.56602000  0.32393000  1.0
  H  H14  1  0.48447000  0.06602000  0.82392000  1.0
  H  H15  1  0.98451000  0.43397000  0.67607000  1.0
  H  H16  1  0.44252000  0.36380000  0.99313000  1.0
  H  H17  1  0.94253000  0.13621000  0.50688000  1.0
  H  H18  1  0.55747000  0.63622000  0.00688000  1.0
  H  H19  1  0.05747000  0.86381000  0.49313000  1.0
  H  H20  1  0.37886000  0.40373000  0.71470000  1.0
  H  H21  1  0.87885000  0.09627000  0.78529000  1.0
  H  H22  1  0.62114000  0.59626000  0.28529000  1.0
  H  H23  1  0.12116000  0.90373000  0.21470000  1.0
  H  H24  1  0.34322000  0.53518000  0.86697000  1.0
  H  H25  1  0.84321000  0.96483000  0.63304000  1.0
  H  H26  1  0.65679000  0.46483000  0.13303000  1.0
  H  H27  1  0.15678000  0.03518000  0.36697000  1.0
  H  H28  1  0.10301000  0.50633000  0.86911000  1.0
  H  H29  1  0.60301000  0.99367000  0.63089000  1.0
  H  H30  1  0.89699000  0.49367000  0.13089000  1.0
  H  H31  1  0.39698000  0.00633000  0.36911000  1.0
  H  H32  1  0.84706000  0.36102000  0.04534000  1.0
  H  H33  1  0.34706000  0.13898000  0.45466000  1.0
  H  H34  1  0.15293000  0.63898000  0.95466000  1.0
  H  H35  1  0.65293000  0.86101000  0.54534000  1.0
  H  H36  1  0.47560000  0.30598000  0.78089000  1.0
  H  H37  1  0.97559000  0.19402000  0.71910000  1.0
  H  H38  1  0.52439000  0.69402000  0.21911000  1.0
  H  H39  1  0.02441000  0.80599000  0.28089000  1.0
  H  H40  1  0.43136000  0.17994000  0.23062000  1.0
  H  H41  1  0.93136000  0.32006000  0.26939000  1.0
  H  H42  1  0.56863000  0.82006000  0.76938000  1.0
  H  H43  1  0.06863000  0.67994000  0.73061000  1.0
  H  H44  1  0.74855000  0.08866000  0.53702000  1.0
  H  H45  1  0.24854000  0.41133000  0.96298000  1.0
  H  H46  1  0.25148000  0.91133000  0.46297000  1.0
  H  H47  1  0.75146000  0.58867000  0.03703000  1.0
  H  H48  1  0.89129000  0.12517000  0.27268000  1.0
  H  H49  1  0.39127000  0.37484000  0.22732000  1.0
  H  H50  1  0.10872000  0.87484000  0.72732000  1.0
  H  H51  1  0.60871000  0.62516000  0.77268000  1.0
  H  H52  1  0.50270000  0.09966000  0.31424000  1.0
  H  H53  1  0.00269000  0.40034000  0.18576000  1.0
  H  H54  1  0.49730000  0.90034000  0.68575000  1.0
  H  H55  1  0.99731000  0.59966000  0.81424000  1.0
  H  H56  1  0.40078000  0.23030000  0.86446000  1.0
  H  H57  1  0.90078000  0.26969000  0.63554000  1.0
  H  H58  1  0.59922000  0.76970000  0.13554000  1.0
  H  H59  1  0.09923000  0.73031000  0.36446000  1.0
  H  H60  1  0.83752000  0.20766000  0.18781000  1.0
  H  H61  1  0.33752000  0.29235000  0.31219000  1.0
  H  H62  1  0.16247000  0.79235000  0.81219000  1.0
  H  H63  1  0.66247000  0.70765000  0.68781000  1.0
  H  H64  1  0.51402000  0.43736000  0.90810000  1.0
  H  H65  1  0.01404000  0.06265000  0.59190000  1.0
  H  H66  1  0.48595000  0.56266000  0.09190000  1.0
  H  H67  1  0.98597000  0.93737000  0.40811000  1.0
  H  H68  1  0.80672000  0.20530000  0.91135000  1.0
  H  H69  1  0.30672000  0.29470000  0.58865000  1.0
  H  H70  1  0.19328000  0.79470000  0.08865000  1.0
  H  H71  1  0.69329000  0.70530000  0.41135000  1.0
  H  H72  1  0.86347000  0.28380000  0.82623000  1.0
  H  H73  1  0.36347000  0.21620000  0.67377000  1.0
  H  H74  1  0.13653000  0.71620000  0.17377000  1.0
  H  H75  1  0.63654000  0.78380000  0.32623000  1.0
  H  H76  1  0.42899000  0.01112000  0.09532000  1.0
  H  H77  1  0.92898000  0.48888000  0.40469000  1.0
  H  H78  1  0.57101000  0.98888000  0.90468000  1.0
  H  H79  1  0.07104000  0.51110000  0.59531000  1.0
  H  H80  1  0.50013000  0.26263000  0.45345000  1.0
  H  H81  1  0.00013000  0.23737000  0.04656000  1.0
  H  H82  1  0.49986000  0.73737000  0.54656000  1.0
  H  H83  1  0.99986000  0.76263000  0.95345000  1.0
  H  H84  1  0.82307000  0.09240000  0.06223000  1.0
  H  H85  1  0.32306000  0.40760000  0.43776000  1.0
  H  H86  1  0.17692000  0.90760000  0.93777000  1.0
  H  H87  1  0.67695000  0.59238000  0.56223000  1.0
  H  H88  1  0.90156000  0.42848000  0.95535000  1.0
  H  H89  1  0.40155000  0.07153000  0.54464000  1.0
  H  H90  1  0.09843000  0.57152000  0.04465000  1.0
  H  H91  1  0.59845000  0.92846000  0.45535000  1.0
  H  H92  1  0.48571000  0.34421000  0.54067000  1.0
  H  H93  1  0.98570000  0.15578000  0.95934000  1.0
  H  H94  1  0.51430000  0.65577000  0.45934000  1.0
  H  H95  1  0.01430000  0.84421000  0.04066000  1.0
  H  H96  1  0.13960000  0.37139000  0.71854000  1.0
  H  H97  1  0.63958000  0.12861000  0.78146000  1.0
  H  H98  1  0.86039000  0.62861000  0.28146000  1.0
  H  H99  1  0.36042000  0.87139000  0.21854000  1.0
  H  H100  1  0.73206000  0.16987000  0.62355000  1.0
  H  H101  1  0.23206000  0.33012000  0.87644000  1.0
  H  H102  1  0.26796000  0.83012000  0.37644000  1.0
  H  H103  1  0.76794000  0.66987000  0.12356000  1.0
  H  H104  1  0.37001000  0.12244000  0.03920000  1.0
  H  H105  1  0.87000000  0.37756000  0.46081000  1.0
  H  H106  1  0.62999000  0.87757000  0.96080000  1.0
  H  H107  1  0.13000000  0.62243000  0.53919000  1.0
  H  H108  1  0.38913000  0.33711000  0.08059000  1.0
  H  H109  1  0.88912000  0.16289000  0.41942000  1.0
  H  H110  1  0.61087000  0.66290000  0.91941000  1.0
  H  H111  1  0.11087000  0.83711000  0.58059000  1.0
  C  C112  1  0.79146000  0.01150000  0.13246000  1.0
  C  C113  1  0.29144000  0.48850000  0.36753000  1.0
  C  C114  1  0.20854000  0.98849000  0.86753000  1.0
  C  C115  1  0.70858000  0.51149000  0.63246000  1.0
  C  C116  1  0.58024000  0.97021000  0.14994000  1.0
  C  C117  1  0.08022000  0.52980000  0.35006000  1.0
  C  C118  1  0.41976000  0.02978000  0.85005000  1.0
  C  C119  1  0.91980000  0.47020000  0.64994000  1.0
  C  C120  1  0.54526000  0.37813000  0.98732000  1.0
  C  C121  1  0.04527000  0.12188000  0.51268000  1.0
  C  C122  1  0.45472000  0.62189000  0.01269000  1.0
  C  C123  1  0.95473000  0.87813000  0.48732000  1.0
  C  C124  1  0.63913000  0.35584000  0.02682000  1.0
  C  C125  1  0.13913000  0.14417000  0.47318000  1.0
  C  C126  1  0.36085000  0.64417000  0.97318000  1.0
  C  C127  1  0.86086000  0.85584000  0.52682000  1.0
  C  C128  1  0.60019000  0.31386000  0.07768000  1.0
  C  C129  1  0.10019000  0.18615000  0.42232000  1.0
  C  C130  1  0.39980000  0.68615000  0.92232000  1.0
  C  C131  1  0.89980000  0.81385000  0.57768000  1.0
  C  C132  1  0.96418000  0.42065000  0.79546000  1.0
  C  C133  1  0.46417000  0.07936000  0.70454000  1.0
  C  C134  1  0.03582000  0.57936000  0.20454000  1.0
  C  C135  1  0.53583000  0.92065000  0.29546000  1.0
  C  C136  1  0.31751000  0.42568000  0.74837000  1.0
  C  C137  1  0.81750000  0.07432000  0.75163000  1.0
  C  C138  1  0.68248000  0.57432000  0.25163000  1.0
  C  C139  1  0.18250000  0.92568000  0.24837000  1.0
  C  C140  1  0.10771000  0.43706000  0.79389000  1.0
  C  C141  1  0.60770000  0.06295000  0.70611000  1.0
  C  C142  1  0.89229000  0.56294000  0.20611000  1.0
  C  C143  1  0.39229000  0.93705000  0.29389000  1.0
  C  C144  1  0.29712000  0.50000000  0.83443000  1.0
  C  C145  1  0.79712000  0.00000000  0.66557000  1.0
  C  C146  1  0.70288000  0.50000000  0.16557000  1.0
  C  C147  1  0.20288000  0.99999000  0.33444000  1.0
  C  C148  1  0.51867000  0.48273000  0.79263000  1.0
  C  C149  1  0.01867000  0.01728000  0.70737000  1.0
  C  C150  1  0.48132000  0.51728000  0.20737000  1.0
  C  C151  1  0.98133000  0.98273000  0.29262000  1.0
  C  C152  1  0.37425000  0.47070000  0.79109000  1.0
  C  C153  1  0.87424000  0.02931000  0.70891000  1.0
  C  C154  1  0.62574000  0.52931000  0.20891000  1.0
  C  C155  1  0.12575000  0.97069000  0.29109000  1.0
  C  C156  1  0.62958000  0.19909000  0.20193000  1.0
  C  C157  1  0.12957000  0.30093000  0.29808000  1.0
  C  C158  1  0.37042000  0.80092000  0.79807000  1.0
  C  C159  1  0.87042000  0.69907000  0.70192000  1.0
  C  C160  1  0.16429000  0.48371000  0.83582000  1.0
  C  C161  1  0.66429000  0.01629000  0.66419000  1.0
  C  C162  1  0.83572000  0.51629000  0.16419000  1.0
  C  C163  1  0.33571000  0.98371000  0.33582000  1.0
  C  C164  1  0.62003000  0.05963000  0.07207000  1.0
  C  C165  1  0.12001000  0.44037000  0.42793000  1.0
  C  C166  1  0.37997000  0.94037000  0.92793000  1.0
  C  C167  1  0.87999000  0.55961000  0.57207000  1.0
  C  C168  1  0.59839000  0.21440000  0.89651000  1.0
  C  C169  1  0.09840000  0.28559000  0.60349000  1.0
  C  C170  1  0.40160000  0.78560000  0.10348000  1.0
  C  C171  1  0.90160000  0.71441000  0.39651000  1.0
  C  C172  1  0.77002000  0.37477000  0.01558000  1.0
  C  C173  1  0.27002000  0.12523000  0.48442000  1.0
  C  C174  1  0.22997000  0.62524000  0.98442000  1.0
  C  C175  1  0.72997000  0.87476000  0.51558000  1.0
  C  C176  1  0.54586000  0.28436000  0.81151000  1.0
  C  C177  1  0.04585000  0.21564000  0.68849000  1.0
  C  C178  1  0.45414000  0.71564000  0.18849000  1.0
  C  C179  1  0.95416000  0.78436000  0.31151000  1.0
  C  C180  1  0.53437000  0.16863000  0.23847000  1.0
  C  C181  1  0.03436000  0.33137000  0.26153000  1.0
  C  C182  1  0.46563000  0.83137000  0.76153000  1.0
  C  C183  1  0.96563000  0.66863000  0.73846000  1.0
  C  C184  1  0.69271000  0.14542000  0.53768000  1.0
  C  C185  1  0.19272000  0.35457000  0.96232000  1.0
  C  C186  1  0.30731000  0.85457000  0.46232000  1.0
  C  C187  1  0.80730000  0.64542000  0.03768000  1.0
  C  C188  1  0.79064000  0.13794000  0.26154000  1.0
  C  C189  1  0.29063000  0.36206000  0.23846000  1.0
  C  C190  1  0.20936000  0.86206000  0.73846000  1.0
  C  C191  1  0.70936000  0.63794000  0.76154000  1.0
  C  C192  1  0.57303000  0.12354000  0.28451000  1.0
  C  C193  1  0.07302000  0.37645000  0.21549000  1.0
  C  C194  1  0.42697000  0.87646000  0.71549000  1.0
  C  C195  1  0.92697000  0.62355000  0.78451000  1.0
  C  C196  1  0.57575000  0.10683000  0.02410000  1.0
  C  C197  1  0.07573000  0.39317000  0.47590000  1.0
  C  C198  1  0.42426000  0.89317000  0.97590000  1.0
  C  C199  1  0.92427000  0.60683000  0.52410000  1.0
  C  C200  1  0.60204000  0.31247000  0.63818000  1.0
  C  C201  1  0.10202000  0.18752000  0.86182000  1.0
  C  C202  1  0.39798000  0.68751000  0.36182000  1.0
  C  C203  1  0.89797000  0.81248000  0.13818000  1.0
  C  C204  1  0.63805000  0.12334000  0.43823000  1.0
  C  C205  1  0.13806000  0.37667000  0.06176000  1.0
  C  C206  1  0.36194000  0.87667000  0.56176000  1.0
  C  C207  1  0.86195000  0.62334000  0.93824000  1.0
  C  C208  1  0.60909000  0.26200000  0.58685000  1.0
  C  C209  1  0.10907000  0.23800000  0.91315000  1.0
  C  C210  1  0.39094000  0.73799000  0.41315000  1.0
  C  C211  1  0.89092000  0.76200000  0.08685000  1.0
  C  C212  1  0.50447000  0.24200000  0.85841000  1.0
  C  C213  1  0.00447000  0.25800000  0.64159000  1.0
  C  C214  1  0.49553000  0.75800000  0.14159000  1.0
  C  C215  1  0.99554000  0.74201000  0.35841000  1.0
  C  C216  1  0.62828000  0.17223000  0.48971000  1.0
  C  C217  1  0.12828000  0.32777000  0.01029000  1.0
  C  C218  1  0.37173000  0.82777000  0.51029000  1.0
  C  C219  1  0.87172000  0.67223000  0.98971000  1.0
  C  C220  1  0.59248000  0.24575000  0.15269000  1.0
  C  C221  1  0.09247000  0.25426000  0.34731000  1.0
  C  C222  1  0.40752000  0.75426000  0.84731000  1.0
  C  C223  1  0.90753000  0.74574000  0.65269000  1.0
  C  C224  1  0.76067000  0.18405000  0.21466000  1.0
  C  C225  1  0.26066000  0.31596000  0.28534000  1.0
  C  C226  1  0.23933000  0.81596000  0.78534000  1.0
  C  C227  1  0.73933000  0.68404000  0.71466000  1.0
  C  C228  1  0.58441000  0.41811000  0.93929000  1.0
  C  C229  1  0.08441000  0.08190000  0.56071000  1.0
  C  C230  1  0.41557000  0.58191000  0.06071000  1.0
  C  C231  1  0.91558000  0.91811000  0.43929000  1.0
  C  C232  1  0.56158000  0.17331000  0.94816000  1.0
  C  C233  1  0.06158000  0.32668000  0.55184000  1.0
  C  C234  1  0.43841000  0.82669000  0.05184000  1.0
  C  C235  1  0.93842000  0.67331000  0.44815000  1.0
  C  C236  1  0.73003000  0.22777000  0.88412000  1.0
  C  C237  1  0.23004000  0.27223000  0.61588000  1.0
  C  C238  1  0.26997000  0.77223000  0.11588000  1.0
  C  C239  1  0.76997000  0.72778000  0.38412000  1.0
  C  C240  1  0.76218000  0.27154000  0.83650000  1.0
  C  C241  1  0.26218000  0.22846000  0.66350000  1.0
  C  C242  1  0.23782000  0.72846000  0.16350000  1.0
  C  C243  1  0.73782000  0.77155000  0.33650000  1.0
  C  C244  1  0.53270000  0.01448000  0.10492000  1.0
  C  C245  1  0.03270000  0.48553000  0.39509000  1.0
  C  C246  1  0.46729000  0.98552000  0.89508000  1.0
  C  C247  1  0.96732000  0.51446000  0.60490000  1.0
  C  C248  1  0.55210000  0.24333000  0.49074000  1.0
  C  C249  1  0.05210000  0.25666000  0.00927000  1.0
  C  C250  1  0.44791000  0.75666000  0.50926000  1.0
  C  C251  1  0.94790000  0.74334000  0.99074000  1.0
  C  C252  1  0.75247000  0.05760000  0.08655000  1.0
  C  C253  1  0.25245000  0.44241000  0.41344000  1.0
  C  C254  1  0.24754000  0.94240000  0.91344000  1.0
  C  C255  1  0.74756000  0.55758000  0.58655000  1.0
  C  C256  1  0.80063000  0.41376000  0.96575000  1.0
  C  C257  1  0.30063000  0.08624000  0.53424000  1.0
  C  C258  1  0.19935000  0.58624000  0.03424000  1.0
  C  C259  1  0.69936000  0.91376000  0.46575000  1.0
  C  C260  1  0.54330000  0.28820000  0.53904000  1.0
  C  C261  1  0.04329000  0.21179000  0.96097000  1.0
  C  C262  1  0.45671000  0.71179000  0.46096000  1.0
  C  C263  1  0.95671000  0.78821000  0.03904000  1.0
  C  C264  1  0.18474000  0.40844000  0.75033000  1.0
  C  C265  1  0.68473000  0.09157000  0.74967000  1.0
  C  C266  1  0.81526000  0.59157000  0.24967000  1.0
  C  C267  1  0.31527000  0.90843000  0.25033000  1.0
  C  C268  1  0.68286000  0.19005000  0.58596000  1.0
  C  C269  1  0.18285000  0.30994000  0.91404000  1.0
  C  C270  1  0.31717000  0.80994000  0.41403000  1.0
  C  C271  1  0.81715000  0.69005000  0.08596000  1.0
  N  N272  1  0.67224000  0.30122000  0.80107000  1.0
  N  N273  1  0.17223000  0.19878000  0.69893000  1.0
  N  N274  1  0.32776000  0.69879000  0.19893000  1.0
  N  N275  1  0.82777000  0.80122000  0.30107000  1.0
  N  N276  1  0.64879000  0.13416000  0.98220000  1.0
  N  N277  1  0.14879000  0.36585000  0.51780000  1.0
  N  N278  1  0.35121000  0.86584000  0.01780000  1.0
  N  N279  1  0.85122000  0.63414000  0.48219000  1.0
  N  N280  1  0.43828000  0.17218000  0.96695000  1.0
  N  N281  1  0.93828000  0.32781000  0.53305000  1.0
  N  N282  1  0.56171000  0.82782000  0.03305000  1.0
  N  N283  1  0.06173000  0.67219000  0.46695000  1.0
  N  N284  1  0.44951000  0.12960000  0.01464000  1.0
  N  N285  1  0.94950000  0.37040000  0.48536000  1.0
  N  N286  1  0.55049000  0.87040000  0.98536000  1.0
  N  N287  1  0.05050000  0.62960000  0.51464000  1.0
  N  N288  1  0.70706000  0.96829000  0.16397000  1.0
  N  N289  1  0.20704000  0.53172000  0.33602000  1.0
  N  N290  1  0.29294000  0.03171000  0.83603000  1.0
  N  N291  1  0.79298000  0.46828000  0.66397000  1.0
  N  N292  1  0.69910000  0.10668000  0.29556000  1.0
  N  N293  1  0.19908000  0.39333000  0.20444000  1.0
  N  N294  1  0.30091000  0.89333000  0.70444000  1.0
  N  N295  1  0.80091000  0.60668000  0.79556000  1.0
  N  N296  1  0.67777000  0.27506000  0.11397000  1.0
  N  N297  1  0.17777000  0.22494000  0.38603000  1.0
  N  N298  1  0.32222000  0.72495000  0.88603000  1.0
  N  N299  1  0.82222000  0.77505000  0.61397000  1.0
  N  N300  1  0.46694000  0.26442000  0.14219000  1.0
  N  N301  1  0.96693000  0.23558000  0.35782000  1.0
  N  N302  1  0.53305000  0.73558000  0.85781000  1.0
  N  N303  1  0.03306000  0.76442000  0.64218000  1.0
  N  N304  1  0.47381000  0.30710000  0.09464000  1.0
  N  N305  1  0.97380000  0.19290000  0.40537000  1.0
  N  N306  1  0.52619000  0.69291000  0.90536000  1.0
  N  N307  1  0.02619000  0.80710000  0.59463000  1.0
  N  N308  1  0.70993000  0.43571000  0.92807000  1.0
  N  N309  1  0.20994000  0.06430000  0.57193000  1.0
  N  N310  1  0.29005000  0.56430000  0.07193000  1.0
  N  N311  1  0.79006000  0.93571000  0.42808000  1.0
  O  O312  1  0.69334000  0.29694000  0.67417000  1.0
  O  O313  1  0.19333000  0.20306000  0.82584000  1.0
  O  O314  1  0.30668000  0.70306000  0.32584000  1.0
  O  O315  1  0.80667000  0.79694000  0.17417000  1.0
  O  O316  1  0.51443000  0.36505000  0.64288000  1.0
  O  O317  1  0.01440000  0.13494000  0.85713000  1.0
  O  O318  1  0.48560000  0.63493000  0.35712000  1.0
  O  O319  1  0.98560000  0.86505000  0.14287000  1.0
  O  O320  1  0.53787000  0.09994000  0.41382000  1.0
  O  O321  1  0.03788000  0.40007000  0.08618000  1.0
  O  O322  1  0.46211000  0.90007000  0.58618000  1.0
  O  O323  1  0.96213000  0.59993000  0.91382000  1.0
  O  O324  1  0.75595000  0.10566000  0.42227000  1.0
  O  O325  1  0.25596000  0.39434000  0.07772000  1.0
  O  O326  1  0.24404000  0.89434000  0.57772000  1.0
  O  O327  1  0.74405000  0.60567000  0.92228000  1.0
  O  O328  1  0.91562000  0.38194000  0.75484000  1.0
  O  O329  1  0.41561000  0.11807000  0.74516000  1.0
  O  O330  1  0.08437000  0.61807000  0.24517000  1.0
  O  O331  1  0.58440000  0.88194000  0.25484000  1.0
  O  O332  1  0.90045000  0.44558000  0.83691000  1.0
  O  O333  1  0.40045000  0.05442000  0.66309000  1.0
  O  O334  1  0.09956000  0.55442000  0.16310000  1.0
  O  O335  1  0.59955000  0.94558000  0.33692000  1.0
  O  O336  1  0.58580000  0.46172000  0.75117000  1.0
  O  O337  1  0.08578000  0.03828000  0.74884000  1.0
  O  O338  1  0.41420000  0.53829000  0.24883000  1.0
  O  O339  1  0.91422000  0.96172000  0.25116000  1.0
  O  O340  1  0.56463000  0.51374000  0.83671000  1.0
  O  O341  1  0.06463000  0.98627000  0.66329000  1.0
  O  O342  1  0.43536000  0.48627000  0.16328000  1.0
  O  O343  1  0.93537000  0.01373000  0.33671000  1.0
