# generated using pymatgen
data_RbH3C7(NO3)2
_symmetry_space_group_name_H-M   'P 1'
_cell_length_a   7.27888000
_cell_length_b   7.44439000
_cell_length_c   10.27850000
_cell_angle_alpha   109.48400000
_cell_angle_beta   108.95800000
_cell_angle_gamma   94.60000000
_symmetry_Int_Tables_number   1
_chemical_formula_structural   RbH3C7(NO3)2
_chemical_formula_sum   'Rb2 H6 C14 N4 O12'
_cell_volume   485.35166494
_cell_formula_units_Z   2
loop_
 _symmetry_equiv_pos_site_id
 _symmetry_equiv_pos_as_xyz
  1  'x, y, z'
loop_
 _atom_site_type_symbol
 _atom_site_label
 _atom_site_symmetry_multiplicity
 _atom_site_fract_x
 _atom_site_fract_y
 _atom_site_fract_z
 _atom_site_occupancy
  Rb  Rb0  1  0.20101000  0.95075000  0.90246000  1.0
  Rb  Rb1  1  0.79899000  0.04926000  0.09755000  1.0
  H  H2  1  0.31232000  0.56276000  0.12545000  1.0
  H  H3  1  0.68768000  0.43724000  0.87455000  1.0
  H  H4  1  0.78357000  0.65803000  0.54375000  1.0
  H  H5  1  0.25946000  0.88608000  0.54388000  1.0
  H  H6  1  0.21643000  0.34197000  0.45625000  1.0
  H  H7  1  0.74054000  0.11391000  0.45611000  1.0
  C  C8  1  0.37276000  0.62326000  0.24642000  1.0
  C  C9  1  0.62725000  0.37673000  0.75358000  1.0
  C  C10  1  0.55729000  0.60001000  0.32798000  1.0
  C  C11  1  0.26981000  0.72811000  0.32799000  1.0
  C  C12  1  0.44271000  0.39998000  0.67202000  1.0
  C  C13  1  0.73018000  0.27188000  0.67201000  1.0
  C  C14  1  0.63858000  0.67818000  0.48320000  1.0
  C  C15  1  0.34371000  0.80518000  0.48320000  1.0
  C  C16  1  0.36142000  0.32181000  0.51680000  1.0
  C  C17  1  0.65629000  0.19481000  0.51679000  1.0
  C  C18  1  0.53026000  0.78082000  0.56141000  1.0
  C  C19  1  0.46973000  0.21917000  0.43860000  1.0
  C  C20  1  0.61511000  0.86559000  0.73102000  1.0
  C  C21  1  0.38490000  0.13441000  0.26899000  1.0
  N  N22  1  0.66798000  0.48386000  0.24719000  1.0
  N  N23  1  0.07836000  0.76344000  0.24712000  1.0
  N  N24  1  0.33202000  0.51614000  0.75281000  1.0
  N  N25  1  0.92164000  0.23654000  0.75287000  1.0
  O  O26  1  0.78867000  0.84493000  0.79413000  1.0
  O  O27  1  0.50484000  0.94939000  0.79427000  1.0
  O  O28  1  0.21133000  0.15509000  0.20588000  1.0
  O  O29  1  0.49516000  0.05063000  0.20573000  1.0
  O  O30  1  0.83269000  0.46461000  0.32159000  1.0
  O  O31  1  0.98817000  0.85750000  0.32148000  1.0
  O  O32  1  0.16732000  0.53540000  0.67841000  1.0
  O  O33  1  0.01183000  0.14251000  0.67852000  1.0
  O  O34  1  0.59072000  0.40826000  0.10931000  1.0
  O  O35  1  0.01770000  0.70089000  0.10924000  1.0
  O  O36  1  0.40929000  0.59176000  0.89069000  1.0
  O  O37  1  0.98231000  0.29912000  0.89077000  1.0
