# generated using pymatgen
data_Co3H18C30N3O13
_symmetry_space_group_name_H-M   'P 1'
_cell_length_a   18.54599682
_cell_length_b   18.54620000
_cell_length_c   18.54600000
_cell_angle_alpha   70.53000000
_cell_angle_beta   70.52866229
_cell_angle_gamma   109.47221151
_symmetry_Int_Tables_number   1
_chemical_formula_structural   Co3H18C30N3O13
_chemical_formula_sum   'Co12 H72 C120 N12 O52'
_cell_volume   4910.59467376
_cell_formula_units_Z   4
loop_
 _symmetry_equiv_pos_site_id
 _symmetry_equiv_pos_as_xyz
  1  'x, y, z'
loop_
 _atom_site_type_symbol
 _atom_site_label
 _atom_site_symmetry_multiplicity
 _atom_site_fract_x
 _atom_site_fract_y
 _atom_site_fract_z
 _atom_site_occupancy
  Co  Co0  1  0.89372000  0.53706000  0.10627000  1.0
  Co  Co1  1  0.35665000  0.46297000  0.64334000  1.0
  Co  Co2  1  0.10632000  0.99999000  0.35665000  1.0
  Co  Co3  1  0.64334000  0.00001000  0.89374000  1.0
  Co  Co4  1  0.89374000  0.89372000  0.46294000  1.0
  Co  Co5  1  0.35665000  0.35667000  0.53706000  1.0
  Co  Co6  1  0.64335000  0.10629000  0.00001000  1.0
  Co  Co7  1  0.10627000  0.64334000  0.00001000  1.0
  Co  Co8  1  0.53706000  0.89373000  0.10629000  1.0
  Co  Co9  1  0.46293000  0.35668000  0.64333000  1.0
  Co  Co10  1  0.99998000  0.64333000  0.89372000  1.0
  Co  Co11  1  0.00003000  0.10626000  0.35665000  1.0
  H  H12  1  0.62566000  0.16318000  0.13635000  1.0
  H  H13  1  0.87121000  0.78812000  0.85814000  1.0
  H  H14  1  0.71357000  0.29605000  0.14214000  1.0
  H  H15  1  0.70048000  0.83683000  0.53750000  1.0
  H  H16  1  0.35373000  0.21187000  0.91689000  1.0
  H  H17  1  0.56183000  0.70397000  0.58244000  1.0
  H  H18  1  0.37435000  0.23801000  0.46248000  1.0
  H  H19  1  0.12880000  0.27066000  0.08307000  1.0
  H  H20  1  0.28646000  0.14432000  0.41751000  1.0
  H  H21  1  0.29952000  0.76201000  0.86367000  1.0
  H  H22  1  0.64624000  0.72934000  0.14193000  1.0
  H  H23  1  0.43817000  0.85571000  0.85789000  1.0
  H  H24  1  0.86363000  0.62567000  0.83680000  1.0
  H  H25  1  0.14187000  0.87120000  0.21187000  1.0
  H  H26  1  0.85786000  0.71357000  0.70393000  1.0
  H  H27  1  0.46248000  0.70048000  0.16319000  1.0
  H  H28  1  0.08309000  0.35374000  0.78810000  1.0
  H  H29  1  0.41751000  0.56182000  0.29604000  1.0
  H  H30  1  0.53752000  0.37433000  0.76200000  1.0
  H  H31  1  0.91693000  0.12879000  0.72935000  1.0
  H  H32  1  0.58249000  0.28644000  0.85570000  1.0
  H  H33  1  0.13638000  0.29956000  0.23797000  1.0
  H  H34  1  0.85814000  0.64630000  0.27067000  1.0
  H  H35  1  0.14213000  0.43820000  0.14430000  1.0
  H  H36  1  0.16318000  0.86365000  0.37434000  1.0
  H  H37  1  0.78817000  0.14191000  0.12878000  1.0
  H  H38  1  0.29606000  0.85787000  0.28644000  1.0
  H  H39  1  0.83680000  0.46245000  0.29956000  1.0
  H  H40  1  0.21182000  0.08303000  0.64627000  1.0
  H  H41  1  0.70391000  0.41748000  0.43820000  1.0
  H  H42  1  0.23798000  0.53755000  0.62565000  1.0
  H  H43  1  0.27066000  0.91693000  0.87120000  1.0
  H  H44  1  0.14429000  0.58251000  0.71356000  1.0
  H  H45  1  0.76202000  0.13636000  0.70045000  1.0
  H  H46  1  0.72936000  0.85815000  0.35371000  1.0
  H  H47  1  0.85570000  0.14212000  0.56181000  1.0
  H  H48  1  0.86366000  0.16318000  0.37434000  1.0
  H  H49  1  0.14187000  0.78812000  0.12880000  1.0
  H  H50  1  0.85787000  0.29605000  0.28644000  1.0
  H  H51  1  0.46249000  0.83683000  0.29953000  1.0
  H  H52  1  0.08307000  0.21183000  0.64624000  1.0
  H  H53  1  0.41752000  0.70395000  0.43820000  1.0
  H  H54  1  0.53752000  0.23795000  0.62567000  1.0
  H  H55  1  0.91695000  0.27068000  0.87120000  1.0
  H  H56  1  0.58250000  0.14429000  0.71359000  1.0
  H  H57  1  0.13632000  0.76199000  0.70051000  1.0
  H  H58  1  0.85810000  0.72935000  0.35376000  1.0
  H  H59  1  0.14213000  0.85570000  0.56184000  1.0
  H  H60  1  0.16318000  0.62566000  0.13638000  1.0
  H  H61  1  0.78812000  0.87118000  0.85820000  1.0
  H  H62  1  0.29606000  0.71358000  0.14214000  1.0
  H  H63  1  0.83682000  0.70047000  0.53751000  1.0
  H  H64  1  0.21185000  0.35373000  0.91692000  1.0
  H  H65  1  0.70394000  0.56183000  0.58246000  1.0
  H  H66  1  0.23800000  0.37435000  0.46246000  1.0
  H  H67  1  0.27069000  0.12880000  0.08303000  1.0
  H  H68  1  0.14432000  0.28644000  0.41749000  1.0
  H  H69  1  0.76202000  0.29952000  0.86366000  1.0
  H  H70  1  0.72932000  0.64627000  0.14190000  1.0
  H  H71  1  0.85572000  0.43816000  0.85788000  1.0
  H  H72  1  0.62567000  0.86365000  0.83680000  1.0
  H  H73  1  0.87124000  0.14187000  0.21186000  1.0
  H  H74  1  0.71357000  0.85786000  0.70394000  1.0
  H  H75  1  0.70047000  0.46246000  0.16318000  1.0
  H  H76  1  0.35371000  0.08306000  0.78810000  1.0
  H  H77  1  0.56180000  0.41749000  0.29606000  1.0
  H  H78  1  0.37432000  0.53752000  0.76201000  1.0
  H  H79  1  0.12874000  0.91687000  0.72935000  1.0
  H  H80  1  0.28642000  0.58249000  0.85570000  1.0
  H  H81  1  0.29955000  0.13636000  0.23798000  1.0
  H  H82  1  0.64627000  0.85814000  0.27065000  1.0
  H  H83  1  0.43820000  0.14214000  0.14430000  1.0
  C  C84  1  0.67668000  0.22572000  0.07638000  1.0
  C  C85  1  0.82135000  0.77549000  0.91977000  1.0
  C  C86  1  0.72547000  0.29915000  0.07928000  1.0
  C  C87  1  0.69791000  0.77428000  0.54903000  1.0
  C  C88  1  0.30478000  0.22450000  0.95410000  1.0
  C  C89  1  0.62158000  0.70085000  0.57367000  1.0
  C  C90  1  0.32333000  0.24695000  0.45095000  1.0
  C  C91  1  0.17863000  0.25890000  0.04585000  1.0
  C  C92  1  0.27455000  0.19527000  0.42630000  1.0
  C  C93  1  0.30209000  0.75306000  0.92365000  1.0
  C  C94  1  0.69523000  0.74108000  0.08031000  1.0
  C  C95  1  0.37842000  0.80475000  0.92074000  1.0
  C  C96  1  0.92360000  0.67667000  0.77429000  1.0
  C  C97  1  0.08030000  0.82141000  0.22450000  1.0
  C  C98  1  0.92072000  0.72545000  0.70085000  1.0
  C  C99  1  0.45096000  0.69791000  0.22572000  1.0
  C  C100  1  0.04591000  0.30480000  0.77548000  1.0
  C  C101  1  0.42631000  0.62159000  0.29915000  1.0
  C  C102  1  0.54904000  0.32331000  0.75305000  1.0
  C  C103  1  0.95412000  0.17860000  0.74109000  1.0
  C  C104  1  0.57369000  0.27453000  0.80474000  1.0
  C  C105  1  0.07638000  0.30210000  0.24693000  1.0
  C  C106  1  0.91970000  0.69523000  0.25891000  1.0
  C  C107  1  0.07928000  0.37844000  0.19525000  1.0
  C  C108  1  0.22574000  0.92364000  0.32331000  1.0
  C  C109  1  0.77553000  0.08031000  0.17860000  1.0
  C  C110  1  0.29917000  0.92073000  0.27454000  1.0
  C  C111  1  0.77427000  0.45094000  0.30210000  1.0
  C  C112  1  0.22445000  0.04582000  0.69523000  1.0
  C  C113  1  0.70083000  0.42629000  0.37844000  1.0
  C  C114  1  0.24694000  0.54906000  0.67667000  1.0
  C  C115  1  0.25888000  0.95411000  0.82137000  1.0
  C  C116  1  0.19527000  0.57372000  0.72545000  1.0
  C  C117  1  0.75306000  0.07637000  0.69790000  1.0
  C  C118  1  0.74112000  0.91974000  0.30475000  1.0
  C  C119  1  0.80474000  0.07926000  0.62157000  1.0
  C  C120  1  0.92364000  0.22572000  0.32332000  1.0
  C  C121  1  0.08026000  0.77552000  0.17865000  1.0
  C  C122  1  0.92073000  0.29914000  0.27454000  1.0
  C  C123  1  0.45096000  0.77427000  0.30211000  1.0
  C  C124  1  0.04587000  0.22449000  0.69521000  1.0
  C  C125  1  0.42631000  0.70084000  0.37845000  1.0
  C  C126  1  0.54905000  0.24694000  0.67668000  1.0
  C  C127  1  0.95416000  0.25891000  0.82135000  1.0
  C  C128  1  0.57370000  0.19526000  0.72547000  1.0
  C  C129  1  0.07634000  0.75304000  0.69792000  1.0
  C  C130  1  0.91972000  0.74111000  0.30478000  1.0
  C  C131  1  0.07927000  0.80474000  0.62158000  1.0
  C  C132  1  0.22571000  0.67667000  0.07640000  1.0
  C  C133  1  0.77550000  0.82138000  0.91973000  1.0
  C  C134  1  0.29916000  0.72547000  0.07928000  1.0
  C  C135  1  0.77428000  0.69792000  0.54902000  1.0
  C  C136  1  0.22449000  0.30477000  0.95411000  1.0
  C  C137  1  0.70084000  0.62157000  0.57368000  1.0
  C  C138  1  0.24696000  0.32332000  0.45095000  1.0
  C  C139  1  0.25891000  0.17862000  0.04585000  1.0
  C  C140  1  0.19527000  0.27454000  0.42630000  1.0
  C  C141  1  0.75306000  0.30209000  0.92364000  1.0
  C  C142  1  0.74109000  0.69520000  0.08034000  1.0
  C  C143  1  0.80476000  0.37843000  0.92073000  1.0
  C  C144  1  0.67668000  0.92362000  0.77428000  1.0
  C  C145  1  0.82140000  0.08030000  0.22448000  1.0
  C  C146  1  0.72547000  0.92073000  0.70084000  1.0
  C  C147  1  0.69790000  0.45094000  0.22573000  1.0
  C  C148  1  0.30475000  0.04586000  0.77549000  1.0
  C  C149  1  0.62156000  0.42628000  0.29916000  1.0
  C  C150  1  0.32330000  0.54905000  0.75305000  1.0
  C  C151  1  0.17857000  0.95408000  0.74111000  1.0
  C  C152  1  0.27452000  0.57370000  0.80474000  1.0
  C  C153  1  0.30211000  0.07639000  0.24695000  1.0
  C  C154  1  0.69524000  0.91974000  0.25889000  1.0
  C  C155  1  0.37843000  0.07927000  0.19529000  1.0
  C  C156  1  0.85450000  0.66394000  0.00004000  1.0
  C  C157  1  0.80442000  0.71243000  0.00007000  1.0
  C  C158  1  0.84876000  0.45703000  0.00003000  1.0
  C  C159  1  0.79205000  0.37698000  0.00001000  1.0
  C  C160  1  0.33603000  0.33604000  0.80941000  1.0
  C  C161  1  0.28755000  0.28755000  0.90798000  1.0
  C  C162  1  0.54295000  0.54295000  0.60827000  1.0
  C  C163  1  0.62302000  0.62302000  0.58492000  1.0
  C  C164  1  0.14550000  0.14549000  0.19053000  1.0
  C  C165  1  0.19556000  0.19555000  0.09197000  1.0
  C  C166  1  0.15125000  0.15126000  0.39171000  1.0
  C  C167  1  0.20798000  0.20798000  0.41504000  1.0
  C  C168  1  0.66396000  0.85452000  0.00002000  1.0
  C  C169  1  0.71247000  0.80446000  0.00001000  1.0
  C  C170  1  0.45704000  0.84877000  1.00000000  1.0
  C  C171  1  0.37698000  0.79205000  1.00000000  1.0
  C  C172  1  0.99999000  0.85452000  0.33605000  1.0
  C  C173  1  0.00002000  0.80447000  0.28755000  1.0
  C  C174  1  0.00000000  0.84877000  0.54296000  1.0
  C  C175  1  0.00001000  0.79205000  0.62301000  1.0
  C  C176  1  0.19056000  0.33604000  0.66393000  1.0
  C  C177  1  0.09201000  0.28756000  0.71243000  1.0
  C  C178  1  0.39172000  0.54296000  0.45703000  1.0
  C  C179  1  0.41506000  0.62303000  0.37699000  1.0
  C  C180  1  0.80945000  0.14547000  0.85452000  1.0
  C  C181  1  0.90802000  0.19554000  0.80443000  1.0
  C  C182  1  0.60829000  0.15124000  0.84876000  1.0
  C  C183  1  0.58496000  0.20797000  0.79203000  1.0
  C  C184  1  0.99998000  0.66396000  0.14551000  1.0
  C  C185  1  0.99997000  0.71246000  0.19557000  1.0
  C  C186  1  0.99999000  0.45702000  0.15126000  1.0
  C  C187  1  0.00000000  0.37698000  0.20796000  1.0
  C  C188  1  0.66399000  0.00003000  0.14547000  1.0
  C  C189  1  0.71248000  0.00003000  0.19553000  1.0
  C  C190  1  0.45705000  0.00001000  0.15125000  1.0
  C  C191  1  0.37699000  0.00000000  0.20798000  1.0
  C  C192  1  0.33601000  0.19053000  0.66395000  1.0
  C  C193  1  0.28751000  0.09197000  0.71245000  1.0
  C  C194  1  0.54295000  0.39170000  0.45703000  1.0
  C  C195  1  0.62301000  0.41503000  0.37698000  1.0
  C  C196  1  0.14545000  0.80941000  0.85455000  1.0
  C  C197  1  0.19552000  0.90798000  0.80445000  1.0
  C  C198  1  0.15123000  0.60829000  0.84877000  1.0
  C  C199  1  0.20795000  0.58496000  0.79204000  1.0
  C  C200  1  0.85454000  0.00001000  0.33603000  1.0
  C  C201  1  0.80448000  0.00003000  0.28752000  1.0
  C  C202  1  0.84877000  0.00001000  0.54295000  1.0
  C  C203  1  0.79205000  0.00000000  0.62301000  1.0
  N  N204  1  0.77352000  0.46471000  0.22648000  1.0
  N  N205  1  0.30878000  0.53528000  0.69119000  1.0
  N  N206  1  0.22649000  0.00001000  0.30880000  1.0
  N  N207  1  0.69120000  0.99999000  0.77352000  1.0
  N  N208  1  0.77353000  0.77354000  0.53526000  1.0
  N  N209  1  0.30881000  0.30880000  0.46472000  1.0
  N  N210  1  0.69121000  0.22648000  1.00000000  1.0
  N  N211  1  0.22646000  0.69120000  0.00003000  1.0
  N  N212  1  0.46473000  0.77353000  0.22649000  1.0
  N  N213  1  0.53527000  0.30878000  0.69120000  1.0
  N  N214  1  0.99996000  0.69118000  0.77354000  1.0
  N  N215  1  0.00001000  0.22648000  0.30879000  1.0
  O  O216  1  0.83200000  0.44956000  0.07521000  1.0
  O  O217  1  0.83597000  0.60734000  0.07480000  1.0
  O  O218  1  0.47525000  0.55044000  0.61754000  1.0
  O  O219  1  0.31790000  0.39266000  0.77133000  1.0
  O  O220  1  0.16800000  0.09281000  0.38245000  1.0
  O  O221  1  0.16403000  0.08927000  0.22862000  1.0
  O  O222  1  0.52475000  0.90721000  0.92481000  1.0
  O  O223  1  0.68208000  0.91071000  0.92527000  1.0
  O  O224  1  0.92481000  0.83201000  0.55044000  1.0
  O  O225  1  0.92524000  0.83599000  0.39266000  1.0
  O  O226  1  0.38246000  0.47527000  0.44952000  1.0
  O  O227  1  0.22862000  0.31789000  0.60732000  1.0
  O  O228  1  0.61754000  0.16799000  0.90721000  1.0
  O  O229  1  0.77138000  0.16402000  0.91073000  1.0
  O  O230  1  0.07517000  0.52473000  0.09282000  1.0
  O  O231  1  0.07474000  0.68210000  0.08929000  1.0
  O  O232  1  0.44955000  0.92481000  0.16799000  1.0
  O  O233  1  0.60735000  0.92527000  0.16404000  1.0
  O  O234  1  0.55043000  0.38245000  0.52474000  1.0
  O  O235  1  0.39266000  0.22863000  0.68205000  1.0
  O  O236  1  0.09279000  0.61755000  0.83202000  1.0
  O  O237  1  0.08922000  0.77133000  0.83602000  1.0
  O  O238  1  0.90721000  0.07520000  0.47525000  1.0
  O  O239  1  0.91076000  0.07477000  0.31789000  1.0
  O  O240  1  0.92479000  0.44953000  0.16801000  1.0
  O  O241  1  0.92522000  0.60732000  0.16407000  1.0
  O  O242  1  0.38246000  0.55045000  0.52474000  1.0
  O  O243  1  0.22864000  0.39267000  0.68206000  1.0
  O  O244  1  0.61756000  0.09280000  0.83201000  1.0
  O  O245  1  0.77138000  0.08926000  0.83597000  1.0
  O  O246  1  0.07519000  0.90720000  0.47526000  1.0
  O  O247  1  0.07475000  0.91074000  0.31790000  1.0
  O  O248  1  0.44956000  0.83201000  0.07519000  1.0
  O  O249  1  0.60735000  0.83600000  0.07477000  1.0
  O  O250  1  0.55043000  0.47525000  0.61754000  1.0
  O  O251  1  0.39265000  0.31791000  0.77133000  1.0
  O  O252  1  0.09281000  0.16800000  0.38244000  1.0
  O  O253  1  0.08931000  0.16406000  0.22860000  1.0
  O  O254  1  0.90721000  0.52474000  0.92483000  1.0
  O  O255  1  0.91068000  0.68204000  0.92530000  1.0
  O  O256  1  0.83203000  0.92482000  0.55044000  1.0
  O  O257  1  0.83599000  0.92525000  0.39266000  1.0
  O  O258  1  0.47526000  0.38246000  0.44953000  1.0
  O  O259  1  0.31785000  0.22860000  0.60736000  1.0
  O  O260  1  0.16798000  0.61754000  0.90721000  1.0
  O  O261  1  0.16401000  0.77135000  0.91075000  1.0
  O  O262  1  0.52475000  0.07519000  0.09282000  1.0
  O  O263  1  0.68213000  0.07477000  0.08924000  1.0
  O  O264  1  0.99999000  0.60706000  0.99998000  1.0
  O  O265  1  0.39294000  0.39297000  0.60706000  1.0
  O  O266  1  0.00003000  0.00000000  0.39293000  1.0
  O  O267  1  0.60706000  0.00000000  0.00002000  1.0
