# generated using pymatgen
data_Ag2H10C12SN2O5
_symmetry_space_group_name_H-M   'P 1'
_cell_length_a   8.12342000
_cell_length_b   8.68195000
_cell_length_c   11.08370000
_cell_angle_alpha   94.64450000
_cell_angle_beta   96.63190000
_cell_angle_gamma   109.24100000
_symmetry_Int_Tables_number   1
_chemical_formula_structural   Ag2H10C12SN2O5
_chemical_formula_sum   'Ag4 H20 C24 S2 N4 O10'
_cell_volume   727.16886382
_cell_formula_units_Z   2
loop_
 _symmetry_equiv_pos_site_id
 _symmetry_equiv_pos_as_xyz
  1  'x, y, z'
loop_
 _atom_site_type_symbol
 _atom_site_label
 _atom_site_symmetry_multiplicity
 _atom_site_fract_x
 _atom_site_fract_y
 _atom_site_fract_z
 _atom_site_occupancy
  Ag  Ag0  1  0.41881000  0.96030000  0.12534000  1.0
  Ag  Ag1  1  0.58119000  0.03970000  0.87466000  1.0
  Ag  Ag2  1  0.41992000  0.24989000  0.03105000  1.0
  Ag  Ag3  1  0.58008000  0.75011000  0.96895000  1.0
  H  H4  1  0.74818000  0.29243000  0.10089000  1.0
  H  H5  1  0.25183000  0.70757000  0.89911000  1.0
  H  H6  1  0.72093000  0.46670000  0.16402000  1.0
  H  H7  1  0.27907000  0.53330000  0.83599000  1.0
  H  H8  1  0.10680000  0.36467000  0.08914000  1.0
  H  H9  1  0.89320000  0.63533000  0.91086000  1.0
  H  H10  1  0.96834000  0.96583000  0.30670000  1.0
  H  H11  1  0.03166000  0.03417000  0.69330000  1.0
  H  H12  1  0.73243000  0.11278000  0.57848000  1.0
  H  H13  1  0.26756000  0.88721000  0.42152000  1.0
  H  H14  1  0.41096000  0.40611000  0.44449000  1.0
  H  H15  1  0.58904000  0.59389000  0.55551000  1.0
  H  H16  1  0.82558000  0.52707000  0.37362000  1.0
  H  H17  1  0.17443000  0.47293000  0.62639000  1.0
  H  H18  1  0.58129000  0.92975000  0.38113000  1.0
  H  H19  1  0.41870000  0.07025000  0.61887000  1.0
  H  H20  1  0.21226000  0.13406000  0.47538000  1.0
  H  H21  1  0.78774000  0.86595000  0.52462000  1.0
  H  H22  1  0.85151000  0.41624000  0.57439000  1.0
  H  H23  1  0.14848000  0.58375000  0.42562000  1.0
  C  C24  1  0.69019000  0.28583000  0.27335000  1.0
  C  C25  1  0.30981000  0.71418000  0.72666000  1.0
  C  C26  1  0.27218000  0.40250000  0.26485000  1.0
  C  C27  1  0.72782000  0.59750000  0.73515000  1.0
  C  C28  1  0.13203000  0.31330000  0.17299000  1.0
  C  C29  1  0.86797000  0.68670000  0.82700000  1.0
  C  C30  1  0.02429000  0.15520000  0.18812000  1.0
  C  C31  1  0.97571000  0.84480000  0.81188000  1.0
  C  C32  1  0.05430000  0.08892000  0.29653000  1.0
  C  C33  1  0.94570000  0.91108000  0.70347000  1.0
  C  C34  1  0.72274000  0.16403000  0.49271000  1.0
  C  C35  1  0.27726000  0.83597000  0.50729000  1.0
  C  C36  1  0.30195000  0.33741000  0.37301000  1.0
  C  C37  1  0.69805000  0.66259000  0.62699000  1.0
  C  C38  1  0.77462000  0.39548000  0.37934000  1.0
  C  C39  1  0.22538000  0.60452000  0.62066000  1.0
  C  C40  1  0.63780000  0.06300000  0.38430000  1.0
  C  C41  1  0.36220000  0.93701000  0.61570000  1.0
  C  C42  1  0.19038000  0.18148000  0.38919000  1.0
  C  C43  1  0.80962000  0.81852000  0.61081000  1.0
  C  C44  1  0.78899000  0.33358000  0.49022000  1.0
  C  C45  1  0.21101000  0.66642000  0.50978000  1.0
  C  C46  1  0.87519000  0.05862000  0.08965000  1.0
  C  C47  1  0.12481000  0.94138000  0.91035000  1.0
  S  S48  1  0.41516000  0.59883000  0.23791000  1.0
  S  S49  1  0.58485000  0.40117000  0.76209000  1.0
  N  N50  1  0.61711000  0.12256000  0.27682000  1.0
  N  N51  1  0.38289000  0.87744000  0.72318000  1.0
  N  N52  1  0.67873000  0.34131000  0.15745000  1.0
  N  N53  1  0.32128000  0.65869000  0.84255000  1.0
  O  O54  1  0.30645000  0.70557000  0.22929000  1.0
  O  O55  1  0.69355000  0.29444000  0.77071000  1.0
  O  O56  1  0.56209000  0.65505000  0.33903000  1.0
  O  O57  1  0.43791000  0.34495000  0.66097000  1.0
  O  O58  1  0.46815000  0.56184000  0.11826000  1.0
  O  O59  1  0.53185000  0.43816000  0.88174000  1.0
  O  O60  1  0.81264000  0.14255000  0.01877000  1.0
  O  O61  1  0.18737000  0.85745000  0.98123000  1.0
  O  O62  1  0.82174000  0.90358000  0.08574000  1.0
  O  O63  1  0.17827000  0.09642000  0.91426000  1.0
