# generated using pymatgen
data_ZnH16C20(NO2)2
_symmetry_space_group_name_H-M   'P 1'
_cell_length_a   9.42442000
_cell_length_b   10.26640000
_cell_length_c   10.52180000
_cell_angle_alpha   113.59300000
_cell_angle_beta   103.96800000
_cell_angle_gamma   97.52080000
_symmetry_Int_Tables_number   1
_chemical_formula_structural   ZnH16C20(NO2)2
_chemical_formula_sum   'Zn2 H32 C40 N4 O8'
_cell_volume   875.22934306
_cell_formula_units_Z   2
loop_
 _symmetry_equiv_pos_site_id
 _symmetry_equiv_pos_as_xyz
  1  'x, y, z'
loop_
 _atom_site_type_symbol
 _atom_site_label
 _atom_site_symmetry_multiplicity
 _atom_site_fract_x
 _atom_site_fract_y
 _atom_site_fract_z
 _atom_site_occupancy
  Zn  Zn0  1  0.62415000  0.95798000  0.17180000  1.0
  Zn  Zn1  1  0.37585000  0.04202000  0.82820000  1.0
  H  H2  1  0.78690000  0.88182000  0.94958000  1.0
  H  H3  1  0.21310000  0.11819000  0.05042000  1.0
  H  H4  1  0.79931000  0.66746000  0.73365000  1.0
  H  H5  1  0.20071000  0.33254000  0.26636000  1.0
  H  H6  1  0.43634000  0.62994000  0.98959000  1.0
  H  H7  1  0.56366000  0.37006000  0.01042000  1.0
  H  H8  1  0.43726000  0.40124000  0.77892000  1.0
  H  H9  1  0.56275000  0.59876000  0.22108000  1.0
  H  H10  1  0.59853000  0.22761000  0.69799000  1.0
  H  H11  1  0.40148000  0.77239000  0.30201000  1.0
  H  H12  1  0.61879000  0.02302000  0.47755000  1.0
  H  H13  1  0.38120000  0.97697000  0.52245000  1.0
  H  H14  1  0.65930000  0.50866000  0.48837000  1.0
  H  H15  1  0.34071000  0.49135000  0.51163000  1.0
  H  H16  1  0.82641000  0.39732000  0.92172000  1.0
  H  H17  1  0.17360000  0.60269000  0.07828000  1.0
  H  H18  1  0.06582000  0.87509000  0.38056000  1.0
  H  H19  1  0.93417000  0.12491000  0.61945000  1.0
  H  H20  1  0.95681000  0.83852000  0.48371000  1.0
  H  H21  1  0.04318000  0.16147000  0.51629000  1.0
  H  H22  1  0.86019000  0.66220000  0.07330000  1.0
  H  H23  1  0.13981000  0.33780000  0.92670000  1.0
  H  H24  1  0.93312000  0.13817000  0.07384000  1.0
  H  H25  1  0.06688000  0.86183000  0.92615000  1.0
  H  H26  1  0.89220000  0.16359000  0.91061000  1.0
  H  H27  1  0.10780000  0.83641000  0.08937000  1.0
  H  H28  1  0.99379000  0.60454000  0.46369000  1.0
  H  H29  1  0.00620000  0.39545000  0.53631000  1.0
  H  H30  1  0.95970000  0.33742000  0.31039000  1.0
  H  H31  1  0.04030000  0.66257000  0.68960000  1.0
  H  H32  1  0.66666667  0.28837000  0.27427000  1.0
  H  H33  1  0.33337000  0.71163000  0.72573000  1.0
  C  C34  1  0.70950000  0.77420000  0.90617000  1.0
  C  C35  1  0.29050000  0.22580000  0.09383000  1.0
  C  C36  1  0.71617000  0.65425000  0.78645000  1.0
  C  C37  1  0.28383000  0.34575000  0.21355000  1.0
  C  C38  1  0.51610000  0.63291000  0.93049000  1.0
  C  C39  1  0.48390000  0.36709000  0.06951000  1.0
  C  C40  1  0.51719000  0.50582000  0.81333000  1.0
  C  C41  1  0.48282000  0.49418000  0.18667000  1.0
  C  C42  1  0.61972000  0.51579000  0.73855000  1.0
  C  C43  1  0.38028000  0.48422000  0.26145000  1.0
  C  C44  1  0.61391000  0.24762000  0.60730000  1.0
  C  C45  1  0.38610000  0.75238000  0.39270000  1.0
  C  C46  1  0.62398000  0.13255000  0.48468000  1.0
  C  C47  1  0.37601000  0.86745000  0.51531000  1.0
  C  C48  1  0.64874000  0.40293000  0.49107000  1.0
  C  C49  1  0.35126000  0.59707000  0.50893000  1.0
  C  C50  1  0.69815000  0.11979000  0.97844000  1.0
  C  C51  1  0.30185000  0.88021000  0.02156000  1.0
  C  C52  1  0.86289000  0.44233000  0.04077000  1.0
  C  C53  1  0.13712000  0.55767000  0.95922000  1.0
  C  C54  1  0.62679000  0.38730000  0.61186000  1.0
  C  C55  1  0.37321000  0.61271000  0.38814000  1.0
  C  C56  1  0.95523000  0.81577000  0.37195000  1.0
  C  C57  1  0.04477000  0.18422000  0.62806000  1.0
  C  C58  1  0.88152000  0.59154000  0.12646000  1.0
  C  C59  1  0.11848000  0.40846000  0.87354000  1.0
  C  C60  1  0.89365000  0.34940000  0.10568000  1.0
  C  C61  1  0.10635000  0.65060000  0.89431000  1.0
  C  C62  1  0.86576000  0.18637000  0.01230000  1.0
  C  C63  1  0.13424000  0.81363000  0.98769000  1.0
  C  C64  1  0.95702000  0.55915000  0.34458000  1.0
  C  C65  1  0.04298000  0.44084000  0.65542000  1.0
  C  C66  1  0.93937000  0.40975000  0.25883000  1.0
  C  C67  1  0.06063000  0.59024000  0.74117000  1.0
  C  C68  1  0.92979000  0.65280000  0.27981000  1.0
  C  C69  1  0.07020000  0.34720000  0.72019000  1.0
  C  C70  1  0.65318000  0.28133000  0.37139000  1.0
  C  C71  1  0.34682000  0.71867000  0.62861000  1.0
  C  C72  1  0.83389000  0.87579000  0.30563000  1.0
  C  C73  1  0.16610000  0.12422000  0.69439000  1.0
  N  N74  1  0.61078000  0.76477000  0.97722000  1.0
  N  N75  1  0.38922000  0.23523000  0.02278000  1.0
  N  N76  1  0.64131000  0.14791000  0.36769000  1.0
  N  N77  1  0.35868000  0.85209000  0.63231000  1.0
  O  O78  1  0.86886000  0.96079000  0.25066000  1.0
  O  O79  1  0.13113000  0.03922000  0.74936000  1.0
  O  O80  1  0.69841000  0.83555000  0.30301000  1.0
  O  O81  1  0.30157000  0.16443000  0.69698000  1.0
  O  O82  1  0.66059000  0.09447000  0.07546000  1.0
  O  O83  1  0.33942000  0.90553000  0.92455000  1.0
  O  O84  1  0.60579000  0.10529000  0.85993000  1.0
  O  O85  1  0.39421000  0.89472000  0.14008000  1.0
