# generated using pymatgen
data_CuH11C8N3Cl2
_symmetry_space_group_name_H-M   'P 1'
_cell_length_a   7.28633000
_cell_length_b   11.49410000
_cell_length_c   13.18990000
_cell_angle_alpha   106.66400000
_cell_angle_beta   89.99950000
_cell_angle_gamma   90.00000000
_symmetry_Int_Tables_number   1
_chemical_formula_structural   CuH11C8N3Cl2
_chemical_formula_sum   'Cu4 H44 C32 N12 Cl8'
_cell_volume   1058.25935493
_cell_formula_units_Z   4
loop_
 _symmetry_equiv_pos_site_id
 _symmetry_equiv_pos_as_xyz
  1  'x, y, z'
loop_
 _atom_site_type_symbol
 _atom_site_label
 _atom_site_symmetry_multiplicity
 _atom_site_fract_x
 _atom_site_fract_y
 _atom_site_fract_z
 _atom_site_occupancy
  Cu  Cu0  1  0.28707000  0.73082000  0.48742000  1.0
  Cu  Cu1  1  0.21292000  0.23083000  0.98743000  1.0
  Cu  Cu2  1  0.71292000  0.26917000  0.51258000  1.0
  Cu  Cu3  1  0.78707000  0.76918000  0.01257000  1.0
  H  H4  1  0.30634000  0.46064000  0.42561000  1.0
  H  H5  1  0.19366000  0.96064000  0.92561000  1.0
  H  H6  1  0.69366000  0.53936000  0.57439000  1.0
  H  H7  1  0.80633000  0.03936000  0.07439000  1.0
  H  H8  1  0.95738000  0.79197000  0.64940000  1.0
  H  H9  1  0.54261000  0.29197000  0.14941000  1.0
  H  H10  1  0.04262000  0.20803000  0.35059000  1.0
  H  H11  1  0.45738000  0.70804000  0.85059000  1.0
  H  H12  1  0.73470000  0.75010000  0.59586000  1.0
  H  H13  1  0.76530000  0.25010000  0.09586000  1.0
  H  H14  1  0.26530000  0.24990000  0.40414000  1.0
  H  H15  1  0.23470000  0.74991000  0.90414000  1.0
  H  H16  1  0.90911000  0.79444000  0.51725000  1.0
  H  H17  1  0.59089000  0.29444000  0.01725000  1.0
  H  H18  1  0.09089000  0.20556000  0.48275000  1.0
  H  H19  1  0.40910000  0.70557000  0.98275000  1.0
  H  H20  1  0.59184000  0.81020000  0.37507000  1.0
  H  H21  1  0.90815000  0.31021000  0.87507000  1.0
  H  H22  1  0.40814000  0.18978000  0.62494000  1.0
  H  H23  1  0.09185000  0.68980000  0.12493000  1.0
  H  H24  1  0.07361000  0.98079000  0.59599000  1.0
  H  H25  1  0.42639000  0.48081000  0.09599000  1.0
  H  H26  1  0.92639000  0.01919000  0.40401000  1.0
  H  H27  1  0.57361000  0.51920000  0.90401000  1.0
  H  H28  1  0.19273000  0.08635000  0.70036000  1.0
  H  H29  1  0.30726000  0.58637000  0.20035000  1.0
  H  H30  1  0.80726000  0.91363000  0.29965000  1.0
  H  H31  1  0.69273000  0.41364000  0.79965000  1.0
  H  H32  1  0.22191000  0.92598000  0.67946000  1.0
  H  H33  1  0.27807000  0.42600000  0.17945000  1.0
  H  H34  1  0.77807000  0.07400000  0.32055000  1.0
  H  H35  1  0.72191000  0.57401000  0.82055000  1.0
  H  H36  1  0.90460000  0.57729000  0.29389000  1.0
  H  H37  1  0.59543000  0.07731000  0.79391000  1.0
  H  H38  1  0.09542000  0.42270000  0.70609000  1.0
  H  H39  1  0.40458000  0.92271000  0.20611000  1.0
  H  H40  1  0.75180000  0.51471000  0.18682000  1.0
  H  H41  1  0.74821000  0.01473000  0.68684000  1.0
  H  H42  1  0.24821000  0.48528000  0.81316000  1.0
  H  H43  1  0.25178000  0.98528000  0.31318000  1.0
  H  H44  1  0.81318000  0.42547000  0.27381000  1.0
  H  H45  1  0.68684000  0.92548000  0.77382000  1.0
  H  H46  1  0.18684000  0.57453000  0.72618000  1.0
  H  H47  1  0.31316000  0.07453000  0.22619000  1.0
  C  C48  1  0.94442000  0.61864000  0.53640000  1.0
  C  C49  1  0.55557000  0.11864000  0.03641000  1.0
  C  C50  1  0.05557000  0.38136000  0.46359000  1.0
  C  C51  1  0.44442000  0.88136000  0.96360000  1.0
  C  C52  1  0.16847000  0.47817000  0.45846000  1.0
  C  C53  1  0.33152000  0.97818000  0.95847000  1.0
  C  C54  1  0.83153000  0.52183000  0.54153000  1.0
  C  C55  1  0.66847000  0.02183000  0.04153000  1.0
  C  C56  1  0.88139000  0.74651000  0.57676000  1.0
  C  C57  1  0.61861000  0.24652000  0.07676000  1.0
  C  C58  1  0.11861000  0.25348000  0.42323000  1.0
  C  C59  1  0.38139000  0.75349000  0.92324000  1.0
  C  C60  1  0.55179000  0.89523000  0.43202000  1.0
  C  C61  1  0.94821000  0.39524000  0.93202000  1.0
  C  C62  1  0.44821000  0.10475000  0.56799000  1.0
  C  C63  1  0.05179000  0.60477000  0.06798000  1.0
  C  C64  1  0.35822000  0.99703000  0.56757000  1.0
  C  C65  1  0.14178000  0.49705000  0.06756000  1.0
  C  C66  1  0.64177000  0.00295000  0.43244000  1.0
  C  C67  1  0.85822000  0.50296000  0.93243000  1.0
  C  C68  1  0.20295000  0.99803000  0.64077000  1.0
  C  C69  1  0.29705000  0.49805000  0.14076000  1.0
  C  C70  1  0.79705000  0.00195000  0.35924000  1.0
  C  C71  1  0.70295000  0.50196000  0.85923000  1.0
  C  C72  1  0.63026000  0.56822000  0.33501000  1.0
  C  C73  1  0.86976000  0.06823000  0.83502000  1.0
  C  C74  1  0.36975000  0.43177000  0.66498000  1.0
  C  C75  1  0.13024000  0.93177000  0.16499000  1.0
  C  C76  1  0.78461000  0.51751000  0.26873000  1.0
  C  C77  1  0.71540000  0.01752000  0.76875000  1.0
  C  C78  1  0.21540000  0.48249000  0.73125000  1.0
  C  C79  1  0.28461000  0.98249000  0.23127000  1.0
  N  N80  1  0.11402000  0.59403000  0.49397000  1.0
  N  N81  1  0.38598000  0.09403000  0.99397000  1.0
  N  N82  1  0.88598000  0.40597000  0.50603000  1.0
  N  N83  1  0.61402000  0.90597000  0.00603000  1.0
  N  N84  1  0.41386000  0.89184000  0.49818000  1.0
  N  N85  1  0.08613000  0.39185000  0.99817000  1.0
  N  N86  1  0.58613000  0.10815000  0.50183000  1.0
  N  N87  1  0.91387000  0.60816000  0.00182000  1.0
  N  N88  1  0.50675000  0.61087000  0.38884000  1.0
  N  N89  1  0.99328000  0.11088000  0.88886000  1.0
  N  N90  1  0.49328000  0.38912000  0.61115000  1.0
  N  N91  1  0.00674000  0.88913000  0.11115000  1.0
  Cl  Cl92  1  0.40403000  0.72942000  0.64985000  1.0
  Cl  Cl93  1  0.09597000  0.22943000  0.14985000  1.0
  Cl  Cl94  1  0.59598000  0.27057000  0.35015000  1.0
  Cl  Cl95  1  0.90402000  0.77058000  0.85015000  1.0
  Cl  Cl96  1  0.11722000  0.76241000  0.34952000  1.0
  Cl  Cl97  1  0.38278000  0.26242000  0.84952000  1.0
  Cl  Cl98  1  0.88278000  0.23758000  0.65047000  1.0
  Cl  Cl99  1  0.61722000  0.73758000  0.15047000  1.0
