# generated using pymatgen
data_ZnH14C17NO4
_symmetry_space_group_name_H-M   'P 1'
_cell_length_a   5.07183000
_cell_length_b   13.33310000
_cell_length_c   14.13903742
_cell_angle_alpha   94.66404251
_cell_angle_beta   98.99787020
_cell_angle_gamma   95.86340000
_symmetry_Int_Tables_number   1
_chemical_formula_structural   ZnH14C17NO4
_chemical_formula_sum   'Zn2 H28 C34 N2 O8'
_cell_volume   934.80373004
_cell_formula_units_Z   2
loop_
 _symmetry_equiv_pos_site_id
 _symmetry_equiv_pos_as_xyz
  1  'x, y, z'
loop_
 _atom_site_type_symbol
 _atom_site_label
 _atom_site_symmetry_multiplicity
 _atom_site_fract_x
 _atom_site_fract_y
 _atom_site_fract_z
 _atom_site_occupancy
  Zn  Zn0  1  0.77011000  0.49398000  0.05417000  1.0
  Zn  Zn1  1  0.22988000  0.50602000  0.94583000  1.0
  H  H2  1  0.98202000  0.26722000  0.84244000  1.0
  H  H3  1  0.10178000  0.18068000  0.69417000  1.0
  H  H4  1  0.50827000  0.32558000  0.51979000  1.0
  H  H5  1  0.38349000  0.40925000  0.66856000  1.0
  H  H6  1  0.90353000  0.25313000  0.45531000  1.0
  H  H7  1  0.07883000  0.16700000  0.52308000  1.0
  H  H8  1  0.58139000  0.01656000  0.33404000  1.0
  H  H9  1  0.90055000  0.08700000  0.34729000  1.0
  H  H10  1  0.32485000  0.21898000  0.39288000  1.0
  H  H11  1  0.11265000  0.33898000  0.28388000  1.0
  H  H12  1  0.58210000  0.24882000  0.07071000  1.0
  H  H13  1  0.79069000  0.12959000  0.17852000  1.0
  H  H14  1  0.67654000  0.05748000  0.58983000  1.0
  H  H15  1  0.79093000  0.97624000  0.50386000  1.0
  H  H16  1  0.01800000  0.73279000  0.15756000  1.0
  H  H17  1  0.89823000  0.81932000  0.30583000  1.0
  H  H18  1  0.49172000  0.67442000  0.48021000  1.0
  H  H19  1  0.61652000  0.59075000  0.33144000  1.0
  H  H20  1  0.09646000  0.74686000  0.54469000  1.0
  H  H21  1  0.92116000  0.83301000  0.47692000  1.0
  H  H22  1  0.41861000  0.98344000  0.66596000  1.0
  H  H23  1  0.09945000  0.91300000  0.65272000  1.0
  H  H24  1  0.67515000  0.78101000  0.60712000  1.0
  H  H25  1  0.88735000  0.66101000  0.71612000  1.0
  H  H26  1  0.41789000  0.75117000  0.92928000  1.0
  H  H27  1  0.20931000  0.87041000  0.82148000  1.0
  H  H28  1  0.32343000  0.94253000  0.41017000  1.0
  H  H29  1  0.20904000  0.02376000  0.49615000  1.0
  C  C30  1  0.60532000  0.39668000  0.85186000  1.0
  C  C31  1  0.67418000  0.34264000  0.76418000  1.0
  C  C32  1  0.87636000  0.27820000  0.77150000  1.0
  C  C33  1  0.94238000  0.23020000  0.68842000  1.0
  C  C34  1  0.81121000  0.24681000  0.59723000  1.0
  C  C35  1  0.60958000  0.31177000  0.59065000  1.0
  C  C36  1  0.53997000  0.35882000  0.67306000  1.0
  C  C37  1  0.88130000  0.19623000  0.50666000  1.0
  C  C38  1  0.68994000  0.09242000  0.35803000  1.0
  C  C39  1  0.56896000  0.16656000  0.29293000  1.0
  C  C40  1  0.37859000  0.22628000  0.32195000  1.0
  C  C41  1  0.26154000  0.29270000  0.26171000  1.0
  C  C42  1  0.33417000  0.30093000  0.17073000  1.0
  C  C43  1  0.52455000  0.24136000  0.14110000  1.0
  C  C44  1  0.64026000  0.17478000  0.20172000  1.0
  C  C45  1  0.21006000  0.37299000  0.10724000  1.0
  C  C46  1  0.64027000  0.02920000  0.51313000  1.0
  C  C47  1  0.39470000  0.60332000  0.14815000  1.0
  C  C48  1  0.32583000  0.65737000  0.23582000  1.0
  C  C49  1  0.12366000  0.72181000  0.22850000  1.0
  C  C50  1  0.05763000  0.76981000  0.31158000  1.0
  C  C51  1  0.18879000  0.75319000  0.40277000  1.0
  C  C52  1  0.39043000  0.68824000  0.40935000  1.0
  C  C53  1  0.46005000  0.64119000  0.32694000  1.0
  C  C54  1  0.11870000  0.80377000  0.49334000  1.0
  C  C55  1  0.31007000  0.90757000  0.64197000  1.0
  C  C56  1  0.43103000  0.83344000  0.70706000  1.0
  C  C57  1  0.62140000  0.77371000  0.67804000  1.0
  C  C58  1  0.73846000  0.70730000  0.73829000  1.0
  C  C59  1  0.66582000  0.69907000  0.82927000  1.0
  C  C60  1  0.47544000  0.75863000  0.85890000  1.0
  C  C61  1  0.35974000  0.82522000  0.79827000  1.0
  C  C62  1  0.78994000  0.62701000  0.89275000  1.0
  C  C63  1  0.35970000  0.97080000  0.48687000  1.0
  N  N64  1  0.66934000  0.11689000  0.45888000  1.0
  N  N65  1  0.33067000  0.88311000  0.54113000  1.0
  O  O66  1  0.76958000  0.39882000  0.93100000  1.0
  O  O67  1  0.38890000  0.43858000  0.84147000  1.0
  O  O68  1  0.00874000  0.41203000  0.13208000  1.0
  O  O69  1  0.31388000  0.39154000  0.03237000  1.0
  O  O70  1  0.23044000  0.60118000  0.06901000  1.0
  O  O71  1  0.61110000  0.56142000  0.15853000  1.0
  O  O72  1  0.99127000  0.58797000  0.86793000  1.0
  O  O73  1  0.68612000  0.60846000  0.96762000  1.0
