# generated using pymatgen
data_CuH13C7SN2
_symmetry_space_group_name_H-M   'P 1'
_cell_length_a   6.41601000
_cell_length_b   11.33890000
_cell_length_c   12.49500000
_cell_angle_alpha   107.48100000
_cell_angle_beta   90.00000000
_cell_angle_gamma   90.00000000
_symmetry_Int_Tables_number   1
_chemical_formula_structural   CuH13C7SN2
_chemical_formula_sum   'Cu4 H52 C28 S4 N8'
_cell_volume   867.03594328
_cell_formula_units_Z   4
loop_
 _symmetry_equiv_pos_site_id
 _symmetry_equiv_pos_as_xyz
  1  'x, y, z'
loop_
 _atom_site_type_symbol
 _atom_site_label
 _atom_site_symmetry_multiplicity
 _atom_site_fract_x
 _atom_site_fract_y
 _atom_site_fract_z
 _atom_site_occupancy
  Cu  Cu0  1  0.31822000  0.53562000  0.46849000  1.0
  Cu  Cu1  1  0.81823000  0.96438000  0.53152000  1.0
  Cu  Cu2  1  0.68177000  0.46438000  0.53152000  1.0
  Cu  Cu3  1  0.18178000  0.03561000  0.46848000  1.0
  H  H4  1  0.04590000  0.36746000  0.39405000  1.0
  H  H5  1  0.54592000  0.13253000  0.60596000  1.0
  H  H6  1  0.95409000  0.63254000  0.60595000  1.0
  H  H7  1  0.45409000  0.86746000  0.39404000  1.0
  H  H8  1  0.01618000  0.47358000  0.33401000  1.0
  H  H9  1  0.51619000  0.02642000  0.66600000  1.0
  H  H10  1  0.98381000  0.52642000  0.66600000  1.0
  H  H11  1  0.48382000  0.97358000  0.33400000  1.0
  H  H12  1  0.31172000  0.38856000  0.20899000  1.0
  H  H13  1  0.81173000  0.11144000  0.79102000  1.0
  H  H14  1  0.68827000  0.61145000  0.79101000  1.0
  H  H15  1  0.18829000  0.88856000  0.20898000  1.0
  H  H16  1  0.94449000  0.34942000  0.14608000  1.0
  H  H17  1  0.44450000  0.15058000  0.85392000  1.0
  H  H18  1  0.05550000  0.65058000  0.85392000  1.0
  H  H19  1  0.55551000  0.84942000  0.14608000  1.0
  H  H20  1  0.92832000  0.22654000  0.20591000  1.0
  H  H21  1  0.42833000  0.27346000  0.79409000  1.0
  H  H22  1  0.07167000  0.77346000  0.79409000  1.0
  H  H23  1  0.57167000  0.72654000  0.20591000  1.0
  H  H24  1  0.99367000  0.14265000  0.00054000  1.0
  H  H25  1  0.49367000  0.35735000  0.99946000  1.0
  H  H26  1  0.00633000  0.85735000  0.99946000  1.0
  H  H27  1  0.50633000  0.64265000  0.00054000  1.0
  H  H28  1  0.21653000  0.23682000  0.01254000  1.0
  H  H29  1  0.71653000  0.26318000  0.98746000  1.0
  H  H30  1  0.78347000  0.76318000  0.98746000  1.0
  H  H31  1  0.28348000  0.73682000  0.01254000  1.0
  H  H32  1  0.31937000  0.02243000  0.00495000  1.0
  H  H33  1  0.81937000  0.47757000  0.99505000  1.0
  H  H34  1  0.68063000  0.97757000  0.99505000  1.0
  H  H35  1  0.18062000  0.52243000  0.00495000  1.0
  H  H36  1  0.15674000  0.02998000  0.12110000  1.0
  H  H37  1  0.65675000  0.47002000  0.87890000  1.0
  H  H38  1  0.84326000  0.97002000  0.87890000  1.0
  H  H39  1  0.34324000  0.52998000  0.12110000  1.0
  H  H40  1  0.52381000  0.07099000  0.18589000  1.0
  H  H41  1  0.02381000  0.42901000  0.81411000  1.0
  H  H42  1  0.47619000  0.92901000  0.81411000  1.0
  H  H43  1  0.97618000  0.57099000  0.18588000  1.0
  H  H44  1  0.54142000  0.19233000  0.12537000  1.0
  H  H45  1  0.04143000  0.30768000  0.87463000  1.0
  H  H46  1  0.45857000  0.80768000  0.87463000  1.0
  H  H47  1  0.95857000  0.69233000  0.12537000  1.0
  H  H48  1  0.24742000  0.18208000  0.31637000  1.0
  H  H49  1  0.74742000  0.31792000  0.68363000  1.0
  H  H50  1  0.75259000  0.81792000  0.68363000  1.0
  H  H51  1  0.25257000  0.68208000  0.31637000  1.0
  H  H52  1  0.47056000  0.27658000  0.33083000  1.0
  H  H53  1  0.97056000  0.22342000  0.66917000  1.0
  H  H54  1  0.52945000  0.72342000  0.66917000  1.0
  H  H55  1  0.02944000  0.77658000  0.33082000  1.0
  C  C56  1  0.68740000  0.69169000  0.42587000  1.0
  C  C57  1  0.18741000  0.80831000  0.57413000  1.0
  C  C58  1  0.31259000  0.30831000  0.57413000  1.0
  C  C59  1  0.81260000  0.19169000  0.42587000  1.0
  C  C60  1  0.21126000  0.33323000  0.24735000  1.0
  C  C61  1  0.71127000  0.16677000  0.75265000  1.0
  C  C62  1  0.78874000  0.66678000  0.75265000  1.0
  C  C63  1  0.28874000  0.83323000  0.24735000  1.0
  C  C64  1  0.03568000  0.27577000  0.16499000  1.0
  C  C65  1  0.53568000  0.22423000  0.83501000  1.0
  C  C66  1  0.96432000  0.72423000  0.83501000  1.0
  C  C67  1  0.46432000  0.77577000  0.16499000  1.0
  C  C68  1  0.12199000  0.18540000  0.05727000  1.0
  C  C69  1  0.62199000  0.31460000  0.94273000  1.0
  C  C70  1  0.87801000  0.81460000  0.94273000  1.0
  C  C71  1  0.37801000  0.68540000  0.05727000  1.0
  C  C72  1  0.25643000  0.08583000  0.08300000  1.0
  C  C73  1  0.75643000  0.41418000  0.91700000  1.0
  C  C74  1  0.74357000  0.91417000  0.91700000  1.0
  C  C75  1  0.24356000  0.58583000  0.08300000  1.0
  C  C76  1  0.43190000  0.14324000  0.16517000  1.0
  C  C77  1  0.93190000  0.35676000  0.83482000  1.0
  C  C78  1  0.56810000  0.85676000  0.83482000  1.0
  C  C79  1  0.06809000  0.64324000  0.16517000  1.0
  C  C80  1  0.34469000  0.23343000  0.27265000  1.0
  C  C81  1  0.84469000  0.26657000  0.72735000  1.0
  C  C82  1  0.65531000  0.76657000  0.72735000  1.0
  C  C83  1  0.15531000  0.73343000  0.27265000  1.0
  S  S84  1  0.63386000  0.54370000  0.37500000  1.0
  S  S85  1  0.13387000  0.95629000  0.62501000  1.0
  S  S86  1  0.36613000  0.45629000  0.62501000  1.0
  S  S87  1  0.86614000  0.04370000  0.37500000  1.0
  N  N88  1  0.72198000  0.79897000  0.46114000  1.0
  N  N89  1  0.22199000  0.70103000  0.53887000  1.0
  N  N90  1  0.27801000  0.20103000  0.53887000  1.0
  N  N91  1  0.77803000  0.29897000  0.46114000  1.0
  N  N92  1  0.12857000  0.41875000  0.35326000  1.0
  N  N93  1  0.62859000  0.08125000  0.64674000  1.0
  N  N94  1  0.87142000  0.58125000  0.64674000  1.0
  N  N95  1  0.37142000  0.91874000  0.35326000  1.0
