# generated using pymatgen
data_AlH7C17Br3O5
_symmetry_space_group_name_H-M   'P 1'
_cell_length_a   6.65016000
_cell_length_b   22.51880000
_cell_length_c   26.81320000
_cell_angle_alpha   101.99800000
_cell_angle_beta   89.99930000
_cell_angle_gamma   89.99830000
_symmetry_Int_Tables_number   1
_chemical_formula_structural   AlH7C17Br3O5
_chemical_formula_sum   'Al4 H28 C68 Br12 O20'
_cell_volume   3927.65742869
_cell_formula_units_Z   4
loop_
 _symmetry_equiv_pos_site_id
 _symmetry_equiv_pos_as_xyz
  1  'x, y, z'
loop_
 _atom_site_type_symbol
 _atom_site_label
 _atom_site_symmetry_multiplicity
 _atom_site_fract_x
 _atom_site_fract_y
 _atom_site_fract_z
 _atom_site_occupancy
  Al  Al0  1  0.16246000  0.24971000  0.75203000  1.0
  Al  Al1  1  0.83753000  0.75029000  0.24797000  1.0
  Al  Al2  1  0.66247000  0.25029000  0.74797000  1.0
  Al  Al3  1  0.33753000  0.74971000  0.25203000  1.0
  H  H4  1  0.74698000  0.63229000  0.33767000  1.0
  H  H5  1  0.25303000  0.36771000  0.66233000  1.0
  H  H6  1  0.24694000  0.86771000  0.16233000  1.0
  H  H7  1  0.75303000  0.13229000  0.83766000  1.0
  H  H8  1  0.70957000  0.57087000  0.40433000  1.0
  H  H9  1  0.29043000  0.42913000  0.59566000  1.0
  H  H10  1  0.20954000  0.92913000  0.09566000  1.0
  H  H11  1  0.79046000  0.07087000  0.90433000  1.0
  H  H12  1  0.34111000  0.59512000  0.43939000  1.0
  H  H13  1  0.65889000  0.40488000  0.56061000  1.0
  H  H14  1  0.84110000  0.90488000  0.06061000  1.0
  H  H15  1  0.15892000  0.09512000  0.93939000  1.0
  H  H16  1  0.37717000  0.65465000  0.37109000  1.0
  H  H17  1  0.62285000  0.34535000  0.62891000  1.0
  H  H18  1  0.87715000  0.84535000  0.12891000  1.0
  H  H19  1  0.12285000  0.15465000  0.87109000  1.0
  H  H20  1  0.25838000  0.48556000  0.43241000  1.0
  H  H21  1  0.74163000  0.51444000  0.56759000  1.0
  H  H22  1  0.75836000  0.01444000  0.06759000  1.0
  H  H23  1  0.24165000  0.98556000  0.93241000  1.0
  H  H24  1  0.22212000  0.57504000  0.97356000  1.0
  H  H25  1  0.77788000  0.42496000  0.02644000  1.0
  H  H26  1  0.72213000  0.92496000  0.52644000  1.0
  H  H27  1  0.27788000  0.07504000  0.47357000  1.0
  H  H28  1  0.41499000  0.32614000  0.77969000  1.0
  H  H29  1  0.58501000  0.67386000  0.22031000  1.0
  H  H30  1  0.91501000  0.17386000  0.72031000  1.0
  H  H31  1  0.08498000  0.82614000  0.27969000  1.0
  C  C32  1  0.40812000  0.17421000  0.67115000  1.0
  C  C33  1  0.59189000  0.82579000  0.32885000  1.0
  C  C34  1  0.90809000  0.32579000  0.82885000  1.0
  C  C35  1  0.09190000  0.67421000  0.17115000  1.0
  C  C36  1  0.41820000  0.18240000  0.80941000  1.0
  C  C37  1  0.58180000  0.81761000  0.19060000  1.0
  C  C38  1  0.91819000  0.31761000  0.69060000  1.0
  C  C39  1  0.08181000  0.68239000  0.30940000  1.0
  C  C40  1  0.87585000  0.62369000  0.36026000  1.0
  C  C41  1  0.12416000  0.37631000  0.63974000  1.0
  C  C42  1  0.37582000  0.87631000  0.13974000  1.0
  C  C43  1  0.62416000  0.12368000  0.86026000  1.0
  C  C44  1  0.85558000  0.58989000  0.39782000  1.0
  C  C45  1  0.14443000  0.41011000  0.60218000  1.0
  C  C46  1  0.35556000  0.91011000  0.10218000  1.0
  C  C47  1  0.64444000  0.08989000  0.89782000  1.0
  C  C48  1  0.02295000  0.57881000  0.42661000  1.0
  C  C49  1  0.97704000  0.42119000  0.57340000  1.0
  C  C50  1  0.52295000  0.92119000  0.07339000  1.0
  C  C51  1  0.47706000  0.07882000  0.92661000  1.0
  C  C52  1  0.21097000  0.60252000  0.41665000  1.0
  C  C53  1  0.78904000  0.39749000  0.58335000  1.0
  C  C54  1  0.71095000  0.89749000  0.08335000  1.0
  C  C55  1  0.28905000  0.10251000  0.91665000  1.0
  C  C56  1  0.23177000  0.63603000  0.37877000  1.0
  C  C57  1  0.76825000  0.36398000  0.62123000  1.0
  C  C58  1  0.73175000  0.86397000  0.12123000  1.0
  C  C59  1  0.26824000  0.13602000  0.87877000  1.0
  C  C60  1  0.06425000  0.64674000  0.35024000  1.0
  C  C61  1  0.93575000  0.35326000  0.64976000  1.0
  C  C62  1  0.56424000  0.85327000  0.14976000  1.0
  C  C63  1  0.43576000  0.14673000  0.85023000  1.0
  C  C64  1  0.14585000  0.49271000  0.46259000  1.0
  C  C65  1  0.85415000  0.50729000  0.53740000  1.0
  C  C66  1  0.64585000  0.00730000  0.03741000  1.0
  C  C67  1  0.35417000  0.99271000  0.96259000  1.0
  C  C68  1  0.13969000  0.45357000  0.49648000  1.0
  C  C69  1  0.86030000  0.54643000  0.50352000  1.0
  C  C70  1  0.63971000  0.04642000  0.00352000  1.0
  C  C71  1  0.36032000  0.95358000  0.99647000  1.0
  C  C72  1  0.99343000  0.45979000  0.53515000  1.0
  C  C73  1  0.00658000  0.54021000  0.46486000  1.0
  C  C74  1  0.49345000  0.04021000  0.96485000  1.0
  C  C75  1  0.50656000  0.95980000  0.03514000  1.0
  C  C76  1  0.90462000  0.52611000  0.96545000  1.0
  C  C77  1  0.09537000  0.47389000  0.03455000  1.0
  C  C78  1  0.40465000  0.97389000  0.53455000  1.0
  C  C79  1  0.59537000  0.02610000  0.46545000  1.0
  C  C80  1  0.12340000  0.54163000  0.98516000  1.0
  C  C81  1  0.87660000  0.45837000  0.01485000  1.0
  C  C82  1  0.62340000  0.95836000  0.51485000  1.0
  C  C83  1  0.37660000  0.04163000  0.48516000  1.0
  C  C84  1  0.09598000  0.62914000  0.12429000  1.0
  C  C85  1  0.90400000  0.37085000  0.87572000  1.0
  C  C86  1  0.59597000  0.87085000  0.37571000  1.0
  C  C87  1  0.40404000  0.12914000  0.62429000  1.0
  C  C88  1  0.83048000  0.52742000  0.02129000  1.0
  C  C89  1  0.16953000  0.47259000  0.97871000  1.0
  C  C90  1  0.33046000  0.97259000  0.47872000  1.0
  C  C91  1  0.66952000  0.02742000  0.52129000  1.0
  C  C92  1  0.05100000  0.54456000  0.04182000  1.0
  C  C93  1  0.94899000  0.45544000  0.95818000  1.0
  C  C94  1  0.55101000  0.95544000  0.45818000  1.0
  C  C95  1  0.44901000  0.04456000  0.54182000  1.0
  C  C96  1  0.09023000  0.59009000  0.08541000  1.0
  C  C97  1  0.90977000  0.40991000  0.91460000  1.0
  C  C98  1  0.59021000  0.90991000  0.41460000  1.0
  C  C99  1  0.40978000  0.09009000  0.58541000  1.0
  Br  Br100  1  0.32958000  0.38845000  0.48510000  1.0
  Br  Br101  1  0.67041000  0.61155000  0.51490000  1.0
  Br  Br102  1  0.82960000  0.11154000  0.01490000  1.0
  Br  Br103  1  0.17042000  0.88845000  0.98510000  1.0
  Br  Br104  1  0.77206000  0.56322000  0.91714000  1.0
  Br  Br105  1  0.22794000  0.43678000  0.08286000  1.0
  Br  Br106  1  0.27205000  0.93679000  0.58287000  1.0
  Br  Br107  1  0.72794000  0.06321000  0.41713000  1.0
  Br  Br108  1  0.39954000  0.43145000  0.94668000  1.0
  Br  Br109  1  0.60046000  0.56855000  0.05332000  1.0
  Br  Br110  1  0.89952000  0.06854000  0.55332000  1.0
  Br  Br111  1  0.10047000  0.93146000  0.44668000  1.0
  O  O112  1  0.58309000  0.19537000  0.78999000  1.0
  O  O113  1  0.41692000  0.80463000  0.21000000  1.0
  O  O114  1  0.08308000  0.30463000  0.71000000  1.0
  O  O115  1  0.91692000  0.69538000  0.28999000  1.0
  O  O116  1  0.23989000  0.19067000  0.69203000  1.0
  O  O117  1  0.76011000  0.80933000  0.30798000  1.0
  O  O118  1  0.73986000  0.30933000  0.80797000  1.0
  O  O119  1  0.26013000  0.69067000  0.19202000  1.0
  O  O120  1  0.24290000  0.19666000  0.79646000  1.0
  O  O121  1  0.75708000  0.80334000  0.20354000  1.0
  O  O122  1  0.74291000  0.30333000  0.70354000  1.0
  O  O123  1  0.25710000  0.69667000  0.29646000  1.0
  O  O124  1  0.08120000  0.30717000  0.81248000  1.0
  O  O125  1  0.91880000  0.69284000  0.18752000  1.0
  O  O126  1  0.58122000  0.19283000  0.68752000  1.0
  O  O127  1  0.41878000  0.80717000  0.31247000  1.0
  O  O128  1  0.41199000  0.28713000  0.75611000  1.0
  O  O129  1  0.58799000  0.71287000  0.24389000  1.0
  O  O130  1  0.91201000  0.21287000  0.74389000  1.0
  O  O131  1  0.08799000  0.78713000  0.25611000  1.0
