# generated using pymatgen
data_CuH14C10S(NO3)2
_symmetry_space_group_name_H-M   'P 1'
_cell_length_a   7.13959000
_cell_length_b   10.68960000
_cell_length_c   10.68970000
_cell_angle_alpha   91.99100000
_cell_angle_beta   100.92300000
_cell_angle_gamma   100.92300000
_symmetry_Int_Tables_number   1
_chemical_formula_structural   CuH14C10S(NO3)2
_chemical_formula_sum   'Cu2 H28 C20 S2 N4 O12'
_cell_volume   784.42290811
_cell_formula_units_Z   2
loop_
 _symmetry_equiv_pos_site_id
 _symmetry_equiv_pos_as_xyz
  1  'x, y, z'
loop_
 _atom_site_type_symbol
 _atom_site_label
 _atom_site_symmetry_multiplicity
 _atom_site_fract_x
 _atom_site_fract_y
 _atom_site_fract_z
 _atom_site_occupancy
  Cu  Cu0  1  0.75000000  0.31831000  0.68169000  1.0
  Cu  Cu1  1  0.25001000  0.68169000  0.31832000  1.0
  H  H2  1  0.79564000  0.55172000  0.61723000  1.0
  H  H3  1  0.70436000  0.38277000  0.44828000  1.0
  H  H4  1  0.20435000  0.44828000  0.38277000  1.0
  H  H5  1  0.29565000  0.61722000  0.55172000  1.0
  H  H6  1  0.59887000  0.50924000  0.66904000  1.0
  H  H7  1  0.90114000  0.33096000  0.49076000  1.0
  H  H8  1  0.40114000  0.49076000  0.33096000  1.0
  H  H9  1  0.09886000  0.66904000  0.50924000  1.0
  H  H10  1  0.04560000  0.28724000  0.89675000  1.0
  H  H11  1  0.45441000  0.10325000  0.71277000  1.0
  H  H12  1  0.95442000  0.71278000  0.10326000  1.0
  H  H13  1  0.54561000  0.89676000  0.28724000  1.0
  H  H14  1  0.10271000  0.31333000  0.13711000  1.0
  H  H15  1  0.39729000  0.86289000  0.68668000  1.0
  H  H16  1  0.89729000  0.68669000  0.86289000  1.0
  H  H17  1  0.60271000  0.13713000  0.31332000  1.0
  H  H18  1  0.83933000  0.37384000  0.23862000  1.0
  H  H19  1  0.66066000  0.76138000  0.62616000  1.0
  H  H20  1  0.16066000  0.62616000  0.76138000  1.0
  H  H21  1  0.33931000  0.23862000  0.37383000  1.0
  H  H22  1  0.52931000  0.39952000  0.09835000  1.0
  H  H23  1  0.97068000  0.90164000  0.60047000  1.0
  H  H24  1  0.47068000  0.60047000  0.90164000  1.0
  H  H25  1  0.02930000  0.09835000  0.39952000  1.0
  H  H26  1  0.49369000  0.36704000  0.85978000  1.0
  H  H27  1  0.00630000  0.14021000  0.63295000  1.0
  H  H28  1  0.50631000  0.63295000  0.14022000  1.0
  H  H29  1  0.99371000  0.85978000  0.36705000  1.0
  C  C30  1  0.93485000  0.30939000  0.94656000  1.0
  C  C31  1  0.56514000  0.05344000  0.69062000  1.0
  C  C32  1  0.06515000  0.69063000  0.05345000  1.0
  C  C33  1  0.43487000  0.94656000  0.30938000  1.0
  C  C34  1  0.96481000  0.32413000  0.07907000  1.0
  C  C35  1  0.53519000  0.92094000  0.67589000  1.0
  C  C36  1  0.03520000  0.67589000  0.92093000  1.0
  C  C37  1  0.46481000  0.07908000  0.32412000  1.0
  C  C38  1  0.81879000  0.35747000  0.13554000  1.0
  C  C39  1  0.68119000  0.86445000  0.64254000  1.0
  C  C40  1  0.18120000  0.64255000  0.86446000  1.0
  C  C41  1  0.31879000  0.13554000  0.35745000  1.0
  C  C42  1  0.64603000  0.37300000  0.05730000  1.0
  C  C43  1  0.85396000  0.94270000  0.62700000  1.0
  C  C44  1  0.35396000  0.62700000  0.94270000  1.0
  C  C45  1  0.14602000  0.05731000  0.37299000  1.0
  C  C46  1  0.62570000  0.35646000  0.92538000  1.0
  C  C47  1  0.87429000  0.07461000  0.64354000  1.0
  C  C48  1  0.37431000  0.64354000  0.07462000  1.0
  C  C49  1  0.12570000  0.92538000  0.35646000  1.0
  S  S50  1  0.25000000  0.37614000  0.62385000  1.0
  S  S51  1  0.75000000  0.62385000  0.37615000  1.0
  N  N52  1  0.76853000  0.32597000  0.87151000  1.0
  N  N53  1  0.73147000  0.12849000  0.67403000  1.0
  N  N54  1  0.23148000  0.67404000  0.12850000  1.0
  N  N55  1  0.26854000  0.87151000  0.32597000  1.0
  O  O56  1  0.38113000  0.28408000  0.63906000  1.0
  O  O57  1  0.11890000  0.36091000  0.71591000  1.0
  O  O58  1  0.61888000  0.71591000  0.36094000  1.0
  O  O59  1  0.88111000  0.63907000  0.28409000  1.0
  O  O60  1  0.12852000  0.35841000  0.48948000  1.0
  O  O61  1  0.37148000  0.51052000  0.64159000  1.0
  O  O62  1  0.87149000  0.64158000  0.51052000  1.0
  O  O63  1  0.62850000  0.48947000  0.35842000  1.0
  O  O64  1  0.74179000  0.50517000  0.68704000  1.0
  O  O65  1  0.75822000  0.31297000  0.49484000  1.0
  O  O66  1  0.25821000  0.49483000  0.31297000  1.0
  O  O67  1  0.24178000  0.68702000  0.50517000  1.0
