# generated using pymatgen
data_Hf3H32(C21O8)2
_symmetry_space_group_name_H-M   'P 1'
_cell_length_a   18.13150000
_cell_length_b   20.38340000
_cell_length_c   20.38860000
_cell_angle_alpha   66.97290000
_cell_angle_beta   87.38250000
_cell_angle_gamma   87.40580000
_symmetry_Int_Tables_number   1
_chemical_formula_structural   Hf3H32(C21O8)2
_chemical_formula_sum   'Hf6 H64 C84 O32'
_cell_volume   6924.53017938
_cell_formula_units_Z   2
loop_
 _symmetry_equiv_pos_site_id
 _symmetry_equiv_pos_as_xyz
  1  'x, y, z'
loop_
 _atom_site_type_symbol
 _atom_site_label
 _atom_site_symmetry_multiplicity
 _atom_site_fract_x
 _atom_site_fract_y
 _atom_site_fract_z
 _atom_site_occupancy
  Hf  Hf0  1  0.09173000  0.90728000  0.09654000  1.0
  Hf  Hf1  1  0.89784000  0.91967000  0.09541000  1.0
  Hf  Hf2  1  0.10054000  0.06404000  0.94221000  1.0
  Hf  Hf3  1  0.90668000  0.07362000  0.93826000  1.0
  Hf  Hf4  1  0.00102000  0.91774000  0.94474000  1.0
  Hf  Hf5  1  0.99735000  0.06455000  0.09151000  1.0
  H  H6  1  0.99948000  0.91383000  0.20151000  1.0
  H  H7  1  0.83824000  0.94092000  0.96990000  1.0
  H  H8  1  0.99661000  0.17470000  0.94088000  1.0
  H  H9  1  0.16252000  0.93561000  0.96072000  1.0
  H  H10  1  0.75689000  0.93993000  0.11616000  1.0
  H  H11  1  0.77269000  0.11819000  0.95456000  1.0
  H  H12  1  0.90302000  0.16972000  0.80809000  1.0
  H  H13  1  0.14041000  0.19560000  0.84753000  1.0
  H  H14  1  0.24081000  0.07759000  0.95692000  1.0
  H  H15  1  0.23501000  0.85585000  0.10773000  1.0
  H  H16  1  0.09661000  0.77723000  0.19320000  1.0
  H  H17  1  0.85870000  0.82390000  0.22893000  1.0
  H  H18  1  0.12178000  0.14563000  0.80750000  1.0
  H  H19  1  0.22419000  0.91932000  0.13424000  1.0
  H  H20  1  0.87922000  0.78544000  0.17584000  1.0
  H  H21  1  0.76485000  0.09043000  0.89253000  1.0
  H  H22  1  0.17859000  0.99301000  0.51094000  1.0
  H  H23  1  0.38385000  0.99188000  0.60893000  1.0
  H  H24  1  0.38415000  0.99375000  0.39681000  1.0
  H  H25  1  0.81870000  0.99514000  0.52058000  1.0
  H  H26  1  0.61619000  0.99404000  0.63939000  1.0
  H  H27  1  0.61066000  0.99303000  0.42869000  1.0
  H  H28  1  0.17985000  0.48494000  0.01704000  1.0
  H  H29  1  0.38502000  0.58034000  0.02182000  1.0
  H  H30  1  0.38516000  0.36949000  0.02031000  1.0
  H  H31  1  0.81934000  0.49265000  0.02472000  1.0
  H  H32  1  0.61719000  0.61318000  0.02004000  1.0
  H  H33  1  0.61119000  0.40079000  0.02324000  1.0
  H  H34  1  0.50222000  0.56839000  0.01758000  1.0
  H  H35  1  0.49736000  0.41505000  0.02465000  1.0
  H  H36  1  0.49608000  0.99527000  0.44309000  1.0
  H  H37  1  0.50167000  0.99060000  0.59544000  1.0
  H  H38  1  0.76208000  0.07890000  0.76405000  1.0
  H  H39  1  0.91426000  0.91824000  0.74745000  1.0
  H  H40  1  0.84627000  0.91728000  0.64396000  1.0
  H  H41  1  0.69204000  0.07648000  0.66285000  1.0
  H  H42  1  0.75028000  0.92088000  0.27750000  1.0
  H  H43  1  0.90343000  0.07018000  0.28916000  1.0
  H  H44  1  0.83862000  0.06934000  0.40011000  1.0
  H  H45  1  0.68479000  0.91971000  0.38800000  1.0
  H  H46  1  0.08683000  0.91784000  0.73972000  1.0
  H  H47  1  0.23674000  0.06804000  0.75475000  1.0
  H  H48  1  0.30725000  0.06725000  0.64698000  1.0
  H  H49  1  0.15592000  0.91742000  0.63113000  1.0
  H  H50  1  0.08966000  0.07310000  0.28108000  1.0
  H  H51  1  0.24451000  0.91440000  0.26439000  1.0
  H  H52  1  0.31030000  0.91366000  0.36928000  1.0
  H  H53  1  0.15415000  0.07184000  0.38734000  1.0
  H  H54  1  0.75097000  0.25016000  0.95027000  1.0
  H  H55  1  0.90187000  0.25945000  0.10230000  1.0
  H  H56  1  0.83792000  0.37103000  0.10089000  1.0
  H  H57  1  0.68597000  0.36084000  0.94894000  1.0
  H  H58  1  0.91885000  0.71620000  0.94722000  1.0
  H  H59  1  0.76303000  0.74137000  0.10125000  1.0
  H  H60  1  0.69146000  0.64006000  0.09995000  1.0
  H  H61  1  0.84900000  0.61347000  0.94687000  1.0
  H  H62  1  0.08711000  0.25816000  0.09348000  1.0
  H  H63  1  0.24694000  0.23630000  0.94088000  1.0
  H  H64  1  0.31356000  0.34056000  0.94099000  1.0
  H  H65  1  0.15261000  0.36347000  0.09330000  1.0
  H  H66  1  0.09308000  0.71724000  0.94100000  1.0
  H  H67  1  0.23573000  0.72257000  0.10100000  1.0
  H  H68  1  0.30512000  0.61487000  0.09960000  1.0
  H  H69  1  0.16072000  0.60793000  0.94055000  1.0
  C  C70  1  0.11980000  0.79183000  0.02128000  1.0
  C  C71  1  0.87105000  0.99483000  0.21145000  1.0
  C  C72  1  0.88658000  0.79586000  0.02514000  1.0
  C  C73  1  0.12423000  0.99443000  0.20316000  1.0
  C  C74  1  0.12322000  0.17855000  0.01702000  1.0
  C  C75  1  0.88251000  0.99860000  0.82439000  1.0
  C  C76  1  0.86984000  0.18227000  0.02624000  1.0
  C  C77  1  0.11584000  0.99441000  0.81758000  1.0
  C  C78  1  0.27677000  0.99255000  0.44714000  1.0
  C  C79  1  0.23880000  0.99275000  0.50844000  1.0
  C  C80  1  0.27718000  0.99273000  0.56682000  1.0
  C  C81  1  0.35444000  0.99289000  0.56306000  1.0
  C  C82  1  0.39413000  0.99282000  0.50215000  1.0
  C  C83  1  0.35409000  0.99245000  0.44491000  1.0
  C  C84  1  0.71847000  0.99376000  0.46760000  1.0
  C  C85  1  0.75853000  0.99478000  0.52460000  1.0
  C  C86  1  0.72225000  0.99543000  0.58648000  1.0
  C  C87  1  0.64490000  0.99483000  0.59084000  1.0
  C  C88  1  0.60324000  0.99324000  0.53506000  1.0
  C  C89  1  0.64133000  0.99276000  0.47356000  1.0
  C  C90  1  0.27786000  0.42046000  0.01782000  1.0
  C  C91  1  0.24001000  0.48184000  0.01801000  1.0
  C  C92  1  0.27844000  0.53944000  0.01976000  1.0
  C  C93  1  0.35559000  0.53503000  0.02140000  1.0
  C  C94  1  0.39522000  0.47427000  0.02089000  1.0
  C  C95  1  0.35515000  0.41758000  0.01912000  1.0
  C  C96  1  0.71901000  0.43976000  0.02356000  1.0
  C  C97  1  0.75920000  0.49698000  0.02385000  1.0
  C  C98  1  0.72312000  0.55951000  0.02312000  1.0
  C  C99  1  0.64577000  0.56418000  0.02195000  1.0
  C  C100  1  0.60401000  0.50796000  0.02147000  1.0
  C  C101  1  0.64194000  0.44593000  0.02227000  1.0
  C  C102  1  0.52367000  0.51636000  0.02030000  1.0
  C  C103  1  0.47557000  0.46689000  0.02216000  1.0
  C  C104  1  0.47451000  0.99343000  0.49477000  1.0
  C  C105  1  0.52288000  0.99228000  0.54370000  1.0
  C  C106  1  0.77958000  0.04296000  0.73799000  1.0
  C  C107  1  0.84221000  0.99843000  0.76215000  1.0
  C  C108  1  0.86595000  0.95322000  0.72779000  1.0
  C  C109  1  0.82791000  0.95301000  0.67011000  1.0
  C  C110  1  0.76424000  0.99660000  0.64645000  1.0
  C  C111  1  0.74061000  0.04147000  0.68147000  1.0
  C  C112  1  0.76904000  0.95339000  0.30474000  1.0
  C  C113  1  0.83098000  0.99537000  0.27685000  1.0
  C  C114  1  0.85566000  0.03717000  0.31166000  1.0
  C  C115  1  0.81953000  0.03615000  0.37369000  1.0
  C  C116  1  0.75723000  0.99432000  0.40200000  1.0
  C  C117  1  0.73240000  0.95324000  0.36621000  1.0
  C  C118  1  0.13459000  0.95113000  0.71814000  1.0
  C  C119  1  0.15688000  0.99406000  0.75266000  1.0
  C  C120  1  0.21939000  0.03566000  0.72677000  1.0
  C  C121  1  0.25890000  0.03440000  0.66716000  1.0
  C  C122  1  0.23613000  0.99269000  0.63120000  1.0
  C  C123  1  0.17329000  0.95117000  0.65764000  1.0
  C  C124  1  0.13801000  0.03832000  0.30114000  1.0
  C  C125  1  0.16379000  0.99464000  0.26571000  1.0
  C  C126  1  0.22598000  0.94972000  0.29084000  1.0
  C  C127  1  0.26242000  0.94935000  0.34948000  1.0
  C  C128  1  0.23700000  0.99300000  0.38530000  1.0
  C  C129  1  0.17389000  0.03709000  0.36052000  1.0
  C  C130  1  0.76872000  0.27631000  0.98412000  1.0
  C  C131  1  0.82978000  0.24757000  0.02708000  1.0
  C  C132  1  0.85445000  0.28232000  0.06896000  1.0
  C  C133  1  0.81888000  0.34474000  0.06757000  1.0
  C  C134  1  0.75727000  0.37364000  0.02498000  1.0
  C  C135  1  0.73267000  0.33819000  0.98348000  1.0
  C  C136  1  0.86965000  0.69812000  0.98137000  1.0
  C  C137  1  0.84579000  0.73387000  0.02527000  1.0
  C  C138  1  0.78148000  0.71254000  0.06801000  1.0
  C  C139  1  0.74146000  0.65655000  0.06653000  1.0
  C  C140  1  0.76557000  0.61952000  0.02364000  1.0
  C  C141  1  0.83050000  0.64095000  0.98138000  1.0
  C  C142  1  0.13643000  0.27726000  0.05984000  1.0
  C  C143  1  0.16292000  0.24112000  0.01706000  1.0
  C  C144  1  0.22687000  0.26446000  0.97426000  1.0
  C  C145  1  0.26408000  0.32239000  0.97477000  1.0
  C  C146  1  0.23767000  0.35927000  0.01714000  1.0
  C  C147  1  0.17301000  0.33603000  0.05930000  1.0
  C  C148  1  0.13922000  0.69381000  0.97597000  1.0
  C  C149  1  0.16031000  0.72654000  0.02096000  1.0
  C  C150  1  0.22024000  0.69751000  0.06541000  1.0
  C  C151  1  0.25889000  0.63742000  0.06443000  1.0
  C  C152  1  0.23772000  0.60385000  0.01998000  1.0
  C  C153  1  0.17705000  0.63284000  0.97608000  1.0
  O  O154  1  0.13544000  0.81362000  0.06978000  1.0
  O  O155  1  0.07290000  0.82135000  0.97289000  1.0
  O  O156  1  0.85413000  0.94710000  0.18904000  1.0
  O  O157  1  0.91988000  0.04157000  0.18317000  1.0
  O  O158  1  0.87603000  0.81365000  0.07825000  1.0
  O  O159  1  0.92790000  0.82817000  0.97037000  1.0
  O  O160  1  0.14781000  0.95172000  0.17456000  1.0
  O  O161  1  0.06757000  0.03636000  0.18348000  1.0
  O  O162  1  0.09273000  0.82527000  0.19196000  1.0
  O  O163  1  0.22105000  0.90625000  0.09259000  1.0
  O  O164  1  0.89820000  0.81578000  0.19863000  1.0
  O  O165  1  0.78736000  0.91622000  0.09123000  1.0
  O  O166  1  0.99843000  0.89355000  0.05207000  1.0
  O  O167  1  0.99642000  0.93867000  0.15014000  1.0
  O  O168  1  0.14194000  0.15543000  0.96848000  1.0
  O  O169  1  0.07311000  0.15299000  0.06525000  1.0
  O  O170  1  0.86518000  0.04813000  0.84654000  1.0
  O  O171  1  0.93084000  0.94891000  0.85134000  1.0
  O  O172  1  0.84791000  0.15461000  0.98462000  1.0
  O  O173  1  0.92544000  0.15956000  0.06636000  1.0
  O  O174  1  0.12468000  0.04685000  0.83533000  1.0
  O  O175  1  0.07592000  0.94081000  0.85195000  1.0
  O  O176  1  0.10144000  0.16839000  0.83942000  1.0
  O  O177  1  0.21132000  0.05474000  0.93391000  1.0
  O  O178  1  0.90592000  0.16870000  0.85583000  1.0
  O  O179  1  0.77746000  0.07577000  0.94235000  1.0
  O  O180  1  0.00013000  0.12316000  0.96554000  1.0
  O  O181  1  0.00145000  0.02497000  0.92064000  1.0
  O  O182  1  0.08005000  0.02009000  0.04935000  1.0
  O  O183  1  0.88568000  0.95520000  0.97944000  1.0
  O  O184  1  0.11455000  0.94744000  0.97715000  1.0
  O  O185  1  0.91676000  0.02596000  0.05063000  1.0
