# generated using pymatgen
data_HgH20C20S2(NO)6
_symmetry_space_group_name_H-M   'P 1'
_cell_length_a   5.46528000
_cell_length_b   10.42940000
_cell_length_c   11.44781302
_cell_angle_alpha   102.96305174
_cell_angle_beta   102.65463956
_cell_angle_gamma   99.57830000
_symmetry_Int_Tables_number   1
_chemical_formula_structural   HgH20C20S2(NO)6
_chemical_formula_sum   'Hg1 H20 C20 S2 N6 O6'
_cell_volume   604.29339471
_cell_formula_units_Z   1
loop_
 _symmetry_equiv_pos_site_id
 _symmetry_equiv_pos_as_xyz
  1  'x, y, z'
loop_
 _atom_site_type_symbol
 _atom_site_label
 _atom_site_symmetry_multiplicity
 _atom_site_fract_x
 _atom_site_fract_y
 _atom_site_fract_z
 _atom_site_occupancy
  Hg  Hg0  1  0.00001000  0.00000000  0.00002000  1.0
  H  H1  1  0.83083000  0.28561000  0.38025000  1.0
  H  H2  1  0.16914000  0.71436000  0.61978000  1.0
  H  H3  1  0.09953000  0.41008000  0.44526000  1.0
  H  H4  1  0.90040000  0.58990000  0.55474000  1.0
  H  H5  1  0.81674000  0.26635000  0.96668000  1.0
  H  H6  1  0.18333000  0.73365000  0.03332000  1.0
  H  H7  1  0.88435000  0.62535000  0.14132000  1.0
  H  H8  1  0.11569000  0.37467000  0.85863000  1.0
  H  H9  1  0.00289000  0.55477000  0.26320000  1.0
  H  H10  1  0.99708000  0.44524000  0.73675000  1.0
  H  H11  1  0.10145000  0.51563000  0.12354000  1.0
  H  H12  1  0.89858000  0.48438000  0.87645000  1.0
  H  H13  1  0.60486000  0.24806000  0.73888000  1.0
  H  H14  1  0.39515000  0.75189000  0.26108000  1.0
  H  H15  1  0.45182000  0.38174000  0.59616000  1.0
  H  H16  1  0.54812000  0.61824000  0.40383000  1.0
  H  H17  1  0.68362000  0.13311000  0.50193000  1.0
  H  H18  1  0.31637000  0.86685000  0.49807000  1.0
  H  H19  1  0.83726000  0.00222000  0.64812000  1.0
  H  H20  1  0.16276000  0.99771000  0.35185000  1.0
  C  C21  1  0.43394000  0.22425000  0.01215000  1.0
  C  C22  1  0.56612000  0.77574000  0.98786000  1.0
  C  C23  1  0.68211000  0.29793000  0.01719000  1.0
  C  C24  1  0.31794000  0.70208000  0.98283000  1.0
  C  C25  1  0.72146000  0.41522000  0.10774000  1.0
  C  C26  1  0.27854000  0.58483000  0.89222000  1.0
  C  C27  1  0.93983000  0.53442000  0.16166000  1.0
  C  C28  1  0.06022000  0.46559000  0.83831000  1.0
  C  C29  1  0.22945000  0.11906000  0.70385000  1.0
  C  C30  1  0.77045000  0.88095000  0.29618000  1.0
  C  C31  1  0.40242000  0.22565000  0.68909000  1.0
  C  C32  1  0.59755000  0.77434000  0.31090000  1.0
  C  C33  1  0.31618000  0.29920000  0.60777000  1.0
  C  C34  1  0.68380000  0.70082000  0.39228000  1.0
  C  C35  1  0.05599000  0.26684000  0.53889000  1.0
  C  C36  1  0.94399000  0.73319000  0.46115000  1.0
  C  C37  1  0.88497000  0.15881000  0.55495000  1.0
  C  C38  1  0.11499000  0.84124000  0.44509000  1.0
  C  C39  1  0.96973000  0.08579000  0.63668000  1.0
  C  C40  1  0.03021000  0.91421000  0.36332000  1.0
  S  S41  1  0.34013000  0.02576000  0.80604000  1.0
  S  S42  1  0.65987000  0.97423000  0.19395000  1.0
  N  N43  1  0.32742000  0.29262000  0.09237000  1.0
  N  N44  1  0.67264000  0.70740000  0.90763000  1.0
  N  N45  1  0.29971000  0.09491000  0.94242000  1.0
  N  N46  1  0.70040000  0.90507000  0.05762000  1.0
  N  N47  1  0.96351000  0.34146000  0.46063000  1.0
  N  N48  1  0.03640000  0.65854000  0.53941000  1.0
  O  O49  1  0.51296000  0.41458000  0.15489000  1.0
  O  O50  1  0.48707000  0.58545000  0.84508000  1.0
  O  O51  1  0.17495000  0.89142000  0.76742000  1.0
  O  O52  1  0.82505000  0.10859000  0.23259000  1.0
  O  O53  1  0.61451000  0.04022000  0.81712000  1.0
  O  O54  1  0.38556000  0.95978000  0.18288000  1.0
