# generated using pymatgen
data_LaH5C6S2O9
_symmetry_space_group_name_H-M   'P 1'
_cell_length_a   7.09298000
_cell_length_b   8.58957000
_cell_length_c   8.99288000
_cell_angle_alpha   84.38580000
_cell_angle_beta   84.15340000
_cell_angle_gamma   88.11680000
_symmetry_Int_Tables_number   1
_chemical_formula_structural   LaH5C6S2O9
_chemical_formula_sum   'La2 H10 C12 S4 O18'
_cell_volume   542.28741057
_cell_formula_units_Z   2
loop_
 _symmetry_equiv_pos_site_id
 _symmetry_equiv_pos_as_xyz
  1  'x, y, z'
loop_
 _atom_site_type_symbol
 _atom_site_label
 _atom_site_symmetry_multiplicity
 _atom_site_fract_x
 _atom_site_fract_y
 _atom_site_fract_z
 _atom_site_occupancy
  La  La0  1  0.27319000  0.22409000  0.90367000  1.0
  La  La1  1  0.72682000  0.77591000  0.09633000  1.0
  H  H2  1  0.16635000  0.83572000  0.90842000  1.0
  H  H3  1  0.83365000  0.16429000  0.09158000  1.0
  H  H4  1  0.52328000  0.40957000  0.12715000  1.0
  H  H5  1  0.47672000  0.59042000  0.87284000  1.0
  H  H6  1  0.30461000  0.42234000  0.18253000  1.0
  H  H7  1  0.69540000  0.57765000  0.81748000  1.0
  H  H8  1  0.11032000  0.65541000  0.44747000  1.0
  H  H9  1  0.88969000  0.34458000  0.55254000  1.0
  H  H10  1  0.32122000  0.12763000  0.36677000  1.0
  H  H11  1  0.67876000  0.87237000  0.63322000  1.0
  C  C12  1  0.27786000  0.03875000  0.59986000  1.0
  C  C13  1  0.72214000  0.96125000  0.40013000  1.0
  C  C14  1  0.22510000  0.90401000  0.69822000  1.0
  C  C15  1  0.77490000  0.09599000  0.30178000  1.0
  C  C16  1  0.16207000  0.76930000  0.64427000  1.0
  C  C17  1  0.83794000  0.23070000  0.35573000  1.0
  C  C18  1  0.16043000  0.75946000  0.48990000  1.0
  C  C19  1  0.83957000  0.24054000  0.51010000  1.0
  C  C20  1  0.22277000  0.88908000  0.39406000  1.0
  C  C21  1  0.77723000  0.11092000  0.60593000  1.0
  C  C22  1  0.27767000  0.02773000  0.44525000  1.0
  C  C23  1  0.72233000  0.97227000  0.55475000  1.0
  S  S24  1  0.07643000  0.61166000  0.77185000  1.0
  S  S25  1  0.92358000  0.38834000  0.22815000  1.0
  S  S26  1  0.23574000  0.87657000  0.19916000  1.0
  S  S27  1  0.76426000  0.12343000  0.80084000  1.0
  O  O28  1  0.32416000  0.16501000  0.65869000  1.0
  O  O29  1  0.67583000  0.83499000  0.34130000  1.0
  O  O30  1  0.23883000  0.92059000  0.84657000  1.0
  O  O31  1  0.76118000  0.07942000  0.15343000  1.0
  O  O32  1  0.00811000  0.68446000  0.91187000  1.0
  O  O33  1  0.99190000  0.31554000  0.08813000  1.0
  O  O34  1  0.24244000  0.50602000  0.80076000  1.0
  O  O35  1  0.75756000  0.49399000  0.19924000  1.0
  O  O36  1  0.92744000  0.53520000  0.70862000  1.0
  O  O37  1  0.07257000  0.46480000  0.29139000  1.0
  O  O38  1  0.37748000  0.75421000  0.15695000  1.0
  O  O39  1  0.62252000  0.24578000  0.84306000  1.0
  O  O40  1  0.04827000  0.83531000  0.16158000  1.0
  O  O41  1  0.95173000  0.16470000  0.83842000  1.0
  O  O42  1  0.29367000  0.03226000  0.12772000  1.0
  O  O43  1  0.70633000  0.96774000  0.87228000  1.0
  O  O44  1  0.39787000  0.37396000  0.11085000  1.0
  O  O45  1  0.60213000  0.62603000  0.88916000  1.0
