# generated using pymatgen
data_V2CuH8C10(NO3)2
_symmetry_space_group_name_H-M   'P 1'
_cell_length_a   7.92610000
_cell_length_b   8.17961000
_cell_length_c   10.21020000
_cell_angle_alpha   72.52010000
_cell_angle_beta   84.93680000
_cell_angle_gamma   76.52080000
_symmetry_Int_Tables_number   1
_chemical_formula_structural   V2CuH8C10(NO3)2
_chemical_formula_sum   'V4 Cu2 H16 C20 N4 O12'
_cell_volume   613.87401429
_cell_formula_units_Z   2
loop_
 _symmetry_equiv_pos_site_id
 _symmetry_equiv_pos_as_xyz
  1  'x, y, z'
loop_
 _atom_site_type_symbol
 _atom_site_label
 _atom_site_symmetry_multiplicity
 _atom_site_fract_x
 _atom_site_fract_y
 _atom_site_fract_z
 _atom_site_occupancy
  V  V0  1  0.87391000  0.38424000  0.34805000  1.0
  V  V1  1  0.12610000  0.61576000  0.65195000  1.0
  V  V2  1  0.26290000  0.26801000  0.53134000  1.0
  V  V3  1  0.73710000  0.73199000  0.46867000  1.0
  Cu  Cu4  1  0.57823000  0.16478000  0.27859000  1.0
  Cu  Cu5  1  0.42177000  0.83522000  0.72141000  1.0
  H  H6  1  0.81072000  0.37243000  0.06238000  1.0
  H  H7  1  0.18928000  0.62758000  0.93761000  1.0
  H  H8  1  0.81759000  0.47635000  0.80704000  1.0
  H  H9  1  0.18240000  0.52367000  0.19295000  1.0
  H  H10  1  0.59032000  0.41804000  0.67665000  1.0
  H  H11  1  0.40967000  0.58195000  0.32335000  1.0
  H  H12  1  0.36898000  0.25772000  0.81085000  1.0
  H  H13  1  0.63102000  0.74227000  0.18915000  1.0
  H  H14  1  0.15640000  0.18237000  0.94124000  1.0
  H  H15  1  0.84359000  0.81764000  0.05876000  1.0
  H  H16  1  0.95978000  0.02055000  0.11450000  1.0
  H  H17  1  0.04022000  0.97946000  0.88551000  1.0
  H  H18  1  0.04701000  0.89610000  0.35867000  1.0
  H  H19  1  0.95299000  0.10389000  0.64133000  1.0
  H  H20  1  0.32423000  0.94498000  0.42683000  1.0
  H  H21  1  0.67577000  0.05500000  0.57317000  1.0
  C  C22  1  0.71594000  0.34888000  0.00258000  1.0
  C  C23  1  0.28405000  0.65113000  0.99742000  1.0
  C  C24  1  0.71688000  0.40820000  0.85941000  1.0
  C  C25  1  0.28311000  0.59181000  0.14058000  1.0
  C  C26  1  0.59192000  0.37515000  0.78861000  1.0
  C  C27  1  0.40807000  0.62485000  0.21139000  1.0
  C  C28  1  0.46734000  0.28709000  0.86285000  1.0
  C  C29  1  0.53266000  0.71291000  0.13715000  1.0
  C  C30  1  0.47073000  0.23485000  0.00594000  1.0
  C  C31  1  0.52927000  0.76515000  0.99406000  1.0
  C  C32  1  0.34307000  0.14616000  0.09448000  1.0
  C  C33  1  0.65694000  0.85384000  0.90553000  1.0
  C  C34  1  0.19064000  0.12452000  0.04894000  1.0
  C  C35  1  0.80936000  0.87548000  0.95106000  1.0
  C  C36  1  0.08220000  0.03560000  0.14477000  1.0
  C  C37  1  0.91780000  0.96440000  0.85524000  1.0
  C  C38  1  0.12917000  0.96665000  0.28204000  1.0
  C  C39  1  0.87083000  0.03335000  0.71797000  1.0
  C  C40  1  0.28088000  0.99544000  0.32112000  1.0
  C  C41  1  0.71912000  0.00456000  0.67889000  1.0
  N  N42  1  0.59618000  0.26332000  0.07374000  1.0
  N  N43  1  0.40382000  0.73669000  0.92626000  1.0
  N  N44  1  0.38186000  0.08624000  0.22946000  1.0
  N  N45  1  0.61814000  0.91376000  0.77054000  1.0
  O  O46  1  0.76875000  0.23269000  0.33521000  1.0
  O  O47  1  0.23125000  0.76731000  0.66478000  1.0
  O  O48  1  0.91668000  0.50306000  0.19414000  1.0
  O  O49  1  0.08333000  0.49694000  0.80586000  1.0
  O  O50  1  0.73955000  0.52450000  0.44098000  1.0
  O  O51  1  0.26046000  0.47550000  0.55901000  1.0
  O  O52  1  0.44201000  0.21324000  0.44022000  1.0
  O  O53  1  0.55799000  0.78675000  0.55979000  1.0
  O  O54  1  0.07204000  0.28469000  0.44193000  1.0
  O  O55  1  0.92797000  0.71530000  0.55806000  1.0
  O  O56  1  0.73431000  0.88570000  0.31919000  1.0
  O  O57  1  0.26569000  0.11430000  0.68081000  1.0
