# generated using pymatgen
data_AlH8C14BrNO5
_symmetry_space_group_name_H-M   'P 1'
_cell_length_a   6.65540000
_cell_length_b   11.11837755
_cell_length_c   17.74650000
_cell_angle_alpha   88.76118259
_cell_angle_beta   79.82040000
_cell_angle_gamma   73.10058975
_symmetry_Int_Tables_number   1
_chemical_formula_structural   AlH8C14BrNO5
_chemical_formula_sum   'Al2 H16 C28 Br2 N2 O10'
_cell_volume   1236.08778344
_cell_formula_units_Z   2
loop_
 _symmetry_equiv_pos_site_id
 _symmetry_equiv_pos_as_xyz
  1  'x, y, z'
loop_
 _atom_site_type_symbol
 _atom_site_label
 _atom_site_symmetry_multiplicity
 _atom_site_fract_x
 _atom_site_fract_y
 _atom_site_fract_z
 _atom_site_occupancy
  Al  Al0  1  0.00954000  0.50293000  0.49671000  1.0
  Al  Al1  1  0.50732000  0.50704000  0.49779000  1.0
  H  H2  1  0.35609000  0.35299000  0.45936000  1.0
  H  H3  1  0.67736000  0.58551000  0.58554000  1.0
  H  H4  1  0.85621000  0.44944000  0.72280000  1.0
  H  H5  1  0.78751000  0.42890000  0.86505000  1.0
  H  H6  1  0.42844000  0.54683000  0.73734000  1.0
  H  H7  1  0.53494000  0.54824000  0.26478000  1.0
  H  H8  1  0.20783000  0.43418000  0.26905000  1.0
  H  H9  1  0.28615000  0.41752000  0.12561000  1.0
  H  H10  1  0.53605000  0.23225000  0.60302000  1.0
  H  H11  1  0.77686000  0.76543000  0.58489000  1.0
  H  H12  1  0.36336000  0.88914000  0.44387000  1.0
  H  H13  1  0.24172000  0.12420000  0.45149000  1.0
  H  H14  1  0.32324000  0.55849000  0.94686000  1.0
  H  H15  1  0.47690000  0.59511000  0.86657000  1.0
  H  H16  1  0.61341000  0.55909000  0.05536000  1.0
  H  H17  1  0.42784000  0.59223000  0.13850000  1.0
  C  C18  1  0.86722000  0.27615000  0.50929000  1.0
  C  C19  1  0.81984000  0.50133000  0.35958000  1.0
  C  C20  1  0.14435000  0.73063000  0.49406000  1.0
  C  C21  1  0.19183000  0.50654000  0.63756000  1.0
  C  C22  1  0.14590000  0.50016000  0.72246000  1.0
  C  C23  1  0.96252000  0.46854000  0.75800000  1.0
  C  C24  1  0.92477000  0.45757000  0.83681000  1.0
  C  C25  1  0.06223000  0.48319000  0.88226000  1.0
  C  C26  1  0.24573000  0.51815000  0.84626000  1.0
  C  C27  1  0.28652000  0.52322000  0.76613000  1.0
  C  C28  1  0.02065000  0.47792000  0.96287000  1.0
  C  C29  1  0.99722000  0.47642000  0.03293000  1.0
  C  C30  1  0.95511000  0.47883000  0.11377000  1.0
  C  C31  1  0.73877000  0.51603000  0.15294000  1.0
  C  C32  1  0.69859000  0.52133000  0.23329000  1.0
  C  C33  1  0.86650000  0.49352000  0.27427000  1.0
  C  C34  1  0.07973000  0.45662000  0.23577000  1.0
  C  C35  1  0.12210000  0.44795000  0.15644000  1.0
  C  C36  1  0.93160000  0.13624000  0.51447000  1.0
  C  C37  1  0.79098000  0.06906000  0.55246000  1.0
  C  C38  1  0.13553000  0.07099000  0.47818000  1.0
  C  C39  1  0.59023000  0.13014000  0.59807000  1.0
  C  C40  1  0.46275000  0.06248000  0.63710000  1.0
  C  C41  1  0.06730000  0.87056000  0.50487000  1.0
  C  C42  1  0.20351000  0.93905000  0.47346000  1.0
  C  C43  1  0.86052000  0.93386000  0.54741000  1.0
  C  C44  1  0.72574000  0.86736000  0.58826000  1.0
  C  C45  1  0.53204000  0.92924000  0.63216000  1.0
  Br  Br46  1  0.19919000  0.15167000  0.69779000  1.0
  Br  Br47  1  0.36480000  0.83123000  0.68562000  1.0
  N  N48  1  0.38231000  0.54222000  0.89001000  1.0
  N  N49  1  0.57494000  0.54201000  0.11168000  1.0
  O  O50  1  0.01261000  0.32928000  0.51021000  1.0
  O  O51  1  0.62790000  0.51608000  0.39284000  1.0
  O  O52  1  0.34006000  0.67815000  0.49653000  1.0
  O  O53  1  0.03535000  0.51718000  0.60282000  1.0
  O  O54  1  0.01051000  0.67406000  0.48313000  1.0
  O  O55  1  0.38216000  0.50118000  0.60573000  1.0
  O  O56  1  0.67565000  0.33128000  0.50117000  1.0
  O  O57  1  0.97731000  0.49108000  0.39350000  1.0
  O  O58  1  0.30410000  0.44355000  0.46751000  1.0
  O  O59  1  0.71623000  0.55957000  0.53179000  1.0
