# generated using pymatgen
data_ZnH3C19N11(O9F)2
_symmetry_space_group_name_H-M   'P 1'
_cell_length_a   16.10140000
_cell_length_b   17.24100000
_cell_length_c   17.25470000
_cell_angle_alpha   91.94040000
_cell_angle_beta   96.49900000
_cell_angle_gamma   97.43640000
_symmetry_Int_Tables_number   1
_chemical_formula_structural   ZnH3C19N11(O9F)2
_chemical_formula_sum   'Zn2 H6 C38 N22 O36 F4'
_cell_volume   4713.44393802
_cell_formula_units_Z   2
loop_
 _symmetry_equiv_pos_site_id
 _symmetry_equiv_pos_as_xyz
  1  'x, y, z'
loop_
 _atom_site_type_symbol
 _atom_site_label
 _atom_site_symmetry_multiplicity
 _atom_site_fract_x
 _atom_site_fract_y
 _atom_site_fract_z
 _atom_site_occupancy
  Zn  Zn0  1  0.41044000  0.48938000  0.49429000  1.0
  Zn  Zn1  1  0.58953000  0.51069000  0.50574000  1.0
  H  H2  1  0.42625000  0.57110000  0.89335000  1.0
  H  H3  1  0.57375000  0.42889000  0.10672000  1.0
  H  H4  1  0.58988000  0.10997000  0.44415000  1.0
  H  H5  1  0.41016000  0.89017000  0.55557000  1.0
  H  H6  1  0.69388000  0.43286000  0.41394000  1.0
  H  H7  1  0.30611000  0.56699000  0.58631000  1.0
  C  C8  1  0.49908000  0.35058000  0.50453000  1.0
  C  C9  1  0.50092000  0.64948000  0.49547000  1.0
  C  C10  1  0.50903000  0.50413000  0.65095000  1.0
  C  C11  1  0.49091000  0.49591000  0.34908000  1.0
  C  C12  1  0.48572000  0.50113000  0.26186000  1.0
  C  C13  1  0.51427000  0.49892000  0.73817000  1.0
  C  C14  1  0.50471000  0.73658000  0.49019000  1.0
  C  C15  1  0.49529000  0.26346000  0.50971000  1.0
  C  C16  1  0.53393000  0.45765000  0.21829000  1.0
  C  C17  1  0.46602000  0.54236000  0.78176000  1.0
  C  C18  1  0.45102000  0.77889000  0.52846000  1.0
  C  C19  1  0.54899000  0.22121000  0.47141000  1.0
  C  C20  1  0.53379000  0.46173000  0.13843000  1.0
  C  C21  1  0.46622000  0.53829000  0.86162000  1.0
  C  C22  1  0.45370000  0.85933000  0.52634000  1.0
  C  C23  1  0.54633000  0.14076000  0.47341000  1.0
  C  C24  1  0.48273000  0.51092000  0.09845000  1.0
  C  C25  1  0.51739000  0.48918000  0.90159000  1.0
  C  C26  1  0.51268000  0.90103000  0.48450000  1.0
  C  C27  1  0.48732000  0.09901000  0.51518000  1.0
  C  C28  1  0.43156000  0.55323000  0.13980000  1.0
  C  C29  1  0.56860000  0.44692000  0.86023000  1.0
  C  C30  1  0.56821000  0.86091000  0.44622000  1.0
  C  C31  1  0.43178000  0.13907000  0.55351000  1.0
  C  C32  1  0.43338000  0.54816000  0.22026000  1.0
  C  C33  1  0.56669000  0.45195000  0.77977000  1.0
  C  C34  1  0.56403000  0.78007000  0.44947000  1.0
  C  C35  1  0.43595000  0.21992000  0.55035000  1.0
  C  C36  1  0.78074000  0.54622000  0.56566000  1.0
  C  C37  1  0.21923000  0.45400000  0.43436000  1.0
  C  C38  1  0.86553000  0.53692000  0.56819000  1.0
  C  C39  1  0.13441000  0.46320000  0.43195000  1.0
  C  C40  1  0.89093000  0.48791000  0.51114000  1.0
  C  C41  1  0.10902000  0.51206000  0.48914000  1.0
  C  C42  1  0.82657000  0.44938000  0.45604000  1.0
  C  C43  1  0.17341000  0.55052000  0.54429000  1.0
  C  C44  1  0.74340000  0.46216000  0.45746000  1.0
  C  C45  1  0.25658000  0.53779000  0.54275000  1.0
  N  N46  1  0.48442000  0.52547000  0.01884000  1.0
  N  N47  1  0.51577000  0.47468000  0.98122000  1.0
  N  N48  1  0.51347000  0.98159000  0.47278000  1.0
  N  N49  1  0.48654000  0.01846000  0.52685000  1.0
  N  N50  1  0.72092000  0.51067000  0.51166000  1.0
  N  N51  1  0.27907000  0.48944000  0.48841000  1.0
  N  N52  1  0.97552000  0.47401000  0.51378000  1.0
  N  N53  1  0.02444000  0.52593000  0.48657000  1.0
  N  N54  1  0.37808000  0.60463000  0.09649000  1.0
  N  N55  1  0.62214000  0.39560000  0.90356000  1.0
  N  N56  1  0.63085000  0.90624000  0.40365000  1.0
  N  N57  1  0.36918000  0.09367000  0.59608000  1.0
  N  N58  1  0.37820000  0.59386000  0.26157000  1.0
  N  N59  1  0.62189000  0.40630000  0.73841000  1.0
  N  N60  1  0.62585000  0.74034000  0.41007000  1.0
  N  N61  1  0.37415000  0.25960000  0.58981000  1.0
  N  N62  1  0.24744000  0.40362000  0.37301000  1.0
  N  N63  1  0.75251000  0.59684000  0.62680000  1.0
  N  N64  1  0.07256000  0.42439000  0.36783000  1.0
  N  N65  1  0.92734000  0.57578000  0.63234000  1.0
  N  N66  1  0.84434000  0.39194000  0.39681000  1.0
  N  N67  1  0.15566000  0.60783000  0.60363000  1.0
  O  O68  1  0.42831000  0.37594000  0.49944000  1.0
  O  O69  1  0.57167000  0.62412000  0.50051000  1.0
  O  O70  1  0.57876000  0.51463000  0.62276000  1.0
  O  O71  1  0.42120000  0.48550000  0.37728000  1.0
  O  O72  1  0.57111000  0.39027000  0.50539000  1.0
  O  O73  1  0.42889000  0.60982000  0.49470000  1.0
  O  O74  1  0.43550000  0.49771000  0.61450000  1.0
  O  O75  1  0.56444000  0.50230000  0.38552000  1.0
  O  O76  1  0.39166000  0.67498000  0.11672000  1.0
  O  O77  1  0.32584000  0.57313000  0.04321000  1.0
  O  O78  1  0.60864000  0.32524000  0.88336000  1.0
  O  O79  1  0.67438000  0.42718000  0.95680000  1.0
  O  O80  1  0.63553000  0.88278000  0.33602000  1.0
  O  O81  1  0.67267000  0.96470000  0.43892000  1.0
  O  O82  1  0.36452000  0.11713000  0.66372000  1.0
  O  O83  1  0.32739000  0.03520000  0.56081000  1.0
  O  O84  1  0.30242000  0.58304000  0.23663000  1.0
  O  O85  1  0.41219000  0.63868000  0.31641000  1.0
  O  O86  1  0.69769000  0.41725000  0.76325000  1.0
  O  O87  1  0.58788000  0.36144000  0.68362000  1.0
  O  O88  1  0.70027000  0.75666000  0.43822000  1.0
  O  O89  1  0.59785000  0.69607000  0.35317000  1.0
  O  O90  1  0.29973000  0.24332000  0.56166000  1.0
  O  O91  1  0.40221000  0.30382000  0.64672000  1.0
  O  O92  1  0.27636000  0.34482000  0.39550000  1.0
  O  O93  1  0.23903000  0.42762000  0.30656000  1.0
  O  O94  1  0.72364000  0.65557000  0.60406000  1.0
  O  O95  1  0.76083000  0.57308000  0.69335000  1.0
  O  O96  1  0.02303000  0.46606000  0.33631000  1.0
  O  O97  1  0.07685000  0.35512000  0.35164000  1.0
  O  O98  1  0.97671000  0.53407000  0.66403000  1.0
  O  O99  1  0.92318000  0.64510000  0.64835000  1.0
  O  O100  1  0.79130000  0.37594000  0.33939000  1.0
  O  O101  1  0.91028000  0.36257000  0.41141000  1.0
  O  O102  1  0.20865000  0.62364000  0.66112000  1.0
  O  O103  1  0.08976000  0.63726000  0.58907000  1.0
  F  F104  1  0.41774000  0.59123000  0.74420000  1.0
  F  F105  1  0.58209000  0.40868000  0.25586000  1.0
  F  F106  1  0.60497000  0.25981000  0.42876000  1.0
  F  F107  1  0.39514000  0.74034000  0.57124000  1.0
