# generated using pymatgen
data_CdH10C8(BrN2)2
_symmetry_space_group_name_H-M   'P 1'
_cell_length_a   7.07896000
_cell_length_b   7.08967000
_cell_length_c   14.12050000
_cell_angle_alpha   103.53900000
_cell_angle_beta   91.72750000
_cell_angle_gamma   118.16800000
_symmetry_Int_Tables_number   1
_chemical_formula_structural   CdH10C8(BrN2)2
_chemical_formula_sum   'Cd2 H20 C16 Br4 N8'
_cell_volume   599.14592708
_cell_formula_units_Z   2
loop_
 _symmetry_equiv_pos_site_id
 _symmetry_equiv_pos_as_xyz
  1  'x, y, z'
loop_
 _atom_site_type_symbol
 _atom_site_label
 _atom_site_symmetry_multiplicity
 _atom_site_fract_x
 _atom_site_fract_y
 _atom_site_fract_z
 _atom_site_occupancy
  Cd  Cd0  1  0.87242000  0.62231000  0.74993000  1.0
  Cd  Cd1  1  0.12758000  0.37770000  0.25005000  1.0
  H  H2  1  0.51552000  0.14116000  0.81174000  1.0
  H  H3  1  0.32940000  0.20359000  0.68807000  1.0
  H  H4  1  0.48449000  0.85885000  0.18825000  1.0
  H  H5  1  0.67062000  0.79640000  0.31194000  1.0
  H  H6  1  0.94160000  0.78803000  0.00029000  1.0
  H  H7  1  0.78866000  0.44184000  0.49947000  1.0
  H  H8  1  0.05841000  0.21199000  0.99969000  1.0
  H  H9  1  0.21130000  0.55814000  0.50051000  1.0
  H  H10  1  0.73235000  0.50296000  0.11405000  1.0
  H  H11  1  0.38975000  0.11861000  0.38577000  1.0
  H  H12  1  0.26769000  0.49711000  0.88595000  1.0
  H  H13  1  0.61022000  0.88136000  0.61423000  1.0
  H  H14  1  0.29591000  0.96417000  0.93925000  1.0
  H  H15  1  0.02511000  0.85687000  0.56070000  1.0
  H  H16  1  0.70411000  0.03588000  0.06076000  1.0
  H  H17  1  0.97489000  0.14312000  0.43932000  1.0
  H  H18  1  0.39172000  0.11152000  0.06735000  1.0
  H  H19  1  0.04446000  0.82488000  0.43256000  1.0
  H  H20  1  0.60833000  0.88856000  0.93266000  1.0
  H  H21  1  0.95552000  0.17509000  0.56746000  1.0
  C  C22  1  0.60380000  0.28301000  0.87644000  1.0
  C  C23  1  0.40686000  0.22733000  0.62337000  1.0
  C  C24  1  0.39622000  0.71703000  0.12355000  1.0
  C  C25  1  0.59312000  0.77266000  0.37663000  1.0
  C  C26  1  0.82163000  0.61248000  0.97698000  1.0
  C  C27  1  0.63622000  0.34505000  0.52280000  1.0
  C  C28  1  0.17840000  0.38757000  0.02301000  1.0
  C  C29  1  0.36376000  0.65492000  0.47720000  1.0
  C  C30  1  0.71905000  0.47493000  0.03467000  1.0
  C  C31  1  0.44094000  0.18469000  0.46514000  1.0
  C  C32  1  0.28097000  0.52510000  0.96532000  1.0
  C  C33  1  0.55903000  0.81526000  0.53486000  1.0
  C  C34  1  0.44100000  0.06563000  0.99641000  1.0
  C  C35  1  0.06944000  0.94476000  0.50354000  1.0
  C  C36  1  0.55904000  0.93442000  0.00360000  1.0
  C  C37  1  0.93054000  0.05522000  0.49647000  1.0
  Br  Br38  1  0.92637000  0.02023000  0.77751000  1.0
  Br  Br39  1  0.24299000  0.64726000  0.72251000  1.0
  Br  Br40  1  0.07361000  0.97975000  0.22249000  1.0
  Br  Br41  1  0.75696000  0.35254000  0.27749000  1.0
  N  N42  1  0.74835000  0.49124000  0.87859000  1.0
  N  N43  1  0.61311000  0.36989000  0.62120000  1.0
  N  N44  1  0.25164000  0.50876000  0.12139000  1.0
  N  N45  1  0.38689000  0.63010000  0.37880000  1.0
  N  N46  1  0.58132000  0.26785000  0.96982000  1.0
  N  N47  1  0.29845000  0.11156000  0.53002000  1.0
  N  N48  1  0.41871000  0.73218000  0.03018000  1.0
  N  N49  1  0.70153000  0.88842000  0.46998000  1.0
