# generated using pymatgen
data_Zn4H6C60I9O13F15
_symmetry_space_group_name_H-M   'P 1'
_cell_length_a   17.78890000
_cell_length_b   17.83410000
_cell_length_c   17.80860000
_cell_angle_alpha   64.69090000
_cell_angle_beta   69.55110000
_cell_angle_gamma   87.46100000
_symmetry_Int_Tables_number   1
_chemical_formula_structural   Zn4H6C60I9O13F15
_chemical_formula_sum   'Zn4 H6 C60 I9 O13 F15'
_cell_volume   4748.66431823
_cell_formula_units_Z   1
loop_
 _symmetry_equiv_pos_site_id
 _symmetry_equiv_pos_as_xyz
  1  'x, y, z'
loop_
 _atom_site_type_symbol
 _atom_site_label
 _atom_site_symmetry_multiplicity
 _atom_site_fract_x
 _atom_site_fract_y
 _atom_site_fract_z
 _atom_site_occupancy
  Zn  Zn0  1  0.56980000  0.43663000  0.56140000  1.0
  Zn  Zn1  1  0.41159000  0.52996000  0.57662000  1.0
  Zn  Zn2  1  0.46681000  0.43708000  0.45172000  1.0
  Zn  Zn3  1  0.56878000  0.61063000  0.39305000  1.0
  H  H4  1  0.07183000  0.24147000  0.67312000  1.0
  H  H5  1  0.29679000  0.92836000  0.41464000  1.0
  H  H6  1  0.51247000  0.53144000  0.79026000  1.0
  H  H7  1  0.57905000  0.59383000  0.81314000  1.0
  H  H8  1  0.46191000  0.38472000  0.17508000  1.0
  H  H9  1  0.86328000  0.39362000  0.58997000  1.0
  C  C10  1  0.45828000  0.71160000  0.46228000  1.0
  C  C11  1  0.92851000  0.40674000  0.56673000  1.0
  C  C12  1  0.97095000  0.34693000  0.60698000  1.0
  C  C13  1  0.54443000  0.29365000  0.53504000  1.0
  C  C14  1  0.05503000  0.36509000  0.58777000  1.0
  C  C15  1  0.09134000  0.44992000  0.52748000  1.0
  C  C16  1  0.10028000  0.30561000  0.62956000  1.0
  C  C17  1  0.17895000  0.32850000  0.61569000  1.0
  C  C18  1  0.16598000  0.47135000  0.52953000  1.0
  C  C19  1  0.55179000  0.20320000  0.55914000  1.0
  C  C20  1  0.43570000  0.79476000  0.45925000  1.0
  C  C21  1  0.82296000  0.67236000  0.40948000  1.0
  C  C22  1  0.58686000  0.06940000  0.64879000  1.0
  C  C23  1  0.58444000  0.15406000  0.62390000  1.0
  C  C24  1  0.52118000  0.16192000  0.52253000  1.0
  C  C25  1  0.46330000  0.43959000  0.72646000  1.0
  C  C26  1  0.51203000  0.07419000  0.55422000  1.0
  C  C27  1  0.55110000  0.02767000  0.61551000  1.0
  C  C28  1  0.46886000  0.03052000  0.52623000  1.0
  C  C29  1  0.48222000  0.94731000  0.53918000  1.0
  C  C30  1  0.51965000  0.90319000  0.60205000  1.0
  C  C31  1  0.55043000  0.94073000  0.64018000  1.0
  C  C32  1  0.84340000  0.52793000  0.45506000  1.0
  C  C33  1  0.40307000  0.06157000  0.49800000  1.0
  C  C34  1  0.36086000  0.02021000  0.47246000  1.0
  C  C35  1  0.38443000  0.94388000  0.46841000  1.0
  C  C36  1  0.44841000  0.90876000  0.49938000  1.0
  C  C37  1  0.54720000  0.55749000  0.26723000  1.0
  C  C38  1  0.34562000  0.90238000  0.43742000  1.0
  C  C39  1  0.36930000  0.82816000  0.43699000  1.0
  C  C40  1  0.47554000  0.83800000  0.48587000  1.0
  C  C41  1  0.56193000  0.57503000  0.17261000  1.0
  C  C42  1  0.45225000  0.41603000  0.82146000  1.0
  C  C43  1  0.92185000  0.54667000  0.45120000  1.0
  C  C44  1  0.64736000  0.64773000  0.01556000  1.0
  C  C45  1  0.63084000  0.62907000  0.10394000  1.0
  C  C46  1  0.51298000  0.53633000  0.14932000  1.0
  C  C47  1  0.53666000  0.54245000  0.06161000  1.0
  C  C48  1  0.60120000  0.60665000  0.99049000  1.0
  C  C49  1  0.29719000  0.44244000  0.54981000  1.0
  C  C50  1  0.50173000  0.48520000  0.04086000  1.0
  C  C51  1  0.51456000  0.50469000  0.95143000  1.0
  C  C52  1  0.56843000  0.57697000  0.88265000  1.0
  C  C53  1  0.61317000  0.62385000  0.90020000  1.0
  C  C54  1  0.95689000  0.63285000  0.40521000  1.0
  C  C55  1  0.46286000  0.40449000  0.10797000  1.0
  C  C56  1  0.43072000  0.34776000  0.09066000  1.0
  C  C57  1  0.43493000  0.36825000  0.00200000  1.0
  C  C58  1  0.47756000  0.44821000  0.93155000  1.0
  C  C59  1  0.40260000  0.31529000  0.97699000  1.0
  C  C60  1  0.41262000  0.33764000  0.88922000  1.0
  C  C61  1  0.70587000  0.57031000  0.45091000  1.0
  C  C62  1  0.48309000  0.47026000  0.84352000  1.0
  C  C63  1  0.79241000  0.58978000  0.43721000  1.0
  C  C64  1  0.21200000  0.41336000  0.56759000  1.0
  C  C65  1  0.96777000  0.48589000  0.49519000  1.0
  C  C66  1  0.90334000  0.69400000  0.39142000  1.0
  C  C67  1  0.05080000  0.50759000  0.47334000  1.0
  C  C68  1  0.08977000  0.58516000  0.39534000  1.0
  C  C69  1  0.04428000  0.64918000  0.36869000  1.0
  I  I70  1  0.10067000  0.76498000  0.25953000  1.0
  I  I71  1  0.26035000  0.07091000  0.44324000  1.0
  I  I72  1  0.69562000  0.72213000  0.78581000  1.0
  I  I73  1  0.37823000  0.23241000  0.20418000  1.0
  I  I74  1  0.39156000  0.49119000  0.24139000  1.0
  I  I75  1  0.24755000  0.23740000  0.67154000  1.0
  I  I76  1  0.90634000  0.22929000  0.70397000  1.0
  I  I77  1  0.80844000  0.41225000  0.46172000  1.0
  I  I78  1  0.20897000  0.58904000  0.30986000  1.0
  O  O79  1  0.50523000  0.50663000  0.49456000  1.0
  O  O80  1  0.30869000  0.47220000  0.59867000  1.0
  O  O81  1  0.68239000  0.61181000  0.38662000  1.0
  O  O82  1  0.34964000  0.43442000  0.48446000  1.0
  O  O83  1  0.66391000  0.51377000  0.52788000  1.0
  O  O84  1  0.50987000  0.39833000  0.69045000  1.0
  O  O85  1  0.55823000  0.61850000  0.28284000  1.0
  O  O86  1  0.40543000  0.65060000  0.52336000  1.0
  O  O87  1  0.48554000  0.32093000  0.51053000  1.0
  O  O88  1  0.52564000  0.70993000  0.40688000  1.0
  O  O89  1  0.59467000  0.33518000  0.54396000  1.0
  O  O90  1  0.42644000  0.49926000  0.69062000  1.0
  O  O91  1  0.52730000  0.48071000  0.32349000  1.0
  F  F92  1  0.57869000  0.89190000  0.70403000  1.0
  F  F93  1  0.38117000  0.28363000  0.86973000  1.0
  F  F94  1  0.71197000  0.70490000  0.95475000  1.0
  F  F95  1  0.68259000  0.66519000  0.12249000  1.0
  F  F96  1  0.36011000  0.23989000  0.03824000  1.0
  F  F97  1  0.92746000  0.77554000  0.36250000  1.0
  F  F98  1  0.77396000  0.73304000  0.39866000  1.0
  F  F99  1  0.54505000  0.81098000  0.49670000  1.0
  F  F100  1  0.33000000  0.78685000  0.41027000  1.0
  F  F101  1  0.62367000  0.02743000  0.70682000  1.0
  F  F102  1  0.61501000  0.18841000  0.66282000  1.0
  F  F103  1  0.50541000  0.20914000  0.44851000  1.0
  F  F104  1  0.51658000  0.81928000  0.63603000  1.0
  F  F105  1  0.37457000  0.12975000  0.50745000  1.0
  F  F106  1  0.19485000  0.55330000  0.49451000  1.0
