# generated using pymatgen
data_Yb2H8C10S(N2O7)2
_symmetry_space_group_name_H-M   'P 1'
_cell_length_a   6.55447000
_cell_length_b   10.89380000
_cell_length_c   12.95630000
_cell_angle_alpha   105.36800000
_cell_angle_beta   90.00560000
_cell_angle_gamma   107.48400000
_symmetry_Int_Tables_number   1
_chemical_formula_structural   Yb2H8C10S(N2O7)2
_chemical_formula_sum   'Yb4 H16 C20 S2 N8 O28'
_cell_volume   847.62695321
_cell_formula_units_Z   2
loop_
 _symmetry_equiv_pos_site_id
 _symmetry_equiv_pos_as_xyz
  1  'x, y, z'
loop_
 _atom_site_type_symbol
 _atom_site_label
 _atom_site_symmetry_multiplicity
 _atom_site_fract_x
 _atom_site_fract_y
 _atom_site_fract_z
 _atom_site_occupancy
  Yb  Yb0  1  0.77338000  0.70541000  0.71249000  1.0
  Yb  Yb1  1  0.06788000  0.29443000  0.78747000  1.0
  Yb  Yb2  1  0.22662000  0.29459000  0.28751000  1.0
  Yb  Yb3  1  0.93211000  0.70557000  0.21253000  1.0
  H  H4  1  0.36308000  0.88652000  0.86166000  1.0
  H  H5  1  0.47654000  0.11355000  0.63828000  1.0
  H  H6  1  0.63692000  0.11349000  0.13834000  1.0
  H  H7  1  0.52346000  0.88645000  0.36172000  1.0
  H  H8  1  0.24843000  0.84870000  0.04344000  1.0
  H  H9  1  0.39994000  0.15133000  0.45645000  1.0
  H  H10  1  0.75157000  0.15130000  0.95656000  1.0
  H  H11  1  0.60006000  0.84867000  0.54356000  1.0
  H  H12  1  0.48164000  0.43190000  0.65099000  1.0
  H  H13  1  0.04962000  0.56798000  0.84926000  1.0
  H  H14  1  0.51836000  0.56810000  0.34901000  1.0
  H  H15  1  0.95038000  0.43201000  0.15074000  1.0
  H  H16  1  0.65403000  0.44103000  0.73730000  1.0
  H  H17  1  0.21255000  0.55882000  0.76284000  1.0
  H  H18  1  0.34598000  0.55897000  0.26270000  1.0
  H  H19  1  0.78745000  0.44118000  0.23716000  1.0
  C  C20  1  0.63681000  0.73918000  0.96425000  1.0
  C  C21  1  0.89763000  0.26061000  0.53575000  1.0
  C  C22  1  0.36319000  0.26082000  0.03574000  1.0
  C  C23  1  0.10238000  0.73939000  0.46425000  1.0
  C  C24  1  0.80687000  0.67487000  0.95467000  1.0
  C  C25  1  0.13194000  0.32500000  0.54538000  1.0
  C  C26  1  0.19313000  0.32513000  0.04533000  1.0
  C  C27  1  0.86806000  0.67501000  0.45462000  1.0
  C  C28  1  0.43629000  0.83846000  0.90791000  1.0
  C  C29  1  0.59785000  0.16146000  0.59203000  1.0
  C  C30  1  0.56371000  0.16154000  0.09209000  1.0
  C  C31  1  0.40216000  0.83854000  0.40797000  1.0
  C  C32  1  0.43541000  0.69721000  0.13226000  1.0
  C  C33  1  0.73820000  0.30279000  0.36774000  1.0
  C  C34  1  0.56459000  0.30278000  0.86774000  1.0
  C  C35  1  0.26181000  0.69722000  0.63226000  1.0
  C  C36  1  0.48928000  0.75422000  0.04028000  1.0
  C  C37  1  0.73521000  0.24566000  0.45968000  1.0
  C  C38  1  0.51072000  0.24578000  0.95972000  1.0
  C  C39  1  0.26479000  0.75434000  0.54032000  1.0
  S  S40  1  0.96838000  0.99990000  0.74993000  1.0
  S  S41  1  0.03162000  0.00010000  0.25007000  1.0
  N  N42  1  0.59890000  0.78970000  0.88161000  1.0
  N  N43  1  0.80915000  0.21011000  0.61837000  1.0
  N  N44  1  0.40110000  0.21031000  0.11839000  1.0
  N  N45  1  0.19085000  0.78989000  0.38163000  1.0
  N  N46  1  0.36628000  0.81789000  0.00213000  1.0
  N  N47  1  0.54853000  0.18205000  0.49779000  1.0
  N  N48  1  0.63372000  0.18211000  0.99787000  1.0
  N  N49  1  0.45147000  0.81795000  0.50221000  1.0
  O  O50  1  0.87916000  0.65335000  0.86134000  1.0
  O  O51  1  0.22570000  0.34652000  0.63874000  1.0
  O  O52  1  0.12084000  0.34665000  0.13865000  1.0
  O  O53  1  0.77430000  0.65347000  0.36127000  1.0
  O  O54  1  0.04937000  0.91459000  0.80096000  1.0
  O  O55  1  0.13495000  0.08518000  0.69906000  1.0
  O  O56  1  0.95063000  0.08541000  0.19904000  1.0
  O  O57  1  0.86504000  0.91482000  0.30094000  1.0
  O  O58  1  0.78899000  0.90311000  0.66944000  1.0
  O  O59  1  0.88552000  0.09676000  0.83029000  1.0
  O  O60  1  0.21100000  0.09689000  0.33056000  1.0
  O  O61  1  0.11448000  0.90324000  0.16971000  1.0
  O  O62  1  0.87861000  0.64482000  0.03128000  1.0
  O  O63  1  0.23365000  0.35508000  0.46879000  1.0
  O  O64  1  0.12138000  0.35518000  0.96872000  1.0
  O  O65  1  0.76634000  0.64492000  0.53122000  1.0
  O  O66  1  0.24629000  0.67670000  0.16159000  1.0
  O  O67  1  0.56944000  0.32322000  0.33849000  1.0
  O  O68  1  0.75370000  0.32330000  0.83841000  1.0
  O  O69  1  0.43056000  0.67678000  0.66151000  1.0
  O  O70  1  0.57781000  0.66611000  0.17658000  1.0
  O  O71  1  0.91167000  0.33411000  0.32345000  1.0
  O  O72  1  0.42219000  0.33389000  0.82342000  1.0
  O  O73  1  0.08833000  0.66589000  0.67655000  1.0
  O  O74  1  0.63595000  0.48060000  0.67945000  1.0
  O  O75  1  0.15529000  0.51929000  0.82076000  1.0
  O  O76  1  0.36405000  0.51940000  0.32055000  1.0
  O  O77  1  0.84471000  0.48071000  0.17924000  1.0
