# generated using pymatgen
data_Ag2H12C13(N2O)2
_symmetry_space_group_name_H-M   'P 1'
_cell_length_a   9.90240000
_cell_length_b   9.90241000
_cell_length_c   15.60300000
_cell_angle_alpha   96.17380000
_cell_angle_beta   107.00800000
_cell_angle_gamma   111.63800000
_symmetry_Int_Tables_number   1
_chemical_formula_structural   Ag2H12C13(N2O)2
_chemical_formula_sum   'Ag8 H48 C52 N16 O8'
_cell_volume   1319.44102547
_cell_formula_units_Z   4
loop_
 _symmetry_equiv_pos_site_id
 _symmetry_equiv_pos_as_xyz
  1  'x, y, z'
loop_
 _atom_site_type_symbol
 _atom_site_label
 _atom_site_symmetry_multiplicity
 _atom_site_fract_x
 _atom_site_fract_y
 _atom_site_fract_z
 _atom_site_occupancy
  Ag  Ag0  1  0.89883000  0.37535000  0.31351000  1.0
  Ag  Ag1  1  0.43833000  0.41437000  0.81336000  1.0
  Ag  Ag2  1  0.09163000  0.21586000  0.34487000  1.0
  Ag  Ag3  1  0.62917000  0.25280000  0.84510000  1.0
  Ag  Ag4  1  0.83859000  0.65517000  0.05471000  1.0
  Ag  Ag5  1  0.89918000  0.21700000  0.55480000  1.0
  Ag  Ag6  1  0.02935000  0.49398000  0.08946000  1.0
  Ag  Ag7  1  0.09499000  0.06082000  0.58937000  1.0
  H  H8  1  0.59595000  0.33869000  0.24462000  1.0
  H  H9  1  0.40675000  0.64853000  0.74495000  1.0
  H  H10  1  0.34460000  0.33655000  0.24482000  1.0
  H  H11  1  0.40914000  0.90008000  0.74523000  1.0
  H  H12  1  0.27858000  0.00524000  0.38948000  1.0
  H  H13  1  0.88502000  0.11038000  0.88928000  1.0
  H  H14  1  0.53091000  0.00037000  0.40120000  1.0
  H  H15  1  0.90163000  0.86977000  0.90092000  1.0
  H  H16  1  0.64198000  0.93836000  0.31499000  1.0
  H  H17  1  0.87699000  0.67211000  0.81484000  1.0
  H  H18  1  0.71934000  0.80786000  0.40391000  1.0
  H  H19  1  0.09619000  0.68308000  0.90375000  1.0
  H  H20  1  0.72741000  0.55941000  0.39179000  1.0
  H  H21  1  0.33230000  0.66241000  0.89171000  1.0
  H  H22  1  0.04384000  0.67331000  0.25797000  1.0
  H  H23  1  0.08414000  0.21256000  0.75752000  1.0
  H  H24  1  0.04276000  0.92332000  0.26058000  1.0
  H  H25  1  0.83688000  0.21674000  0.76005000  1.0
  H  H26  1  0.44241000  0.74132000  0.40072000  1.0
  H  H27  1  0.15987000  0.95772000  0.90090000  1.0
  H  H28  1  0.45150000  0.64574000  0.30197000  1.0
  H  H29  1  0.15659000  0.85012000  0.80200000  1.0
  H  H30  1  0.32447000  0.73702000  0.28686000  1.0
  H  H31  1  0.05040000  0.96222000  0.78711000  1.0
  H  H32  1  0.37129000  0.23277000  0.99449000  1.0
  H  H33  1  0.26187000  0.62443000  0.49445000  1.0
  H  H34  1  0.13425000  0.25802000  0.00092000  1.0
  H  H35  1  0.24310000  0.86791000  0.50108000  1.0
  H  H36  1  0.38647000  0.70183000  0.14485000  1.0
  H  H37  1  0.94253000  0.75896000  0.64467000  1.0
  H  H38  1  0.63793000  0.69318000  0.14914000  1.0
  H  H39  1  0.95529000  0.51165000  0.64870000  1.0
  H  H40  1  0.58552000  0.23551000  0.08321000  1.0
  H  H41  1  0.34712000  0.49821000  0.58278000  1.0
  H  H42  1  0.55654000  0.03415000  0.99910000  1.0
  H  H43  1  0.46464000  0.44337000  0.49886000  1.0
  H  H44  1  0.57508000  0.79305000  0.00722000  1.0
  H  H45  1  0.71415000  0.43316000  0.50739000  1.0
  H  H46  1  0.05404000  0.00454000  0.13695000  1.0
  H  H47  1  0.63149000  0.08331000  0.63677000  1.0
  H  H48  1  0.05382000  0.25605000  0.14388000  1.0
  H  H49  1  0.38677000  0.09046000  0.64347000  1.0
  H  H50  1  0.42039000  0.97185000  0.14147000  1.0
  H  H51  1  0.66930000  0.72117000  0.64143000  1.0
  H  H52  1  0.33635000  0.92990000  0.01810000  1.0
  H  H53  1  0.58854000  0.68245000  0.51808000  1.0
  H  H54  1  0.30182000  0.05881000  0.08594000  1.0
  H  H55  1  0.52680000  0.78417000  0.58586000  1.0
  C  C56  1  0.58343000  0.16423000  0.31925000  1.0
  C  C57  1  0.65575000  0.73544000  0.81934000  1.0
  C  C58  1  0.52848000  0.26253000  0.27749000  1.0
  C  C59  1  0.51577000  0.74879000  0.77774000  1.0
  C  C60  1  0.38775000  0.26086000  0.27733000  1.0
  C  C61  1  0.51727000  0.88933000  0.77762000  1.0
  C  C62  1  0.35120000  0.07671000  0.35697000  1.0
  C  C63  1  0.78102000  0.00532000  0.85688000  1.0
  C  C64  1  0.49066000  0.07080000  0.36132000  1.0
  C  C65  1  0.79130000  0.87020000  0.86119000  1.0
  C  C66  1  0.74425000  0.04033000  0.32267000  1.0
  C  C67  1  0.78264000  0.57760000  0.82259000  1.0
  C  C68  1  0.87588000  0.88683000  0.32923000  1.0
  C  C69  1  0.94231000  0.45206000  0.82890000  1.0
  C  C70  1  0.78785000  0.78038000  0.36757000  1.0
  C  C71  1  0.08716000  0.57819000  0.86734000  1.0
  C  C72  1  0.79545000  0.64269000  0.36266000  1.0
  C  C73  1  0.21982000  0.56539000  0.86246000  1.0
  C  C74  1  0.97154000  0.70595000  0.28881000  1.0
  C  C75  1  0.08247000  0.31569000  0.78839000  1.0
  C  C76  1  0.97098000  0.84593000  0.29059000  1.0
  C  C77  1  0.94435000  0.31831000  0.79012000  1.0
  C  C78  1  0.24540000  0.52904000  0.32899000  1.0
  C  C79  1  0.30039000  0.08308000  0.82910000  1.0
  C  C80  1  0.37238000  0.67333000  0.32988000  1.0
  C  C81  1  0.15699000  0.95711000  0.83004000  1.0
  C  C82  1  0.52752000  0.46065000  0.07364000  1.0
  C  C83  1  0.11258000  0.54691000  0.57332000  1.0
  C  C84  1  0.38087000  0.33738000  0.03153000  1.0
  C  C85  1  0.19407000  0.65168000  0.53139000  1.0
  C  C86  1  0.24809000  0.35255000  0.03373000  1.0
  C  C87  1  0.18114000  0.78668000  0.53373000  1.0
  C  C88  1  0.38905000  0.59936000  0.11342000  1.0
  C  C89  1  0.01364000  0.72507000  0.61324000  1.0
  C  C90  1  0.52800000  0.59434000  0.11530000  1.0
  C  C91  1  0.02042000  0.58794000  0.61496000  1.0
  C  C92  1  0.68080000  0.32912000  0.07559000  1.0
  C  C93  1  0.24585000  0.39540000  0.57519000  1.0
  C  C94  1  0.80404000  0.16848000  0.07495000  1.0
  C  C95  1  0.40583000  0.27152000  0.57462000  1.0
  C  C96  1  0.66803000  0.03351000  0.03594000  1.0
  C  C97  1  0.50201000  0.36867000  0.53574000  1.0
  C  C98  1  0.67936000  0.89833000  0.03774000  1.0
  C  C99  1  0.63912000  0.35926000  0.53776000  1.0
  C  C100  1  0.94461000  0.01476000  0.10924000  1.0
  C  C101  1  0.59368000  0.16510000  0.60905000  1.0
  C  C102  1  0.94517000  0.15534000  0.11225000  1.0
  C  C103  1  0.45601000  0.16750000  0.61188000  1.0
  C  C104  1  0.17234000  0.82845000  0.08261000  1.0
  C  C105  1  0.75403000  0.91086000  0.58287000  1.0
  C  C106  1  0.31747000  0.95444000  0.08282000  1.0
  C  C107  1  0.62827000  0.76571000  0.58286000  1.0
  N  N108  1  0.72517000  0.16608000  0.31975000  1.0
  N  N109  1  0.65418000  0.59409000  0.81985000  1.0
  N  N110  1  0.87503000  0.02761000  0.32893000  1.0
  N  N111  1  0.80137000  0.45291000  0.82873000  1.0
  N  N112  1  0.29728000  0.16875000  0.31561000  1.0
  N  N113  1  0.64763000  0.01800000  0.81576000  1.0
  N  N114  1  0.88451000  0.60296000  0.32372000  1.0
  N  N115  1  0.22044000  0.43741000  0.82342000  1.0
  N  N116  1  0.66684000  0.45713000  0.07342000  1.0
  N  N117  1  0.11575000  0.40731000  0.57306000  1.0
  N  N118  1  0.80601000  0.30996000  0.07472000  1.0
  N  N119  1  0.26409000  0.26930000  0.57436000  1.0
  N  N120  1  0.24899000  0.48059000  0.07395000  1.0
  N  N121  1  0.09315000  0.82584000  0.57389000  1.0
  N  N122  1  0.81443000  0.88598000  0.07350000  1.0
  N  N123  1  0.68703000  0.25979000  0.57352000  1.0
  O  O124  1  0.11101000  0.48165000  0.26636000  1.0
  O  O125  1  0.28535000  0.15459000  0.76629000  1.0
  O  O126  1  0.27903000  0.46042000  0.39103000  1.0
  O  O127  1  0.43095000  0.11160000  0.89126000  1.0
  O  O128  1  0.04586000  0.79535000  0.01489000  1.0
  O  O129  1  0.71941000  0.97001000  0.51531000  1.0
  O  O130  1  0.18331000  0.76271000  0.14811000  1.0
  O  O131  1  0.88523000  0.96505000  0.64829000  1.0
