# generated using pymatgen
data_CoH21C30N3O4
_symmetry_space_group_name_H-M   'P 1'
_cell_length_a   11.18560000
_cell_length_b   15.16920000
_cell_length_c   18.16220000
_cell_angle_alpha   78.30200000
_cell_angle_beta   89.56190000
_cell_angle_gamma   68.83100000
_symmetry_Int_Tables_number   1
_chemical_formula_structural   CoH21C30N3O4
_chemical_formula_sum   'Co4 H84 C120 N12 O16'
_cell_volume   2806.79250062
_cell_formula_units_Z   4
loop_
 _symmetry_equiv_pos_site_id
 _symmetry_equiv_pos_as_xyz
  1  'x, y, z'
loop_
 _atom_site_type_symbol
 _atom_site_label
 _atom_site_symmetry_multiplicity
 _atom_site_fract_x
 _atom_site_fract_y
 _atom_site_fract_z
 _atom_site_occupancy
  Co  Co0  1  0.44111000  0.56763000  0.39051000  1.0
  Co  Co1  1  0.01269000  0.42839000  0.10935000  1.0
  Co  Co2  1  0.55696000  0.43406000  0.61395000  1.0
  Co  Co3  1  0.98733000  0.57158000  0.89236000  1.0
  H  H4  1  0.05815000  0.22025000  0.06421000  1.0
  H  H5  1  0.27831000  0.77749000  0.43601000  1.0
  H  H6  1  0.94235000  0.77828000  0.93611000  1.0
  H  H7  1  0.72122000  0.22306000  0.55942000  1.0
  H  H8  1  0.16350000  0.04524000  0.07518000  1.0
  H  H9  1  0.20915000  0.95235000  0.42599000  1.0
  H  H10  1  0.83598000  0.95335000  0.92344000  1.0
  H  H11  1  0.79097000  0.04690000  0.57267000  1.0
  H  H12  1  0.34605000  0.09668000  0.86899000  1.0
  H  H13  1  0.44245000  0.90171000  0.62978000  1.0
  H  H14  1  0.65165000  0.90430000  0.12941000  1.0
  H  H15  1  0.55907000  0.09219000  0.36947000  1.0
  H  H16  1  0.22608000  0.27335000  0.85410000  1.0
  H  H17  1  0.49944000  0.72521000  0.64375000  1.0
  H  H18  1  0.77290000  0.72764000  0.14608000  1.0
  H  H19  1  0.50191000  0.26967000  0.35270000  1.0
  H  H20  1  0.38462000  0.98832000  0.12094000  1.0
  H  H21  1  0.37219000  0.01171000  0.37825000  1.0
  H  H22  1  0.61855000  0.01343000  0.87480000  1.0
  H  H23  1  0.62921000  0.98686000  0.62167000  1.0
  H  H24  1  0.40536000  0.87384000  0.24313000  1.0
  H  H25  1  0.27870000  0.12561000  0.25657000  1.0
  H  H26  1  0.59984000  0.12934000  0.75400000  1.0
  H  H27  1  0.72222000  0.87371000  0.74370000  1.0
  H  H28  1  0.35626000  0.66702000  0.12771000  1.0
  H  H29  1  0.02578000  0.33049000  0.37421000  1.0
  H  H30  1  0.64558000  0.33340000  0.87412000  1.0
  H  H31  1  0.97550000  0.66761000  0.62716000  1.0
  H  H32  1  0.32674000  0.78417000  0.00532000  1.0
  H  H33  1  0.11414000  0.21432000  0.49623000  1.0
  H  H34  1  0.67279000  0.21471000  0.99502000  1.0
  H  H35  1  0.88768000  0.78289000  0.50493000  1.0
  H  H36  1  0.20253000  0.95842000  0.86147000  1.0
  H  H37  1  0.16151000  0.04004000  0.63956000  1.0
  H  H38  1  0.79683000  0.04054000  0.13560000  1.0
  H  H39  1  0.84136000  0.95688000  0.36123000  1.0
  H  H40  1  0.29550000  0.88143000  0.75424000  1.0
  H  H41  1  0.17795000  0.11770000  0.74613000  1.0
  H  H42  1  0.70592000  0.11675000  0.24356000  1.0
  H  H43  1  0.82430000  0.88102000  0.25359000  1.0
  H  H44  1  0.53247000  0.79835000  0.75402000  1.0
  H  H45  1  0.33317000  0.20127000  0.74481000  1.0
  H  H46  1  0.46931000  0.20023000  0.24484000  1.0
  H  H47  1  0.66836000  0.79809000  0.25395000  1.0
  H  H48  1  0.67635000  0.79096000  0.86071000  1.0
  H  H49  1  0.47135000  0.20792000  0.63725000  1.0
  H  H50  1  0.32362000  0.20888000  0.13861000  1.0
  H  H51  1  0.53073000  0.78998000  0.36130000  1.0
  H  H52  1  0.58227000  0.86424000  0.96903000  1.0
  H  H53  1  0.45021000  0.13398000  0.52976000  1.0
  H  H54  1  0.41569000  0.13636000  0.02952000  1.0
  H  H55  1  0.55260000  0.86227000  0.46996000  1.0
  H  H56  1  0.61335000  0.62329000  0.48790000  1.0
  H  H57  1  0.23923000  0.37747000  0.00995000  1.0
  H  H58  1  0.39404000  0.37442000  0.51801000  1.0
  H  H59  1  0.76060000  0.62355000  0.99173000  1.0
  H  H60  1  0.83117000  0.62532000  0.48748000  1.0
  H  H61  1  0.45961000  0.37492000  0.01065000  1.0
  H  H62  1  0.17798000  0.37167000  0.51568000  1.0
  H  H63  1  0.53999000  0.62663000  0.99116000  1.0
  H  H64  1  0.88589000  0.49535000  0.29218000  1.0
  H  H65  1  0.38353000  0.50174000  0.20762000  1.0
  H  H66  1  0.11236000  0.50856000  0.70747000  1.0
  H  H67  1  0.61545000  0.49891000  0.79483000  1.0
  H  H68  1  0.66368000  0.49520000  0.30356000  1.0
  H  H69  1  0.16122000  0.50281000  0.19578000  1.0
  H  H70  1  0.33288000  0.50823000  0.69950000  1.0
  H  H71  1  0.83804000  0.49752000  0.80623000  1.0
  H  H72  1  0.96315000  0.68715000  0.44133000  1.0
  H  H73  1  0.65106000  0.31224000  0.05663000  1.0
  H  H74  1  0.02534000  0.31883000  0.55430000  1.0
  H  H75  1  0.34754000  0.68989000  0.94423000  1.0
  H  H76  1  0.18651000  0.68395000  0.44152000  1.0
  H  H77  1  0.87190000  0.31430000  0.05726000  1.0
  H  H78  1  0.80320000  0.32277000  0.55556000  1.0
  H  H79  1  0.12683000  0.68749000  0.94372000  1.0
  H  H80  1  0.30442000  0.46369000  0.32486000  1.0
  H  H81  1  0.77265000  0.53208000  0.17647000  1.0
  H  H82  1  0.69190000  0.53894000  0.67660000  1.0
  H  H83  1  0.22763000  0.46751000  0.82664000  1.0
  H  H84  1  0.08607000  0.45572000  0.31968000  1.0
  H  H85  1  0.54596000  0.54144000  0.18056000  1.0
  H  H86  1  0.90920000  0.54445000  0.68169000  1.0
  H  H87  1  0.45445000  0.45788000  0.82330000  1.0
  C  C88  1  0.06674000  0.36517000  0.95282000  1.0
  C  C89  1  0.43111000  0.63292000  0.54415000  1.0
  C  C90  1  0.93347000  0.63443000  0.04869000  1.0
  C  C91  1  0.56840000  0.36515000  0.44941000  1.0
  C  C92  1  0.13234000  0.25954000  0.95758000  1.0
  C  C93  1  0.39196000  0.73818000  0.54130000  1.0
  C  C94  1  0.86735000  0.74022000  0.04278000  1.0
  C  C95  1  0.60882000  0.25882000  0.45438000  1.0
  C  C96  1  0.11719000  0.19336000  0.01981000  1.0
  C  C97  1  0.31045000  0.80446000  0.48017000  1.0
  C  C98  1  0.88263000  0.80569000  0.98008000  1.0
  C  C99  1  0.68967000  0.19420000  0.51629000  1.0
  C  C100  1  0.17915000  0.09453000  0.02698000  1.0
  C  C101  1  0.27395000  0.90333000  0.47349000  1.0
  C  C102  1  0.81993000  0.90460000  0.97190000  1.0
  C  C103  1  0.72642000  0.09502000  0.52474000  1.0
  C  C104  1  0.26502000  0.05761000  0.97371000  1.0
  C  C105  1  0.32292000  0.94072000  0.52616000  1.0
  C  C106  1  0.73326000  0.94216000  0.02455000  1.0
  C  C107  1  0.67789000  0.05626000  0.47293000  1.0
  C  C108  1  0.27991000  0.12372000  0.91064000  1.0
  C  C109  1  0.40343000  0.87457000  0.58838000  1.0
  C  C110  1  0.71818000  0.87676000  0.08807000  1.0
  C  C111  1  0.59747000  0.12073000  0.41013000  1.0
  C  C112  1  0.21330000  0.22269000  0.90262000  1.0
  C  C113  1  0.43598000  0.77536000  0.59590000  1.0
  C  C114  1  0.78554000  0.77779000  0.09714000  1.0
  C  C115  1  0.56503000  0.22013000  0.40093000  1.0
  C  C116  1  0.35300000  0.89391000  0.05459000  1.0
  C  C117  1  0.24794000  0.10505000  0.44576000  1.0
  C  C118  1  0.64792000  0.10615000  0.94351000  1.0
  C  C119  1  0.75349000  0.89269000  0.55463000  1.0
  C  C120  1  0.37656000  0.91859000  0.12222000  1.0
  C  C121  1  0.29516000  0.08095000  0.37754000  1.0
  C  C122  1  0.62666000  0.08283000  0.87478000  1.0
  C  C123  1  0.70623000  0.91752000  0.62268000  1.0
  C  C124  1  0.38911000  0.85420000  0.19065000  1.0
  C  C125  1  0.24341000  0.14505000  0.30938000  1.0
  C  C126  1  0.61547000  0.14824000  0.80692000  1.0
  C  C127  1  0.75776000  0.85384000  0.69107000  1.0
  C  C128  1  0.38338000  0.76262000  0.19361000  1.0
  C  C129  1  0.14682000  0.23597000  0.30705000  1.0
  C  C130  1  0.62047000  0.23970000  0.80568000  1.0
  C  C131  1  0.85419000  0.76270000  0.69388000  1.0
  C  C132  1  0.36300000  0.73732000  0.12596000  1.0
  C  C133  1  0.10226000  0.26083000  0.37525000  1.0
  C  C134  1  0.63953000  0.26320000  0.87450000  1.0
  C  C135  1  0.89899000  0.73730000  0.62589000  1.0
  C  C136  1  0.34681000  0.80239000  0.05761000  1.0
  C  C137  1  0.15144000  0.19613000  0.44350000  1.0
  C  C138  1  0.65428000  0.19733000  0.94205000  1.0
  C  C139  1  0.85008000  0.80150000  0.55745000  1.0
  C  C140  1  0.40014000  0.69343000  0.26696000  1.0
  C  C141  1  0.09459000  0.30473000  0.23375000  1.0
  C  C142  1  0.60066000  0.31413000  0.73521000  1.0
  C  C143  1  0.90603000  0.69427000  0.76729000  1.0
  C  C144  1  0.38727000  0.91677000  0.92094000  1.0
  C  C145  1  0.30585000  0.08171000  0.57893000  1.0
  C  C146  1  0.61130000  0.08312000  0.07688000  1.0
  C  C147  1  0.69720000  0.91449000  0.42136000  1.0
  C  C148  1  0.30612000  0.92157000  0.86070000  1.0
  C  C149  1  0.22897000  0.07702000  0.63969000  1.0
  C  C150  1  0.69341000  0.07764000  0.13687000  1.0
  C  C151  1  0.77407000  0.91986000  0.36069000  1.0
  C  C152  1  0.35855000  0.87857000  0.80090000  1.0
  C  C153  1  0.23867000  0.12040000  0.69912000  1.0
  C  C154  1  0.64213000  0.12015000  0.19709000  1.0
  C  C155  1  0.76384000  0.87760000  0.30064000  1.0
  C  C156  1  0.49142000  0.83172000  0.80078000  1.0
  C  C157  1  0.32566000  0.16739000  0.69842000  1.0
  C  C158  1  0.50939000  0.16721000  0.19778000  1.0
  C  C159  1  0.67653000  0.83097000  0.30083000  1.0
  C  C160  1  0.57244000  0.82703000  0.86091000  1.0
  C  C161  1  0.40285000  0.17163000  0.63790000  1.0
  C  C162  1  0.42743000  0.17263000  0.13787000  1.0
  C  C163  1  0.59963000  0.82582000  0.36138000  1.0
  C  C164  1  0.52034000  0.86878000  0.92122000  1.0
  C  C165  1  0.39218000  0.12966000  0.57788000  1.0
  C  C166  1  0.47839000  0.13134000  0.07712000  1.0
  C  C167  1  0.61071000  0.86684000  0.42189000  1.0
  C  C168  1  0.67580000  0.59554000  0.44520000  1.0
  C  C169  1  0.27401000  0.40456000  0.05292000  1.0
  C  C170  1  0.32980000  0.40341000  0.55949000  1.0
  C  C171  1  0.72574000  0.59634000  0.94889000  1.0
  C  C172  1  0.79848000  0.59743000  0.44411000  1.0
  C  C173  1  0.39870000  0.40231000  0.05424000  1.0
  C  C174  1  0.20640000  0.40155000  0.55928000  1.0
  C  C175  1  0.60088000  0.59887000  0.94769000  1.0
  C  C176  1  0.87749000  0.56347000  0.38779000  1.0
  C  C177  1  0.44355000  0.43517000  0.11115000  1.0
  C  C178  1  0.12179000  0.43740000  0.61321000  1.0
  C  C179  1  0.55580000  0.56585000  0.89101000  1.0
  C  C180  1  0.82858000  0.52484000  0.33646000  1.0
  C  C181  1  0.35585000  0.47319000  0.16279000  1.0
  C  C182  1  0.17059000  0.47728000  0.66408000  1.0
  C  C183  1  0.64338000  0.52771000  0.83934000  1.0
  C  C184  1  0.70490000  0.52463000  0.34224000  1.0
  C  C185  1  0.23188000  0.47393000  0.15677000  1.0
  C  C186  1  0.29507000  0.47752000  0.66033000  1.0
  C  C187  1  0.76749000  0.52667000  0.84524000  1.0
  C  C188  1  0.00590000  0.56847000  0.38349000  1.0
  C  C189  1  0.57704000  0.42960000  0.11580000  1.0
  C  C190  1  0.99060000  0.43384000  0.61581000  1.0
  C  C191  1  0.42235000  0.57127000  0.88652000  1.0
  C  C192  1  0.03605000  0.63486000  0.41597000  1.0
  C  C193  1  0.67270000  0.36368000  0.08281000  1.0
  C  C194  1  0.95536000  0.37037000  0.58180000  1.0
  C  C195  1  0.32624000  0.63784000  0.91870000  1.0
  C  C196  1  0.15962000  0.63503000  0.41496000  1.0
  C  C197  1  0.79671000  0.36291000  0.08418000  1.0
  C  C198  1  0.83096000  0.37027000  0.58330000  1.0
  C  C199  1  0.20227000  0.63847000  0.91723000  1.0
  C  C200  1  0.22496000  0.51202000  0.34955000  1.0
  C  C201  1  0.74085000  0.48451000  0.15097000  1.0
  C  C202  1  0.76913000  0.49072000  0.65057000  1.0
  C  C203  1  0.25908000  0.51559000  0.85173000  1.0
  C  C204  1  0.10356000  0.50723000  0.34805000  1.0
  C  C205  1  0.61439000  0.48994000  0.15207000  1.0
  C  C206  1  0.89185000  0.49409000  0.65190000  1.0
  C  C207  1  0.38556000  0.50998000  0.85109000  1.0
  N  N208  1  0.62769000  0.56100000  0.39482000  1.0
  N  N209  1  0.19120000  0.43843000  0.10370000  1.0
  N  N210  1  0.37713000  0.43971000  0.60963000  1.0
  N  N211  1  0.80855000  0.56206000  0.89822000  1.0
  N  N212  1  0.25421000  0.57360000  0.38341000  1.0
  N  N213  1  0.83106000  0.42330000  0.11671000  1.0
  N  N214  1  0.73585000  0.43047000  0.61639000  1.0
  N  N215  1  0.16832000  0.57754000  0.88514000  1.0
  N  N216  1  0.33545000  0.95826000  0.98382000  1.0
  N  N217  1  0.29464000  0.04036000  0.51618000  1.0
  N  N218  1  0.66245000  0.04159000  0.01381000  1.0
  N  N219  1  0.70717000  0.95631000  0.48399000  1.0
  O  O220  1  0.42501000  0.60366000  0.26776000  1.0
  O  O221  1  0.02886000  0.39414000  0.23269000  1.0
  O  O222  1  0.56940000  0.40233000  0.73979000  1.0
  O  O223  1  0.97134000  0.60464000  0.76871000  1.0
  O  O224  1  0.39227000  0.72212000  0.32872000  1.0
  O  O225  1  0.11669000  0.27608000  0.17190000  1.0
  O  O226  1  0.61141000  0.29240000  0.66975000  1.0
  O  O227  1  0.88405000  0.72332000  0.82900000  1.0
  O  O228  1  0.07065000  0.42457000  0.89253000  1.0
  O  O229  1  0.49940000  0.57277000  0.60272000  1.0
  O  O230  1  0.92927000  0.57574000  0.10930000  1.0
  O  O231  1  0.50109000  0.42276000  0.38966000  1.0
  O  O232  1  0.00928000  0.39338000  0.00969000  1.0
  O  O233  1  0.39679000  0.60545000  0.48904000  1.0
  O  O234  1  0.99162000  0.60528000  0.99227000  1.0
  O  O235  1  0.59924000  0.39381000  0.50458000  1.0
