# generated using pymatgen
data_Zn2H15C16N2O8F
_symmetry_space_group_name_H-M   'P 1'
_cell_length_a   9.79272000
_cell_length_b   11.14610000
_cell_length_c   11.16570000
_cell_angle_alpha   88.80130000
_cell_angle_beta   86.26590000
_cell_angle_gamma   82.87200000
_symmetry_Int_Tables_number   1
_chemical_formula_structural   Zn2H15C16N2O8F
_chemical_formula_sum   'Zn2 H15 C16 N2 O8 F1'
_cell_volume   1206.65530613
_cell_formula_units_Z   1
loop_
 _symmetry_equiv_pos_site_id
 _symmetry_equiv_pos_as_xyz
  1  'x, y, z'
loop_
 _atom_site_type_symbol
 _atom_site_label
 _atom_site_symmetry_multiplicity
 _atom_site_fract_x
 _atom_site_fract_y
 _atom_site_fract_z
 _atom_site_occupancy
  Zn  Zn0  1  0.35604000  0.51293000  0.51017000  1.0
  Zn  Zn1  1  0.64073000  0.50187000  0.49303000  1.0
  H  H2  1  0.55682000  0.88653000  0.34051000  1.0
  H  H3  1  0.08544000  0.51210000  0.58989000  1.0
  H  H4  1  0.90722000  0.43077000  0.52132000  1.0
  H  H5  1  0.59139000  0.09584000  0.55350000  1.0
  H  H6  1  0.69664000  0.47274000  0.10148000  1.0
  H  H7  1  0.38915000  0.57173000  0.10077000  1.0
  H  H8  1  0.69807000  0.51313000  0.88012000  1.0
  H  H9  1  0.39500000  0.46522000  0.90980000  1.0
  H  H10  1  0.13827000  0.57289000  0.33643000  1.0
  H  H11  1  0.93918000  0.73143000  0.30802000  1.0
  H  H12  1  0.80791000  0.64082000  0.27253000  1.0
  H  H13  1  0.78112000  0.73061000  0.40081000  1.0
  H  H14  1  0.46179000  0.07292000  0.20948000  1.0
  H  H15  1  0.30531000  0.10799000  0.29626000  1.0
  H  H16  1  0.42049000  0.21931000  0.27548000  1.0
  C  C17  1  0.49858000  0.49015000  0.73317000  1.0
  C  C18  1  0.48845000  0.53690000  0.13503000  1.0
  C  C19  1  0.60086000  0.50129000  0.93031000  1.0
  C  C20  1  0.49290000  0.48465000  0.86616000  1.0
  C  C21  1  0.07769000  0.55470000  0.41971000  1.0
  C  C22  1  0.92440000  0.57242000  0.41871000  1.0
  C  C23  1  0.52304000  0.27498000  0.48240000  1.0
  C  C24  1  0.49384000  0.53115000  0.26748000  1.0
  C  C25  1  0.46475000  0.74328000  0.51394000  1.0
  C  C26  1  0.53290000  0.14103000  0.48196000  1.0
  C  C27  1  0.48393000  0.07357000  0.39944000  1.0
  C  C28  1  0.45153000  0.87873000  0.50619000  1.0
  C  C29  1  0.50286000  0.94113000  0.41334000  1.0
  C  C30  1  0.59932000  0.50148000  0.06025000  1.0
  C  C31  1  0.86171000  0.67580000  0.34549000  1.0
  C  C32  1  0.41482000  0.12247000  0.28918000  1.0
  N  N33  1  0.14480000  0.52394000  0.51212000  1.0
  N  N34  1  0.85098000  0.50048000  0.47800000  1.0
  O  O35  1  0.38785000  0.47137000  0.68551000  1.0
  O  O36  1  0.60968000  0.51394000  0.67665000  1.0
  O  O37  1  0.40804000  0.33616000  0.46046000  1.0
  O  O38  1  0.63160000  0.31940000  0.50803000  1.0
  O  O39  1  0.37932000  0.55957000  0.32840000  1.0
  O  O40  1  0.60979000  0.49842000  0.31147000  1.0
  O  O41  1  0.35882000  0.69525000  0.55070000  1.0
  O  O42  1  0.58215000  0.68863000  0.47923000  1.0
  F  F43  1  0.37195000  0.93518000  0.59793000  1.0
