# generated using pymatgen
data_AlH9(C2O)5
_symmetry_space_group_name_H-M   'P 1'
_cell_length_a   6.63394000
_cell_length_b   11.34500000
_cell_length_c   17.78940000
_cell_angle_alpha   89.89040000
_cell_angle_beta   87.41670000
_cell_angle_gamma   89.09100000
_symmetry_Int_Tables_number   1
_chemical_formula_structural   AlH9(C2O)5
_chemical_formula_sum   'Al4 H36 C40 O20'
_cell_volume   1337.33679265
_cell_formula_units_Z   4
loop_
 _symmetry_equiv_pos_site_id
 _symmetry_equiv_pos_as_xyz
  1  'x, y, z'
loop_
 _atom_site_type_symbol
 _atom_site_label
 _atom_site_symmetry_multiplicity
 _atom_site_fract_x
 _atom_site_fract_y
 _atom_site_fract_z
 _atom_site_occupancy
  Al  Al0  1  0.98656000  0.99890000  0.49800000  1.0
  Al  Al1  1  0.48635000  0.00235000  0.50012000  1.0
  Al  Al2  1  0.01363000  0.49773000  0.99989000  1.0
  Al  Al3  1  0.51343000  0.50115000  0.00199000  1.0
  H  H4  1  0.22289000  0.14857000  0.52834000  1.0
  H  H5  1  0.73413000  0.85139000  0.52621000  1.0
  H  H6  1  0.27705000  0.35152000  0.97161000  1.0
  H  H7  1  0.76582000  0.64866000  0.97375000  1.0
  H  H8  1  0.46670000  0.37488000  0.21099000  1.0
  H  H9  1  0.03313000  0.12498000  0.28891000  1.0
  H  H10  1  0.98981000  0.77598000  0.85178000  1.0
  H  H11  1  0.51022000  0.72403000  0.64816000  1.0
  H  H12  1  0.52450000  0.76233000  0.15273000  1.0
  H  H13  1  0.97563000  0.73759000  0.34731000  1.0
  H  H14  1  0.49867000  0.22429000  0.85438000  1.0
  H  H15  1  0.00141000  0.27567000  0.64566000  1.0
  H  H16  1  0.30135000  0.21472000  0.36058000  1.0
  H  H17  1  0.42979000  0.32558000  0.40616000  1.0
  H  H18  1  0.29657000  0.36093000  0.32388000  1.0
  H  H19  1  0.20344000  0.13917000  0.17610000  1.0
  H  H20  1  0.07033000  0.17443000  0.09379000  1.0
  H  H21  1  0.19846000  0.28536000  0.13941000  1.0
  H  H22  1  0.80946000  0.90934000  0.78613000  1.0
  H  H23  1  0.93722000  0.99232000  0.71416000  1.0
  H  H24  1  0.79191000  0.87135000  0.68949000  1.0
  H  H25  1  0.70802000  0.62860000  0.81049000  1.0
  H  H26  1  0.56265000  0.50767000  0.78581000  1.0
  H  H27  1  0.69054000  0.59060000  0.71386000  1.0
  H  H28  1  0.70410000  0.89007000  0.21953000  1.0
  H  H29  1  0.56382000  0.98842000  0.28037000  1.0
  H  H30  1  0.69449000  0.86896000  0.31905000  1.0
  H  H31  1  0.80555000  0.63109000  0.18103000  1.0
  H  H32  1  0.93603000  0.51155000  0.21971000  1.0
  H  H33  1  0.79598000  0.61001000  0.28053000  1.0
  H  H34  1  0.29225000  0.13078000  0.69434000  1.0
  H  H35  1  0.44316000  0.00860000  0.71765000  1.0
  H  H36  1  0.31777000  0.09278000  0.79067000  1.0
  H  H37  1  0.18236000  0.40720000  0.70940000  1.0
  H  H38  1  0.05690000  0.49133000  0.78242000  1.0
  H  H39  1  0.20778000  0.36916000  0.80574000  1.0
  C  C40  1  0.71824000  0.13242000  0.60696000  1.0
  C  C41  1  0.74945000  0.13409000  0.39462000  1.0
  C  C42  1  0.25970000  0.87348000  0.39162000  1.0
  C  C43  1  0.22310000  0.86718000  0.60617000  1.0
  C  C44  1  0.78185000  0.36756000  0.89306000  1.0
  C  C45  1  0.75055000  0.36595000  0.10536000  1.0
  C  C46  1  0.24026000  0.62652000  0.10835000  1.0
  C  C47  1  0.27686000  0.63283000  0.89381000  1.0
  C  C48  1  0.74358000  0.19819000  0.32153000  1.0
  C  C49  1  0.75631000  0.30175000  0.17841000  1.0
  C  C50  1  0.57698000  0.26871000  0.30086000  1.0
  C  C51  1  0.92290000  0.23124000  0.19910000  1.0
  C  C52  1  0.59016000  0.31861000  0.22905000  1.0
  C  C53  1  0.90969000  0.18129000  0.27088000  1.0
  C  C54  1  0.22814000  0.80686000  0.68077000  1.0
  C  C55  1  0.27185000  0.69314000  0.81919000  1.0
  C  C56  1  0.07581000  0.82384000  0.73817000  1.0
  C  C57  1  0.42417000  0.67616000  0.76178000  1.0
  C  C58  1  0.10365000  0.76528000  0.80607000  1.0
  C  C59  1  0.39632000  0.73469000  0.69387000  1.0
  C  C60  1  0.26296000  0.81100000  0.31793000  1.0
  C  C61  1  0.23711000  0.68894000  0.18210000  1.0
  C  C62  1  0.42356000  0.82074000  0.26318000  1.0
  C  C63  1  0.07651000  0.67920000  0.23687000  1.0
  C  C64  1  0.40430000  0.75808000  0.19649000  1.0
  C  C65  1  0.09580000  0.74184000  0.30356000  1.0
  C  C66  1  0.72522000  0.19336000  0.68118000  1.0
  C  C67  1  0.77488000  0.30660000  0.81887000  1.0
  C  C68  1  0.57801000  0.17657000  0.74013000  1.0
  C  C69  1  0.92206000  0.32339000  0.75991000  1.0
  C  C70  1  0.60888000  0.23481000  0.80760000  1.0
  C  C71  1  0.89124000  0.26515000  0.69245000  1.0
  C  C72  1  0.39146000  0.29397000  0.35036000  1.0
  C  C73  1  0.10849000  0.20606000  0.14961000  1.0
  C  C74  1  0.89374000  0.90314000  0.73170000  1.0
  C  C75  1  0.60619000  0.59684000  0.76827000  1.0
  C  C76  1  0.60655000  0.89552000  0.27094000  1.0
  C  C77  1  0.89348000  0.60448000  0.22913000  1.0
  C  C78  1  0.39825000  0.09817000  0.73551000  1.0
  C  C79  1  0.10184000  0.40178000  0.76455000  1.0
  O  O80  1  0.88625000  0.11716000  0.57009000  1.0
  O  O81  1  0.58392000  0.12029000  0.43245000  1.0
  O  O82  1  0.42547000  0.91118000  0.41469000  1.0
  O  O83  1  0.05226000  0.89935000  0.58273000  1.0
  O  O84  1  0.08972000  0.88496000  0.42772000  1.0
  O  O85  1  0.39272000  0.88286000  0.57090000  1.0
  O  O86  1  0.54755000  0.09918000  0.58554000  1.0
  O  O87  1  0.92009000  0.09444000  0.41425000  1.0
  O  O88  1  0.23305000  0.07407000  0.50184000  1.0
  O  O89  1  0.73707000  0.92705000  0.50089000  1.0
  O  O90  1  0.95257000  0.40086000  0.91446000  1.0
  O  O91  1  0.57992000  0.40566000  0.08574000  1.0
  O  O92  1  0.41016000  0.61511000  0.07222000  1.0
  O  O93  1  0.10728000  0.61720000  0.92911000  1.0
  O  O94  1  0.07445000  0.58886000  0.08533000  1.0
  O  O95  1  0.44771000  0.60061000  0.91720000  1.0
  O  O96  1  0.61380000  0.38284000  0.92993000  1.0
  O  O97  1  0.91611000  0.37980000  0.06755000  1.0
  O  O98  1  0.26697000  0.42600000  0.99814000  1.0
  O  O99  1  0.76287000  0.57304000  0.99910000  1.0
