# generated using pymatgen
data_CuH22C26(N6O7)2
_symmetry_space_group_name_H-M   'P 1'
_cell_length_a   10.13850000
_cell_length_b   11.45050000
_cell_length_c   14.75390000
_cell_angle_alpha   75.08860000
_cell_angle_beta   89.78160000
_cell_angle_gamma   70.81330000
_symmetry_Int_Tables_number   1
_chemical_formula_structural   CuH22C26(N6O7)2
_chemical_formula_sum   'Cu2 H44 C52 N24 O28'
_cell_volume   1557.04594214
_cell_formula_units_Z   2
loop_
 _symmetry_equiv_pos_site_id
 _symmetry_equiv_pos_as_xyz
  1  'x, y, z'
loop_
 _atom_site_type_symbol
 _atom_site_label
 _atom_site_symmetry_multiplicity
 _atom_site_fract_x
 _atom_site_fract_y
 _atom_site_fract_z
 _atom_site_occupancy
  Cu  Cu0  1  0.31928000  0.07897000  0.92510000  1.0
  Cu  Cu1  1  0.68071000  0.92103000  0.07490000  1.0
  H  H2  1  0.43823000  0.38778000  0.65631000  1.0
  H  H3  1  0.56177000  0.61223000  0.34369000  1.0
  H  H4  1  0.57913000  0.98938000  0.79362000  1.0
  H  H5  1  0.42087000  0.01062000  0.20638000  1.0
  H  H6  1  0.66446000  0.29383000  0.38702000  1.0
  H  H7  1  0.33555000  0.70617000  0.61297000  1.0
  H  H8  1  0.77873000  0.27531000  0.48404000  1.0
  H  H9  1  0.22127000  0.72468000  0.51595000  1.0
  H  H10  1  0.90643000  0.25942000  0.34072000  1.0
  H  H11  1  0.09357000  0.74057000  0.65928000  1.0
  H  H12  1  0.97171000  0.11539000  0.43266000  1.0
  H  H13  1  0.02829000  0.88461000  0.56734000  1.0
  H  H14  1  0.76357000  0.16641000  0.26530000  1.0
  H  H15  1  0.23644000  0.83359000  0.73470000  1.0
  H  H16  1  0.88992000  0.91783000  0.42248000  1.0
  H  H17  1  0.11008000  0.08216000  0.57752000  1.0
  H  H18  1  0.77572000  0.94183000  0.32380000  1.0
  H  H19  1  0.22428000  0.05817000  0.67620000  1.0
  H  H20  1  0.84170000  0.07779000  0.14994000  1.0
  H  H21  1  0.15830000  0.92221000  0.85006000  1.0
  H  H22  1  0.58451000  0.10298000  0.37782000  1.0
  H  H23  1  0.41549000  0.89702000  0.62218000  1.0
  H  H24  1  0.64661000  0.95751000  0.46757000  1.0
  H  H25  1  0.35339000  0.04248000  0.53243000  1.0
  H  H26  1  0.73587000  0.09932000  0.66687000  1.0
  H  H27  1  0.26413000  0.90068000  0.33313000  1.0
  H  H28  1  0.08875000  0.80901000  0.15180000  1.0
  H  H29  1  0.91125000  0.19098000  0.84821000  1.0
  H  H30  1  0.08615000  0.19238000  0.05608000  1.0
  H  H31  1  0.91384000  0.80762000  0.94392000  1.0
  H  H32  1  0.46986000  0.71268000  0.78315000  1.0
  H  H33  1  0.53015000  0.28732000  0.21686000  1.0
  H  H34  1  0.75277000  0.34539000  0.94640000  1.0
  H  H35  1  0.24724000  0.65460000  0.05361000  1.0
  H  H36  1  0.60883000  0.66163000  0.07208000  1.0
  H  H37  1  0.39117000  0.33837000  0.92792000  1.0
  H  H38  1  0.04735000  0.30405000  0.69853000  1.0
  H  H39  1  0.95265000  0.69595000  0.30147000  1.0
  H  H40  1  0.74649000  0.68384000  0.57888000  1.0
  H  H41  1  0.25352000  0.31616000  0.42111000  1.0
  H  H42  1  0.94046000  0.57766000  0.86345000  1.0
  H  H43  1  0.05954000  0.42235000  0.13654000  1.0
  H  H44  1  0.80024000  0.04490000  0.54235000  1.0
  H  H45  1  0.19976000  0.95510000  0.45764000  1.0
  C  C46  1  0.44659000  0.29749000  0.70659000  1.0
  C  C47  1  0.55341000  0.70252000  0.29341000  1.0
  C  C48  1  0.51903000  0.09119000  0.77702000  1.0
  C  C49  1  0.48096000  0.90881000  0.22298000  1.0
  C  C50  1  0.58938000  0.15899000  0.54909000  1.0
  C  C51  1  0.41061000  0.84101000  0.45091000  1.0
  C  C52  1  0.75324000  0.22468000  0.43649000  1.0
  C  C53  1  0.24676000  0.77531000  0.56351000  1.0
  C  C54  1  0.87997000  0.17721000  0.38289000  1.0
  C  C55  1  0.12003000  0.82278000  0.61711000  1.0
  C  C56  1  0.84976000  0.10167000  0.31843000  1.0
  C  C57  1  0.15024000  0.89832000  0.68157000  1.0
  C  C58  1  0.80242000  0.98992000  0.37305000  1.0
  C  C59  1  0.19758000  0.01008000  0.62695000  1.0
  C  C60  1  0.67608000  0.03870000  0.42707000  1.0
  C  C61  1  0.32391000  0.96130000  0.57293000  1.0
  C  C62  1  0.11835000  0.89025000  0.11495000  1.0
  C  C63  1  0.88165000  0.10975000  0.88506000  1.0
  C  C64  1  0.11362000  0.08961000  0.06642000  1.0
  C  C65  1  0.88637000  0.91039000  0.93358000  1.0
  C  C66  1  0.44283000  0.84102000  0.91379000  1.0
  C  C67  1  0.55717000  0.15898000  0.08622000  1.0
  C  C68  1  0.53077000  0.70340000  0.92581000  1.0
  C  C69  1  0.46922000  0.29661000  0.07419000  1.0
  C  C70  1  0.53152000  0.65302000  0.84894000  1.0
  C  C71  1  0.46849000  0.34697000  0.15107000  1.0
  C  C72  1  0.61277000  0.52604000  0.85693000  1.0
  C  C73  1  0.38723000  0.47396000  0.14307000  1.0
  C  C74  1  0.69217000  0.44549000  0.94013000  1.0
  C  C75  1  0.30783000  0.55451000  0.05987000  1.0
  C  C76  1  0.68623000  0.49827000  0.01563000  1.0
  C  C77  1  0.31377000  0.50173000  0.98438000  1.0
  C  C78  1  0.60810000  0.62561000  0.01066000  1.0
  C  C79  1  0.39189000  0.37439000  0.98934000  1.0
  C  C80  1  0.09871000  0.32958000  0.87303000  1.0
  C  C81  1  0.90129000  0.67042000  0.12697000  1.0
  C  C82  1  0.00438000  0.42975000  0.79010000  1.0
  C  C83  1  0.99562000  0.57026000  0.20990000  1.0
  C  C84  1  0.98901000  0.39906000  0.70586000  1.0
  C  C85  1  0.01100000  0.60095000  0.29413000  1.0
  C  C86  1  0.89694000  0.49074000  0.63182000  1.0
  C  C87  1  0.10306000  0.50926000  0.36818000  1.0
  C  C88  1  0.82058000  0.61427000  0.63677000  1.0
  C  C89  1  0.17943000  0.38573000  0.36322000  1.0
  C  C90  1  0.84081000  0.64229000  0.72117000  1.0
  C  C91  1  0.15919000  0.35772000  0.27882000  1.0
  C  C92  1  0.92994000  0.55284000  0.79800000  1.0
  C  C93  1  0.07006000  0.44716000  0.20199000  1.0
  C  C94  1  0.97607000  0.05192000  0.26709000  1.0
  C  C95  1  0.02393000  0.94808000  0.73291000  1.0
  C  C96  1  0.71034000  0.11128000  0.49233000  1.0
  C  C97  1  0.28966000  0.88872000  0.50767000  1.0
  N  N98  1  0.21321000  0.01680000  0.02705000  1.0
  N  N99  1  0.78678000  0.98320000  0.97295000  1.0
  N  N100  1  0.41820000  0.15143000  0.82275000  1.0
  N  N101  1  0.58179000  0.84858000  0.17724000  1.0
  N  N102  1  0.61519000  0.47613000  0.77432000  1.0
  N  N103  1  0.38481000  0.52386000  0.22568000  1.0
  N  N104  1  0.76779000  0.41639000  0.10474000  1.0
  N  N105  1  0.23221000  0.58361000  0.89527000  1.0
  N  N106  1  0.75859000  0.77043000  0.73070000  1.0
  N  N107  1  0.24142000  0.22958000  0.26929000  1.0
  N  N108  1  0.21713000  0.89080000  0.05712000  1.0
  N  N109  1  0.78287000  0.10919000  0.94288000  1.0
  N  N110  1  0.05046000  0.01235000  0.12204000  1.0
  N  N111  1  0.94954000  0.98764000  0.87796000  1.0
  N  N112  1  0.94453000  0.04815000  0.17820000  1.0
  N  N113  1  0.05547000  0.95185000  0.82181000  1.0
  N  N114  1  0.63585000  0.15778000  0.63810000  1.0
  N  N115  1  0.36414000  0.84222000  0.36189000  1.0
  N  N116  1  0.54019000  0.18117000  0.70345000  1.0
  N  N117  1  0.45981000  0.81883000  0.29655000  1.0
  N  N118  1  0.87810000  0.45364000  0.54527000  1.0
  N  N119  1  0.12191000  0.54636000  0.45472000  1.0
  N  N120  1  0.37141000  0.28116000  0.77861000  1.0
  N  N121  1  0.62859000  0.71884000  0.22139000  1.0
  O  O122  1  0.14268000  0.21494000  0.86126000  1.0
  O  O123  1  0.85731000  0.78506000  0.13874000  1.0
  O  O124  1  0.48120000  0.90473000  0.96195000  1.0
  O  O125  1  0.51880000  0.09527000  0.03807000  1.0
  O  O126  1  0.78925000  0.53222000  0.48210000  1.0
  O  O127  1  0.21075000  0.46778000  0.51790000  1.0
  O  O128  1  0.95351000  0.34512000  0.54114000  1.0
  O  O129  1  0.04650000  0.65488000  0.45886000  1.0
  O  O130  1  0.12371000  0.36088000  0.94422000  1.0
  O  O131  1  0.87628000  0.63913000  0.05578000  1.0
  O  O132  1  0.68617000  0.85108000  0.66055000  1.0
  O  O133  1  0.31385000  0.14894000  0.33944000  1.0
  O  O134  1  0.76372000  0.78951000  0.80972000  1.0
  O  O135  1  0.23628000  0.21050000  0.19027000  1.0
  O  O136  1  0.33680000  0.88865000  0.85475000  1.0
  O  O137  1  0.66319000  0.11135000  0.14525000  1.0
  O  O138  1  0.09895000  0.01621000  0.30126000  1.0
  O  O139  1  0.90105000  0.98379000  0.69874000  1.0
  O  O140  1  0.46432000  0.20048000  0.52118000  1.0
  O  O141  1  0.53568000  0.79952000  0.47882000  1.0
  O  O142  1  0.54194000  0.54895000  0.70166000  1.0
  O  O143  1  0.45806000  0.45106000  0.29835000  1.0
  O  O144  1  0.69196000  0.36384000  0.78164000  1.0
  O  O145  1  0.30805000  0.63616000  0.21836000  1.0
  O  O146  1  0.87331000  0.32487000  0.10070000  1.0
  O  O147  1  0.12669000  0.67513000  0.89931000  1.0
  O  O148  1  0.72613000  0.44323000  0.17822000  1.0
  O  O149  1  0.27387000  0.55677000  0.82178000  1.0
