# generated using pymatgen
data_NiH20(C8O5)2
_symmetry_space_group_name_H-M   'P 1'
_cell_length_a   4.89934000
_cell_length_b   5.57842000
_cell_length_c   15.12910000
_cell_angle_alpha   87.54730000
_cell_angle_beta   83.86370000
_cell_angle_gamma   84.92220000
_symmetry_Int_Tables_number   1
_chemical_formula_structural   NiH20(C8O5)2
_chemical_formula_sum   'Ni1 H20 C16 O10'
_cell_volume   409.27243629
_cell_formula_units_Z   1
loop_
 _symmetry_equiv_pos_site_id
 _symmetry_equiv_pos_as_xyz
  1  'x, y, z'
loop_
 _atom_site_type_symbol
 _atom_site_label
 _atom_site_symmetry_multiplicity
 _atom_site_fract_x
 _atom_site_fract_y
 _atom_site_fract_z
 _atom_site_occupancy
  Ni  Ni0  1  0.99999000  0.00001000  0.00000000  1.0
  H  H1  1  0.33460000  0.45099000  0.23245000  1.0
  H  H2  1  0.66541000  0.54901000  0.76755000  1.0
  H  H3  1  0.07877000  0.30087000  0.30284000  1.0
  H  H4  1  0.92122000  0.69912000  0.69717000  1.0
  H  H5  1  0.42611000  0.41132000  0.37775000  1.0
  H  H6  1  0.57390000  0.58869000  0.62225000  1.0
  H  H7  1  0.71278000  0.36403000  0.49919000  1.0
  H  H8  1  0.28724000  0.63595000  0.50081000  1.0
  H  H9  1  0.06092000  0.67558000  0.40171000  1.0
  H  H10  1  0.93909000  0.32441000  0.59829000  1.0
  H  H11  1  0.77033000  0.72310000  0.27957000  1.0
  H  H12  1  0.22967000  0.27689000  0.72043000  1.0
  H  H13  1  0.75456000  0.69079000  0.12039000  1.0
  H  H14  1  0.24544000  0.30921000  0.87962000  1.0
  H  H15  1  0.53959000  0.92598000  0.12635000  1.0
  H  H16  1  0.46042000  0.07403000  0.87365000  1.0
  H  H17  1  0.74360000  0.35942000  0.05596000  1.0
  H  H18  1  0.25639000  0.64058000  0.94405000  1.0
  H  H19  1  0.57656000  0.27195000  0.97546000  1.0
  H  H20  1  0.42343000  0.72807000  0.02454000  1.0
  C  C21  1  0.06593000  0.26079000  0.16313000  1.0
  C  C22  1  0.93404000  0.73923000  0.83688000  1.0
  C  C23  1  0.22601000  0.28516000  0.24268000  1.0
  C  C24  1  0.77398000  0.71485000  0.75732000  1.0
  C  C25  1  0.57449000  0.06856000  0.32063000  1.0
  C  C26  1  0.42553000  0.93145000  0.67936000  1.0
  C  C27  1  0.56282000  0.24806000  0.38297000  1.0
  C  C28  1  0.43719000  0.75193000  0.61703000  1.0
  C  C29  1  0.72974000  0.21962000  0.45231000  1.0
  C  C30  1  0.27025000  0.78036000  0.54769000  1.0
  C  C31  1  0.91318000  0.01462000  0.46269000  1.0
  C  C32  1  0.08682000  0.98536000  0.53730000  1.0
  C  C33  1  0.92187000  0.83825000  0.39817000  1.0
  C  C34  1  0.07815000  0.16174000  0.60183000  1.0
  C  C35  1  0.75738000  0.86273000  0.32855000  1.0
  C  C36  1  0.24263000  0.13726000  0.67144000  1.0
  O  O37  1  0.16108000  0.09921000  0.10851000  1.0
  O  O38  1  0.83892000  0.90081000  0.89149000  1.0
  O  O39  1  0.85129000  0.40302000  0.15817000  1.0
  O  O40  1  0.14871000  0.59699000  0.84184000  1.0
  O  O41  1  0.41842000  0.07923000  0.25051000  1.0
  O  O42  1  0.58158000  0.92077000  0.74949000  1.0
  O  O43  1  0.66479000  0.82367000  0.08535000  1.0
  O  O44  1  0.33520000  0.17634000  0.91465000  1.0
  O  O45  1  0.75951000  0.30651000  0.99325000  1.0
  O  O46  1  0.24048000  0.69350000  0.00676000  1.0
