# generated using pymatgen
data_ZnH11C16(NO2)2
_symmetry_space_group_name_H-M   'P 1'
_cell_length_a   9.55940000
_cell_length_b   11.03970000
_cell_length_c   15.29680000
_cell_angle_alpha   90.35440000
_cell_angle_beta   89.96510000
_cell_angle_gamma   89.52240000
_symmetry_Int_Tables_number   1
_chemical_formula_structural   ZnH11C16(NO2)2
_chemical_formula_sum   'Zn2 H22 C32 N4 O8'
_cell_volume   1614.22847297
_cell_formula_units_Z   2
loop_
 _symmetry_equiv_pos_site_id
 _symmetry_equiv_pos_as_xyz
  1  'x, y, z'
loop_
 _atom_site_type_symbol
 _atom_site_label
 _atom_site_symmetry_multiplicity
 _atom_site_fract_x
 _atom_site_fract_y
 _atom_site_fract_z
 _atom_site_occupancy
  Zn  Zn0  1  0.63922000  0.49474000  0.49957000  1.0
  Zn  Zn1  1  0.35791000  0.49530000  0.50050000  1.0
  H  H2  1  0.72034000  0.55655000  0.22472000  1.0
  H  H3  1  0.30181000  0.43208000  0.77567000  1.0
  H  H4  1  0.29445000  0.44349000  0.22092000  1.0
  H  H5  1  0.73176000  0.53408000  0.77882000  1.0
  H  H6  1  0.17790000  0.39325000  0.08308000  1.0
  H  H7  1  0.85018000  0.58112000  0.91700000  1.0
  H  H8  1  0.26259000  0.10851000  0.48564000  1.0
  H  H9  1  0.71129000  0.88139000  0.51555000  1.0
  H  H10  1  0.26447000  0.88080000  0.49058000  1.0
  H  H11  1  0.70973000  0.10924000  0.50855000  1.0
  H  H12  1  0.13210000  0.61486000  0.39526000  1.0
  H  H13  1  0.86487000  0.37836000  0.60479000  1.0
  H  H14  1  0.13453000  0.37997000  0.60551000  1.0
  H  H15  1  0.86244000  0.60906000  0.39233000  1.0
  H  H16  1  0.17063000  0.34774000  0.84782000  1.0
  H  H17  1  0.95898000  0.28905000  0.90385000  1.0
  H  H18  1  0.98349000  0.37658000  0.99972000  1.0
  H  H19  1  0.07170000  0.23405000  0.98866000  1.0
  H  H20  1  0.85677000  0.63152000  0.15169000  1.0
  H  H21  1  0.06779000  0.68982000  0.09533000  1.0
  H  H22  1  0.95659000  0.74186000  0.00886000  1.0
  H  H23  1  0.04492000  0.59908000  0.00085000  1.0
  C  C24  1  0.48429000  0.25739000  0.49504000  1.0
  C  C25  1  0.48920000  0.73261000  0.50554000  1.0
  C  C26  1  0.26748000  0.41394000  0.95536000  1.0
  C  C27  1  0.75911000  0.56437000  0.04460000  1.0
  C  C28  1  0.36024000  0.05774000  0.49194000  1.0
  C  C29  1  0.61384000  0.93224000  0.50852000  1.0
  C  C30  1  0.36129000  0.93184000  0.49471000  1.0
  C  C31  1  0.61291000  0.05815000  0.50495000  1.0
  C  C32  1  0.48808000  0.86822000  0.50319000  1.0
  C  C33  1  0.48612000  0.12175000  0.49693000  1.0
  C  C34  1  0.07073000  0.56214000  0.44129000  1.0
  C  C35  1  0.92649000  0.42940000  0.55793000  1.0
  C  C36  1  0.07201000  0.43125000  0.55880000  1.0
  C  C37  1  0.92522000  0.55939000  0.43982000  1.0
  C  C38  1  0.51536000  0.48259000  0.67186000  1.0
  C  C39  1  0.50600000  0.50457000  0.32813000  1.0
  C  C40  1  0.62970000  0.53295000  0.18519000  1.0
  C  C41  1  0.39409000  0.45140000  0.81493000  1.0
  C  C42  1  0.50736000  0.50264000  0.23030000  1.0
  C  C43  1  0.51636000  0.48083000  0.76966000  1.0
  C  C44  1  0.38809000  0.46768000  0.18445000  1.0
  C  C45  1  0.63766000  0.51114000  0.81532000  1.0
  C  C46  1  0.38890000  0.46056000  0.09274000  1.0
  C  C47  1  0.63784000  0.51693000  0.90713000  1.0
  C  C48  1  0.51338000  0.49249000  0.04645000  1.0
  C  C49  1  0.51327000  0.48571000  0.95358000  1.0
  C  C50  1  0.63476000  0.53023000  0.09362000  1.0
  C  C51  1  0.39102000  0.45001000  0.90648000  1.0
  C  C52  1  0.26927000  0.42013000  0.04550000  1.0
  C  C53  1  0.75799000  0.55602000  0.95447000  1.0
  C  C54  1  0.03650000  0.31560000  0.95298000  1.0
  C  C55  1  0.99107000  0.66154000  0.04619000  1.0
  N  N56  1  0.85507000  0.49325000  0.49825000  1.0
  N  N57  1  0.14217000  0.49780000  0.50068000  1.0
  N  N58  1  0.15093000  0.37647000  0.90962000  1.0
  N  N59  1  0.87580000  0.60232000  0.08996000  1.0
  O  O60  1  0.60142000  0.31106000  0.48829000  1.0
  O  O61  1  0.37130000  0.67992000  0.49910000  1.0
  O  O62  1  0.60730000  0.67943000  0.51325000  1.0
  O  O63  1  0.36511000  0.30957000  0.50090000  1.0
  O  O64  1  0.63358000  0.47751000  0.63310000  1.0
  O  O65  1  0.38837000  0.49301000  0.36641000  1.0
  O  O66  1  0.62355000  0.51664000  0.36687000  1.0
  O  O67  1  0.39678000  0.48986000  0.63385000  1.0
