# generated using pymatgen
data_YbH6C6NO8
_symmetry_space_group_name_H-M   'P 1'
_cell_length_a   6.65201000
_cell_length_b   7.80678000
_cell_length_c   9.09370000
_cell_angle_alpha   95.94330000
_cell_angle_beta   110.69700000
_cell_angle_gamma   94.49270000
_symmetry_Int_Tables_number   1
_chemical_formula_structural   YbH6C6NO8
_chemical_formula_sum   'Yb2 H12 C12 N2 O16'
_cell_volume   436.02618301
_cell_formula_units_Z   2
loop_
 _symmetry_equiv_pos_site_id
 _symmetry_equiv_pos_as_xyz
  1  'x, y, z'
loop_
 _atom_site_type_symbol
 _atom_site_label
 _atom_site_symmetry_multiplicity
 _atom_site_fract_x
 _atom_site_fract_y
 _atom_site_fract_z
 _atom_site_occupancy
  Yb  Yb0  1  0.37635000  0.76401000  0.21466000  1.0
  Yb  Yb1  1  0.62364000  0.23599000  0.78535000  1.0
  H  H2  1  0.24220000  0.74272000  0.61562000  1.0
  H  H3  1  0.75781000  0.25728000  0.38438000  1.0
  H  H4  1  0.02996000  0.77164000  0.43941000  1.0
  H  H5  1  0.97004000  0.22836000  0.56059000  1.0
  H  H6  1  0.97730000  0.16216000  0.22742000  1.0
  H  H7  1  0.02271000  0.83785000  0.77258000  1.0
  H  H8  1  0.22541000  0.28769000  0.26160000  1.0
  H  H9  1  0.77459000  0.71231000  0.73840000  1.0
  H  H10  1  0.93397000  0.57485000  0.09514000  1.0
  H  H11  1  0.06602000  0.42515000  0.90486000  1.0
  H  H12  1  0.89424000  0.77134000  0.11838000  1.0
  H  H13  1  0.10576000  0.22866000  0.88162000  1.0
  C  C14  1  0.15724000  0.53530000  0.42825000  1.0
  C  C15  1  0.84275000  0.46470000  0.57175000  1.0
  C  C16  1  0.09304000  0.67730000  0.52084000  1.0
  C  C17  1  0.90696000  0.32270000  0.47916000  1.0
  C  C18  1  0.12338000  0.23195000  0.32100000  1.0
  C  C19  1  0.87663000  0.76805000  0.67900000  1.0
  C  C20  1  0.24739000  0.10417000  0.42515000  1.0
  C  C21  1  0.75261000  0.89583000  0.57485000  1.0
  C  C22  1  0.61085000  0.96682000  0.01714000  1.0
  C  C23  1  0.38916000  0.03319000  0.98286000  1.0
  C  C24  1  0.41414000  0.52540000  0.92568000  1.0
  C  C25  1  0.58586000  0.47460000  0.07431000  1.0
  N  N26  1  0.06543000  0.37282000  0.41009000  1.0
  N  N27  1  0.93457000  0.62718000  0.58991000  1.0
  O  O28  1  0.29466000  0.57563000  0.36739000  1.0
  O  O29  1  0.70535000  0.42437000  0.63261000  1.0
  O  O30  1  0.26122000  0.96021000  0.35488000  1.0
  O  O31  1  0.73877000  0.03978000  0.64512000  1.0
  O  O32  1  0.32495000  0.14847000  0.57425000  1.0
  O  O33  1  0.67504000  0.85153000  0.42575000  1.0
  O  O34  1  0.27519000  0.98008000  0.05768000  1.0
  O  O35  1  0.72481000  0.01992000  0.94233000  1.0
  O  O36  1  0.66067000  0.86260000  0.11958000  1.0
  O  O37  1  0.33933000  0.13740000  0.88042000  1.0
  O  O38  1  0.27642000  0.61744000  0.95097000  1.0
  O  O39  1  0.72357000  0.38256000  0.04903000  1.0
  O  O40  1  0.58004000  0.53083000  0.20730000  1.0
  O  O41  1  0.41995000  0.46917000  0.79270000  1.0
  O  O42  1  0.99803000  0.30564000  0.89314000  1.0
  O  O43  1  0.00197000  0.69436000  0.10686000  1.0
