# generated using pymatgen
data_Zn4H8C38N6O29
_symmetry_space_group_name_H-M   'P 1'
_cell_length_a   10.76060000
_cell_length_b   10.86390000
_cell_length_c   19.52060000
_cell_angle_alpha   91.14480000
_cell_angle_beta   98.62020000
_cell_angle_gamma   98.25830000
_symmetry_Int_Tables_number   1
_chemical_formula_structural   Zn4H8C38N6O29
_chemical_formula_sum   'Zn4 H8 C38 N6 O29'
_cell_volume   2230.81470652
_cell_formula_units_Z   1
loop_
 _symmetry_equiv_pos_site_id
 _symmetry_equiv_pos_as_xyz
  1  'x, y, z'
loop_
 _atom_site_type_symbol
 _atom_site_label
 _atom_site_symmetry_multiplicity
 _atom_site_fract_x
 _atom_site_fract_y
 _atom_site_fract_z
 _atom_site_occupancy
  Zn  Zn0  1  0.37866000  0.55873000  0.55448000  1.0
  Zn  Zn1  1  0.59589000  0.59702000  0.45970000  1.0
  Zn  Zn2  1  0.37012000  0.36340000  0.42704000  1.0
  Zn  Zn3  1  0.58544000  0.37899000  0.56654000  1.0
  H  H4  1  0.28876000  0.11417000  0.77773000  1.0
  H  H5  1  0.76241000  0.28494000  0.35611000  1.0
  H  H6  1  0.34397000  0.80613000  0.35364000  1.0
  H  H7  1  0.49885000  0.90424000  0.28878000  1.0
  H  H8  1  0.82138000  0.83587000  0.89409000  1.0
  H  H9  1  0.57445000  0.87700000  0.73476000  1.0
  H  H10  1  0.83403000  0.56232000  0.09352000  1.0
  H  H11  1  0.52429000  0.16609000  0.96592000  1.0
  C  C12  1  0.81747000  0.48268000  0.51265000  1.0
  C  C13  1  0.57533000  0.52900000  0.98353000  1.0
  C  C14  1  0.47997000  0.53847000  0.02133000  1.0
  C  C15  1  0.14554000  0.44538000  0.46075000  1.0
  C  C16  1  0.48519000  0.52499000  0.24250000  1.0
  C  C17  1  0.00467000  0.43684000  0.45772000  1.0
  C  C18  1  0.95805000  0.48200000  0.51239000  1.0
  C  C19  1  0.48053000  0.00989000  0.47714000  1.0
  C  C20  1  0.51241000  0.94307000  0.53315000  1.0
  C  C21  1  0.50930000  0.80350000  0.52590000  1.0
  C  C22  1  0.47689000  0.14652000  0.48385000  1.0
  C  C23  1  0.54643000  0.51493000  0.90637000  1.0
  C  C24  1  0.48139000  0.51392000  0.31894000  1.0
  C  C25  1  0.48141000  0.46713000  0.68374000  1.0
  C  C26  1  0.49788000  0.48425000  0.76157000  1.0
  C  C27  1  0.45536000  0.38633000  0.80223000  1.0
  C  C28  1  0.48035000  0.40166000  0.87492000  1.0
  C  C29  1  0.37939000  0.27192000  0.76456000  1.0
  C  C30  1  0.43304000  0.74775000  0.10184000  1.0
  C  C31  1  0.92190000  0.38682000  0.39144000  1.0
  C  C32  1  0.03303000  0.53849000  0.57433000  1.0
  C  C33  1  0.44726000  0.94803000  0.40587000  1.0
  C  C34  1  0.58929000  0.61183000  0.86489000  1.0
  C  C35  1  0.54490000  0.98753000  0.60348000  1.0
  C  C36  1  0.57722000  0.33289000  0.24508000  1.0
  C  C37  1  0.42992000  0.73787000  0.25165000  1.0
  C  C38  1  0.35694000  0.55380000  0.98650000  1.0
  C  C39  1  0.67292000  0.72366000  0.90114000  1.0
  C  C40  1  0.55748000  0.32735000  0.09992000  1.0
  C  C41  1  0.59091000  0.70433000  0.74533000  1.0
  C  C42  1  0.71249000  0.53126000  0.01261000  1.0
  C  C43  1  0.44768000  0.29720000  0.92220000  1.0
  C  C44  1  0.56089000  0.59861000  0.79225000  1.0
  C  C45  1  0.52259000  0.43153000  0.13394000  1.0
  C  C46  1  0.52367000  0.42768000  0.20634000  1.0
  C  C47  1  0.45816000  0.63192000  0.20823000  1.0
  C  C48  1  0.46008000  0.63769000  0.13626000  1.0
  C  C49  1  0.48918000  0.53615000  0.09809000  1.0
  N  N50  1  0.41066000  0.83864000  0.07480000  1.0
  N  N51  1  0.08264000  0.58636000  0.62758000  1.0
  N  N52  1  0.57078000  0.00020000  0.66378000  1.0
  N  N53  1  0.63135000  0.26588000  0.28016000  1.0
  N  N54  1  0.25618000  0.57185000  0.96090000  1.0
  N  N55  1  0.58626000  0.23839000  0.07590000  1.0
  O  O56  1  0.48269000  0.47208000  0.49971000  1.0
  O  O57  1  0.55267000  0.59864000  0.35784000  1.0
  O  O58  1  0.56578000  0.41401000  0.66123000  1.0
  O  O59  1  0.41005000  0.41983000  0.33546000  1.0
  O  O60  1  0.39075000  0.51400000  0.64979000  1.0
  O  O61  1  0.35306000  0.26027000  0.70141000  1.0
  O  O62  1  0.33886000  0.18348000  0.80712000  1.0
  O  O63  1  0.94950000  0.41727000  0.33515000  1.0
  O  O64  1  0.81701000  0.31006000  0.40168000  1.0
  O  O65  1  0.50467000  0.98650000  0.35835000  1.0
  O  O66  1  0.35593000  0.85162000  0.40124000  1.0
  O  O67  1  0.42955000  0.74035000  0.55707000  1.0
  O  O68  1  0.34177000  0.72030000  0.28623000  1.0
  O  O69  1  0.50932000  0.84116000  0.25071000  1.0
  O  O70  1  0.66015000  0.76750000  0.95739000  1.0
  O  O71  1  0.76949000  0.76504000  0.86664000  1.0
  O  O72  1  0.63382000  0.69158000  0.69152000  1.0
  O  O73  1  0.55759000  0.81067000  0.76810000  1.0
  O  O74  1  0.79068000  0.50921000  0.97667000  1.0
  O  O75  1  0.74233000  0.56302000  0.08142000  1.0
  O  O76  1  0.35836000  0.28865000  0.95431000  1.0
  O  O77  1  0.53769000  0.22224000  0.92781000  1.0
  O  O78  1  0.53846000  0.20124000  0.53921000  1.0
  O  O79  1  0.76988000  0.55960000  0.47224000  1.0
  O  O80  1  0.18709000  0.36098000  0.42823000  1.0
  O  O81  1  0.76611000  0.41242000  0.55437000  1.0
  O  O82  1  0.21142000  0.53649000  0.49740000  1.0
  O  O83  1  0.58716000  0.76842000  0.48962000  1.0
  O  O84  1  0.40983000  0.19206000  0.43413000  1.0
