# generated using pymatgen
data_AlH8C13SO5
_symmetry_space_group_name_H-M   'P 1'
_cell_length_a   6.65630000
_cell_length_b   12.70065115
_cell_length_c   17.73472492
_cell_angle_alpha   85.58568889
_cell_angle_beta   79.49548708
_cell_angle_gamma   75.31432639
_symmetry_Int_Tables_number   1
_chemical_formula_structural   AlH8C13SO5
_chemical_formula_sum   'Al2 H16 C26 S2 O10'
_cell_volume   1425.25056546
_cell_formula_units_Z   2
loop_
 _symmetry_equiv_pos_site_id
 _symmetry_equiv_pos_as_xyz
  1  'x, y, z'
loop_
 _atom_site_type_symbol
 _atom_site_label
 _atom_site_symmetry_multiplicity
 _atom_site_fract_x
 _atom_site_fract_y
 _atom_site_fract_z
 _atom_site_occupancy
  Al  Al0  1  0.50004000  0.49999000  0.49996000  1.0
  Al  Al1  1  0.00005000  0.50000000  0.49995000  1.0
  H  H2  1  0.22782000  0.61348000  0.43359000  1.0
  H  H3  1  0.77199000  0.38686000  0.56667000  1.0
  H  H4  1  0.44375000  0.53536000  0.73293000  1.0
  H  H5  1  0.37066000  0.52997000  0.87700000  1.0
  H  H6  1  0.74319000  0.49893000  0.87237000  1.0
  H  H7  1  0.82018000  0.50344000  0.72837000  1.0
  H  H8  1  0.25708000  0.50083000  0.12760000  1.0
  H  H9  1  0.17998000  0.49636000  0.27161000  1.0
  H  H10  1  0.55627000  0.46471000  0.26700000  1.0
  H  H11  1  0.62944000  0.47008000  0.12293000  1.0
  H  H12  1  0.81623000  0.19968000  0.53269000  1.0
  H  H13  1  0.82626000  0.08237000  0.59485000  1.0
  H  H14  1  0.63337000  0.20600000  0.61929000  1.0
  H  H15  1  0.36660000  0.79394000  0.38084000  1.0
  H  H16  1  0.17386000  0.91768000  0.40514000  1.0
  H  H17  1  0.18339000  0.80048000  0.46737000  1.0
  C  C18  1  0.66291000  0.69572000  0.49995000  1.0
  C  C19  1  0.81425000  0.48605000  0.36257000  1.0
  C  C20  1  0.33710000  0.30430000  0.50003000  1.0
  C  C21  1  0.18580000  0.51393000  0.63738000  1.0
  C  C22  1  0.13692000  0.51827000  0.72267000  1.0
  C  C23  1  0.29149000  0.52723000  0.76440000  1.0
  C  C24  1  0.25092000  0.52426000  0.84403000  1.0
  C  C25  1  0.05329000  0.51250000  0.88395000  1.0
  C  C26  1  0.89629000  0.50679000  0.84150000  1.0
  C  C27  1  0.93853000  0.50932000  0.76189000  1.0
  C  C28  1  0.01505000  0.50458000  0.96500000  1.0
  C  C29  1  0.98517000  0.49530000  0.03496000  1.0
  C  C30  1  0.94690000  0.48739000  0.11601000  1.0
  C  C31  1  0.10394000  0.49303000  0.15846000  1.0
  C  C32  1  0.06167000  0.49050000  0.23807000  1.0
  C  C33  1  0.86319000  0.48165000  0.27728000  1.0
  C  C34  1  0.70858000  0.47276000  0.23554000  1.0
  C  C35  1  0.74920000  0.47571000  0.15592000  1.0
  C  C36  1  0.57152000  0.11762000  0.53077000  1.0
  C  C37  1  0.42830000  0.88238000  0.46936000  1.0
  C  C38  1  0.40386000  0.18519000  0.49988000  1.0
  C  C39  1  0.59601000  0.81482000  0.50021000  1.0
  C  C40  1  0.42111000  0.99256000  0.48086000  1.0
  C  C41  1  0.57860000  0.00745000  0.51932000  1.0
  C  C42  1  0.71988000  0.15319000  0.57169000  1.0
  C  C43  1  0.28003000  0.84684000  0.42837000  1.0
  S  S44  1  0.25926000  0.11556000  0.45841000  1.0
  S  S45  1  0.74055000  0.88444000  0.54172000  1.0
  O  O46  1  0.53198000  0.64576000  0.48446000  1.0
  O  O47  1  0.95122000  0.50928000  0.39600000  1.0
  O  O48  1  0.15271000  0.34951000  0.48559000  1.0
  O  O49  1  0.36240000  0.53049000  0.60440000  1.0
  O  O50  1  0.46808000  0.35425000  0.51549000  1.0
  O  O51  1  0.04880000  0.49071000  0.60395000  1.0
  O  O52  1  0.84739000  0.65053000  0.51432000  1.0
  O  O53  1  0.63767000  0.46948000  0.39554000  1.0
  O  O54  1  0.24467000  0.54652000  0.46438000  1.0
  O  O55  1  0.75541000  0.45350000  0.53554000  1.0
