# generated using pymatgen
data_Cd3H30C50(N2O7)2
_symmetry_space_group_name_H-M   'P 1'
_cell_length_a   13.91420000
_cell_length_b   14.13992878
_cell_length_c   14.69850000
_cell_angle_alpha   69.66662917
_cell_angle_beta   73.58400000
_cell_angle_gamma   60.68507205
_symmetry_Int_Tables_number   1
_chemical_formula_structural   Cd3H30C50(N2O7)2
_chemical_formula_sum   'Cd6 H60 C100 N8 O28'
_cell_volume   2341.93405610
_cell_formula_units_Z   2
loop_
 _symmetry_equiv_pos_site_id
 _symmetry_equiv_pos_as_xyz
  1  'x, y, z'
loop_
 _atom_site_type_symbol
 _atom_site_label
 _atom_site_symmetry_multiplicity
 _atom_site_fract_x
 _atom_site_fract_y
 _atom_site_fract_z
 _atom_site_occupancy
  Cd  Cd0  1  0.08994000  0.28973000  0.41601000  1.0
  Cd  Cd1  1  0.91006000  0.71027000  0.58399000  1.0
  Cd  Cd2  1  0.20046000  0.27303000  0.16654000  1.0
  Cd  Cd3  1  0.79954000  0.72697000  0.83347000  1.0
  Cd  Cd4  1  0.51400000  0.20255000  0.14190000  1.0
  Cd  Cd5  1  0.48600000  0.79745000  0.85810000  1.0
  H  H6  1  0.57588000  0.81489000  0.23694000  1.0
  H  H7  1  0.42412000  0.18510000  0.76306000  1.0
  H  H8  1  0.54678000  0.65046000  0.35338000  1.0
  H  H9  1  0.45321000  0.34954000  0.64663000  1.0
  H  H10  1  0.36604000  0.68483000  0.46746000  1.0
  H  H11  1  0.63396000  0.31516000  0.53254000  1.0
  H  H12  1  0.33514000  0.86791000  0.57424000  1.0
  H  H13  1  0.66486000  0.13209000  0.42576000  1.0
  H  H14  1  0.09619000  0.89311000  0.83483000  1.0
  H  H15  1  0.90381000  0.10688000  0.16517000  1.0
  H  H16  1  0.96048000  0.90182000  0.74603000  1.0
  H  H17  1  0.03952000  0.09818000  0.25397000  1.0
  H  H18  1  0.01165000  0.89810000  0.57162000  1.0
  H  H19  1  0.98833000  0.10191000  0.42839000  1.0
  H  H20  1  0.01189000  0.68494000  0.26182000  1.0
  H  H21  1  0.98811000  0.31505000  0.73817000  1.0
  H  H22  1  0.01628000  0.84169000  0.11657000  1.0
  H  H23  1  0.98372000  0.15830000  0.88342000  1.0
  H  H24  1  0.16326000  0.79825000  0.96986000  1.0
  H  H25  1  0.83674000  0.20174000  0.03014000  1.0
  H  H26  1  0.12375000  0.61526000  0.92503000  1.0
  H  H27  1  0.87625000  0.38474000  0.07496000  1.0
  H  H28  1  0.24303000  0.60230000  0.62458000  1.0
  H  H29  1  0.75698000  0.39770000  0.37540000  1.0
  H  H30  1  0.42613000  0.58444000  0.64213000  1.0
  H  H31  1  0.57388000  0.41556000  0.35787000  1.0
  H  H32  1  0.45459000  0.58689000  0.80147000  1.0
  H  H33  1  0.54543000  0.41310000  0.19853000  1.0
  H  H34  1  0.11591000  0.43200000  0.51700000  1.0
  H  H35  1  0.88408000  0.56800000  0.48301000  1.0
  H  H36  1  0.13999000  0.42713000  0.67996000  1.0
  H  H37  1  0.86001000  0.57286000  0.32004000  1.0
  H  H38  1  0.28893000  0.06504000  0.74380000  1.0
  H  H39  1  0.71106000  0.93495000  0.25622000  1.0
  H  H40  1  0.25628000  0.08690000  0.57667000  1.0
  H  H41  1  0.74371000  0.91310000  0.42333000  1.0
  H  H42  1  0.24430000  0.39184000  0.78354000  1.0
  H  H43  1  0.75570000  0.60815000  0.21646000  1.0
  H  H44  1  0.24612000  0.38676000  0.95314000  1.0
  H  H45  1  0.75390000  0.61322000  0.04686000  1.0
  H  H46  1  0.19722000  0.09954000  0.06720000  1.0
  H  H47  1  0.80279000  0.90045000  0.93280000  1.0
  H  H48  1  0.20195000  0.08612000  0.90053000  1.0
  H  H49  1  0.79805000  0.91387000  0.09947000  1.0
  H  H50  1  0.62549000  0.06698000  0.97827000  1.0
  H  H51  1  0.37452000  0.93304000  0.02172000  1.0
  H  H52  1  0.74387000  0.07828000  0.81428000  1.0
  H  H53  1  0.25613000  0.92173000  0.18571000  1.0
  H  H54  1  0.63119000  0.42856000  0.79543000  1.0
  H  H55  1  0.36881000  0.57145000  0.20457000  1.0
  H  H56  1  0.51716000  0.40272000  0.95675000  1.0
  H  H57  1  0.48284000  0.59729000  0.04326000  1.0
  H  H58  1  0.90853000  0.09208000  0.74961000  1.0
  H  H59  1  0.09148000  0.90793000  0.25039000  1.0
  H  H60  1  0.04722000  0.11161000  0.60535000  1.0
  H  H61  1  0.95278000  0.88840000  0.39464000  1.0
  H  H62  1  0.83039000  0.43817000  0.48817000  1.0
  H  H63  1  0.16961000  0.56183000  0.51182000  1.0
  H  H64  1  0.68235000  0.43398000  0.63010000  1.0
  H  H65  1  0.31765000  0.56603000  0.36989000  1.0
  C  C66  1  0.30080000  0.86315000  0.41243000  1.0
  C  C67  1  0.69919000  0.13685000  0.58757000  1.0
  C  C68  1  0.31726000  0.95539000  0.34849000  1.0
  C  C69  1  0.68273000  0.04461000  0.65151000  1.0
  C  C70  1  0.22405000  0.07068000  0.34683000  1.0
  C  C71  1  0.77594000  0.92932000  0.65317000  1.0
  C  C72  1  0.41877000  0.93681000  0.28554000  1.0
  C  C73  1  0.58123000  0.06319000  0.71447000  1.0
  C  C74  1  0.44735000  0.03092000  0.22009000  1.0
  C  C75  1  0.55265000  0.96907000  0.77991000  1.0
  C  C76  1  0.49946000  0.82668000  0.28771000  1.0
  C  C77  1  0.50053000  0.17332000  0.71229000  1.0
  C  C78  1  0.48266000  0.73559000  0.35287000  1.0
  C  C79  1  0.51733000  0.26441000  0.64713000  1.0
  C  C80  1  0.38304000  0.75377000  0.41641000  1.0
  C  C81  1  0.61697000  0.24622000  0.58359000  1.0
  C  C82  1  0.17508000  0.88454000  0.56243000  1.0
  C  C83  1  0.82491000  0.11547000  0.43757000  1.0
  C  C84  1  0.25217000  0.87756000  0.61080000  1.0
  C  C85  1  0.74783000  0.12244000  0.38920000  1.0
  C  C86  1  0.22278000  0.88085000  0.70958000  1.0
  C  C87  1  0.77722000  0.11915000  0.29043000  1.0
  C  C88  1  0.30659000  0.86488000  0.76593000  1.0
  C  C89  1  0.69341000  0.13513000  0.23407000  1.0
  C  C90  1  0.11700000  0.89188000  0.75798000  1.0
  C  C91  1  0.88300000  0.10812000  0.24203000  1.0
  C  C92  1  0.04163000  0.89732000  0.70875000  1.0
  C  C93  1  0.95835000  0.10269000  0.29126000  1.0
  C  C94  1  0.06974000  0.89423000  0.61079000  1.0
  C  C95  1  0.93026000  0.10577000  0.38922000  1.0
  C  C96  1  0.23246000  0.62186000  0.03578000  1.0
  C  C97  1  0.76755000  0.37813000  0.96422000  1.0
  C  C98  1  0.23336000  0.53397000  0.11790000  1.0
  C  C99  1  0.76665000  0.46602000  0.88210000  1.0
  C  C100  1  0.32833000  0.42024000  0.11685000  1.0
  C  C101  1  0.67167000  0.57976000  0.88315000  1.0
  C  C102  1  0.15085000  0.55723000  0.19927000  1.0
  C  C103  1  0.84916000  0.44276000  0.80073000  1.0
  C  C104  1  0.13927000  0.46601000  0.28538000  1.0
  C  C105  1  0.86074000  0.53398000  0.71463000  1.0
  C  C106  1  0.07353000  0.66851000  0.19749000  1.0
  C  C107  1  0.92646000  0.33149000  0.80251000  1.0
  C  C108  1  0.07605000  0.75543000  0.11589000  1.0
  C  C109  1  0.92396000  0.24456000  0.88411000  1.0
  C  C110  1  0.15549000  0.73260000  0.03383000  1.0
  C  C111  1  0.84451000  0.26739000  0.96617000  1.0
  C  C112  1  0.29285000  0.59818000  0.87263000  1.0
  C  C113  1  0.70716000  0.40181000  0.12737000  1.0
  C  C114  1  0.19121000  0.60696000  0.86415000  1.0
  C  C115  1  0.80880000  0.39304000  0.13584000  1.0
  C  C116  1  0.17405000  0.60811000  0.77410000  1.0
  C  C117  1  0.82596000  0.39189000  0.22589000  1.0
  C  C118  1  0.06214000  0.62487000  0.76169000  1.0
  C  C119  1  0.93787000  0.37513000  0.23829000  1.0
  C  C120  1  0.25919000  0.59843000  0.69440000  1.0
  C  C121  1  0.74082000  0.40158000  0.30559000  1.0
  C  C122  1  0.36055000  0.58881000  0.70465000  1.0
  C  C123  1  0.63946000  0.41118000  0.29534000  1.0
  C  C124  1  0.37797000  0.58940000  0.79315000  1.0
  C  C125  1  0.62204000  0.41060000  0.20684000  1.0
  C  C126  1  0.15546000  0.35277000  0.56927000  1.0
  C  C127  1  0.84453000  0.64723000  0.43074000  1.0
  C  C128  1  0.17042000  0.34875000  0.66017000  1.0
  C  C129  1  0.82958000  0.65124000  0.33984000  1.0
  C  C130  1  0.21516000  0.24457000  0.72700000  1.0
  C  C131  1  0.78483000  0.75542000  0.27301000  1.0
  C  C132  1  0.24930000  0.14801000  0.69614000  1.0
  C  C133  1  0.75069000  0.85199000  0.30387000  1.0
  C  C134  1  0.23232000  0.15953000  0.60323000  1.0
  C  C135  1  0.76768000  0.84046000  0.39678000  1.0
  C  C136  1  0.22062000  0.24022000  0.82716000  1.0
  C  C137  1  0.77938000  0.75977000  0.17285000  1.0
  C  C138  1  0.23346000  0.32488000  0.84374000  1.0
  C  C139  1  0.76655000  0.67511000  0.15627000  1.0
  C  C140  1  0.23421000  0.32331000  0.93824000  1.0
  C  C141  1  0.76579000  0.67668000  0.06177000  1.0
  C  C142  1  0.20889000  0.16154000  0.00155000  1.0
  C  C143  1  0.79113000  0.83844000  0.99845000  1.0
  C  C144  1  0.21000000  0.15553000  0.90881000  1.0
  C  C145  1  0.79001000  0.84446000  0.09119000  1.0
  C  C146  1  0.63034000  0.14497000  0.93445000  1.0
  C  C147  1  0.36966000  0.85504000  0.06554000  1.0
  C  C148  1  0.69672000  0.15174000  0.84417000  1.0
  C  C149  1  0.30327000  0.84828000  0.15583000  1.0
  C  C150  1  0.70169000  0.25388000  0.79221000  1.0
  C  C151  1  0.29830000  0.74614000  0.20779000  1.0
  C  C152  1  0.63183000  0.34676000  0.83142000  1.0
  C  C153  1  0.36816000  0.65326000  0.16859000  1.0
  C  C154  1  0.56812000  0.33287000  0.92255000  1.0
  C  C155  1  0.43187000  0.66715000  0.07745000  1.0
  C  C156  1  0.78247000  0.26176000  0.70320000  1.0
  C  C157  1  0.21752000  0.73826000  0.29680000  1.0
  C  C158  1  0.88659000  0.17076000  0.69364000  1.0
  C  C159  1  0.11341000  0.82926000  0.30635000  1.0
  C  C160  1  0.96528000  0.18142000  0.61311000  1.0
  C  C161  1  0.03471000  0.81860000  0.38689000  1.0
  C  C162  1  0.84439000  0.36363000  0.54867000  1.0
  C  C163  1  0.15560000  0.63638000  0.45132000  1.0
  C  C164  1  0.76195000  0.36026000  0.62768000  1.0
  C  C165  1  0.23804000  0.63975000  0.37231000  1.0
  N  N166  1  0.18375000  0.26041000  0.54143000  1.0
  N  N167  1  0.81624000  0.73959000  0.45858000  1.0
  N  N168  1  0.22120000  0.24345000  0.01643000  1.0
  N  N169  1  0.77881000  0.75653000  0.98358000  1.0
  N  N170  1  0.56967000  0.23310000  0.97459000  1.0
  N  N171  1  0.43032000  0.76692000  0.02541000  1.0
  N  N172  1  0.94527000  0.27651000  0.54163000  1.0
  N  N173  1  0.05472000  0.72350000  0.45836000  1.0
  O  O174  1  0.53926000  0.00777000  0.16417000  1.0
  O  O175  1  0.46074000  0.99223000  0.83583000  1.0
  O  O176  1  0.38061000  0.13216000  0.22712000  1.0
  O  O177  1  0.61939000  0.86783000  0.77289000  1.0
  O  O178  1  0.19964000  0.10582000  0.42259000  1.0
  O  O179  1  0.80037000  0.89417000  0.57741000  1.0
  O  O180  1  0.17478000  0.12244000  0.27112000  1.0
  O  O181  1  0.82522000  0.87756000  0.72888000  1.0
  O  O182  1  0.19588000  0.88149000  0.46541000  1.0
  O  O183  1  0.80412000  0.11851000  0.53459000  1.0
  O  O184  1  0.27641000  0.87451000  0.85378000  1.0
  O  O185  1  0.72356000  0.12552000  0.14622000  1.0
  O  O186  1  0.40715000  0.83908000  0.72340000  1.0
  O  O187  1  0.59285000  0.16091000  0.27661000  1.0
  O  O188  1  0.07819000  0.48962000  0.36334000  1.0
  O  O189  1  0.92180000  0.51039000  0.63666000  1.0
  O  O190  1  0.19021000  0.36389000  0.27601000  1.0
  O  O191  1  0.80980000  0.63610000  0.72400000  1.0
  O  O192  1  0.41504000  0.39528000  0.14930000  1.0
  O  O193  1  0.58497000  0.60471000  0.85071000  1.0
  O  O194  1  0.31979000  0.35573000  0.07980000  1.0
  O  O195  1  0.68021000  0.64427000  0.92021000  1.0
  O  O196  1  0.31775000  0.59648000  0.95825000  1.0
  O  O197  1  0.68225000  0.40351000  0.04175000  1.0
  O  O198  1  0.05286000  0.62438000  0.67798000  1.0
  O  O199  1  0.94715000  0.37562000  0.32201000  1.0
  O  O200  1  0.98657000  0.63808000  0.83549000  1.0
  O  O201  1  0.01344000  0.36192000  0.16450000  1.0
