# generated using pymatgen
data_SnH22C24(NCl)2
_symmetry_space_group_name_H-M   'P 1'
_cell_length_a   9.86900000
_cell_length_b   9.90240000
_cell_length_c   13.29500000
_cell_angle_alpha   71.77670000
_cell_angle_beta   71.71290000
_cell_angle_gamma   73.50430000
_symmetry_Int_Tables_number   1
_chemical_formula_structural   SnH22C24(NCl)2
_chemical_formula_sum   'Sn2 H44 C48 N4 Cl4'
_cell_volume   1146.64364467
_cell_formula_units_Z   2
loop_
 _symmetry_equiv_pos_site_id
 _symmetry_equiv_pos_as_xyz
  1  'x, y, z'
loop_
 _atom_site_type_symbol
 _atom_site_label
 _atom_site_symmetry_multiplicity
 _atom_site_fract_x
 _atom_site_fract_y
 _atom_site_fract_z
 _atom_site_occupancy
  Sn  Sn0  1  0.72358000  0.27651000  0.75004000  1.0
  Sn  Sn1  1  0.27642000  0.72349000  0.24996000  1.0
  H  H2  1  0.44957000  0.41697000  0.64384000  1.0
  H  H3  1  0.58330000  0.55013000  0.85634000  1.0
  H  H4  1  0.55043000  0.58303000  0.35617000  1.0
  H  H5  1  0.41670000  0.44987000  0.14366000  1.0
  H  H6  1  0.23441000  0.62394000  0.63995000  1.0
  H  H7  1  0.37637000  0.76527000  0.85989000  1.0
  H  H8  1  0.76559000  0.37606000  0.36005000  1.0
  H  H9  1  0.62363000  0.23473000  0.14011000  1.0
  H  H10  1  0.12201000  0.83117000  0.92176000  1.0
  H  H11  1  0.16884000  0.87781000  0.57818000  1.0
  H  H12  1  0.87799000  0.16883000  0.07824000  1.0
  H  H13  1  0.83116000  0.12219000  0.42182000  1.0
  H  H14  1  0.91094000  0.04301000  0.91438000  1.0
  H  H15  1  0.95717000  0.08909000  0.58561000  1.0
  H  H16  1  0.08906000  0.95699000  0.08562000  1.0
  H  H17  1  0.04283000  0.91091000  0.41439000  1.0
  H  H18  1  0.91988000  0.35921000  0.56315000  1.0
  H  H19  1  0.64151000  0.08011000  0.93670000  1.0
  H  H20  1  0.08012000  0.64079000  0.43685000  1.0
  H  H21  1  0.35849000  0.91989000  0.06330000  1.0
  H  H22  1  0.97037000  0.37790000  0.67613000  1.0
  H  H23  1  0.62260000  0.02997000  0.82368000  1.0
  H  H24  1  0.02963000  0.62210000  0.32387000  1.0
  H  H25  1  0.37739000  0.97003000  0.17632000  1.0
  H  H26  1  0.72732000  0.55419000  0.48349000  1.0
  H  H27  1  0.44624000  0.27243000  0.01647000  1.0
  H  H28  1  0.27268000  0.44581000  0.51651000  1.0
  H  H29  1  0.55376000  0.72757000  0.98353000  1.0
  H  H30  1  0.60701000  0.81479000  0.44629000  1.0
  H  H31  1  0.18491000  0.39307000  0.05365000  1.0
  H  H32  1  0.39299000  0.18521000  0.55371000  1.0
  H  H33  1  0.81509000  0.60693000  0.94635000  1.0
  H  H34  1  0.63323000  0.97608000  0.54905000  1.0
  H  H35  1  0.02311000  0.36710000  0.95093000  1.0
  H  H36  1  0.36677000  0.02392000  0.45095000  1.0
  H  H37  1  0.97689000  0.63290000  0.04907000  1.0
  H  H38  1  0.77794000  0.87293000  0.68776000  1.0
  H  H39  1  0.12631000  0.22243000  0.81233000  1.0
  H  H40  1  0.22206000  0.12707000  0.31224000  1.0
  H  H41  1  0.87369000  0.77757000  0.18767000  1.0
  H  H42  1  0.89587000  0.61012000  0.72636000  1.0
  H  H43  1  0.38985000  0.10424000  0.77378000  1.0
  H  H44  1  0.10413000  0.38988000  0.27364000  1.0
  H  H45  1  0.61015000  0.89576000  0.22622000  1.0
  C  C46  1  0.42746000  0.49667000  0.69093000  1.0
  C  C47  1  0.50344000  0.57227000  0.80922000  1.0
  C  C48  1  0.57254000  0.50333000  0.30907000  1.0
  C  C49  1  0.49657000  0.42773000  0.19078000  1.0
  C  C50  1  0.30884000  0.61231000  0.68902000  1.0
  C  C51  1  0.38785000  0.69092000  0.81093000  1.0
  C  C52  1  0.69116000  0.38768000  0.31098000  1.0
  C  C53  1  0.61215000  0.30908000  0.18907000  1.0
  C  C54  1  0.28732000  0.71260000  0.74995000  1.0
  C  C55  1  0.71268000  0.28740000  0.25005000  1.0
  C  C56  1  0.16280000  0.83713000  0.74995000  1.0
  C  C57  1  0.83720000  0.16287000  0.25005000  1.0
  C  C58  1  0.08974000  0.88575000  0.84524000  1.0
  C  C59  1  0.11427000  0.91018000  0.65471000  1.0
  C  C60  1  0.91026000  0.11425000  0.15476000  1.0
  C  C61  1  0.88573000  0.08982000  0.34529000  1.0
  C  C62  1  0.97213000  0.00250000  0.84205000  1.0
  C  C63  1  0.99768000  0.02793000  0.65789000  1.0
  C  C64  1  0.02787000  0.99750000  0.15795000  1.0
  C  C65  1  0.00232000  0.97207000  0.34211000  1.0
  C  C66  1  0.88293000  0.40588000  0.63424000  1.0
  C  C67  1  0.59460000  0.11700000  0.86572000  1.0
  C  C68  1  0.11707000  0.59412000  0.36576000  1.0
  C  C69  1  0.40539000  0.88300000  0.13428000  1.0
  C  C70  1  0.82038000  0.56381000  0.60726000  1.0
  C  C71  1  0.43624000  0.17950000  0.89289000  1.0
  C  C72  1  0.17962000  0.43618000  0.39274000  1.0
  C  C73  1  0.56376000  0.82050000  0.10711000  1.0
  C  C74  1  0.73939000  0.62469000  0.52761000  1.0
  C  C75  1  0.37541000  0.26048000  0.97245000  1.0
  C  C76  1  0.26061000  0.37531000  0.47239000  1.0
  C  C77  1  0.62459000  0.73952000  0.02755000  1.0
  C  C78  1  0.67206000  0.77132000  0.50669000  1.0
  C  C79  1  0.22840000  0.32803000  0.99332000  1.0
  C  C80  1  0.32794000  0.22867000  0.49331000  1.0
  C  C81  1  0.77160000  0.67197000  0.00668000  1.0
  C  C82  1  0.68529000  0.86121000  0.56456000  1.0
  C  C83  1  0.13827000  0.31496000  0.93544000  1.0
  C  C84  1  0.31471000  0.13879000  0.43545000  1.0
  C  C85  1  0.86173000  0.68503000  0.06457000  1.0
  C  C86  1  0.76742000  0.80298000  0.64261000  1.0
  C  C87  1  0.19648000  0.23286000  0.85745000  1.0
  C  C88  1  0.23258000  0.19702000  0.35739000  1.0
  C  C89  1  0.80352000  0.76715000  0.14254000  1.0
  C  C90  1  0.83407000  0.65586000  0.66392000  1.0
  C  C91  1  0.34396000  0.16601000  0.83619000  1.0
  C  C92  1  0.16593000  0.34414000  0.33608000  1.0
  C  C93  1  0.65604000  0.83399000  0.16381000  1.0
  N  N94  1  0.52293000  0.47687000  0.75018000  1.0
  N  N95  1  0.47707000  0.52313000  0.24982000  1.0
  N  N96  1  0.92744000  0.07289000  0.74995000  1.0
  N  N97  1  0.07256000  0.92710000  0.25005000  1.0
  Cl  Cl98  1  0.77472000  0.33098000  0.91104000  1.0
  Cl  Cl99  1  0.66888000  0.22531000  0.58905000  1.0
  Cl  Cl100  1  0.22528000  0.66901000  0.08896000  1.0
  Cl  Cl101  1  0.33112000  0.77469000  0.41095000  1.0
