# generated using pymatgen
data_Zn4H47C72N20Cl
_symmetry_space_group_name_H-M   'P 1'
_cell_length_a   19.37410000
_cell_length_b   19.95500000
_cell_length_c   21.21870000
_cell_angle_alpha   114.62600000
_cell_angle_beta   94.85300000
_cell_angle_gamma   114.85400000
_symmetry_Int_Tables_number   1
_chemical_formula_structural   Zn4H47C72N20Cl
_chemical_formula_sum   'Zn4 H47 C72 N20 Cl1'
_cell_volume   6422.33788953
_cell_formula_units_Z   1
loop_
 _symmetry_equiv_pos_site_id
 _symmetry_equiv_pos_as_xyz
  1  'x, y, z'
loop_
 _atom_site_type_symbol
 _atom_site_label
 _atom_site_symmetry_multiplicity
 _atom_site_fract_x
 _atom_site_fract_y
 _atom_site_fract_z
 _atom_site_occupancy
  Zn  Zn0  1  0.12196000  0.12575000  0.52021000  1.0
  Zn  Zn1  1  0.90213000  0.88387000  0.51122000  1.0
  Zn  Zn2  1  0.01992000  0.90379000  0.40456000  1.0
  Zn  Zn3  1  0.00352000  0.10857000  0.62724000  1.0
  H  H4  1  0.17175000  0.16006000  0.37841000  1.0
  H  H5  1  0.90503000  0.72437000  0.53155000  1.0
  H  H6  1  0.19369000  0.89463000  0.40268000  1.0
  H  H7  1  0.02905000  0.10327000  0.78804000  1.0
  H  H8  1  0.02571000  0.88010000  0.62431000  1.0
  H  H9  1  0.23580000  0.09582000  0.61585000  1.0
  H  H10  1  0.15144000  0.15050000  0.75235000  1.0
  H  H11  1  0.11157000  0.82125000  0.46283000  1.0
  H  H12  1  0.98724000  0.51520000  0.62442000  1.0
  H  H13  1  0.97070000  0.38746000  0.62660000  1.0
  H  H14  1  0.15975000  0.39659000  0.53114000  1.0
  H  H15  1  0.72102000  0.85197000  0.52896000  1.0
  H  H16  1  0.17664000  0.52488000  0.52915000  1.0
  H  H17  1  0.11631000  0.56482000  0.46685000  1.0
  H  H18  1  0.08963000  0.65964000  0.43614000  1.0
  H  H19  1  0.02225000  0.74603000  0.63027000  1.0
  H  H20  1  0.05051000  0.65272000  0.66200000  1.0
  H  H21  1  0.49506000  0.87066000  0.58082000  1.0
  H  H22  1  0.62000000  0.86929000  0.57155000  1.0
  H  H23  1  0.72470000  0.11851000  0.59225000  1.0
  H  H24  1  0.59996000  0.12007000  0.60261000  1.0
  H  H25  1  0.50595000  0.12341000  0.66772000  1.0
  H  H26  1  0.88286000  0.74173000  0.24187000  1.0
  H  H27  1  0.38011000  0.12318000  0.63707000  1.0
  H  H28  1  0.26533000  0.85728000  0.47339000  1.0
  H  H29  1  0.39176000  0.85846000  0.50234000  1.0
  H  H30  1  0.78473000  0.60782000  0.16475000  1.0
  H  H31  1  0.67149000  0.48063000  0.05668000  1.0
  H  H32  1  0.53353000  0.36672000  0.85326000  1.0
  H  H33  1  0.41882000  0.29294000  0.74082000  1.0
  H  H34  1  0.61782000  0.65638000  0.27241000  1.0
  H  H35  1  0.36992000  0.31421000  0.97332000  1.0
  H  H36  1  0.50485000  0.52541000  0.16466000  1.0
  H  H37  1  0.00528000  0.29766000  0.66817000  1.0
  H  H38  1  0.25490000  0.23973000  0.86195000  1.0
  H  H39  1  0.14812000  0.11231000  0.86458000  1.0
  H  H40  1  0.17552000  0.09702000  0.97323000  1.0
  H  H41  1  0.24760000  0.10461000  0.16791000  1.0
  H  H42  1  0.21285000  0.10968000  0.27912000  1.0
  H  H43  1  0.00351000  0.83878000  0.72998000  1.0
  H  H44  1  0.00251000  0.91397000  0.03763000  1.0
  H  H45  1  0.03151000  0.82455000  0.83933000  1.0
  H  H46  1  0.73538000  0.77135000  0.38225000  1.0
  H  H47  1  0.07981000  0.23415000  0.47461000  1.0
  H  H48  1  0.84932000  0.12027000  0.59538000  1.0
  H  H49  1  0.96300000  0.90664000  0.26927000  1.0
  H  H50  1  0.30908000  0.27635000  0.65573000  1.0
  C  C51  1  0.12062000  0.09862000  0.36281000  1.0
  C  C52  1  0.75372000  0.98868000  0.56793000  1.0
  C  C53  1  0.77818000  0.72172000  0.28619000  1.0
  C  C54  1  0.04888000  0.30096000  0.57345000  1.0
  C  C55  1  0.25965000  0.24074000  0.67031000  1.0
  C  C56  1  0.95072000  0.75540000  0.51120000  1.0
  C  C57  1  0.19270000  0.94398000  0.45027000  1.0
  C  C58  1  0.02351000  0.05067000  0.73867000  1.0
  C  C59  1  0.02050000  0.93595000  0.65487000  1.0
  C  C60  1  0.21438000  0.04732000  0.55876000  1.0
  C  C61  1  0.17879000  0.17693000  0.71961000  1.0
  C  C62  1  0.76385000  0.91731000  0.54488000  1.0
  C  C63  1  0.05563000  0.80425000  0.47536000  1.0
  C  C64  1  0.26052000  0.22912000  0.73138000  1.0
  C  C65  1  0.02136000  0.75275000  0.50602000  1.0
  C  C66  1  0.24388000  0.99340000  0.52274000  1.0
  C  C67  1  0.04217000  0.98732000  0.73097000  1.0
  C  C68  1  0.02645000  0.49047000  0.60498000  1.0
  C  C69  1  0.01679000  0.41786000  0.60593000  1.0
  C  C70  1  0.06228000  0.38041000  0.57698000  1.0
  C  C71  1  0.12082000  0.42176000  0.55068000  1.0
  C  C72  1  0.13042000  0.49444000  0.54972000  1.0
  C  C73  1  0.85790000  0.75965000  0.28592000  1.0
  C  C74  1  0.08192000  0.52928000  0.57509000  1.0
  C  C75  1  0.09684000  0.60541000  0.50375000  1.0
  C  C76  1  0.08144000  0.65869000  0.48608000  1.0
  C  C77  1  0.04969000  0.70642000  0.52877000  1.0
  C  C78  1  0.04156000  0.70505000  0.59356000  1.0
  C  C79  1  0.05752000  0.65237000  0.61141000  1.0
  C  C80  1  0.08164000  0.59800000  0.56493000  1.0
  C  C81  1  0.54514000  0.92505000  0.58279000  1.0
  C  C82  1  0.61585000  0.92430000  0.57735000  1.0
  C  C83  1  0.68176000  0.99269000  0.57890000  1.0
  C  C84  1  0.02185000  0.26972000  0.62029000  1.0
  C  C85  1  0.67500000  0.06411000  0.59057000  1.0
  C  C86  1  0.60458000  0.06530000  0.59684000  1.0
  C  C87  1  0.53720000  0.99486000  0.59094000  1.0
  C  C88  1  0.45348000  0.06506000  0.62426000  1.0
  C  C89  1  0.38232000  0.06477000  0.60733000  1.0
  C  C90  1  0.31433000  0.99132000  0.55015000  1.0
  C  C91  1  0.31828000  0.91624000  0.51570000  1.0
  C  C92  1  0.38928000  0.91652000  0.53276000  1.0
  C  C93  1  0.45947000  0.99198000  0.58501000  1.0
  C  C94  1  0.32824000  0.26418000  0.79381000  1.0
  C  C95  1  0.78274000  0.77560000  0.35740000  1.0
  C  C96  1  0.31595000  0.26757000  0.85959000  1.0
  C  C97  1  0.37967000  0.30880000  0.92201000  1.0
  C  C98  1  0.45877000  0.34791000  0.92044000  1.0
  C  C99  1  0.47181000  0.33819000  0.85380000  1.0
  C  C100  1  0.40751000  0.29760000  0.79161000  1.0
  C  C101  1  0.66062000  0.51938000  0.10437000  1.0
  C  C102  1  0.72340000  0.59118000  0.16467000  1.0
  C  C103  1  0.58104000  0.49657000  0.10362000  1.0
  C  C104  1  0.71008000  0.64377000  0.22592000  1.0
  C  C105  1  0.63032000  0.61781000  0.22585000  1.0
  C  C106  1  0.06114000  0.23790000  0.52227000  1.0
  C  C107  1  0.56691000  0.54484000  0.16599000  1.0
  C  C108  1  0.08691000  0.01872000  0.22394000  1.0
  C  C109  1  0.02885000  0.96253000  0.15371000  1.0
  C  C110  1  0.04847000  0.95632000  0.09088000  1.0
  C  C111  1  0.12740000  0.00794000  0.09549000  1.0
  C  C112  1  0.18639000  0.06457000  0.16434000  1.0
  C  C113  1  0.16614000  0.06790000  0.22620000  1.0
  C  C114  1  0.13891000  0.04119000  0.91938000  1.0
  C  C115  1  0.12259000  0.04900000  0.85882000  1.0
  C  C116  1  0.10340000  0.95988000  0.91293000  1.0
  C  C117  1  0.82910000  0.05383000  0.57812000  1.0
  C  C118  1  0.07107000  0.97674000  0.79005000  1.0
  C  C119  1  0.04267000  0.89547000  0.78283000  1.0
  C  C120  1  0.05790000  0.88707000  0.84351000  1.0
  C  C121  1  0.01342000  0.96971000  0.30708000  1.0
  C  C122  1  0.07156000  0.02836000  0.29246000  1.0
  N  N123  1  0.09424000  0.08135000  0.41366000  1.0
  N  N124  1  0.94414000  0.80467000  0.48567000  1.0
  N  N125  1  0.13809000  0.96757000  0.44375000  1.0
  N  N126  1  0.99263000  0.03701000  0.67246000  1.0
  N  N127  1  0.99086000  0.96590000  0.61995000  1.0
  N  N128  1  0.15129000  0.03204000  0.51134000  1.0
  N  N129  1  0.13323000  0.15902000  0.65714000  1.0
  N  N130  1  0.00958000  0.83599000  0.46411000  1.0
  N  N131  1  0.52751000  0.40364000  0.98246000  1.0
  N  N132  1  0.51269000  0.43224000  0.04241000  1.0
  N  N133  1  0.14727000  0.01253000  0.03478000  1.0
  N  N134  1  0.83923000  0.93951000  0.54331000  1.0
  N  N135  1  0.09968000  0.94745000  0.97330000  1.0
  N  N136  1  0.90478000  0.82871000  0.35157000  1.0
  N  N137  1  0.02002000  0.19515000  0.59874000  1.0
  N  N138  1  0.85913000  0.83930000  0.39646000  1.0
  N  N139  1  0.04389000  0.17467000  0.53792000  1.0
  N  N140  1  0.88015000  0.02390000  0.56358000  1.0
  N  N141  1  0.02819000  0.00135000  0.37978000  1.0
  N  N142  1  0.18361000  0.19923000  0.62682000  1.0
  Cl  Cl143  1  0.92826000  0.90057000  0.14248000  1.0
