# generated using pymatgen
data_Cu2H29C25(NO3)3
_symmetry_space_group_name_H-M   'P 1'
_cell_length_a   6.73784000
_cell_length_b   13.75090000
_cell_length_c   14.39490000
_cell_angle_alpha   77.02020000
_cell_angle_beta   88.99010000
_cell_angle_gamma   85.27570000
_symmetry_Int_Tables_number   1
_chemical_formula_structural   Cu2H29C25(NO3)3
_chemical_formula_sum   'Cu4 H58 C50 N6 O18'
_cell_volume   1295.21402861
_cell_formula_units_Z   2
loop_
 _symmetry_equiv_pos_site_id
 _symmetry_equiv_pos_as_xyz
  1  'x, y, z'
loop_
 _atom_site_type_symbol
 _atom_site_label
 _atom_site_symmetry_multiplicity
 _atom_site_fract_x
 _atom_site_fract_y
 _atom_site_fract_z
 _atom_site_occupancy
  Cu  Cu0  1  0.06678000  0.00214000  0.91446000  1.0
  Cu  Cu1  1  0.93322000  0.99786000  0.08554000  1.0
  Cu  Cu2  1  0.44959000  0.41639000  0.55331000  1.0
  Cu  Cu3  1  0.55039000  0.58360000  0.44670000  1.0
  H  H4  1  0.76124000  0.08791000  0.75004000  1.0
  H  H5  1  0.23877000  0.91209000  0.24996000  1.0
  H  H6  1  0.43590000  0.07872000  0.81625000  1.0
  H  H7  1  0.56410000  0.92129000  0.18375000  1.0
  H  H8  1  0.61484000  0.92024000  0.59801000  1.0
  H  H9  1  0.38518000  0.07976000  0.40199000  1.0
  H  H10  1  0.30385000  0.83256000  0.63159000  1.0
  H  H11  1  0.69616000  0.16744000  0.36841000  1.0
  H  H12  1  0.06679000  0.87551000  0.75699000  1.0
  H  H13  1  0.93322000  0.12449000  0.24301000  1.0
  H  H14  1  0.13582000  0.34400000  0.70086000  1.0
  H  H15  1  0.86419000  0.65599000  0.29915000  1.0
  H  H16  1  0.84789000  0.24172000  0.70506000  1.0
  H  H17  1  0.15212000  0.75827000  0.29495000  1.0
  H  H18  1  0.17936000  0.07979000  0.52066000  1.0
  H  H19  1  0.82064000  0.92021000  0.47933000  1.0
  H  H20  1  0.45369000  0.19521000  0.52022000  1.0
  H  H21  1  0.54631000  0.80479000  0.47977000  1.0
  H  H22  1  0.47878000  0.19912000  0.84176000  1.0
  H  H23  1  0.52122000  0.80088000  0.15824000  1.0
  H  H24  1  0.65769000  0.28554000  0.83261000  1.0
  H  H25  1  0.34231000  0.71446000  0.16738000  1.0
  H  H26  1  0.48364000  0.16783000  0.08709000  1.0
  H  H27  1  0.51638000  0.83217000  0.91291000  1.0
  H  H28  1  0.27963000  0.25724000  0.08089000  1.0
  H  H29  1  0.72039000  0.74276000  0.91911000  1.0
  H  H30  1  0.19030000  0.30700000  0.86929000  1.0
  H  H31  1  0.80970000  0.69300000  0.13071000  1.0
  H  H32  1  0.36138000  0.40002000  0.83298000  1.0
  H  H33  1  0.63861000  0.59998000  0.16701000  1.0
  H  H34  1  0.21733000  0.39766000  0.93837000  1.0
  H  H35  1  0.78268000  0.60234000  0.06163000  1.0
  H  H36  1  0.51797000  0.38475000  0.04436000  1.0
  H  H37  1  0.48206000  0.61525000  0.95563000  1.0
  H  H38  1  0.66636000  0.39877000  0.93962000  1.0
  H  H39  1  0.33365000  0.60123000  0.06037000  1.0
  H  H40  1  0.72191000  0.29570000  0.03785000  1.0
  H  H41  1  0.27811000  0.70430000  0.96214000  1.0
  H  H42  1  0.20811000  0.50263000  0.21485000  1.0
  H  H43  1  0.79189000  0.49735000  0.78515000  1.0
  H  H44  1  0.00416000  0.53931000  0.28075000  1.0
  H  H45  1  0.99584000  0.46068000  0.71924000  1.0
  H  H46  1  0.88465000  0.26654000  0.38480000  1.0
  H  H47  1  0.11535000  0.73346000  0.61521000  1.0
  H  H48  1  0.05053000  0.32357000  0.44378000  1.0
  H  H49  1  0.94946000  0.67644000  0.55622000  1.0
  H  H50  1  0.76951000  0.44209000  0.21457000  1.0
  H  H51  1  0.23048000  0.55791000  0.78543000  1.0
  H  H52  1  0.84256000  0.31653000  0.20791000  1.0
  H  H53  1  0.15742000  0.68346000  0.79210000  1.0
  H  H54  1  0.96950000  0.41647000  0.13911000  1.0
  H  H55  1  0.03049000  0.58351000  0.86089000  1.0
  H  H56  1  0.29701000  0.32544000  0.21386000  1.0
  H  H57  1  0.70297000  0.67455000  0.78615000  1.0
  H  H58  1  0.16301000  0.22849000  0.28264000  1.0
  H  H59  1  0.83697000  0.77150000  0.71737000  1.0
  H  H60  1  0.32492000  0.29257000  0.33996000  1.0
  H  H61  1  0.67507000  0.70742000  0.66005000  1.0
  C  C62  1  0.41156000  0.02507000  0.77318000  1.0
  C  C63  1  0.58844000  0.97493000  0.22681000  1.0
  C  C64  1  0.55103000  0.00713000  0.70428000  1.0
  C  C65  1  0.44897000  0.99288000  0.29572000  1.0
  C  C66  1  0.51191000  0.93604000  0.65240000  1.0
  C  C67  1  0.48809000  0.06397000  0.34760000  1.0
  C  C68  1  0.33784000  0.88731000  0.67178000  1.0
  C  C69  1  0.66216000  0.11269000  0.32822000  1.0
  C  C70  1  0.20582000  0.91105000  0.74024000  1.0
  C  C71  1  0.79418000  0.08895000  0.25976000  1.0
  C  C72  1  0.14062000  0.28414000  0.66249000  1.0
  C  C73  1  0.85939000  0.71586000  0.33751000  1.0
  C  C74  1  0.98097000  0.22560000  0.66567000  1.0
  C  C75  1  0.01903000  0.77440000  0.33433000  1.0
  C  C76  1  0.99379000  0.15051000  0.61418000  1.0
  C  C77  1  0.00621000  0.84950000  0.38582000  1.0
  C  C78  1  0.16633000  0.13819000  0.56112000  1.0
  C  C79  1  0.83366000  0.86181000  0.43887000  1.0
  C  C80  1  0.31762000  0.20118000  0.56151000  1.0
  C  C81  1  0.68238000  0.79882000  0.43849000  1.0
  C  C82  1  0.82774000  0.08568000  0.60990000  1.0
  C  C83  1  0.17226000  0.91432000  0.39010000  1.0
  C  C84  1  0.73735000  0.14374000  0.92436000  1.0
  C  C85  1  0.26265000  0.85627000  0.07565000  1.0
  C  C86  1  0.58241000  0.22871000  0.88446000  1.0
  C  C87  1  0.41759000  0.77130000  0.11554000  1.0
  C  C88  1  0.46222000  0.28094000  0.95428000  1.0
  C  C89  1  0.53779000  0.71907000  0.04572000  1.0
  C  C90  1  0.36661000  0.21085000  0.03915000  1.0
  C  C91  1  0.63340000  0.78915000  0.96085000  1.0
  C  C92  1  0.23014000  0.13362000  0.02249000  1.0
  C  C93  1  0.76986000  0.86638000  0.97751000  1.0
  C  C94  1  0.29792000  0.35065000  0.89525000  1.0
  C  C95  1  0.70209000  0.64936000  0.10475000  1.0
  C  C96  1  0.60050000  0.34356000  0.99670000  1.0
  C  C97  1  0.39952000  0.65644000  0.00330000  1.0
  C  C98  1  0.26783000  0.49507000  0.36096000  1.0
  C  C99  1  0.73215000  0.50493000  0.63904000  1.0
  C  C100  1  0.12861000  0.48218000  0.28309000  1.0
  C  C101  1  0.87138000  0.51781000  0.71690000  1.0
  C  C102  1  0.04505000  0.37950000  0.29107000  1.0
  C  C103  1  0.95493000  0.62049000  0.70894000  1.0
  C  C104  1  0.93989000  0.33910000  0.38627000  1.0
  C  C105  1  0.06010000  0.66090000  0.61374000  1.0
  C  C106  1  0.77121000  0.40084000  0.42275000  1.0
  C  C107  1  0.22878000  0.59916000  0.57725000  1.0
  C  C108  1  0.89798000  0.38940000  0.20841000  1.0
  C  C109  1  0.10201000  0.61059000  0.79160000  1.0
  C  C110  1  0.21752000  0.30191000  0.28156000  1.0
  C  C111  1  0.78247000  0.69809000  0.71845000  1.0
  N  N112  1  0.30589000  0.27391000  0.61088000  1.0
  N  N113  1  0.69412000  0.72609000  0.38912000  1.0
  N  N114  1  0.24273000  0.97958000  0.79009000  1.0
  N  N115  1  0.75727000  0.02042000  0.20990000  1.0
  N  N116  1  0.71985000  0.06149000  0.69214000  1.0
  N  N117  1  0.28014000  0.93852000  0.30786000  1.0
  O  O118  1  0.84799000  0.10987000  0.86331000  1.0
  O  O119  1  0.15200000  0.89013000  0.13669000  1.0
  O  O120  1  0.74858000  0.11119000  0.01363000  1.0
  O  O121  1  0.25146000  0.88882000  0.98637000  1.0
  O  O122  1  0.12301000  0.09860000  0.09433000  1.0
  O  O123  1  0.87699000  0.90139000  0.90567000  1.0
  O  O124  1  0.23313000  0.10756000  0.94284000  1.0
  O  O125  1  0.76687000  0.89245000  0.05716000  1.0
  O  O126  1  0.27758000  0.42843000  0.43821000  1.0
  O  O127  1  0.72244000  0.57156000  0.56179000  1.0
  O  O128  1  0.36311000  0.57362000  0.34256000  1.0
  O  O129  1  0.63686000  0.42639000  0.65744000  1.0
  O  O130  1  0.66581000  0.35015000  0.48775000  1.0
  O  O131  1  0.33418000  0.64985000  0.51225000  1.0
  O  O132  1  0.75114000  0.49544000  0.39124000  1.0
  O  O133  1  0.24886000  0.50456000  0.60875000  1.0
  O  O134  1  0.79368000  0.05790000  0.53600000  1.0
  O  O135  1  0.20632000  0.94209000  0.46399000  1.0
