# generated using pymatgen
data_CdH22C29(NO)4
_symmetry_space_group_name_H-M   'P 1'
_cell_length_a   16.00820000
_cell_length_b   16.08560000
_cell_length_c   28.85190000
_cell_angle_alpha   89.99960000
_cell_angle_beta   89.99960000
_cell_angle_gamma   107.71500000
_symmetry_Int_Tables_number   1
_chemical_formula_structural   CdH22C29(NO)4
_chemical_formula_sum   'Cd8 H176 C232 N32 O32'
_cell_volume   7077.11884138
_cell_formula_units_Z   8
loop_
 _symmetry_equiv_pos_site_id
 _symmetry_equiv_pos_as_xyz
  1  'x, y, z'
loop_
 _atom_site_type_symbol
 _atom_site_label
 _atom_site_symmetry_multiplicity
 _atom_site_fract_x
 _atom_site_fract_y
 _atom_site_fract_z
 _atom_site_occupancy
  Cd  Cd0  1  0.61662000  0.13141000  0.96605000  1.0
  Cd  Cd1  1  0.66190000  0.35250000  0.03402000  1.0
  Cd  Cd2  1  0.61661000  0.63141000  0.53395000  1.0
  Cd  Cd3  1  0.66191000  0.85251000  0.46598000  1.0
  Cd  Cd4  1  0.38338000  0.36858000  0.46605000  1.0
  Cd  Cd5  1  0.33809000  0.14750000  0.53402000  1.0
  Cd  Cd6  1  0.38339000  0.86858000  0.03395000  1.0
  Cd  Cd7  1  0.33809000  0.64749000  0.96598000  1.0
  H  H8  1  0.68967000  0.51413000  0.88952000  1.0
  H  H9  1  0.67060000  0.24276000  0.87227000  1.0
  H  H10  1  0.65467000  0.25415000  0.78728000  1.0
  H  H11  1  0.63507000  0.29615000  0.70295000  1.0
  H  H12  1  0.62224000  0.36902000  0.62735000  1.0
  H  H13  1  0.65538000  0.61262000  0.69644000  1.0
  H  H14  1  0.53637000  0.53380000  0.80264000  1.0
  H  H15  1  0.60091000  0.63820000  0.78272000  1.0
  H  H16  1  0.61163000  0.60597000  0.84080000  1.0
  H  H17  1  0.81712000  0.58929000  0.78242000  1.0
  H  H18  1  0.77658000  0.63922000  0.82887000  1.0
  H  H19  1  0.76567000  0.67083000  0.77047000  1.0
  H  H20  1  0.61167000  0.98055000  0.11016000  1.0
  H  H21  1  0.58940000  0.23827000  0.12950000  1.0
  H  H22  1  0.59293000  0.22242000  0.21487000  1.0
  H  H23  1  0.60760000  0.17748000  0.30043000  1.0
  H  H24  1  0.63462000  0.10832000  0.37493000  1.0
  H  H25  1  0.65402000  0.88333000  0.30164000  1.0
  H  H26  1  0.48659000  0.88115000  0.21390000  1.0
  H  H27  1  0.55417000  0.81453000  0.22736000  1.0
  H  H28  1  0.54079000  0.84365000  0.16881000  1.0
  H  H29  1  0.76918000  0.98680000  0.20034000  1.0
  H  H30  1  0.70831000  0.90767000  0.15989000  1.0
  H  H31  1  0.72088000  0.87653000  0.21806000  1.0
  H  H32  1  0.85740000  0.43621000  0.99455000  1.0
  H  H33  1  0.01017000  0.42442000  0.00449000  1.0
  H  H34  1  0.90747000  0.23788000  0.11376000  1.0
  H  H35  1  0.75992000  0.25724000  0.09936000  1.0
  H  H36  1  0.06404000  0.27171000  0.09324000  1.0
  H  H37  1  0.24654000  0.41292000  0.99283000  1.0
  H  H38  1  0.32624000  0.29035000  0.09003000  1.0
  H  H39  1  0.47903000  0.27715000  0.08877000  1.0
  H  H40  1  0.53912000  0.41705000  0.96661000  1.0
  H  H41  1  0.38851000  0.43630000  0.96225000  1.0
  H  H42  1  0.43678000  0.08889000  0.01927000  1.0
  H  H43  1  0.28901000  0.10741000  0.01462000  1.0
  H  H44  1  0.36974000  0.24975000  0.88663000  1.0
  H  H45  1  0.51677000  0.22671000  0.89718000  1.0
  H  H46  1  0.22055000  0.23453000  0.91658000  1.0
  H  H47  1  0.03852000  0.08510000  0.01605000  1.0
  H  H48  1  0.88321000  0.03401000  0.03585000  1.0
  H  H49  1  0.73179000  0.04791000  0.02857000  1.0
  H  H50  1  0.81197000  0.24318000  0.93064000  1.0
  H  H51  1  0.96813000  0.23826000  0.93316000  1.0
  H  H52  1  0.68968000  0.01413000  0.61048000  1.0
  H  H53  1  0.67059000  0.74276000  0.62774000  1.0
  H  H54  1  0.65466000  0.75415000  0.71273000  1.0
  H  H55  1  0.63506000  0.79614000  0.79706000  1.0
  H  H56  1  0.62223000  0.86901000  0.87266000  1.0
  H  H57  1  0.65539000  0.11262000  0.80357000  1.0
  H  H58  1  0.53637000  0.03380000  0.69737000  1.0
  H  H59  1  0.60091000  0.13820000  0.71729000  1.0
  H  H60  1  0.61164000  0.10597000  0.65920000  1.0
  H  H61  1  0.81713000  0.08929000  0.71758000  1.0
  H  H62  1  0.77659000  0.13922000  0.67113000  1.0
  H  H63  1  0.76568000  0.17083000  0.72953000  1.0
  H  H64  1  0.61167000  0.48056000  0.38984000  1.0
  H  H65  1  0.58940000  0.73827000  0.37050000  1.0
  H  H66  1  0.59292000  0.72243000  0.28512000  1.0
  H  H67  1  0.60759000  0.67748000  0.19956000  1.0
  H  H68  1  0.63461000  0.60832000  0.12507000  1.0
  H  H69  1  0.65401000  0.38334000  0.19836000  1.0
  H  H70  1  0.48658000  0.38116000  0.28609000  1.0
  H  H71  1  0.55416000  0.31454000  0.27263000  1.0
  H  H72  1  0.54077000  0.34365000  0.33119000  1.0
  H  H73  1  0.76916000  0.48680000  0.29966000  1.0
  H  H74  1  0.70829000  0.40767000  0.34011000  1.0
  H  H75  1  0.72087000  0.37653000  0.28194000  1.0
  H  H76  1  0.85742000  0.93622000  0.50544000  1.0
  H  H77  1  0.01018000  0.92443000  0.49550000  1.0
  H  H78  1  0.90748000  0.73788000  0.38623000  1.0
  H  H79  1  0.75993000  0.75725000  0.40064000  1.0
  H  H80  1  0.06405000  0.77171000  0.40675000  1.0
  H  H81  1  0.24654000  0.91291000  0.50717000  1.0
  H  H82  1  0.32625000  0.79034000  0.40997000  1.0
  H  H83  1  0.47904000  0.77713000  0.41125000  1.0
  H  H84  1  0.53912000  0.91705000  0.53339000  1.0
  H  H85  1  0.38851000  0.93629000  0.53775000  1.0
  H  H86  1  0.43677000  0.58889000  0.48073000  1.0
  H  H87  1  0.28900000  0.60742000  0.48538000  1.0
  H  H88  1  0.36972000  0.74974000  0.61338000  1.0
  H  H89  1  0.51675000  0.72670000  0.60283000  1.0
  H  H90  1  0.22054000  0.73453000  0.58342000  1.0
  H  H91  1  0.03852000  0.58510000  0.48395000  1.0
  H  H92  1  0.88321000  0.53401000  0.46415000  1.0
  H  H93  1  0.73178000  0.54791000  0.47144000  1.0
  H  H94  1  0.81195000  0.74316000  0.56937000  1.0
  H  H95  1  0.96811000  0.73825000  0.56685000  1.0
  H  H96  1  0.31032000  0.98587000  0.38952000  1.0
  H  H97  1  0.32940000  0.25723000  0.37226000  1.0
  H  H98  1  0.34533000  0.24585000  0.28727000  1.0
  H  H99  1  0.36493000  0.20385000  0.20294000  1.0
  H  H100  1  0.37776000  0.13098000  0.12734000  1.0
  H  H101  1  0.34461000  0.88738000  0.19643000  1.0
  H  H102  1  0.46362000  0.96619000  0.30263000  1.0
  H  H103  1  0.39909000  0.86180000  0.28272000  1.0
  H  H104  1  0.38835000  0.89402000  0.34080000  1.0
  H  H105  1  0.18287000  0.91071000  0.28242000  1.0
  H  H106  1  0.22340000  0.86078000  0.32887000  1.0
  H  H107  1  0.23431000  0.82917000  0.27047000  1.0
  H  H108  1  0.38833000  0.51945000  0.61016000  1.0
  H  H109  1  0.41061000  0.26174000  0.62950000  1.0
  H  H110  1  0.40709000  0.27759000  0.71488000  1.0
  H  H111  1  0.39242000  0.32253000  0.80043000  1.0
  H  H112  1  0.36540000  0.39169000  0.87493000  1.0
  H  H113  1  0.34600000  0.61667000  0.80165000  1.0
  H  H114  1  0.51342000  0.61885000  0.71391000  1.0
  H  H115  1  0.44584000  0.68547000  0.72736000  1.0
  H  H116  1  0.45922000  0.65635000  0.66881000  1.0
  H  H117  1  0.23084000  0.51321000  0.70034000  1.0
  H  H118  1  0.29170000  0.59234000  0.65989000  1.0
  H  H119  1  0.27913000  0.62348000  0.71807000  1.0
  H  H120  1  0.14259000  0.06379000  0.49455000  1.0
  H  H121  1  0.98983000  0.07558000  0.50449000  1.0
  H  H122  1  0.09252000  0.26213000  0.61376000  1.0
  H  H123  1  0.24007000  0.24277000  0.59935000  1.0
  H  H124  1  0.93594000  0.22828000  0.59325000  1.0
  H  H125  1  0.75346000  0.08708000  0.49282000  1.0
  H  H126  1  0.67375000  0.20965000  0.59002000  1.0
  H  H127  1  0.52096000  0.22286000  0.58876000  1.0
  H  H128  1  0.46087000  0.08295000  0.46661000  1.0
  H  H129  1  0.61148000  0.06370000  0.46225000  1.0
  H  H130  1  0.56323000  0.41111000  0.51926000  1.0
  H  H131  1  0.71100000  0.39259000  0.51461000  1.0
  H  H132  1  0.63026000  0.25024000  0.38662000  1.0
  H  H133  1  0.48323000  0.27328000  0.39718000  1.0
  H  H134  1  0.77945000  0.26545000  0.41657000  1.0
  H  H135  1  0.96148000  0.41490000  0.51604000  1.0
  H  H136  1  0.11678000  0.46599000  0.53584000  1.0
  H  H137  1  0.26821000  0.45209000  0.52856000  1.0
  H  H138  1  0.18805000  0.25684000  0.43063000  1.0
  H  H139  1  0.03189000  0.26175000  0.43314000  1.0
  H  H140  1  0.31034000  0.48588000  0.11048000  1.0
  H  H141  1  0.32941000  0.75724000  0.12774000  1.0
  H  H142  1  0.34534000  0.74585000  0.21273000  1.0
  H  H143  1  0.36493000  0.70385000  0.29706000  1.0
  H  H144  1  0.37776000  0.63097000  0.37266000  1.0
  H  H145  1  0.34461000  0.38738000  0.30357000  1.0
  H  H146  1  0.46363000  0.46620000  0.19737000  1.0
  H  H147  1  0.39909000  0.36180000  0.21728000  1.0
  H  H148  1  0.38837000  0.39403000  0.15920000  1.0
  H  H149  1  0.18287000  0.41071000  0.21758000  1.0
  H  H150  1  0.22341000  0.36078000  0.17113000  1.0
  H  H151  1  0.23433000  0.32917000  0.22953000  1.0
  H  H152  1  0.38834000  0.01945000  0.88984000  1.0
  H  H153  1  0.41061000  0.76173000  0.87050000  1.0
  H  H154  1  0.40708000  0.77758000  0.78512000  1.0
  H  H155  1  0.39240000  0.82252000  0.69957000  1.0
  H  H156  1  0.36539000  0.89168000  0.62507000  1.0
  H  H157  1  0.34599000  0.11667000  0.69835000  1.0
  H  H158  1  0.51341000  0.11884000  0.78609000  1.0
  H  H159  1  0.44584000  0.18546000  0.77263000  1.0
  H  H160  1  0.45922000  0.15634000  0.83119000  1.0
  H  H161  1  0.23083000  0.01321000  0.79966000  1.0
  H  H162  1  0.29170000  0.09233000  0.84011000  1.0
  H  H163  1  0.27913000  0.12348000  0.78193000  1.0
  H  H164  1  0.14259000  0.56379000  0.00545000  1.0
  H  H165  1  0.98982000  0.57557000  0.99551000  1.0
  H  H166  1  0.09252000  0.76212000  0.88624000  1.0
  H  H167  1  0.24007000  0.74276000  0.90065000  1.0
  H  H168  1  0.93595000  0.72828000  0.90676000  1.0
  H  H169  1  0.75346000  0.58708000  0.00718000  1.0
  H  H170  1  0.67375000  0.70964000  0.90997000  1.0
  H  H171  1  0.52096000  0.72285000  0.91124000  1.0
  H  H172  1  0.46087000  0.58295000  0.03339000  1.0
  H  H173  1  0.61148000  0.56370000  0.03775000  1.0
  H  H174  1  0.56324000  0.91111000  0.98073000  1.0
  H  H175  1  0.71102000  0.89259000  0.98539000  1.0
  H  H176  1  0.63027000  0.75025000  0.11338000  1.0
  H  H177  1  0.48324000  0.77328000  0.10282000  1.0
  H  H178  1  0.77947000  0.76547000  0.08343000  1.0
  H  H179  1  0.96149000  0.91490000  0.98396000  1.0
  H  H180  1  0.11679000  0.96599000  0.96415000  1.0
  H  H181  1  0.26822000  0.95209000  0.97143000  1.0
  H  H182  1  0.18805000  0.75682000  0.06936000  1.0
  H  H183  1  0.03189000  0.76174000  0.06685000  1.0
  C  C184  1  0.68206000  0.45854000  0.86650000  1.0
  C  C185  1  0.68046000  0.37763000  0.88584000  1.0
  C  C186  1  0.67195000  0.30503000  0.85703000  1.0
  C  C187  1  0.66266000  0.31120000  0.80930000  1.0
  C  C188  1  0.63997000  0.36531000  0.70182000  1.0
  C  C189  1  0.63268000  0.40527000  0.65985000  1.0
  C  C190  1  0.63771000  0.49389000  0.65821000  1.0
  C  C191  1  0.65104000  0.54383000  0.69913000  1.0
  C  C192  1  0.65873000  0.50471000  0.74114000  1.0
  C  C193  1  0.65299000  0.41531000  0.74238000  1.0
  C  C194  1  0.66276000  0.39106000  0.79028000  1.0
  C  C195  1  0.67365000  0.46498000  0.81887000  1.0
  C  C196  1  0.67418000  0.54440000  0.78976000  1.0
  C  C197  1  0.60120000  0.58261000  0.80483000  1.0
  C  C198  1  0.76407000  0.61528000  0.79305000  1.0
  C  C199  1  0.68340000  0.36731000  0.93721000  1.0
  C  C200  1  0.62859000  0.53475000  0.61263000  1.0
  C  C201  1  0.60859000  0.03247000  0.13375000  1.0
  C  C202  1  0.59968000  0.11012000  0.11500000  1.0
  C  C203  1  0.59422000  0.17784000  0.14443000  1.0
  C  C204  1  0.59786000  0.16960000  0.19236000  1.0
  C  C205  1  0.61902000  0.11394000  0.30036000  1.0
  C  C206  1  0.63365000  0.07573000  0.34172000  1.0
  C  C207  1  0.64665000  0.99325000  0.34194000  1.0
  C  C208  1  0.64478000  0.94773000  0.30018000  1.0
  C  C209  1  0.63163000  0.98583000  0.25885000  1.0
  C  C210  1  0.61904000  0.06905000  0.25877000  1.0
  C  C211  1  0.60871000  0.09332000  0.21086000  1.0
  C  C212  1  0.61405000  0.02477000  0.18145000  1.0
  C  C213  1  0.62686000  0.94948000  0.20978000  1.0
  C  C214  1  0.54731000  0.86706000  0.20471000  1.0
  C  C215  1  0.71157000  0.92905000  0.19622000  1.0
  C  C216  1  0.59890000  0.12163000  0.06366000  1.0
  C  C217  1  0.66036000  0.95219000  0.38670000  1.0
  C  C218  1  0.87228000  0.39361000  0.02071000  1.0
  C  C219  1  0.95622000  0.38755000  0.02640000  1.0
  C  C220  1  0.97107000  0.33096000  0.06042000  1.0
  C  C221  1  0.89941000  0.28298000  0.08715000  1.0
  C  C222  1  0.81733000  0.29317000  0.07930000  1.0
  C  C223  1  0.05733000  0.32035000  0.06784000  1.0
  C  C224  1  0.25996000  0.37792000  0.02317000  1.0
  C  C225  1  0.34619000  0.36541000  0.02619000  1.0
  C  C226  1  0.37192000  0.31979000  0.06234000  1.0
  C  C227  1  0.45592000  0.31197000  0.06163000  1.0
  C  C228  1  0.48941000  0.38957000  0.99291000  1.0
  C  C229  1  0.40661000  0.40035000  0.99074000  1.0
  C  C230  1  0.42000000  0.12430000  0.99038000  1.0
  C  C231  1  0.33699000  0.13418000  0.98754000  1.0
  C  C232  1  0.31652000  0.17920000  0.94962000  1.0
  C  C233  1  0.38222000  0.21357000  0.91642000  1.0
  C  C234  1  0.46380000  0.20095000  0.92200000  1.0
  C  C235  1  0.23030000  0.19107000  0.94414000  1.0
  C  C236  1  0.02623000  0.12788000  0.98879000  1.0
  C  C237  1  0.93821000  0.13574000  0.98493000  1.0
  C  C238  1  0.87076000  0.08199000  0.01233000  1.0
  C  C239  1  0.78651000  0.08877000  0.00836000  1.0
  C  C240  1  0.83147000  0.19785000  0.95318000  1.0
  C  C241  1  0.91730000  0.19506000  0.95469000  1.0
  C  C242  1  0.68207000  0.95854000  0.63351000  1.0
  C  C243  1  0.68045000  0.87763000  0.61417000  1.0
  C  C244  1  0.67194000  0.80502000  0.64298000  1.0
  C  C245  1  0.66266000  0.81119000  0.69071000  1.0
  C  C246  1  0.63996000  0.86530000  0.79819000  1.0
  C  C247  1  0.63268000  0.90526000  0.84015000  1.0
  C  C248  1  0.63771000  0.99388000  0.84180000  1.0
  C  C249  1  0.65105000  0.04382000  0.80087000  1.0
  C  C250  1  0.65873000  0.00471000  0.75887000  1.0
  C  C251  1  0.65299000  0.91531000  0.75762000  1.0
  C  C252  1  0.66276000  0.89106000  0.70972000  1.0
  C  C253  1  0.67365000  0.96499000  0.68114000  1.0
  C  C254  1  0.67418000  0.04439000  0.71024000  1.0
  C  C255  1  0.60121000  0.08261000  0.69518000  1.0
  C  C256  1  0.76408000  0.11528000  0.70695000  1.0
  C  C257  1  0.68340000  0.86731000  0.56280000  1.0
  C  C258  1  0.62859000  0.03474000  0.88738000  1.0
  C  C259  1  0.60858000  0.53248000  0.36625000  1.0
  C  C260  1  0.59968000  0.61013000  0.38500000  1.0
  C  C261  1  0.59421000  0.67785000  0.35556000  1.0
  C  C262  1  0.59785000  0.66960000  0.30764000  1.0
  C  C263  1  0.61900000  0.61394000  0.19964000  1.0
  C  C264  1  0.63364000  0.57572000  0.15828000  1.0
  C  C265  1  0.64664000  0.49325000  0.15805000  1.0
  C  C266  1  0.64478000  0.44773000  0.19982000  1.0
  C  C267  1  0.63162000  0.48583000  0.24115000  1.0
  C  C268  1  0.61903000  0.56905000  0.24123000  1.0
  C  C269  1  0.60870000  0.59332000  0.28914000  1.0
  C  C270  1  0.61404000  0.52477000  0.31855000  1.0
  C  C271  1  0.62685000  0.44948000  0.29021000  1.0
  C  C272  1  0.54730000  0.36706000  0.29528000  1.0
  C  C273  1  0.71155000  0.42905000  0.30378000  1.0
  C  C274  1  0.59890000  0.62164000  0.43634000  1.0
  C  C275  1  0.66035000  0.45219000  0.11330000  1.0
  C  C276  1  0.87229000  0.89363000  0.47929000  1.0
  C  C277  1  0.95623000  0.88756000  0.47360000  1.0
  C  C278  1  0.97107000  0.83097000  0.43958000  1.0
  C  C279  1  0.89941000  0.78299000  0.41284000  1.0
  C  C280  1  0.81734000  0.79318000  0.42070000  1.0
  C  C281  1  0.05734000  0.82036000  0.43215000  1.0
  C  C282  1  0.25997000  0.87792000  0.47683000  1.0
  C  C283  1  0.34620000  0.86540000  0.47381000  1.0
  C  C284  1  0.37193000  0.81978000  0.43767000  1.0
  C  C285  1  0.45593000  0.81196000  0.43838000  1.0
  C  C286  1  0.48941000  0.88956000  0.50709000  1.0
  C  C287  1  0.40661000  0.90034000  0.50927000  1.0
  C  C288  1  0.41999000  0.62430000  0.50963000  1.0
  C  C289  1  0.33698000  0.63417000  0.51247000  1.0
  C  C290  1  0.31651000  0.67920000  0.55038000  1.0
  C  C291  1  0.38221000  0.71356000  0.58358000  1.0
  C  C292  1  0.46379000  0.70094000  0.57800000  1.0
  C  C293  1  0.23029000  0.69107000  0.55587000  1.0
  C  C294  1  0.02622000  0.62788000  0.51121000  1.0
  C  C295  1  0.93820000  0.63574000  0.51507000  1.0
  C  C296  1  0.87075000  0.58199000  0.48767000  1.0
  C  C297  1  0.78650000  0.58877000  0.49164000  1.0
  C  C298  1  0.83146000  0.69784000  0.54682000  1.0
  C  C299  1  0.91729000  0.69505000  0.54532000  1.0
  C  C300  1  0.31793000  0.04146000  0.36649000  1.0
  C  C301  1  0.31954000  0.12237000  0.38583000  1.0
  C  C302  1  0.32805000  0.19497000  0.35702000  1.0
  C  C303  1  0.33734000  0.18880000  0.30929000  1.0
  C  C304  1  0.36003000  0.13469000  0.20181000  1.0
  C  C305  1  0.36731000  0.09473000  0.15985000  1.0
  C  C306  1  0.36228000  0.00611000  0.15820000  1.0
  C  C307  1  0.34895000  0.95617000  0.19913000  1.0
  C  C308  1  0.34127000  0.99529000  0.24113000  1.0
  C  C309  1  0.34701000  0.08469000  0.24238000  1.0
  C  C310  1  0.33724000  0.10894000  0.29028000  1.0
  C  C311  1  0.32634000  0.03501000  0.31886000  1.0
  C  C312  1  0.32582000  0.95560000  0.28976000  1.0
  C  C313  1  0.39879000  0.91739000  0.30482000  1.0
  C  C314  1  0.23592000  0.88472000  0.29305000  1.0
  C  C315  1  0.31660000  0.13269000  0.43720000  1.0
  C  C316  1  0.37140000  0.96525000  0.11262000  1.0
  C  C317  1  0.39142000  0.46753000  0.63375000  1.0
  C  C318  1  0.40032000  0.38988000  0.61500000  1.0
  C  C319  1  0.40579000  0.32216000  0.64444000  1.0
  C  C320  1  0.40215000  0.33040000  0.69236000  1.0
  C  C321  1  0.38100000  0.38607000  0.80036000  1.0
  C  C322  1  0.36637000  0.42428000  0.84172000  1.0
  C  C323  1  0.35336000  0.50675000  0.84195000  1.0
  C  C324  1  0.35523000  0.55227000  0.80018000  1.0
  C  C325  1  0.36838000  0.51418000  0.75885000  1.0
  C  C326  1  0.38097000  0.43095000  0.75877000  1.0
  C  C327  1  0.39130000  0.40668000  0.71086000  1.0
  C  C328  1  0.38596000  0.47524000  0.68145000  1.0
  C  C329  1  0.37315000  0.55053000  0.70979000  1.0
  C  C330  1  0.45270000  0.63295000  0.70472000  1.0
  C  C331  1  0.28845000  0.57096000  0.69622000  1.0
  C  C332  1  0.40110000  0.37837000  0.56366000  1.0
  C  C333  1  0.33965000  0.54780000  0.88670000  1.0
  C  C334  1  0.12772000  0.10639000  0.52070000  1.0
  C  C335  1  0.04377000  0.11245000  0.52639000  1.0
  C  C336  1  0.02893000  0.16904000  0.56041000  1.0
  C  C337  1  0.10059000  0.21702000  0.58715000  1.0
  C  C338  1  0.18266000  0.20684000  0.57929000  1.0
  C  C339  1  0.94266000  0.17965000  0.56784000  1.0
  C  C340  1  0.74003000  0.12208000  0.52316000  1.0
  C  C341  1  0.65379000  0.13459000  0.52619000  1.0
  C  C342  1  0.62807000  0.18021000  0.56233000  1.0
  C  C343  1  0.54407000  0.18803000  0.56163000  1.0
  C  C344  1  0.51058000  0.11043000  0.49291000  1.0
  C  C345  1  0.59338000  0.09965000  0.49073000  1.0
  C  C346  1  0.58001000  0.37570000  0.49037000  1.0
  C  C347  1  0.66302000  0.36583000  0.48753000  1.0
  C  C348  1  0.68348000  0.32080000  0.44961000  1.0
  C  C349  1  0.61778000  0.28643000  0.41641000  1.0
  C  C350  1  0.53620000  0.29905000  0.42200000  1.0
  C  C351  1  0.76971000  0.30893000  0.44413000  1.0
  C  C352  1  0.97378000  0.37212000  0.48878000  1.0
  C  C353  1  0.06179000  0.36427000  0.48492000  1.0
  C  C354  1  0.12925000  0.41802000  0.51232000  1.0
  C  C355  1  0.21349000  0.41123000  0.50835000  1.0
  C  C356  1  0.16854000  0.30216000  0.45317000  1.0
  C  C357  1  0.08271000  0.30495000  0.45467000  1.0
  C  C358  1  0.31795000  0.54147000  0.13350000  1.0
  C  C359  1  0.31956000  0.62238000  0.11416000  1.0
  C  C360  1  0.32807000  0.69498000  0.14298000  1.0
  C  C361  1  0.33735000  0.68881000  0.19071000  1.0
  C  C362  1  0.36003000  0.63469000  0.29819000  1.0
  C  C363  1  0.36731000  0.59473000  0.34015000  1.0
  C  C364  1  0.36228000  0.50611000  0.34179000  1.0
  C  C365  1  0.34895000  0.45617000  0.30087000  1.0
  C  C366  1  0.34127000  0.49529000  0.25887000  1.0
  C  C367  1  0.34701000  0.58469000  0.25762000  1.0
  C  C368  1  0.33725000  0.60894000  0.20972000  1.0
  C  C369  1  0.32636000  0.53502000  0.18114000  1.0
  C  C370  1  0.32582000  0.45561000  0.21024000  1.0
  C  C371  1  0.39880000  0.41739000  0.19517000  1.0
  C  C372  1  0.23593000  0.38472000  0.20695000  1.0
  C  C373  1  0.31660000  0.63270000  0.06279000  1.0
  C  C374  1  0.37140000  0.46525000  0.38738000  1.0
  C  C375  1  0.39142000  0.96753000  0.86625000  1.0
  C  C376  1  0.40033000  0.88987000  0.88500000  1.0
  C  C377  1  0.40579000  0.82216000  0.85556000  1.0
  C  C378  1  0.40214000  0.83040000  0.80764000  1.0
  C  C379  1  0.38099000  0.88606000  0.69964000  1.0
  C  C380  1  0.36636000  0.92427000  0.65828000  1.0
  C  C381  1  0.35336000  0.00675000  0.65805000  1.0
  C  C382  1  0.35522000  0.05227000  0.69982000  1.0
  C  C383  1  0.36838000  0.01417000  0.74115000  1.0
  C  C384  1  0.38096000  0.93095000  0.74123000  1.0
  C  C385  1  0.39129000  0.90668000  0.78914000  1.0
  C  C386  1  0.38596000  0.97523000  0.81855000  1.0
  C  C387  1  0.37315000  0.05052000  0.79021000  1.0
  C  C388  1  0.45270000  0.13294000  0.79528000  1.0
  C  C389  1  0.28844000  0.07095000  0.80378000  1.0
  C  C390  1  0.40111000  0.87837000  0.93634000  1.0
  C  C391  1  0.33965000  0.04780000  0.61330000  1.0
  C  C392  1  0.12771000  0.60638000  0.97930000  1.0
  C  C393  1  0.04377000  0.61244000  0.97360000  1.0
  C  C394  1  0.02892000  0.66903000  0.93958000  1.0
  C  C395  1  0.10058000  0.71701000  0.91285000  1.0
  C  C396  1  0.18266000  0.70683000  0.92071000  1.0
  C  C397  1  0.94266000  0.67964000  0.93216000  1.0
  C  C398  1  0.74003000  0.62207000  0.97683000  1.0
  C  C399  1  0.65380000  0.63458000  0.97381000  1.0
  C  C400  1  0.62807000  0.68020000  0.93766000  1.0
  C  C401  1  0.54408000  0.68802000  0.93837000  1.0
  C  C402  1  0.51059000  0.61043000  0.00709000  1.0
  C  C403  1  0.59338000  0.59965000  0.00927000  1.0
  C  C404  1  0.58002000  0.87570000  0.00963000  1.0
  C  C405  1  0.66303000  0.86583000  0.01247000  1.0
  C  C406  1  0.68349000  0.82080000  0.05039000  1.0
  C  C407  1  0.61779000  0.78643000  0.08359000  1.0
  C  C408  1  0.53621000  0.79905000  0.07800000  1.0
  C  C409  1  0.76972000  0.80893000  0.05587000  1.0
  C  C410  1  0.97378000  0.87212000  0.01122000  1.0
  C  C411  1  0.06180000  0.86426000  0.01508000  1.0
  C  C412  1  0.12925000  0.91801000  0.98767000  1.0
  C  C413  1  0.21350000  0.91123000  0.99164000  1.0
  C  C414  1  0.16855000  0.80215000  0.04682000  1.0
  C  C415  1  0.08271000  0.80494000  0.04532000  1.0
  N  N416  1  0.80401000  0.34709000  0.04659000  1.0
  N  N417  1  0.12422000  0.36654000  0.04450000  1.0
  N  N418  1  0.20093000  0.34796000  0.05478000  1.0
  N  N419  1  0.51392000  0.34634000  0.02759000  1.0
  N  N420  1  0.48209000  0.15696000  0.95819000  1.0
  N  N421  1  0.16624000  0.15055000  0.97114000  1.0
  N  N422  1  0.08897000  0.16891000  0.96116000  1.0
  N  N423  1  0.76711000  0.14575000  0.97947000  1.0
  N  N424  1  0.80402000  0.84710000  0.45341000  1.0
  N  N425  1  0.12423000  0.86654000  0.45550000  1.0
  N  N426  1  0.20094000  0.84796000  0.44522000  1.0
  N  N427  1  0.51392000  0.84633000  0.47242000  1.0
  N  N428  1  0.48208000  0.65695000  0.54182000  1.0
  N  N429  1  0.16623000  0.65056000  0.52886000  1.0
  N  N430  1  0.08896000  0.66892000  0.53884000  1.0
  N  N431  1  0.76710000  0.64574000  0.52053000  1.0
  N  N432  1  0.19598000  0.15291000  0.54658000  1.0
  N  N433  1  0.87577000  0.13347000  0.54449000  1.0
  N  N434  1  0.79906000  0.15205000  0.55477000  1.0
  N  N435  1  0.48607000  0.15367000  0.52758000  1.0
  N  N436  1  0.51791000  0.34305000  0.45818000  1.0
  N  N437  1  0.83376000  0.34945000  0.47112000  1.0
  N  N438  1  0.91103000  0.33109000  0.46115000  1.0
  N  N439  1  0.23290000  0.35426000  0.47946000  1.0
  N  N440  1  0.19598000  0.65291000  0.95341000  1.0
  N  N441  1  0.87576000  0.63345000  0.95550000  1.0
  N  N442  1  0.79906000  0.65203000  0.94522000  1.0
  N  N443  1  0.48608000  0.65366000  0.97242000  1.0
  N  N444  1  0.51792000  0.84304000  0.04181000  1.0
  N  N445  1  0.83377000  0.84945000  0.02887000  1.0
  N  N446  1  0.91104000  0.83109000  0.03885000  1.0
  N  N447  1  0.23291000  0.85425000  0.02053000  1.0
  O  O448  1  0.68880000  0.43318000  0.96316000  1.0
  O  O449  1  0.67794000  0.29252000  0.95463000  1.0
  O  O450  1  0.62257000  0.61265000  0.61332000  1.0
  O  O451  1  0.62746000  0.49278000  0.57532000  1.0
  O  O452  1  0.59131000  0.05554000  0.03759000  1.0
  O  O453  1  0.60763000  0.19723000  0.04661000  1.0
  O  O454  1  0.67702000  0.99764000  0.42354000  1.0
  O  O455  1  0.65305000  0.87064000  0.38584000  1.0
  O  O456  1  0.68880000  0.93318000  0.53685000  1.0
  O  O457  1  0.67794000  0.79251000  0.54537000  1.0
  O  O458  1  0.62258000  0.11265000  0.88668000  1.0
  O  O459  1  0.62747000  0.99278000  0.92468000  1.0
  O  O460  1  0.59131000  0.55554000  0.46241000  1.0
  O  O461  1  0.60763000  0.69724000  0.45340000  1.0
  O  O462  1  0.67704000  0.49765000  0.07647000  1.0
  O  O463  1  0.65303000  0.37064000  0.11416000  1.0
  O  O464  1  0.31120000  0.06682000  0.46316000  1.0
  O  O465  1  0.32205000  0.20748000  0.45463000  1.0
  O  O466  1  0.37742000  0.88735000  0.11331000  1.0
  O  O467  1  0.37252000  0.00722000  0.07532000  1.0
  O  O468  1  0.40869000  0.44446000  0.53759000  1.0
  O  O469  1  0.39236000  0.30277000  0.54661000  1.0
  O  O470  1  0.32297000  0.50234000  0.92354000  1.0
  O  O471  1  0.34697000  0.62936000  0.88584000  1.0
  O  O472  1  0.31120000  0.56683000  0.03684000  1.0
  O  O473  1  0.32205000  0.70749000  0.04537000  1.0
  O  O474  1  0.37740000  0.38734000  0.38668000  1.0
  O  O475  1  0.37254000  0.50722000  0.42468000  1.0
  O  O476  1  0.40870000  0.94447000  0.96241000  1.0
  O  O477  1  0.39237000  0.80277000  0.95339000  1.0
  O  O478  1  0.32296000  0.00235000  0.57646000  1.0
  O  O479  1  0.34697000  0.12936000  0.61416000  1.0
