# generated using pymatgen
data_Zn2H26C23(NO4)2
_symmetry_space_group_name_H-M   'P 1'
_cell_length_a   8.74247000
_cell_length_b   8.74629000
_cell_length_c   17.13500000
_cell_angle_alpha   100.09800000
_cell_angle_beta   100.10300000
_cell_angle_gamma   105.86000000
_symmetry_Int_Tables_number   1
_chemical_formula_structural   Zn2H26C23(NO4)2
_chemical_formula_sum   'Zn4 H52 C46 N4 O16'
_cell_volume   1205.81668690
_cell_formula_units_Z   2
loop_
 _symmetry_equiv_pos_site_id
 _symmetry_equiv_pos_as_xyz
  1  'x, y, z'
loop_
 _atom_site_type_symbol
 _atom_site_label
 _atom_site_symmetry_multiplicity
 _atom_site_fract_x
 _atom_site_fract_y
 _atom_site_fract_z
 _atom_site_occupancy
  Zn  Zn0  1  0.74027000  0.25323000  0.14673000  1.0
  Zn  Zn1  1  0.74664000  0.25963000  0.35325000  1.0
  Zn  Zn2  1  0.25973000  0.74677000  0.85327000  1.0
  Zn  Zn3  1  0.25336000  0.74037000  0.64675000  1.0
  H  H4  1  0.33145000  0.46131000  0.13108000  1.0
  H  H5  1  0.53875000  0.66848000  0.36894000  1.0
  H  H6  1  0.66855000  0.53869000  0.86892000  1.0
  H  H7  1  0.46125000  0.33152000  0.63106000  1.0
  H  H8  1  0.36044000  0.45051000  0.03087000  1.0
  H  H9  1  0.54958000  0.63953000  0.46914000  1.0
  H  H10  1  0.63956000  0.54949000  0.96913000  1.0
  H  H11  1  0.45042000  0.36047000  0.53086000  1.0
  H  H12  1  0.56125000  0.73445000  0.07558000  1.0
  H  H13  1  0.26552000  0.43880000  0.42442000  1.0
  H  H14  1  0.43875000  0.26555000  0.92442000  1.0
  H  H15  1  0.73448000  0.56120000  0.57558000  1.0
  H  H16  1  0.36073000  0.72756000  0.08349000  1.0
  H  H17  1  0.27239000  0.63922000  0.41650000  1.0
  H  H18  1  0.63927000  0.27245000  0.91651000  1.0
  H  H19  1  0.72761000  0.36079000  0.58350000  1.0
  H  H20  1  0.43862000  0.75071000  0.23361000  1.0
  H  H21  1  0.24931000  0.56137000  0.26638000  1.0
  H  H22  1  0.56138000  0.24930000  0.76639000  1.0
  H  H23  1  0.75069000  0.43863000  0.73362000  1.0
  H  H24  1  0.63158000  0.73365000  0.22601000  1.0
  H  H25  1  0.26643000  0.36853000  0.27401000  1.0
  H  H26  1  0.36843000  0.26635000  0.77399000  1.0
  H  H27  1  0.73357000  0.63147000  0.72599000  1.0
  H  H28  1  0.59204000  0.00602000  0.43335000  1.0
  H  H29  1  0.99392000  0.40786000  0.06662000  1.0
  H  H30  1  0.40796000  0.99399000  0.56666000  1.0
  H  H31  1  0.00608000  0.59213000  0.93338000  1.0
  H  H32  1  0.66373000  0.90488000  0.55949000  1.0
  H  H33  1  0.09511000  0.33624000  0.94048000  1.0
  H  H34  1  0.33628000  0.09512000  0.44051000  1.0
  H  H35  1  0.90489000  0.66375000  0.05952000  1.0
  H  H36  1  0.13096000  0.28696000  0.62066000  1.0
  H  H37  1  0.71305000  0.86910000  0.87938000  1.0
  H  H38  1  0.86904000  0.71304000  0.37934000  1.0
  H  H39  1  0.28694000  0.13090000  0.12062000  1.0
  H  H40  1  0.04216000  0.36669000  0.49291000  1.0
  H  H41  1  0.63327000  0.95783000  0.00712000  1.0
  H  H42  1  0.95784000  0.63331000  0.50709000  1.0
  H  H43  1  0.36672000  0.04216000  0.99288000  1.0
  H  H44  1  0.08976000  0.06079000  0.69117000  1.0
  H  H45  1  0.93921000  0.91034000  0.80885000  1.0
  H  H46  1  0.91024000  0.93921000  0.30883000  1.0
  H  H47  1  0.06079000  0.08966000  0.19115000  1.0
  H  H48  1  0.90635000  0.89455000  0.66167000  1.0
  H  H49  1  0.10553000  0.09364000  0.83833000  1.0
  H  H50  1  0.09365000  0.10545000  0.33833000  1.0
  H  H51  1  0.89446000  0.90636000  0.16167000  1.0
  H  H52  1  0.76506000  0.05869000  0.73703000  1.0
  H  H53  1  0.94129000  0.23484000  0.76296000  1.0
  H  H54  1  0.23494000  0.94132000  0.26297000  1.0
  H  H55  1  0.05871000  0.76516000  0.23704000  1.0
  C  C56  1  0.56609000  0.44762000  0.11554000  1.0
  C  C57  1  0.55244000  0.43393000  0.38446000  1.0
  C  C58  1  0.43390000  0.55237000  0.88446000  1.0
  C  C59  1  0.44756000  0.56607000  0.61553000  1.0
  C  C60  1  0.41994000  0.50777000  0.09575000  1.0
  C  C61  1  0.49231000  0.58004000  0.40427000  1.0
  C  C62  1  0.58006000  0.49223000  0.90425000  1.0
  C  C63  1  0.50769000  0.41996000  0.59573000  1.0
  C  C64  1  0.46731000  0.69313000  0.10892000  1.0
  C  C65  1  0.30687000  0.53270000  0.39109000  1.0
  C  C66  1  0.53269000  0.30687000  0.89109000  1.0
  C  C67  1  0.69313000  0.46730000  0.60891000  1.0
  C  C68  1  0.53305000  0.77874000  0.19895000  1.0
  C  C69  1  0.22128000  0.46699000  0.30105000  1.0
  C  C70  1  0.46695000  0.22126000  0.80105000  1.0
  C  C71  1  0.77872000  0.53302000  0.69895000  1.0
  C  C72  1  0.60654000  0.96275000  0.21718000  1.0
  C  C73  1  0.03722000  0.39344000  0.28280000  1.0
  C  C74  1  0.39346000  0.03725000  0.78282000  1.0
  C  C75  1  0.96279000  0.60656000  0.71720000  1.0
  C  C76  1  0.70946000  0.06390000  0.47730000  1.0
  C  C77  1  0.93605000  0.29047000  0.02268000  1.0
  C  C78  1  0.29054000  0.93610000  0.52271000  1.0
  C  C79  1  0.06395000  0.70952000  0.97732000  1.0
  C  C80  1  0.75005000  0.00895000  0.54702000  1.0
  C  C81  1  0.99103000  0.24993000  0.95296000  1.0
  C  C82  1  0.24996000  0.99105000  0.45298000  1.0
  C  C83  1  0.00897000  0.75007000  0.04704000  1.0
  C  C84  1  0.90445000  0.08641000  0.60065000  1.0
  C  C85  1  0.91359000  0.09557000  0.89936000  1.0
  C  C86  1  0.09555000  0.91359000  0.39935000  1.0
  C  C87  1  0.08640000  0.90443000  0.10064000  1.0
  C  C88  1  0.01012000  0.21888000  0.58140000  1.0
  C  C89  1  0.78111000  0.98992000  0.91862000  1.0
  C  C90  1  0.98988000  0.78112000  0.41860000  1.0
  C  C91  1  0.21888000  0.01008000  0.08138000  1.0
  C  C92  1  0.96121000  0.26630000  0.51035000  1.0
  C  C93  1  0.73367000  0.03878000  0.98966000  1.0
  C  C94  1  0.03879000  0.73370000  0.48965000  1.0
  C  C95  1  0.26632000  0.96121000  0.01034000  1.0
  C  C96  1  0.95553000  0.02864000  0.67545000  1.0
  C  C97  1  0.97138000  0.04450000  0.82456000  1.0
  C  C98  1  0.04447000  0.97136000  0.32455000  1.0
  C  C99  1  0.02861000  0.95549000  0.17544000  1.0
  C  C100  1  0.89972000  0.10025000  0.75000000  1.0
  C  C101  1  0.10028000  0.89975000  0.25000000  1.0
  N  N102  1  0.81342000  0.19023000  0.45869000  1.0
  N  N103  1  0.80972000  0.18653000  0.04130000  1.0
  N  N104  1  0.18658000  0.80977000  0.54131000  1.0
  N  N105  1  0.19028000  0.81347000  0.95869000  1.0
  O  O106  1  0.53859000  0.31284000  0.14090000  1.0
  O  O107  1  0.68724000  0.46134000  0.35907000  1.0
  O  O108  1  0.46140000  0.68716000  0.85910000  1.0
  O  O109  1  0.31276000  0.53866000  0.64092000  1.0
  O  O110  1  0.70307000  0.52080000  0.10513000  1.0
  O  O111  1  0.47918000  0.29702000  0.39488000  1.0
  O  O112  1  0.29692000  0.47920000  0.89487000  1.0
  O  O113  1  0.52083000  0.70298000  0.60512000  1.0
  O  O114  1  0.61064000  0.04079000  0.28816000  1.0
  O  O115  1  0.95913000  0.38934000  0.21182000  1.0
  O  O116  1  0.38937000  0.95920000  0.71184000  1.0
  O  O117  1  0.04087000  0.61067000  0.78818000  1.0
  O  O118  1  0.97472000  0.33646000  0.33730000  1.0
  O  O119  1  0.66348000  0.02526000  0.16267000  1.0
  O  O120  1  0.02528000  0.66355000  0.66270000  1.0
  O  O121  1  0.33652000  0.97474000  0.83733000  1.0
