# generated using pymatgen
data_Ni3Mo8H24C18(N7O16)2
_symmetry_space_group_name_H-M   'P 1'
_cell_length_a   10.92440000
_cell_length_b   12.12740000
_cell_length_c   12.26160000
_cell_angle_alpha   108.34100000
_cell_angle_beta   112.79100000
_cell_angle_gamma   101.79600000
_symmetry_Int_Tables_number   1
_chemical_formula_structural   Ni3Mo8H24C18(N7O16)2
_chemical_formula_sum   'Ni3 Mo8 H24 C18 N14 O32'
_cell_volume   1319.02546867
_cell_formula_units_Z   1
loop_
 _symmetry_equiv_pos_site_id
 _symmetry_equiv_pos_as_xyz
  1  'x, y, z'
loop_
 _atom_site_type_symbol
 _atom_site_label
 _atom_site_symmetry_multiplicity
 _atom_site_fract_x
 _atom_site_fract_y
 _atom_site_fract_z
 _atom_site_occupancy
  Ni  Ni0  1  0.22991000  0.95554000  0.37081000  1.0
  Ni  Ni1  1  0.76988000  0.04444000  0.62913000  1.0
  Ni  Ni2  1  0.49988000  0.50005000  0.50021000  1.0
  Mo  Mo3  1  0.59012000  0.92390000  0.92646000  1.0
  Mo  Mo4  1  0.40992000  0.07620000  0.07358000  1.0
  Mo  Mo5  1  0.49085000  0.04113000  0.70107000  1.0
  Mo  Mo6  1  0.50904000  0.95886000  0.29883000  1.0
  Mo  Mo7  1  0.70437000  0.25592000  0.00221000  1.0
  Mo  Mo8  1  0.29573000  0.74409000  0.99775000  1.0
  Mo  Mo9  1  0.23302000  0.82650000  0.75740000  1.0
  Mo  Mo10  1  0.76696000  0.17356000  0.24258000  1.0
  H  H11  1  0.34785000  0.71969000  0.57915000  1.0
  H  H12  1  0.65247000  0.28028000  0.42126000  1.0
  H  H13  1  0.99741000  0.98143000  0.67930000  1.0
  H  H14  1  0.00227000  0.01845000  0.32057000  1.0
  H  H15  1  0.87976000  0.89638000  0.53363000  1.0
  H  H16  1  0.11998000  0.10353000  0.46617000  1.0
  H  H17  1  0.91167000  0.17921000  0.87650000  1.0
  H  H18  1  0.08839000  0.82062000  0.12341000  1.0
  H  H19  1  0.80972000  0.05616000  0.85201000  1.0
  H  H20  1  0.19012000  0.94380000  0.14795000  1.0
  H  H21  1  0.37022000  0.47094000  0.25260000  1.0
  H  H22  1  0.62991000  0.52917000  0.74782000  1.0
  H  H23  1  0.36707000  0.33720000  0.23919000  1.0
  H  H24  1  0.63295000  0.66292000  0.76120000  1.0
  H  H25  1  0.76434000  0.45076000  0.38197000  1.0
  H  H26  1  0.23570000  0.54927000  0.61804000  1.0
  H  H27  1  0.92865000  0.45540000  0.31145000  1.0
  H  H28  1  0.07139000  0.54457000  0.68855000  1.0
  H  H29  1  0.99070000  0.84506000  0.40639000  1.0
  H  H30  1  0.00928000  0.15487000  0.59352000  1.0
  H  H31  1  0.11483000  0.48319000  0.24228000  1.0
  H  H32  1  0.88533000  0.51680000  0.75785000  1.0
  H  H33  1  0.23197000  0.69467000  0.26041000  1.0
  H  H34  1  0.76817000  0.30532000  0.73970000  1.0
  C  C35  1  0.44176000  0.74834000  0.56836000  1.0
  C  C36  1  0.55845000  0.25171000  0.43193000  1.0
  C  C37  1  0.61553000  0.74969000  0.52840000  1.0
  C  C38  1  0.38449000  0.25030000  0.47151000  1.0
  C  C39  1  0.69885000  0.69171000  0.48056000  1.0
  C  C40  1  0.30110000  0.30826000  0.51926000  1.0
  C  C41  1  0.83511000  0.64236000  0.40510000  1.0
  C  C42  1  0.16487000  0.35762000  0.59480000  1.0
  C  C43  1  0.94286000  0.64804000  0.36295000  1.0
  C  C44  1  0.05715000  0.35191000  0.63699000  1.0
  C  C45  1  0.98036000  0.54583000  0.31783000  1.0
  C  C46  1  0.01969000  0.45413000  0.68218000  1.0
  C  C47  1  0.01420000  0.76233000  0.37046000  1.0
  C  C48  1  0.98583000  0.23761000  0.62949000  1.0
  C  C49  1  0.08469000  0.56131000  0.27965000  1.0
  C  C50  1  0.91542000  0.43867000  0.72043000  1.0
  C  C51  1  0.15048000  0.67790000  0.28971000  1.0
  C  C52  1  0.84963000  0.32208000  0.71037000  1.0
  N  N53  1  0.51782000  0.86702000  0.60474000  1.0
  N  N54  1  0.48204000  0.13296000  0.39514000  1.0
  N  N55  1  0.63050000  0.86919000  0.58075000  1.0
  N  N56  1  0.36923000  0.13074000  0.41880000  1.0
  N  N57  1  0.88380000  0.22289000  0.66458000  1.0
  N  N58  1  0.11627000  0.77708000  0.33544000  1.0
  N  N59  1  0.49936000  0.67144000  0.52004000  1.0
  N  N60  1  0.50099000  0.32864000  0.48034000  1.0
  N  N61  1  0.67379000  0.57141000  0.45821000  1.0
  N  N62  1  0.32620000  0.42861000  0.54170000  1.0
  N  N63  1  0.79590000  0.73843000  0.44858000  1.0
  N  N64  1  0.20403000  0.26154000  0.55121000  1.0
  N  N65  1  0.76075000  0.54158000  0.40991000  1.0
  N  N66  1  0.23928000  0.45845000  0.59008000  1.0
  O  O67  1  0.66764000  0.04243000  0.87689000  1.0
  O  O68  1  0.33239000  0.95763000  0.12312000  1.0
  O  O69  1  0.42653000  0.87045000  0.94800000  1.0
  O  O70  1  0.57347000  0.12961000  0.05194000  1.0
  O  O71  1  0.60269000  0.78735000  0.84024000  1.0
  O  O72  1  0.39735000  0.21274000  0.15981000  1.0
  O  O73  1  0.40516000  0.92392000  0.76492000  1.0
  O  O74  1  0.59481000  0.07611000  0.23496000  1.0
  O  O75  1  0.72527000  0.98169000  0.08906000  1.0
  O  O76  1  0.27476000  0.01835000  0.91096000  1.0
  O  O77  1  0.32721000  0.00488000  0.56766000  1.0
  O  O78  1  0.67272000  0.99535000  0.43229000  1.0
  O  O79  1  0.61812000  0.09858000  0.65788000  1.0
  O  O80  1  0.38185000  0.90129000  0.34199000  1.0
  O  O81  1  0.52204000  0.18631000  0.83631000  1.0
  O  O82  1  0.47805000  0.81375000  0.16362000  1.0
  O  O83  1  0.82254000  0.30322000  0.94997000  1.0
  O  O84  1  0.17757000  0.69674000  0.04999000  1.0
  O  O85  1  0.68738000  0.38843000  0.08696000  1.0
  O  O86  1  0.31270000  0.61160000  0.91294000  1.0
  O  O87  1  0.83890000  0.23195000  0.14471000  1.0
  O  O88  1  0.16115000  0.76810000  0.85528000  1.0
  O  O89  1  0.21850000  0.68093000  0.65283000  1.0
  O  O90  1  0.78150000  0.31913000  0.34717000  1.0
  O  O91  1  0.09823000  0.85723000  0.65752000  1.0
  O  O92  1  0.90173000  0.14283000  0.34248000  1.0
  O  O93  1  0.92303000  0.98468000  0.60455000  1.0
  O  O94  1  0.07663000  0.01521000  0.39533000  1.0
  O  O95  1  0.88378000  0.08850000  0.82883000  1.0
  O  O96  1  0.11606000  0.91130000  0.17104000  1.0
  O  O97  1  0.35165000  0.41193000  0.28811000  1.0
  O  O98  1  0.64831000  0.58815000  0.71221000  1.0
