# generated using pymatgen
data_SnH9C4ClO2
_symmetry_space_group_name_H-M   'P 1'
_cell_length_a   7.63331000
_cell_length_b   9.32329000
_cell_length_c   10.73260000
_cell_angle_alpha   89.99350000
_cell_angle_beta   89.99830000
_cell_angle_gamma   89.99890000
_symmetry_Int_Tables_number   1
_chemical_formula_structural   SnH9C4ClO2
_chemical_formula_sum   'Sn4 H36 C16 Cl4 O8'
_cell_volume   763.81297901
_cell_formula_units_Z   4
loop_
 _symmetry_equiv_pos_site_id
 _symmetry_equiv_pos_as_xyz
  1  'x, y, z'
loop_
 _atom_site_type_symbol
 _atom_site_label
 _atom_site_symmetry_multiplicity
 _atom_site_fract_x
 _atom_site_fract_y
 _atom_site_fract_z
 _atom_site_occupancy
  Sn  Sn0  1  0.75006000  0.58991000  0.31777000  1.0
  Sn  Sn1  1  0.24994000  0.91019000  0.81776000  1.0
  Sn  Sn2  1  0.24988000  0.41013000  0.68226000  1.0
  Sn  Sn3  1  0.75006000  0.08987000  0.18225000  1.0
  H  H4  1  0.43134000  0.64448000  0.21932000  1.0
  H  H5  1  0.56860000  0.85553000  0.71930000  1.0
  H  H6  1  0.93129000  0.35558000  0.78068000  1.0
  H  H7  1  0.06866000  0.14442000  0.28069000  1.0
  H  H8  1  0.56870000  0.35554000  0.78069000  1.0
  H  H9  1  0.43137000  0.14450000  0.28067000  1.0
  H  H10  1  0.06863000  0.64448000  0.21931000  1.0
  H  H11  1  0.93134000  0.85552000  0.71935000  1.0
  H  H12  1  0.41442000  0.50676000  0.33684000  1.0
  H  H13  1  0.58556000  0.99324000  0.83679000  1.0
  H  H14  1  0.91444000  0.49324000  0.66319000  1.0
  H  H15  1  0.08558000  0.00675000  0.16320000  1.0
  H  H16  1  0.58555000  0.49325000  0.66313000  1.0
  H  H17  1  0.41443000  0.00681000  0.16316000  1.0
  H  H18  1  0.08557000  0.50679000  0.33681000  1.0
  H  H19  1  0.91437000  0.99321000  0.83684000  1.0
  H  H20  1  0.49980000  0.46410000  0.18505000  1.0
  H  H21  1  0.50023000  0.03594000  0.68498000  1.0
  H  H22  1  0.99974000  0.53590000  0.81496000  1.0
  H  H23  1  0.00026000  0.96405000  0.31498000  1.0
  H  H24  1  0.50020000  0.53595000  0.81496000  1.0
  H  H25  1  0.49976000  0.96407000  0.31496000  1.0
  H  H26  1  0.00022000  0.46411000  0.18504000  1.0
  H  H27  1  0.99967000  0.03593000  0.68503000  1.0
  H  H28  1  0.86618000  0.11560000  0.50056000  1.0
  H  H29  1  0.13394000  0.38439000  0.00058000  1.0
  H  H30  1  0.36612000  0.88433000  0.49946000  1.0
  H  H31  1  0.63389000  0.61561000  0.99945000  1.0
  H  H32  1  0.13395000  0.88439000  0.49944000  1.0
  H  H33  1  0.86606000  0.61565000  0.99944000  1.0
  H  H34  1  0.63402000  0.11555000  0.50058000  1.0
  H  H35  1  0.36612000  0.38435000  0.00054000  1.0
  H  H36  1  0.75008000  0.21598000  0.61624000  1.0
  H  H37  1  0.25003000  0.28394000  0.11620000  1.0
  H  H38  1  0.25002000  0.78391000  0.38380000  1.0
  H  H39  1  0.74995000  0.71605000  0.88377000  1.0
  C  C40  1  0.48978000  0.54658000  0.25727000  1.0
  C  C41  1  0.51019000  0.95345000  0.75722000  1.0
  C  C42  1  0.98977000  0.45344000  0.74275000  1.0
  C  C43  1  0.01026000  0.04653000  0.24277000  1.0
  C  C44  1  0.51021000  0.45344000  0.74273000  1.0
  C  C45  1  0.48975000  0.04659000  0.24274000  1.0
  C  C46  1  0.01024000  0.54659000  0.25725000  1.0
  C  C47  1  0.98973000  0.95344000  0.75726000  1.0
  C  C48  1  0.75001000  0.30806000  0.43213000  1.0
  C  C49  1  0.24995000  0.19190000  0.93212000  1.0
  C  C50  1  0.24998000  0.69190000  0.56788000  1.0
  C  C51  1  0.75004000  0.80807000  0.06787000  1.0
  C  C52  1  0.75007000  0.18188000  0.51880000  1.0
  C  C53  1  0.25001000  0.31812000  0.01879000  1.0
  C  C54  1  0.25003000  0.81808000  0.48121000  1.0
  C  C55  1  0.74998000  0.68192000  0.98122000  1.0
  Cl  Cl56  1  0.75005000  0.77212000  0.47798000  1.0
  Cl  Cl57  1  0.24996000  0.72791000  0.97790000  1.0
  Cl  Cl58  1  0.25000000  0.22793000  0.52207000  1.0
  Cl  Cl59  1  0.75002000  0.27210000  0.02201000  1.0
  O  O60  1  0.75010000  0.43526000  0.47781000  1.0
  O  O61  1  0.24996000  0.06470000  0.97784000  1.0
  O  O62  1  0.25001000  0.56469000  0.52218000  1.0
  O  O63  1  0.74994000  0.93533000  0.02216000  1.0
  O  O64  1  0.75001000  0.29087000  0.31429000  1.0
  O  O65  1  0.24996000  0.20910000  0.81428000  1.0
  O  O66  1  0.24998000  0.70907000  0.68574000  1.0
  O  O67  1  0.74997000  0.79092000  0.18570000  1.0
