# generated using pymatgen
data_NiH36C40(N2O5)2
_symmetry_space_group_name_H-M   'P 1'
_cell_length_a   7.44521000
_cell_length_b   7.89722000
_cell_length_c   15.95630000
_cell_angle_alpha   89.33890000
_cell_angle_beta   78.47370000
_cell_angle_gamma   69.82680000
_symmetry_Int_Tables_number   1
_chemical_formula_structural   NiH36C40(N2O5)2
_chemical_formula_sum   'Ni1 H36 C40 N4 O10'
_cell_volume   861.18139458
_cell_formula_units_Z   1
loop_
 _symmetry_equiv_pos_site_id
 _symmetry_equiv_pos_as_xyz
  1  'x, y, z'
loop_
 _atom_site_type_symbol
 _atom_site_label
 _atom_site_symmetry_multiplicity
 _atom_site_fract_x
 _atom_site_fract_y
 _atom_site_fract_z
 _atom_site_occupancy
  Ni  Ni0  1  0.00000000  0.99999000  0.00000000  1.0
  H  H1  1  0.06196000  0.28868000  0.02574000  1.0
  H  H2  1  0.93805000  0.71132000  0.97426000  1.0
  H  H3  1  0.06061000  0.41735000  0.09693000  1.0
  H  H4  1  0.93940000  0.58264000  0.90308000  1.0
  H  H5  1  0.88363000  0.57907000  0.46435000  1.0
  H  H6  1  0.11637000  0.42093000  0.53565000  1.0
  H  H7  1  0.00273000  0.64669000  0.25490000  1.0
  H  H8  1  0.99726000  0.35332000  0.74510000  1.0
  H  H9  1  0.72952000  0.46340000  0.33689000  1.0
  H  H10  1  0.27048000  0.53660000  0.66310000  1.0
  H  H11  1  0.57975000  0.33660000  0.38519000  1.0
  H  H12  1  0.42025000  0.66340000  0.61481000  1.0
  H  H13  1  0.51985000  0.56066000  0.42194000  1.0
  H  H14  1  0.48016000  0.43934000  0.57806000  1.0
  H  H15  1  0.67988000  0.69096000  0.07793000  1.0
  H  H16  1  0.32012000  0.30904000  0.92208000  1.0
  H  H17  1  0.52080000  0.64426000  0.01880000  1.0
  H  H18  1  0.47921000  0.35575000  0.98120000  1.0
  H  H19  1  0.70882000  0.46654000  0.05512000  1.0
  H  H20  1  0.29119000  0.53346000  0.94488000  1.0
  H  H21  1  0.58870000  0.06307000  0.02490000  1.0
  H  H22  1  0.41131000  0.93691000  0.97510000  1.0
  H  H23  1  0.32352000  0.07105000  0.14679000  1.0
  H  H24  1  0.67648000  0.92893000  0.85321000  1.0
  H  H25  1  0.72618000  0.04672000  0.31282000  1.0
  H  H26  1  0.27381000  0.95328000  0.68718000  1.0
  H  H27  1  0.96745000  0.05736000  0.18299000  1.0
  H  H28  1  0.03255000  0.94263000  0.81701000  1.0
  H  H29  1  0.10260000  0.20031000  0.26895000  1.0
  H  H30  1  0.89739000  0.79969000  0.73106000  1.0
  H  H31  1  0.86378000  0.17412000  0.39215000  1.0
  H  H32  1  0.13622000  0.82588000  0.60785000  1.0
  H  H33  1  0.33127000  0.85403000  0.51178000  1.0
  H  H34  1  0.66874000  0.14598000  0.48822000  1.0
  H  H35  1  0.56892000  0.87845000  0.38859000  1.0
  H  H36  1  0.43108000  0.12155000  0.61141000  1.0
  C  C37  1  0.46670000  0.59957000  0.15457000  1.0
  C  C38  1  0.53330000  0.40043000  0.84543000  1.0
  C  C39  1  0.26251000  0.64347000  0.16577000  1.0
  C  C40  1  0.73749000  0.35653000  0.83422000  1.0
  C  C41  1  0.15953000  0.61943000  0.24522000  1.0
  C  C42  1  0.84047000  0.38057000  0.75478000  1.0
  C  C43  1  0.25632000  0.56124000  0.31247000  1.0
  C  C44  1  0.74368000  0.43877000  0.68753000  1.0
  C  C45  1  0.46023000  0.52683000  0.29714000  1.0
  C  C46  1  0.53976000  0.47318000  0.70286000  1.0
  C  C47  1  0.14415000  0.53834000  0.39616000  1.0
  C  C48  1  0.85585000  0.46166000  0.60384000  1.0
  C  C49  1  0.14563000  0.71829000  0.09903000  1.0
  C  C50  1  0.85436000  0.28170000  0.90097000  1.0
  C  C51  1  0.58029000  0.46926000  0.36408000  1.0
  C  C52  1  0.41971000  0.53075000  0.63591000  1.0
  C  C53  1  0.59790000  0.60207000  0.07112000  1.0
  C  C54  1  0.40211000  0.39793000  0.92888000  1.0
  C  C55  1  0.61137000  0.06052000  0.09017000  1.0
  C  C56  1  0.38863000  0.93947000  0.90983000  1.0
  C  C57  1  0.46425000  0.06353000  0.15972000  1.0
  C  C58  1  0.53575000  0.93646000  0.84028000  1.0
  C  C59  1  0.50189000  0.05188000  0.24283000  1.0
  C  C60  1  0.49811000  0.94812000  0.75717000  1.0
  C  C61  1  0.68734000  0.05026000  0.25043000  1.0
  C  C62  1  0.31265000  0.94974000  0.74958000  1.0
  C  C63  1  0.82498000  0.05413000  0.17853000  1.0
  C  C64  1  0.17502000  0.94586000  0.82147000  1.0
  C  C65  1  0.35584000  0.04028000  0.31812000  1.0
  C  C66  1  0.64416000  0.95972000  0.68188000  1.0
  C  C67  1  0.15387000  0.12106000  0.32150000  1.0
  C  C68  1  0.84612000  0.87894000  0.67850000  1.0
  C  C69  1  0.01783000  0.10590000  0.39212000  1.0
  C  C70  1  0.98216000  0.89410000  0.60788000  1.0
  C  C71  1  0.07380000  0.00895000  0.46294000  1.0
  C  C72  1  0.92620000  0.99106000  0.53707000  1.0
  C  C73  1  0.27662000  0.93094000  0.45941000  1.0
  C  C74  1  0.72338000  0.06906000  0.54059000  1.0
  C  C75  1  0.41369000  0.94618000  0.38916000  1.0
  C  C76  1  0.58631000  0.05382000  0.61084000  1.0
  N  N77  1  0.79143000  0.05129000  0.09848000  1.0
  N  N78  1  0.20857000  0.94870000  0.90152000  1.0
  N  N79  1  0.55904000  0.54397000  0.21968000  1.0
  N  N80  1  0.44096000  0.45604000  0.78032000  1.0
  O  O81  1  0.09159000  0.28747000  0.08315000  1.0
  O  O82  1  0.90841000  0.71253000  0.91685000  1.0
  O  O83  1  0.17607000  0.85754000  0.06337000  1.0
  O  O84  1  0.82393000  0.14245000  0.93663000  1.0
  O  O85  1  0.02068000  0.65509000  0.08531000  1.0
  O  O86  1  0.97932000  0.34490000  0.91469000  1.0
  O  O87  1  0.95216000  0.60818000  0.40501000  1.0
  O  O88  1  0.04784000  0.39182000  0.59499000  1.0
  O  O89  1  0.22627000  0.45777000  0.45389000  1.0
  O  O90  1  0.77373000  0.54223000  0.54611000  1.0
