# generated using pymatgen
data_Al2H17C27O10F
_symmetry_space_group_name_H-M   'P 1'
_cell_length_a   6.72327000
_cell_length_b   13.30810000
_cell_length_c   18.20180000
_cell_angle_alpha   111.37500000
_cell_angle_beta   96.21330000
_cell_angle_gamma   91.43290000
_symmetry_Int_Tables_number   1
_chemical_formula_structural   Al2H17C27O10F
_chemical_formula_sum   'Al4 H34 C54 O20 F2'
_cell_volume   1503.99748456
_cell_formula_units_Z   2
loop_
 _symmetry_equiv_pos_site_id
 _symmetry_equiv_pos_as_xyz
  1  'x, y, z'
loop_
 _atom_site_type_symbol
 _atom_site_label
 _atom_site_symmetry_multiplicity
 _atom_site_fract_x
 _atom_site_fract_y
 _atom_site_fract_z
 _atom_site_occupancy
  Al  Al0  1  0.11225000  0.50130000  0.49205000  1.0
  Al  Al1  1  0.60858000  0.48971000  0.49362000  1.0
  Al  Al2  1  0.84331000  0.75504000  0.00359000  1.0
  Al  Al3  1  0.34306000  0.76315000  0.00474000  1.0
  H  H4  1  0.80835000  0.92498000  0.59581000  1.0
  H  H5  1  0.96217000  0.59303000  0.76416000  1.0
  H  H6  1  0.08457000  0.40793000  0.94028000  1.0
  H  H7  1  0.99855000  0.72846000  0.75617000  1.0
  H  H8  1  0.07640000  0.05971000  0.91900000  1.0
  H  H9  1  0.79041000  0.11244000  0.61321000  1.0
  H  H10  1  0.09172000  0.21883000  0.92969000  1.0
  H  H11  1  0.03798000  0.54324000  0.88168000  1.0
  H  H12  1  0.12590000  0.21063000  0.32016000  1.0
  H  H13  1  0.83368000  0.03136000  0.18927000  1.0
  H  H14  1  0.29658000  0.06408000  0.21779000  1.0
  H  H15  1  0.58659000  0.05336000  0.92985000  1.0
  H  H16  1  0.56915000  0.37597000  0.90656000  1.0
  H  H17  1  0.43163000  0.54794000  0.74983000  1.0
  H  H18  1  0.36020000  0.18199000  0.57867000  1.0
  H  H19  1  0.57881000  0.85537000  0.86835000  1.0
  H  H20  1  0.53882000  0.68810000  0.74834000  1.0
  H  H21  1  0.34442000  0.86863000  0.60384000  1.0
  H  H22  1  0.56959000  0.23074000  0.91844000  1.0
  H  H23  1  0.35265000  0.00634000  0.59334000  1.0
  H  H24  1  0.38457000  0.37634000  0.63424000  1.0
  H  H25  1  0.32559000  0.65089000  0.18617000  1.0
  H  H26  1  0.62732000  0.59811000  0.30916000  1.0
  H  H27  1  0.16434000  0.59238000  0.28490000  1.0
  H  H28  1  0.01966000  0.17086000  0.57912000  1.0
  H  H29  1  0.77851000  0.21084000  0.55446000  1.0
  H  H30  1  0.99821000  0.28179000  0.54869000  1.0
  H  H31  1  0.92284000  0.68338000  0.61842000  1.0
  H  H32  1  0.75513000  0.76943000  0.59418000  1.0
  H  H33  1  0.01148000  0.77953000  0.58180000  1.0
  H  H34  1  0.32942000  0.35305000  0.46146000  1.0
  H  H35  1  0.83637000  0.59214000  0.44851000  1.0
  H  H36  1  0.61810000  0.89981000  0.03149000  1.0
  H  H37  1  0.10432000  0.64566000  0.03184000  1.0
  C  C38  1  0.40948000  0.66666667  0.59724000  1.0
  C  C39  1  0.32655000  0.55122000  0.37959000  1.0
  C  C40  1  0.82083000  0.31562000  0.39093000  1.0
  C  C41  1  0.90868000  0.45474000  0.60885000  1.0
  C  C42  1  0.03392000  0.89127000  0.84459000  1.0
  C  C43  1  0.93415000  0.42672000  0.68127000  1.0
  C  C44  1  0.95056000  0.84556000  0.70280000  1.0
  C  C45  1  0.99499000  0.81420000  0.76643000  1.0
  C  C46  1  0.03930000  0.00131000  0.85843000  1.0
  C  C47  1  0.99464000  0.03749000  0.79415000  1.0
  C  C48  1  0.94180000  0.95699000  0.71666000  1.0
  C  C49  1  0.99850000  0.15020000  0.80188000  1.0
  C  C50  1  0.94516000  0.17694000  0.73345000  1.0
  C  C51  1  0.86588000  0.09284000  0.66111000  1.0
  C  C52  1  0.87032000  0.98719000  0.65217000  1.0
  C  C53  1  0.05015000  0.23684000  0.87648000  1.0
  C  C54  1  0.04782000  0.34244000  0.88243000  1.0
  C  C55  1  0.00365000  0.37106000  0.81439000  1.0
  C  C56  1  0.95985000  0.28734000  0.73751000  1.0
  C  C57  1  0.00520000  0.48064000  0.82287000  1.0
  C  C58  1  0.96512000  0.50842000  0.75729000  1.0
  C  C59  1  0.93667000  0.31721000  0.66913000  1.0
  C  C60  1  0.14656000  0.02869000  0.18957000  1.0
  C  C61  1  0.97913000  0.07196000  0.21973000  1.0
  C  C62  1  0.81780000  0.21307000  0.32063000  1.0
  C  C63  1  0.98251000  0.16797000  0.28944000  1.0
  C  C64  1  0.43484000  0.76920000  0.66886000  1.0
  C  C65  1  0.50711000  0.47184000  0.83535000  1.0
  C  C66  1  0.52997000  0.85906000  0.81043000  1.0
  C  C67  1  0.50486000  0.76531000  0.74372000  1.0
  C  C68  1  0.40026000  0.86815000  0.66213000  1.0
  C  C69  1  0.44261000  0.96661000  0.72837000  1.0
  C  C70  1  0.50322000  0.96087000  0.80424000  1.0
  C  C71  1  0.43415000  0.07184000  0.72173000  1.0
  C  C72  1  0.48310000  0.16835000  0.79014000  1.0
  C  C73  1  0.53323000  0.15805000  0.86527000  1.0
  C  C74  1  0.54265000  0.05900000  0.87202000  1.0
  C  C75  1  0.38818000  0.07970000  0.64594000  1.0
  C  C76  1  0.39176000  0.17749000  0.63743000  1.0
  C  C77  1  0.43346000  0.27584000  0.70431000  1.0
  C  C78  1  0.48150000  0.27328000  0.78212000  1.0
  C  C79  1  0.42132000  0.37576000  0.69392000  1.0
  C  C80  1  0.45069000  0.47168000  0.75818000  1.0
  C  C81  1  0.52454000  0.37435000  0.84676000  1.0
  C  C82  1  0.31516000  0.58593000  0.31107000  1.0
  C  C83  1  0.48014000  0.60718000  0.28128000  1.0
  C  C84  1  0.63248000  0.65830000  0.18169000  1.0
  C  C85  1  0.47074000  0.63960000  0.21414000  1.0
  C  C86  1  0.62579000  0.69209000  0.11201000  1.0
  C  C87  1  0.54061000  0.58200000  0.90071000  1.0
  C  C88  1  0.05923000  0.84177000  0.90683000  1.0
  C  C89  1  0.13455000  0.92951000  0.11737000  1.0
  C  C90  1  0.93222000  0.24056000  0.58364000  1.0
  C  C91  1  0.90809000  0.76529000  0.62014000  1.0
  O  O92  1  0.49920000  0.55048000  0.41647000  1.0
  O  O93  1  0.24287000  0.64093000  0.55176000  1.0
  O  O94  1  0.06517000  0.49114000  0.59019000  1.0
  O  O95  1  0.15804000  0.52479000  0.39679000  1.0
  O  O96  1  0.99423000  0.35471000  0.42760000  1.0
  O  O97  1  0.56051000  0.60978000  0.58492000  1.0
  O  O98  1  0.35296000  0.42975000  0.49277000  1.0
  O  O99  1  0.65300000  0.35426000  0.40727000  1.0
  O  O100  1  0.73552000  0.43615000  0.56868000  1.0
  O  O101  1  0.85523000  0.55111000  0.48285000  1.0
  O  O102  1  0.38749000  0.63746000  0.91519000  1.0
  O  O103  1  0.79346000  0.71437000  0.09343000  1.0
  O  O104  1  0.96023000  0.89250000  0.07987000  1.0
  O  O105  1  0.71819000  0.61596000  0.93548000  1.0
  O  O106  1  0.90010000  0.79778000  0.91815000  1.0
  O  O107  1  0.45116000  0.69464000  0.07798000  1.0
  O  O108  1  0.59963000  0.82165000  0.00694000  1.0
  O  O109  1  0.23456000  0.83960000  0.94046000  1.0
  O  O110  1  0.30040000  0.88865000  0.09783000  1.0
  O  O111  1  0.09297000  0.69645000  0.00487000  1.0
  F  F112  1  0.63115000  0.16724000  0.28642000  1.0
  F  F113  1  0.82044000  0.64751000  0.21271000  1.0
