# generated using pymatgen
data_ZnH17C17NO4
_symmetry_space_group_name_H-M   'P 1'
_cell_length_a   6.54162000
_cell_length_b   7.36040000
_cell_length_c   16.84954674
_cell_angle_alpha   88.21557331
_cell_angle_beta   78.84652560
_cell_angle_gamma   89.98930000
_symmetry_Int_Tables_number   1
_chemical_formula_structural   ZnH17C17NO4
_chemical_formula_sum   'Zn2 H34 C34 N2 O8'
_cell_volume   795.56457219
_cell_formula_units_Z   2
loop_
 _symmetry_equiv_pos_site_id
 _symmetry_equiv_pos_as_xyz
  1  'x, y, z'
loop_
 _atom_site_type_symbol
 _atom_site_label
 _atom_site_symmetry_multiplicity
 _atom_site_fract_x
 _atom_site_fract_y
 _atom_site_fract_z
 _atom_site_occupancy
  Zn  Zn0  1  0.81509000  0.73376000  0.53454000  1.0
  Zn  Zn1  1  0.34967000  0.26613000  0.46571000  1.0
  H  H2  1  0.65594000  0.63525000  0.68432000  1.0
  H  H3  1  0.33951000  0.36468000  0.31595000  1.0
  H  H4  1  0.90562000  0.76824000  0.01484000  1.0
  H  H5  1  0.91805000  0.23318000  0.98514000  1.0
  H  H6  1  0.20921000  0.90475000  0.91738000  1.0
  H  H7  1  0.12526000  0.09697000  0.08244000  1.0
  H  H8  1  0.21582000  0.90215000  0.77012000  1.0
  H  H9  1  0.98528000  0.09878000  0.22972000  1.0
  H  H10  1  0.61894000  0.62801000  0.81601000  1.0
  H  H11  1  0.43255000  0.37100000  0.18414000  1.0
  H  H12  1  0.61462000  0.62789000  0.96214000  1.0
  H  H13  1  0.57366000  0.37196000  0.03801000  1.0
  H  H14  1  0.84532000  0.91327000  0.68045000  1.0
  H  H15  1  0.52491000  0.08651000  0.31960000  1.0
  H  H16  1  0.07998000  0.79106000  0.65899000  1.0
  H  H17  1  0.73849000  0.20851000  0.34094000  1.0
  H  H18  1  0.98288000  0.44019000  0.70930000  1.0
  H  H19  1  0.69157000  0.55942000  0.29089000  1.0
  H  H20  1  0.65373000  0.33613000  0.61127000  1.0
  H  H21  1  0.26453000  0.66380000  0.38867000  1.0
  H  H22  1  0.82946000  0.18209000  0.64445000  1.0
  H  H23  1  0.47346000  0.81770000  0.35557000  1.0
  H  H24  1  0.34413000  0.42932000  0.70340000  1.0
  H  H25  1  0.04683000  0.57153000  0.29619000  1.0
  H  H26  1  0.12579000  0.43238000  0.84252000  1.0
  H  H27  1  0.96857000  0.56834000  0.15684000  1.0
  H  H28  1  0.25840000  0.28838000  0.95827000  1.0
  H  H29  1  0.21814000  0.71118000  0.04127000  1.0
  H  H30  1  0.60473000  0.13583000  0.93402000  1.0
  H  H31  1  0.54011000  0.86300000  0.06596000  1.0
  H  H32  1  0.82559000  0.14483000  0.79736000  1.0
  H  H33  1  0.62326000  0.85414000  0.20287000  1.0
  H  H34  1  0.87577000  0.99666000  0.40662000  1.0
  H  H35  1  0.28242000  0.00328000  0.59366000  1.0
  C  C36  1  0.91054000  0.76664000  0.94981000  1.0
  C  C37  1  0.85820000  0.23432000  0.05016000  1.0
  C  C38  1  0.07965000  0.84316000  0.89551000  1.0
  C  C39  1  0.97358000  0.15791000  0.10436000  1.0
  C  C40  1  0.08355000  0.84185000  0.81239000  1.0
  C  C41  1  0.89477000  0.15885000  0.18750000  1.0
  C  C42  1  0.91792000  0.76586000  0.78253000  1.0
  C  C43  1  0.69903000  0.23412000  0.21747000  1.0
  C  C44  1  0.74977000  0.68869000  0.83732000  1.0
  C  C45  1  0.58492000  0.31090000  0.16277000  1.0
  C  C46  1  0.74666000  0.68859000  0.92033000  1.0
  C  C47  1  0.66447000  0.31146000  0.07974000  1.0
  C  C48  1  0.91873000  0.78357000  0.69289000  1.0
  C  C49  1  0.61080000  0.21617000  0.30714000  1.0
  C  C50  1  0.90611000  0.46087000  0.65697000  1.0
  C  C51  1  0.56255000  0.53889000  0.34317000  1.0
  C  C52  1  0.07133000  0.44317000  0.57981000  1.0
  C  C53  1  0.65069000  0.55676000  0.42036000  1.0
  C  C54  1  0.74242000  0.30806000  0.65943000  1.0
  C  C55  1  0.40141000  0.69174000  0.34057000  1.0
  C  C56  1  0.60095000  0.29129000  0.74118000  1.0
  C  C57  1  0.34198000  0.70861000  0.25872000  1.0
  C  C58  1  0.40184000  0.36896000  0.75477000  1.0
  C  C59  1  0.15640000  0.63146000  0.24492000  1.0
  C  C60  1  0.27868000  0.36823000  0.83253000  1.0
  C  C61  1  0.11153000  0.63210000  0.16703000  1.0
  C  C62  1  0.35272000  0.28688000  0.89740000  1.0
  C  C63  1  0.25100000  0.71289000  0.10225000  1.0
  C  C64  1  0.54786000  0.20325000  0.88401000  1.0
  C  C65  1  0.43279000  0.79604000  0.11586000  1.0
  C  C66  1  0.67159000  0.20704000  0.80666000  1.0
  C  C67  1  0.47863000  0.79230000  0.19332000  1.0
  C  C68  1  0.98641000  0.04550000  0.44323000  1.0
  C  C69  1  0.42955000  0.95429000  0.55707000  1.0
  N  N70  1  0.80996000  0.64106000  0.65728000  1.0
  N  N71  1  0.46673000  0.35877000  0.34289000  1.0
  O  O72  1  0.06968000  0.55033000  0.51974000  1.0
  O  O73  1  0.58912000  0.44982000  0.48050000  1.0
  O  O74  1  0.19731000  0.31160000  0.58013000  1.0
  O  O75  1  0.77698000  0.68828000  0.42004000  1.0
  O  O76  1  0.98697000  0.96463000  0.51107000  1.0
  O  O77  1  0.49823000  0.03537000  0.48932000  1.0
  O  O78  1  0.10393000  0.17772000  0.41385000  1.0
  O  O79  1  0.51735000  0.82169000  0.58641000  1.0
