# generated using pymatgen
data_ZnH14C24S2(NO2)2
_symmetry_space_group_name_H-M   'P 1'
_cell_length_a   9.60707000
_cell_length_b   12.49510000
_cell_length_c   21.94080000
_cell_angle_alpha   90.00080000
_cell_angle_beta   90.00050000
_cell_angle_gamma   77.39700000
_symmetry_Int_Tables_number   1
_chemical_formula_structural   ZnH14C24S2(NO2)2
_chemical_formula_sum   'Zn4 H56 C96 S8 N8 O16'
_cell_volume   2570.34159140
_cell_formula_units_Z   4
loop_
 _symmetry_equiv_pos_site_id
 _symmetry_equiv_pos_as_xyz
  1  'x, y, z'
loop_
 _atom_site_type_symbol
 _atom_site_label
 _atom_site_symmetry_multiplicity
 _atom_site_fract_x
 _atom_site_fract_y
 _atom_site_fract_z
 _atom_site_occupancy
  Zn  Zn0  1  0.57167000  0.59658000  0.99286000  1.0
  Zn  Zn1  1  0.42832000  0.90342000  0.49286000  1.0
  Zn  Zn2  1  0.42832000  0.40342000  0.00714000  1.0
  Zn  Zn3  1  0.57167000  0.09658000  0.50715000  1.0
  H  H4  1  0.78845000  0.91521000  0.92484000  1.0
  H  H5  1  0.21154000  0.58479000  0.42484000  1.0
  H  H6  1  0.21155000  0.08479000  0.07516000  1.0
  H  H7  1  0.78845000  0.41521000  0.57515000  1.0
  H  H8  1  0.05233000  0.14032000  0.88550000  1.0
  H  H9  1  0.94768000  0.35966000  0.38550000  1.0
  H  H10  1  0.94768000  0.85967000  0.11450000  1.0
  H  H11  1  0.05233000  0.64033000  0.61450000  1.0
  H  H12  1  0.35621000  0.85573000  0.95000000  1.0
  H  H13  1  0.64380000  0.64426000  0.45000000  1.0
  H  H14  1  0.64380000  0.14427000  0.05000000  1.0
  H  H15  1  0.35621000  0.35573000  0.55000000  1.0
  H  H16  1  0.25856000  0.23067000  0.86795000  1.0
  H  H17  1  0.74147000  0.26931000  0.36794000  1.0
  H  H18  1  0.74145000  0.76933000  0.13206000  1.0
  H  H19  1  0.25855000  0.73067000  0.63205000  1.0
  H  H20  1  0.50365000  0.12780000  0.89536000  1.0
  H  H21  1  0.49636000  0.37218000  0.39535000  1.0
  H  H22  1  0.49635000  0.87219000  0.10464000  1.0
  H  H23  1  0.50365000  0.62781000  0.60465000  1.0
  H  H24  1  0.27570000  0.27919000  0.66973000  1.0
  H  H25  1  0.72430000  0.22080000  0.16972000  1.0
  H  H26  1  0.72430000  0.72081000  0.33028000  1.0
  H  H27  1  0.27570000  0.77920000  0.83027000  1.0
  H  H28  1  0.88182000  0.43842000  0.85691000  1.0
  H  H29  1  0.11817000  0.06159000  0.35691000  1.0
  H  H30  1  0.11817000  0.56159000  0.14309000  1.0
  H  H31  1  0.88183000  0.93840000  0.64308000  1.0
  H  H32  1  0.08950000  0.37507000  0.76304000  1.0
  H  H33  1  0.91050000  0.12493000  0.26303000  1.0
  H  H34  1  0.91051000  0.62493000  0.23698000  1.0
  H  H35  1  0.08950000  0.87507000  0.73697000  1.0
  H  H36  1  0.87790000  0.03982000  0.74381000  1.0
  H  H37  1  0.12210000  0.46019000  0.24381000  1.0
  H  H38  1  0.12210000  0.96019000  0.25619000  1.0
  H  H39  1  0.87791000  0.53981000  0.75619000  1.0
  H  H40  1  0.59877000  0.81776000  0.94155000  1.0
  H  H41  1  0.40122000  0.68224000  0.44155000  1.0
  H  H42  1  0.40122000  0.18224000  0.05845000  1.0
  H  H43  1  0.59878000  0.31775000  0.55845000  1.0
  H  H44  1  0.87350000  0.55651000  0.02585000  1.0
  H  H45  1  0.12649000  0.94350000  0.52585000  1.0
  H  H46  1  0.12649000  0.44349000  0.97415000  1.0
  H  H47  1  0.87351000  0.05650000  0.47415000  1.0
  H  H48  1  0.17769000  0.79317000  0.97491000  1.0
  H  H49  1  0.82230000  0.70682000  0.47491000  1.0
  H  H50  1  0.82230000  0.20682000  0.02509000  1.0
  H  H51  1  0.17770000  0.29318000  0.52508000  1.0
  H  H52  1  0.08085000  0.64378000  0.01127000  1.0
  H  H53  1  0.91914000  0.85622000  0.51128000  1.0
  H  H54  1  0.91915000  0.35621000  0.98872000  1.0
  H  H55  1  0.08085000  0.14378000  0.48872000  1.0
  H  H56  1  0.96453000  0.98581000  0.91583000  1.0
  H  H57  1  0.03547000  0.51418000  0.41584000  1.0
  H  H58  1  0.03547000  0.01418000  0.08417000  1.0
  H  H59  1  0.96454000  0.48582000  0.58416000  1.0
  C  C60  1  0.92943000  0.29041000  0.79617000  1.0
  C  C61  1  0.07056000  0.20960000  0.29617000  1.0
  C  C62  1  0.07057000  0.70960000  0.20383000  1.0
  C  C63  1  0.92944000  0.79040000  0.70383000  1.0
  C  C64  1  0.03572000  0.12722000  0.71080000  1.0
  C  C65  1  0.96428000  0.37279000  0.21080000  1.0
  C  C66  1  0.96428000  0.87279000  0.28920000  1.0
  C  C67  1  0.03573000  0.62721000  0.78920000  1.0
  C  C68  1  0.09723000  0.22201000  0.71595000  1.0
  C  C69  1  0.90277000  0.27800000  0.21594000  1.0
  C  C70  1  0.90277000  0.77800000  0.28406000  1.0
  C  C71  1  0.09725000  0.72201000  0.78405000  1.0
  C  C72  1  0.75499000  0.31923000  0.87228000  1.0
  C  C73  1  0.24500000  0.18078000  0.37229000  1.0
  C  C74  1  0.24500000  0.68078000  0.12772000  1.0
  C  C75  1  0.75499000  0.81922000  0.62772000  1.0
  C  C76  1  0.23786000  0.12374000  0.63944000  1.0
  C  C77  1  0.76214000  0.37626000  0.13945000  1.0
  C  C78  1  0.76214000  0.87627000  0.36056000  1.0
  C  C79  1  0.23787000  0.62374000  0.86055000  1.0
  C  C80  1  0.66226000  0.37201000  0.92260000  1.0
  C  C81  1  0.33774000  0.12800000  0.42260000  1.0
  C  C82  1  0.33773000  0.62799000  0.07741000  1.0
  C  C83  1  0.66225000  0.87200000  0.57741000  1.0
  C  C84  1  0.21311000  0.21674000  0.67422000  1.0
  C  C85  1  0.78690000  0.28327000  0.17421000  1.0
  C  C86  1  0.78689000  0.78327000  0.32579000  1.0
  C  C87  1  0.21312000  0.71673000  0.82578000  1.0
  C  C88  1  0.04250000  0.30350000  0.75859000  1.0
  C  C89  1  0.95750000  0.19650000  0.25859000  1.0
  C  C90  1  0.95750000  0.69650000  0.24141000  1.0
  C  C91  1  0.04251000  0.80350000  0.74141000  1.0
  C  C92  1  0.85854000  0.36035000  0.84348000  1.0
  C  C93  1  0.14145000  0.13966000  0.34348000  1.0
  C  C94  1  0.14145000  0.63966000  0.15653000  1.0
  C  C95  1  0.85855000  0.86034000  0.65652000  1.0
  C  C96  1  0.92322000  0.11223000  0.74764000  1.0
  C  C97  1  0.07677000  0.38778000  0.24764000  1.0
  C  C98  1  0.07677000  0.88778000  0.25236000  1.0
  C  C99  1  0.92324000  0.61223000  0.75236000  1.0
  C  C100  1  0.34369000  0.08731000  0.59077000  1.0
  C  C101  1  0.65630000  0.41270000  0.09077000  1.0
  C  C102  1  0.65630000  0.91270000  0.40923000  1.0
  C  C103  1  0.34370000  0.58731000  0.90923000  1.0
  C  C104  1  0.87176000  0.19391000  0.79026000  1.0
  C  C105  1  0.12823000  0.30610000  0.29026000  1.0
  C  C106  1  0.12823000  0.80610000  0.20974000  1.0
  C  C107  1  0.87177000  0.69390000  0.70974000  1.0
  C  C108  1  0.70663000  0.78054000  0.95633000  1.0
  C  C109  1  0.29336000  0.71946000  0.45633000  1.0
  C  C110  1  0.29336000  0.21946000  0.04367000  1.0
  C  C111  1  0.70664000  0.28053000  0.54367000  1.0
  C  C112  1  0.86121000  0.63548000  0.00304000  1.0
  C  C113  1  0.13878000  0.86452000  0.50304000  1.0
  C  C114  1  0.13879000  0.36452000  0.99696000  1.0
  C  C115  1  0.86122000  0.13548000  0.49696000  1.0
  C  C116  1  0.95509000  0.78826000  0.96621000  1.0
  C  C117  1  0.04490000  0.71173000  0.46622000  1.0
  C  C118  1  0.04490000  0.21173000  0.03379000  1.0
  C  C119  1  0.95510000  0.28827000  0.53378000  1.0
  C  C120  1  0.18665000  0.99124000  0.92062000  1.0
  C  C121  1  0.81336000  0.50875000  0.42062000  1.0
  C  C122  1  0.81335000  0.00875000  0.07938000  1.0
  C  C123  1  0.18665000  0.49125000  0.57937000  1.0
  C  C124  1  0.97555000  0.68515000  0.99499000  1.0
  C  C125  1  0.02444000  0.81486000  0.49500000  1.0
  C  C126  1  0.02444000  0.31485000  0.00501000  1.0
  C  C127  1  0.97556000  0.18514000  0.50500000  1.0
  C  C128  1  0.07532000  0.84000000  0.95813000  1.0
  C  C129  1  0.92468000  0.65999000  0.45813000  1.0
  C  C130  1  0.92468000  0.15999000  0.04187000  1.0
  C  C131  1  0.07532000  0.34001000  0.54186000  1.0
  C  C132  1  0.81529000  0.83535000  0.94690000  1.0
  C  C133  1  0.18469000  0.66465000  0.44691000  1.0
  C  C134  1  0.18470000  0.16465000  0.05309000  1.0
  C  C135  1  0.81530000  0.33535000  0.55309000  1.0
  C  C136  1  0.16129000  0.09771000  0.89608000  1.0
  C  C137  1  0.83872000  0.40227000  0.39608000  1.0
  C  C138  1  0.83871000  0.90228000  0.10392000  1.0
  C  C139  1  0.16129000  0.59772000  0.60392000  1.0
  C  C140  1  0.32998000  0.93975000  0.93257000  1.0
  C  C141  1  0.67002000  0.56023000  0.43257000  1.0
  C  C142  1  0.67002000  0.06024000  0.06743000  1.0
  C  C143  1  0.32999000  0.43976000  0.56742000  1.0
  C  C144  1  0.06803000  0.93882000  0.93154000  1.0
  C  C145  1  0.93197000  0.56117000  0.43154000  1.0
  C  C146  1  0.93197000  0.06117000  0.06846000  1.0
  C  C147  1  0.06803000  0.43883000  0.56845000  1.0
  C  C148  1  0.27512000  0.14781000  0.88631000  1.0
  C  C149  1  0.72489000  0.35217000  0.38631000  1.0
  C  C150  1  0.72489000  0.85218000  0.11369000  1.0
  C  C151  1  0.27512000  0.64782000  0.61369000  1.0
  C  C152  1  0.41233000  0.08993000  0.90110000  1.0
  C  C153  1  0.58769000  0.41005000  0.40109000  1.0
  C  C154  1  0.58768000  0.91006000  0.09890000  1.0
  C  C155  1  0.41233000  0.58994000  0.59890000  1.0
  S  S156  1  0.73752000  0.19309000  0.84317000  1.0
  S  S157  1  0.26246000  0.30692000  0.34318000  1.0
  S  S158  1  0.26246000  0.80693000  0.15683000  1.0
  S  S159  1  0.73753000  0.69308000  0.65683000  1.0
  S  S160  1  0.12170000  0.03788000  0.65537000  1.0
  S  S161  1  0.87829000  0.46213000  0.15538000  1.0
  S  S162  1  0.87828000  0.96213000  0.34462000  1.0
  S  S163  1  0.12173000  0.53787000  0.84462000  1.0
  N  N164  1  0.72818000  0.68169000  0.98395000  1.0
  N  N165  1  0.27181000  0.81832000  0.48395000  1.0
  N  N166  1  0.27182000  0.31831000  0.01605000  1.0
  N  N167  1  0.72819000  0.18168000  0.51605000  1.0
  N  N168  1  0.44020000  0.98691000  0.92309000  1.0
  N  N169  1  0.55981000  0.51307000  0.42308000  1.0
  N  N170  1  0.55981000  0.01309000  0.07691000  1.0
  N  N171  1  0.44020000  0.48691000  0.57691000  1.0
  O  O172  1  0.67799000  0.46663000  0.93820000  1.0
  O  O173  1  0.32202000  0.03337000  0.43819000  1.0
  O  O174  1  0.32202000  0.53337000  0.06182000  1.0
  O  O175  1  0.67798000  0.96662000  0.56180000  1.0
  O  O176  1  0.57657000  0.31822000  0.94586000  1.0
  O  O177  1  0.42341000  0.18179000  0.44587000  1.0
  O  O178  1  0.42341000  0.68179000  0.05414000  1.0
  O  O179  1  0.57657000  0.81821000  0.55414000  1.0
  O  O180  1  0.42831000  0.14870000  0.57627000  1.0
  O  O181  1  0.57169000  0.35130000  0.07627000  1.0
  O  O182  1  0.57170000  0.85130000  0.42373000  1.0
  O  O183  1  0.42831000  0.64870000  0.92373000  1.0
  O  O184  1  0.33825000  0.99517000  0.56706000  1.0
  O  O185  1  0.66173000  0.50485000  0.06706000  1.0
  O  O186  1  0.66173000  0.00485000  0.43294000  1.0
  O  O187  1  0.33825000  0.49517000  0.93295000  1.0
