# generated using pymatgen
data_HgH16C20(BrN2)2
_symmetry_space_group_name_H-M   'P 1'
_cell_length_a   7.99358000
_cell_length_b   12.28400000
_cell_length_c   12.45773075
_cell_angle_alpha   86.27632524
_cell_angle_beta   71.44270869
_cell_angle_gamma   77.99290000
_symmetry_Int_Tables_number   1
_chemical_formula_structural   HgH16C20(BrN2)2
_chemical_formula_sum   'Hg2 H32 C40 Br4 N8'
_cell_volume   1134.28885088
_cell_formula_units_Z   2
loop_
 _symmetry_equiv_pos_site_id
 _symmetry_equiv_pos_as_xyz
  1  'x, y, z'
loop_
 _atom_site_type_symbol
 _atom_site_label
 _atom_site_symmetry_multiplicity
 _atom_site_fract_x
 _atom_site_fract_y
 _atom_site_fract_z
 _atom_site_occupancy
  Hg  Hg0  1  0.82895000  0.25011000  0.34192000  1.0
  Hg  Hg1  1  0.17104000  0.74989000  0.65809000  1.0
  H  H2  1  0.63566000  0.37107000  0.59354000  1.0
  H  H3  1  0.77341000  0.12893000  0.59332000  1.0
  H  H4  1  0.36434000  0.62894000  0.40646000  1.0
  H  H5  1  0.22658000  0.87107000  0.40669000  1.0
  H  H6  1  0.68948000  0.46588000  0.74715000  1.0
  H  H7  1  0.56800000  0.03342000  0.74626000  1.0
  H  H8  1  0.31052000  0.53413000  0.25284000  1.0
  H  H9  1  0.43197000  0.96658000  0.25374000  1.0
  H  H10  1  0.01112000  0.47359000  0.73121000  1.0
  H  H11  1  0.26167000  0.02629000  0.73086000  1.0
  H  H12  1  0.98887000  0.52642000  0.26879000  1.0
  H  H13  1  0.73830000  0.97371000  0.26914000  1.0
  H  H14  1  0.25764000  0.38598000  0.56509000  1.0
  H  H15  1  0.17925000  0.11436000  0.56528000  1.0
  H  H16  1  0.74237000  0.61403000  0.43491000  1.0
  H  H17  1  0.82075000  0.88564000  0.43471000  1.0
  H  H18  1  0.14382000  0.33986000  0.09168000  1.0
  H  H19  1  0.76351000  0.15993000  0.09169000  1.0
  H  H20  1  0.85619000  0.66014000  0.90831000  1.0
  H  H21  1  0.23649000  0.84008000  0.90831000  1.0
  H  H22  1  0.47487000  0.27278000  0.80338000  1.0
  H  H23  1  0.71948000  0.22845000  0.80354000  1.0
  H  H24  1  0.52515000  0.72722000  0.19661000  1.0
  H  H25  1  0.28053000  0.77155000  0.19645000  1.0
  H  H26  1  0.32703000  0.39393000  0.87202000  1.0
  H  H27  1  0.79975000  0.10676000  0.87085000  1.0
  H  H28  1  0.67298000  0.60607000  0.12798000  1.0
  H  H29  1  0.20024000  0.89324000  0.12916000  1.0
  H  H30  1  0.24980000  0.26771000  0.88271000  1.0
  H  H31  1  0.86497000  0.23292000  0.88377000  1.0
  H  H32  1  0.75021000  0.73228000  0.11729000  1.0
  H  H33  1  0.13504000  0.76707000  0.11623000  1.0
  C  C34  1  0.21971000  0.28170000  0.38896000  1.0
  C  C35  1  0.39214000  0.21812000  0.38900000  1.0
  C  C36  1  0.78029000  0.71830000  0.61104000  1.0
  C  C37  1  0.60787000  0.78188000  0.61100000  1.0
  C  C38  1  0.07718000  0.32826000  0.49362000  1.0
  C  C39  1  0.43071000  0.17181000  0.49372000  1.0
  C  C40  1  0.92282000  0.67174000  0.50638000  1.0
  C  C41  1  0.56928000  0.82819000  0.50628000  1.0
  C  C42  1  0.77226000  0.37354000  0.59169000  1.0
  C  C43  1  0.63869000  0.12634000  0.59146000  1.0
  C  C44  1  0.22775000  0.62646000  0.40831000  1.0
  C  C45  1  0.36129000  0.87366000  0.40855000  1.0
  C  C46  1  0.80310000  0.42622000  0.67735000  1.0
  C  C47  1  0.52326000  0.07335000  0.67678000  1.0
  C  C48  1  0.19691000  0.57379000  0.32264000  1.0
  C  C49  1  0.47671000  0.92665000  0.32323000  1.0
  C  C50  1  0.98008000  0.42987000  0.66882000  1.0
  C  C51  1  0.35443000  0.07002000  0.66855000  1.0
  C  C52  1  0.01992000  0.57013000  0.33118000  1.0
  C  C53  1  0.64555000  0.92998000  0.33145000  1.0
  C  C54  1  0.11896000  0.38054000  0.57575000  1.0
  C  C55  1  0.30753000  0.11960000  0.57580000  1.0
  C  C56  1  0.88104000  0.61946000  0.42425000  1.0
  C  C57  1  0.69245000  0.88040000  0.42420000  1.0
  C  C58  1  0.31440000  0.27667000  0.19380000  1.0
  C  C59  1  0.49139000  0.22272000  0.19380000  1.0
  C  C60  1  0.68561000  0.72334000  0.80620000  1.0
  C  C61  1  0.50861000  0.77728000  0.80620000  1.0
  C  C62  1  0.28051000  0.30029000  0.08968000  1.0
  C  C63  1  0.62876000  0.19923000  0.08969000  1.0
  C  C64  1  0.71951000  0.69971000  0.91031000  1.0
  C  C65  1  0.37126000  0.80078000  0.91030000  1.0
  C  C66  1  0.41577000  0.27483000  0.98734000  1.0
  C  C67  1  0.59528000  0.22470000  0.98733000  1.0
  C  C68  1  0.58424000  0.72517000  0.01266000  1.0
  C  C69  1  0.40473000  0.77531000  0.01267000  1.0
  C  C70  1  0.36640000  0.30318000  0.88048000  1.0
  C  C71  1  0.75118000  0.19741000  0.88051000  1.0
  C  C72  1  0.63361000  0.69682000  0.11952000  1.0
  C  C73  1  0.24883000  0.80259000  0.11949000  1.0
  Br  Br74  1  0.03882000  0.06111000  0.28443000  1.0
  Br  Br75  1  0.67375000  0.43873000  0.28553000  1.0
  Br  Br76  1  0.96117000  0.93887000  0.71560000  1.0
  Br  Br77  1  0.32625000  0.56126000  0.71446000  1.0
  N  N78  1  0.18280000  0.30708000  0.29288000  1.0
  N  N79  1  0.52441000  0.19246000  0.29294000  1.0
  N  N80  1  0.81720000  0.69292000  0.70712000  1.0
  N  N81  1  0.47560000  0.80755000  0.70706000  1.0
  N  N82  1  0.90580000  0.32502000  0.50237000  1.0
  N  N83  1  0.59343000  0.17512000  0.50243000  1.0
  N  N84  1  0.09421000  0.67498000  0.49763000  1.0
  N  N85  1  0.40657000  0.82487000  0.49757000  1.0
