# generated using pymatgen
data_CoH10(C6N5)2
_symmetry_space_group_name_H-M   'P 1'
_cell_length_a   3.44362000
_cell_length_b   9.59901000
_cell_length_c   11.31840000
_cell_angle_alpha   99.88840000
_cell_angle_beta   96.00890000
_cell_angle_gamma   92.16230000
_symmetry_Int_Tables_number   1
_chemical_formula_structural   CoH10(C6N5)2
_chemical_formula_sum   'Co1 H10 C12 N10'
_cell_volume   365.95740415
_cell_formula_units_Z   1
loop_
 _symmetry_equiv_pos_site_id
 _symmetry_equiv_pos_as_xyz
  1  'x, y, z'
loop_
 _atom_site_type_symbol
 _atom_site_label
 _atom_site_symmetry_multiplicity
 _atom_site_fract_x
 _atom_site_fract_y
 _atom_site_fract_z
 _atom_site_occupancy
  Co  Co0  1  0.00000000  0.50000000  0.50000000  1.0
  H  H1  1  0.11643000  0.34866000  0.23454000  1.0
  H  H2  1  0.88355000  0.65134000  0.76546000  1.0
  H  H3  1  0.75638000  0.16272000  0.51909000  1.0
  H  H4  1  0.24362000  0.83728000  0.48091000  1.0
  H  H5  1  0.73750000  0.95303000  0.31561000  1.0
  H  H6  1  0.26251000  0.04697000  0.68439000  1.0
  H  H7  1  0.81504000  0.24982000  0.04074000  1.0
  H  H8  1  0.18496000  0.75018000  0.95926000  1.0
  H  H9  1  0.11677000  0.86298000  0.16694000  1.0
  H  H10  1  0.88324000  0.13702000  0.83306000  1.0
  C  C11  1  0.00791000  0.27181000  0.28454000  1.0
  C  C12  1  0.99208000  0.72819000  0.71546000  1.0
  C  C13  1  0.82815000  0.17084000  0.42953000  1.0
  C  C14  1  0.17186000  0.82916000  0.57047000  1.0
  C  C15  1  0.96469000  0.06465000  0.11783000  1.0
  C  C16  1  0.03531000  0.93535000  0.88217000  1.0
  C  C17  1  0.81936000  0.06563000  0.33041000  1.0
  C  C18  1  0.18064000  0.93437000  0.66959000  1.0
  C  C19  1  0.90321000  0.14102000  0.02352000  1.0
  C  C20  1  0.09679000  0.85898000  0.97648000  1.0
  C  C21  1  0.06075000  0.92323000  0.09427000  1.0
  C  C22  1  0.93925000  0.07677000  0.90573000  1.0
  N  N23  1  0.94684000  0.29860000  0.39991000  1.0
  N  N24  1  0.05316000  0.70140000  0.60009000  1.0
  N  N25  1  0.93110000  0.13130000  0.23815000  1.0
  N  N26  1  0.06889000  0.86871000  0.76185000  1.0
  N  N27  1  0.48726000  0.55404000  0.39565000  1.0
  N  N28  1  0.51275000  0.44596000  0.60435000  1.0
  N  N29  1  0.50837000  0.64119000  0.33112000  1.0
  N  N30  1  0.49163000  0.35880000  0.66888000  1.0
  N  N31  1  0.53167000  0.72495000  0.26781000  1.0
  N  N32  1  0.46834000  0.27505000  0.73219000  1.0
