# generated using pymatgen
data_ZnH32C33NO4F
_symmetry_space_group_name_H-M   'P 1'
_cell_length_a   12.95730000
_cell_length_b   18.39010000
_cell_length_c   19.38290000
_cell_angle_alpha   89.97540000
_cell_angle_beta   89.13580000
_cell_angle_gamma   80.02850000
_symmetry_Int_Tables_number   1
_chemical_formula_structural   ZnH32C33NO4F
_chemical_formula_sum   'Zn2 H64 C66 N2 O8 F2'
_cell_volume   4548.37627406
_cell_formula_units_Z   2
loop_
 _symmetry_equiv_pos_site_id
 _symmetry_equiv_pos_as_xyz
  1  'x, y, z'
loop_
 _atom_site_type_symbol
 _atom_site_label
 _atom_site_symmetry_multiplicity
 _atom_site_fract_x
 _atom_site_fract_y
 _atom_site_fract_z
 _atom_site_occupancy
  Zn  Zn0  1  0.47823000  0.58410000  0.50324000  1.0
  Zn  Zn1  1  0.50956000  0.42190000  0.49897000  1.0
  H  H2  1  0.18726000  0.40605000  0.51197000  1.0
  H  H3  1  0.80252000  0.59108000  0.47091000  1.0
  H  H4  1  0.35203000  0.85963000  0.57877000  1.0
  H  H5  1  0.67057000  0.14482000  0.45396000  1.0
  H  H6  1  0.61751000  0.81028000  0.43855000  1.0
  H  H7  1  0.35835000  0.19392000  0.54262000  1.0
  H  H8  1  0.59330000  0.67966000  0.44211000  1.0
  H  H9  1  0.37333000  0.32710000  0.53712000  1.0
  H  H10  1  0.56869000  0.92107000  0.40515000  1.0
  H  H11  1  0.43253000  0.08505000  0.60140000  1.0
  H  H12  1  0.58303000  0.05267000  0.40135000  1.0
  H  H13  1  0.42135000  0.95297000  0.60665000  1.0
  H  H14  1  0.15686000  0.62117000  0.41833000  1.0
  H  H15  1  0.83323000  0.37736000  0.56679000  1.0
  H  H16  1  0.58454000  0.38672000  0.84088000  1.0
  H  H17  1  0.62500000  0.57096000  0.14344000  1.0
  H  H18  1  0.38222000  0.59834000  0.71885000  1.0
  H  H19  1  0.45172000  0.41918000  0.30256000  1.0
  H  H20  1  0.33240000  0.51302000  0.94900000  1.0
  H  H21  1  0.68399000  0.46259000  0.05475000  1.0
  H  H22  1  0.34805000  0.51111000  0.07588000  1.0
  H  H23  1  0.66834000  0.46784000  0.92736000  1.0
  H  H24  1  0.13501000  0.82673000  0.58439000  1.0
  H  H25  1  0.19575000  0.81993000  0.50129000  1.0
  H  H26  1  0.07838000  0.78452000  0.51551000  1.0
  H  H27  1  0.23253000  0.67994000  0.51255000  1.0
  H  H28  1  0.16881000  0.68707000  0.59335000  1.0
  H  H29  1  0.35384000  0.66376000  0.61277000  1.0
  H  H30  1  0.30461000  0.75576000  0.63964000  1.0
  H  H31  1  0.78176000  0.38914000  0.36030000  1.0
  H  H32  1  0.87018000  0.30366000  0.35949000  1.0
  H  H33  1  0.79886000  0.33446000  0.28416000  1.0
  H  H34  1  0.71308000  0.23788000  0.34167000  1.0
  H  H35  1  0.62969000  0.32508000  0.34728000  1.0
  H  H36  1  0.70260000  0.34157000  0.46691000  1.0
  H  H37  1  0.77146000  0.24979000  0.46119000  1.0
  H  H38  1  0.62563000  0.23983000  0.61755000  1.0
  H  H39  1  0.67341000  0.21089000  0.70011000  1.0
  H  H40  1  0.55978000  0.18108000  0.66825000  1.0
  H  H41  1  0.50937000  0.28347000  0.75562000  1.0
  H  H42  1  0.46180000  0.31271000  0.67336000  1.0
  H  H43  1  0.61400000  0.37598000  0.65281000  1.0
  H  H44  1  0.66622000  0.34464000  0.73351000  1.0
  H  H45  1  0.69346000  0.73099000  0.34417000  1.0
  H  H46  1  0.71495000  0.74679000  0.25550000  1.0
  H  H47  1  0.60406000  0.79813000  0.29887000  1.0
  H  H48  1  0.55383000  0.69610000  0.22511000  1.0
  H  H49  1  0.52418000  0.68427000  0.31316000  1.0
  H  H50  1  0.68648000  0.59261000  0.32662000  1.0
  H  H51  1  0.72394000  0.60633000  0.24005000  1.0
  H  H52  1  0.36401000  0.78423000  0.85026000  1.0
  H  H53  1  0.41319000  0.75409000  0.93233000  1.0
  H  H54  1  0.49395000  0.79255000  0.87257000  1.0
  H  H55  1  0.54540000  0.65415000  0.87430000  1.0
  H  H56  1  0.49700000  0.68436000  0.79290000  1.0
  H  H57  1  0.31965000  0.65522000  0.82800000  1.0
  H  H58  1  0.37306000  0.62178000  0.90767000  1.0
  H  H59  1  0.35825000  0.24646000  0.17925000  1.0
  H  H60  1  0.38666000  0.26430000  0.09167000  1.0
  H  H61  1  0.47146000  0.19564000  0.13793000  1.0
  H  H62  1  0.54963000  0.31202000  0.12781000  1.0
  H  H63  1  0.52245000  0.29379000  0.21497000  1.0
  H  H64  1  0.35228000  0.38258000  0.20860000  1.0
  H  H65  1  0.38027000  0.40032000  0.12145000  1.0
  C  C66  1  0.54170000  0.51137000  0.37121000  1.0
  C  C67  1  0.45915000  0.49253000  0.63156000  1.0
  C  C68  1  0.48921000  0.49386000  0.85280000  1.0
  C  C69  1  0.52676000  0.48829000  0.15080000  1.0
  C  C70  1  0.43232000  0.55548000  0.81825000  1.0
  C  C71  1  0.47654000  0.44437000  0.19575000  1.0
  C  C72  1  0.42456000  0.55109000  0.74673000  1.0
  C  C73  1  0.48878000  0.45287000  0.26658000  1.0
  C  C74  1  0.47100000  0.48931000  0.70821000  1.0
  C  C75  1  0.54461000  0.50452000  0.29419000  1.0
  C  C76  1  0.40984000  0.50268000  0.97206000  1.0
  C  C77  1  0.60663000  0.47408000  0.03157000  1.0
  C  C78  1  0.41864000  0.50035000  0.04349000  1.0
  C  C79  1  0.59781000  0.47656000  0.95992000  1.0
  C  C80  1  0.51729000  0.48620000  0.07470000  1.0
  C  C81  1  0.49927000  0.49149000  0.92885000  1.0
  C  C82  1  0.40107000  0.74662000  0.54958000  1.0
  C  C83  1  0.60581000  0.25919000  0.47081000  1.0
  C  C84  1  0.40849000  0.82158000  0.54817000  1.0
  C  C85  1  0.60204000  0.18361000  0.47184000  1.0
  C  C86  1  0.48519000  0.84775000  0.50808000  1.0
  C  C87  1  0.51391000  0.15772000  0.49807000  1.0
  C  C88  1  0.69052000  0.49577000  0.52625000  1.0
  C  C89  1  0.29980000  0.50654000  0.46803000  1.0
  C  C90  1  0.55391000  0.79507000  0.46956000  1.0
  C  C91  1  0.42972000  0.21039000  0.52245000  1.0
  C  C92  1  0.54172000  0.72183000  0.47171000  1.0
  C  C93  1  0.43718000  0.28442000  0.51925000  1.0
  C  C94  1  0.54042000  0.95630000  0.44909000  1.0
  C  C95  1  0.46177000  0.04912000  0.55806000  1.0
  C  C96  1  0.54847000  0.03066000  0.44675000  1.0
  C  C97  1  0.45517000  0.97455000  0.56078000  1.0
  C  C98  1  0.50860000  0.07843000  0.50101000  1.0
  C  C99  1  0.49369000  0.92669000  0.50615000  1.0
  C  C100  1  0.18322000  0.51214000  0.46571000  1.0
  C  C101  1  0.80732000  0.48636000  0.51972000  1.0
  C  C102  1  0.97629000  0.41099000  0.53309000  1.0
  C  C103  1  0.01368000  0.58473000  0.44661000  1.0
  C  C104  1  0.86990000  0.41998000  0.54243000  1.0
  C  C105  1  0.12041000  0.57752000  0.44094000  1.0
  C  C106  1  0.85250000  0.54083000  0.48809000  1.0
  C  C107  1  0.13766000  0.45595000  0.49372000  1.0
  C  C108  1  0.96209000  0.53099000  0.47813000  1.0
  C  C109  1  0.02773000  0.46466000  0.50137000  1.0
  C  C110  1  0.53198000  0.42899000  0.74186000  1.0
  C  C111  1  0.59533000  0.54822000  0.24992000  1.0
  C  C112  1  0.53862000  0.43321000  0.81372000  1.0
  C  C113  1  0.58639000  0.53760000  0.17893000  1.0
  C  C114  1  0.32025000  0.71915000  0.59430000  1.0
  C  C115  1  0.21592000  0.71569000  0.55817000  1.0
  C  C116  1  0.15318000  0.79080000  0.53880000  1.0
  C  C117  1  0.70078000  0.28723000  0.44396000  1.0
  C  C118  1  0.70457000  0.29346000  0.36471000  1.0
  C  C119  1  0.79400000  0.33214000  0.34075000  1.0
  C  C120  1  0.59251000  0.36198000  0.70555000  1.0
  C  C121  1  0.53384000  0.29624000  0.70291000  1.0
  C  C122  1  0.60154000  0.22823000  0.67050000  1.0
  C  C123  1  0.65568000  0.60613000  0.27473000  1.0
  C  C124  1  0.58930000  0.68409000  0.27608000  1.0
  C  C125  1  0.65366000  0.74329000  0.29466000  1.0
  C  C126  1  0.39237000  0.62864000  0.85298000  1.0
  C  C127  1  0.47402000  0.68015000  0.84753000  1.0
  C  C128  1  0.43428000  0.75693000  0.87731000  1.0
  C  C129  1  0.41666000  0.38586000  0.17153000  1.0
  C  C130  1  0.48535000  0.30904000  0.16500000  1.0
  C  C131  1  0.42230000  0.25053000  0.14225000  1.0
  N  N132  1  0.46721000  0.69751000  0.51038000  1.0
  N  N133  1  0.52284000  0.30864000  0.49418000  1.0
  O  O134  1  0.51959000  0.57541000  0.39779000  1.0
  O  O135  1  0.45457000  0.43302000  0.59909000  1.0
  O  O136  1  0.55761000  0.45043000  0.40436000  1.0
  O  O137  1  0.45534000  0.55598000  0.60380000  1.0
  O  O138  1  0.63886000  0.56016000  0.51721000  1.0
  O  O139  1  0.35502000  0.44235000  0.46694000  1.0
  O  O140  1  0.65239000  0.43744000  0.53848000  1.0
  O  O141  1  0.33293000  0.56757000  0.47359000  1.0
  F  F142  1  0.03747000  0.34736000  0.55530000  1.0
  F  F143  1  0.95246000  0.64733000  0.42230000  1.0
