# generated using pymatgen
data_AgPH22C25(NO)2
_symmetry_space_group_name_H-M   'P 1'
_cell_length_a   9.33710000
_cell_length_b   9.73531000
_cell_length_c   13.58100000
_cell_angle_alpha   97.23370000
_cell_angle_beta   92.20320000
_cell_angle_gamma   116.86000000
_symmetry_Int_Tables_number   1
_chemical_formula_structural   AgPH22C25(NO)2
_chemical_formula_sum   'Ag2 P2 H44 C50 N4 O4'
_cell_volume   1086.19693394
_cell_formula_units_Z   2
loop_
 _symmetry_equiv_pos_site_id
 _symmetry_equiv_pos_as_xyz
  1  'x, y, z'
loop_
 _atom_site_type_symbol
 _atom_site_label
 _atom_site_symmetry_multiplicity
 _atom_site_fract_x
 _atom_site_fract_y
 _atom_site_fract_z
 _atom_site_occupancy
  Ag  Ag0  1  0.45300000  0.63521000  0.42345000  1.0
  Ag  Ag1  1  0.54700000  0.36479000  0.57655000  1.0
  P  P2  1  0.22455000  0.57101000  0.31608000  1.0
  P  P3  1  0.77545000  0.42899000  0.68392000  1.0
  H  H4  1  0.22297000  0.71848000  0.52534000  1.0
  H  H5  1  0.77703000  0.28152000  0.47466000  1.0
  H  H6  1  0.97103000  0.58462000  0.34829000  1.0
  H  H7  1  0.02897000  0.41539000  0.65171000  1.0
  H  H8  1  0.02041000  0.47842000  0.42768000  1.0
  H  H9  1  0.97959000  0.52158000  0.57232000  1.0
  H  H10  1  0.97627000  0.79467000  0.33497000  1.0
  H  H11  1  0.02373000  0.20533000  0.66504000  1.0
  H  H12  1  0.02653000  0.06491000  0.32535000  1.0
  H  H13  1  0.97347000  0.93509000  0.67466000  1.0
  H  H14  1  0.25036000  0.28884000  0.43943000  1.0
  H  H15  1  0.74964000  0.71116000  0.56057000  1.0
  H  H16  1  0.37119000  0.98663000  0.57056000  1.0
  H  H17  1  0.62881000  0.01337000  0.42944000  1.0
  H  H18  1  0.87761000  0.30860000  0.28190000  1.0
  H  H19  1  0.12240000  0.69140000  0.71809000  1.0
  H  H20  1  0.76243000  0.04893000  0.18132000  1.0
  H  H21  1  0.23756000  0.95107000  0.81867000  1.0
  H  H22  1  0.93652000  0.95980000  0.08491000  1.0
  H  H23  1  0.06348000  0.04019000  0.91509000  1.0
  H  H24  1  0.23094000  0.13648000  0.09355000  1.0
  H  H25  1  0.76906000  0.86352000  0.90645000  1.0
  H  H26  1  0.35075000  0.39944000  0.19520000  1.0
  H  H27  1  0.64925000  0.60057000  0.80479000  1.0
  H  H28  1  0.48695000  0.85787000  0.27607000  1.0
  H  H29  1  0.51305000  0.14213000  0.72393000  1.0
  H  H30  1  0.51593000  0.02590000  0.14633000  1.0
  H  H31  1  0.48407000  0.97410000  0.85366000  1.0
  H  H32  1  0.28881000  0.95017000  0.01489000  1.0
  H  H33  1  0.71119000  0.04984000  0.98511000  1.0
  H  H34  1  0.02824000  0.71378000  0.01780000  1.0
  H  H35  1  0.97175000  0.28622000  0.98220000  1.0
  H  H36  1  0.99713000  0.54888000  0.14801000  1.0
  H  H37  1  0.00287000  0.45112000  0.85199000  1.0
  H  H38  1  0.31057000  0.30102000  0.68023000  1.0
  H  H39  1  0.68943000  0.69898000  0.31977000  1.0
  H  H40  1  0.29355000  0.20700000  0.84300000  1.0
  H  H41  1  0.70645000  0.79300000  0.15700000  1.0
  H  H42  1  0.31428000  0.38100000  0.00010000  1.0
  H  H43  1  0.68572000  0.61900000  0.99990000  1.0
  H  H44  1  0.35004000  0.64827000  0.99302000  1.0
  H  H45  1  0.64997000  0.35173000  0.00698000  1.0
  H  H46  1  0.36418000  0.74021000  0.82797000  1.0
  H  H47  1  0.63582000  0.25979000  0.17203000  1.0
  C  C48  1  0.07055000  0.58570000  0.39444000  1.0
  C  C49  1  0.92945000  0.41430000  0.60556000  1.0
  C  C50  1  0.16718000  0.86663000  0.45640000  1.0
  C  C51  1  0.83282000  0.13337000  0.54360000  1.0
  C  C52  1  0.07217000  0.89209000  0.38491000  1.0
  C  C53  1  0.92783000  0.10791000  0.61510000  1.0
  C  C54  1  0.10026000  0.04330000  0.37911000  1.0
  C  C55  1  0.89974000  0.95670000  0.62089000  1.0
  C  C56  1  0.22382000  0.16843000  0.44199000  1.0
  C  C57  1  0.77618000  0.83157000  0.55801000  1.0
  C  C58  1  0.29134000  0.00040000  0.51616000  1.0
  C  C59  1  0.70865000  0.99960000  0.48384000  1.0
  C  C60  1  0.12331000  0.37514000  0.24363000  1.0
  C  C61  1  0.87670000  0.62486000  0.75636000  1.0
  C  C62  1  0.95741000  0.27514000  0.23987000  1.0
  C  C63  1  0.04259000  0.72487000  0.76013000  1.0
  C  C64  1  0.89117000  0.12653000  0.18233000  1.0
  C  C65  1  0.10883000  0.87348000  0.81767000  1.0
  C  C66  1  0.98800000  0.07655000  0.12847000  1.0
  C  C67  1  0.01200000  0.92345000  0.87152000  1.0
  C  C68  1  0.15341000  0.17589000  0.13291000  1.0
  C  C69  1  0.84659000  0.82411000  0.86709000  1.0
  C  C70  1  0.22091000  0.32377000  0.19035000  1.0
  C  C71  1  0.77909000  0.67623000  0.80965000  1.0
  C  C72  1  0.24103000  0.69280000  0.22058000  1.0
  C  C73  1  0.75898000  0.30720000  0.77942000  1.0
  C  C74  1  0.38662000  0.82747000  0.21950000  1.0
  C  C75  1  0.61338000  0.17253000  0.78050000  1.0
  C  C76  1  0.40292000  0.92069000  0.14633000  1.0
  C  C77  1  0.59707000  0.07931000  0.85367000  1.0
  C  C78  1  0.27481000  0.87939000  0.07344000  1.0
  C  C79  1  0.72518000  0.12061000  0.92656000  1.0
  C  C80  1  0.12847000  0.74609000  0.07467000  1.0
  C  C81  1  0.87153000  0.25392000  0.92533000  1.0
  C  C82  1  0.11140000  0.65320000  0.14797000  1.0
  C  C83  1  0.88860000  0.34680000  0.85203000  1.0
  C  C84  1  0.35675000  0.58932000  0.64569000  1.0
  C  C85  1  0.64325000  0.41067000  0.35431000  1.0
  C  C86  1  0.34098000  0.52838000  0.74398000  1.0
  C  C87  1  0.65902000  0.47162000  0.25602000  1.0
  C  C88  1  0.31953000  0.37721000  0.74886000  1.0
  C  C89  1  0.68047000  0.62279000  0.25114000  1.0
  C  C90  1  0.30939000  0.32440000  0.84049000  1.0
  C  C91  1  0.69061000  0.67559000  0.15951000  1.0
  C  C92  1  0.32087000  0.42162000  0.92845000  1.0
  C  C93  1  0.67913000  0.57838000  0.07155000  1.0
  C  C94  1  0.34128000  0.57209000  0.92449000  1.0
  C  C95  1  0.65872000  0.42790000  0.07551000  1.0
  C  C96  1  0.34968000  0.62401000  0.83271000  1.0
  C  C97  1  0.65032000  0.37598000  0.16729000  1.0
  N  N98  1  0.14194000  0.72049000  0.47200000  1.0
  N  N99  1  0.85806000  0.27951000  0.52800000  1.0
  N  N100  1  0.31882000  0.14615000  0.50859000  1.0
  N  N101  1  0.68118000  0.85385000  0.49142000  1.0
  O  O102  1  0.39785000  0.51994000  0.57427000  1.0
  O  O103  1  0.60215000  0.48006000  0.42573000  1.0
  O  O104  1  0.32741000  0.70297000  0.63973000  1.0
  O  O105  1  0.67259000  0.29703000  0.36027000  1.0
