# generated using pymatgen
data_CdH6C8(IN)2
_symmetry_space_group_name_H-M   'P 1'
_cell_length_a   7.80456000
_cell_length_b   7.80456000
_cell_length_c   10.70000000
_cell_angle_alpha   72.47220000
_cell_angle_beta   72.47170000
_cell_angle_gamma   60.83510000
_symmetry_Int_Tables_number   1
_chemical_formula_structural   CdH6C8(IN)2
_chemical_formula_sum   'Cd2 H12 C16 I4 N4'
_cell_volume   533.28480304
_cell_formula_units_Z   2
loop_
 _symmetry_equiv_pos_site_id
 _symmetry_equiv_pos_as_xyz
  1  'x, y, z'
loop_
 _atom_site_type_symbol
 _atom_site_label
 _atom_site_symmetry_multiplicity
 _atom_site_fract_x
 _atom_site_fract_y
 _atom_site_fract_z
 _atom_site_occupancy
  Cd  Cd0  1  0.44082000  0.44082000  0.36342000  1.0
  Cd  Cd1  1  0.55918000  0.55918000  0.63658000  1.0
  H  H2  1  0.00427000  0.68832000  0.54292000  1.0
  H  H3  1  0.31168000  0.99571000  0.45709000  1.0
  H  H4  1  0.99573000  0.31168000  0.45708000  1.0
  H  H5  1  0.68832000  0.00429000  0.54291000  1.0
  H  H6  1  0.39077000  0.75794000  0.12071000  1.0
  H  H7  1  0.24206000  0.60923000  0.87929000  1.0
  H  H8  1  0.60923000  0.24206000  0.87929000  1.0
  H  H9  1  0.75794000  0.39077000  0.12071000  1.0
  H  H10  1  0.34255000  0.02593000  0.92182000  1.0
  H  H11  1  0.97407000  0.65744000  0.07818000  1.0
  H  H12  1  0.65745000  0.97407000  0.07818000  1.0
  H  H13  1  0.02593000  0.34256000  0.92182000  1.0
  C  C14  1  0.98406000  0.80516000  0.45367000  1.0
  C  C15  1  0.19484000  0.01594000  0.54633000  1.0
  C  C16  1  0.01594000  0.19484000  0.54633000  1.0
  C  C17  1  0.80516000  0.98406000  0.45367000  1.0
  C  C18  1  0.10464000  0.92219000  0.23803000  1.0
  C  C19  1  0.07781000  0.89536000  0.76196000  1.0
  C  C20  1  0.89536000  0.07781000  0.76197000  1.0
  C  C21  1  0.92219000  0.10464000  0.23804000  1.0
  C  C22  1  0.25458000  0.89735000  0.12205000  1.0
  C  C23  1  0.10263000  0.74541000  0.87797000  1.0
  C  C24  1  0.74541000  0.10265000  0.87795000  1.0
  C  C25  1  0.89737000  0.25459000  0.12203000  1.0
  C  C26  1  0.22618000  0.04731000  0.01101000  1.0
  C  C27  1  0.95270000  0.77382000  0.98897000  1.0
  C  C28  1  0.77382000  0.95269000  0.98898000  1.0
  C  C29  1  0.04730000  0.22618000  0.01103000  1.0
  I  I30  1  0.33939000  0.33940000  0.64870000  1.0
  I  I31  1  0.66061000  0.66061000  0.35130000  1.0
  I  I32  1  0.32453000  0.32453000  0.19811000  1.0
  I  I33  1  0.67547000  0.67547000  0.80189000  1.0
  N  N34  1  0.13165000  0.77502000  0.34935000  1.0
  N  N35  1  0.22498000  0.86834000  0.65066000  1.0
  N  N36  1  0.86835000  0.22498000  0.65065000  1.0
  N  N37  1  0.77502000  0.13166000  0.34934000  1.0
