# generated using pymatgen
data_CoH26C28N4O5
_symmetry_space_group_name_H-M   'P 1'
_cell_length_a   15.84860000
_cell_length_b   15.85440000
_cell_length_c   16.30765704
_cell_angle_alpha   115.99364948
_cell_angle_beta   109.22931465
_cell_angle_gamma   102.11700000
_symmetry_Int_Tables_number   1
_chemical_formula_structural   CoH26C28N4O5
_chemical_formula_sum   'Co4 H104 C112 N16 O20'
_cell_volume   3160.18809800
_cell_formula_units_Z   4
loop_
 _symmetry_equiv_pos_site_id
 _symmetry_equiv_pos_as_xyz
  1  'x, y, z'
loop_
 _atom_site_type_symbol
 _atom_site_label
 _atom_site_symmetry_multiplicity
 _atom_site_fract_x
 _atom_site_fract_y
 _atom_site_fract_z
 _atom_site_occupancy
  Co  Co0  1  0.66624000  0.79361000  0.88144000  1.0
  Co  Co1  1  0.91211000  0.28471000  0.61858000  1.0
  Co  Co2  1  0.33376000  0.20638000  0.11856000  1.0
  Co  Co3  1  0.08789000  0.71529000  0.38143000  1.0
  H  H4  1  0.29841000  0.33476000  0.30893000  1.0
  H  H5  1  0.02563000  0.48948000  0.19140000  1.0
  H  H6  1  0.70159000  0.66524000  0.69107000  1.0
  H  H7  1  0.97438000  0.51052000  0.80861000  1.0
  H  H8  1  0.36966000  0.74505000  0.58839000  1.0
  H  H9  1  0.15671000  0.28146000  0.91198000  1.0
  H  H10  1  0.63035000  0.25495000  0.41162000  1.0
  H  H11  1  0.84329000  0.71854000  0.08803000  1.0
  H  H12  1  0.21491000  0.43619000  0.31328000  1.0
  H  H13  1  0.12267000  0.40157000  0.18704000  1.0
  H  H14  1  0.78509000  0.56381000  0.68672000  1.0
  H  H15  1  0.87734000  0.59843000  0.81297000  1.0
  H  H16  1  0.47101000  0.51038000  0.57787000  1.0
  H  H17  1  0.93227000  0.39296000  0.92240000  1.0
  H  H18  1  0.52900000  0.48962000  0.42213000  1.0
  H  H19  1  0.06773000  0.60703000  0.07760000  1.0
  H  H20  1  0.94306000  0.96957000  0.15311000  1.0
  H  H21  1  0.81666000  0.28972000  0.34678000  1.0
  H  H22  1  0.05694000  0.03044000  0.84689000  1.0
  H  H23  1  0.18335000  0.71028000  0.65323000  1.0
  H  H24  1  0.81440000  0.89446000  0.08759000  1.0
  H  H25  1  0.80724000  0.22660000  0.41235000  1.0
  H  H26  1  0.18561000  0.10554000  0.91241000  1.0
  H  H27  1  0.19277000  0.77340000  0.58766000  1.0
  H  H28  1  0.86417000  0.03164000  0.17355000  1.0
  H  H29  1  0.85854000  0.19054000  0.32634000  1.0
  H  H30  1  0.13583000  0.96836000  0.82645000  1.0
  H  H31  1  0.14146000  0.80946000  0.67366000  1.0
  H  H32  1  0.68163000  0.84631000  0.71440000  1.0
  H  H33  1  0.13186000  0.46690000  0.78548000  1.0
  H  H34  1  0.31836000  0.15369000  0.28560000  1.0
  H  H35  1  0.86815000  0.53310000  0.21452000  1.0
  H  H36  1  0.74203000  0.95304000  0.65272000  1.0
  H  H37  1  0.30024000  0.58907000  0.84727000  1.0
  H  H38  1  0.25795000  0.04696000  0.34727000  1.0
  H  H39  1  0.69977000  0.41093000  0.15273000  1.0
  H  H40  1  0.88965000  0.12014000  0.77517000  1.0
  H  H41  1  0.34489000  0.61484000  0.72502000  1.0
  H  H42  1  0.11033000  0.87986000  0.22482000  1.0
  H  H43  1  0.65511000  0.38517000  0.27498000  1.0
  H  H44  1  0.98869000  0.18058000  0.95939000  1.0
  H  H45  1  0.22119000  0.53002000  0.54094000  1.0
  H  H46  1  0.01131000  0.81942000  0.04061000  1.0
  H  H47  1  0.77880000  0.46997000  0.45905000  1.0
  H  H48  1  0.06648000  0.17502000  0.11844000  1.0
  H  H49  1  0.05720000  0.44813000  0.38167000  1.0
  H  H50  1  0.93353000  0.82498000  0.88156000  1.0
  H  H51  1  0.94280000  0.55186000  0.61833000  1.0
  H  H52  1  0.03754000  0.11593000  0.18106000  1.0
  H  H53  1  0.93543000  0.35669000  0.31885000  1.0
  H  H54  1  0.96246000  0.88407000  0.81894000  1.0
  H  H55  1  0.06456000  0.64331000  0.68115000  1.0
  H  H56  1  0.98517000  0.28454000  0.16580000  1.0
  H  H57  1  0.11923000  0.31949000  0.33397000  1.0
  H  H58  1  0.01483000  0.71546000  0.83420000  1.0
  H  H59  1  0.88076000  0.68050000  0.66602000  1.0
  H  H60  1  0.90082000  0.19548000  0.16901000  1.0
  H  H61  1  0.02749000  0.23232000  0.33172000  1.0
  H  H62  1  0.09918000  0.80452000  0.83099000  1.0
  H  H63  1  0.97250000  0.76767000  0.66827000  1.0
  H  H64  1  0.54946000  0.89423000  0.29672000  1.0
  H  H65  1  0.59707000  0.75304000  0.20303000  1.0
  H  H66  1  0.45053000  0.10575000  0.70327000  1.0
  H  H67  1  0.40293000  0.24696000  0.79697000  1.0
  H  H68  1  0.63679000  0.98223000  0.29457000  1.0
  H  H69  1  0.68724000  0.84253000  0.20520000  1.0
  H  H70  1  0.36321000  0.01776000  0.70543000  1.0
  H  H71  1  0.31276000  0.15746000  0.79479000  1.0
  H  H72  1  0.45986000  0.78503000  0.10075000  1.0
  H  H73  1  0.68390000  0.85905000  0.39898000  1.0
  H  H74  1  0.54013000  0.21496000  0.89924000  1.0
  H  H75  1  0.31610000  0.14095000  0.60102000  1.0
  H  H76  1  0.46363000  0.91076000  0.15517000  1.0
  H  H77  1  0.75516000  0.80851000  0.34433000  1.0
  H  H78  1  0.53637000  0.08924000  0.84483000  1.0
  H  H79  1  0.24485000  0.19149000  0.65567000  1.0
  H  H80  1  0.55472000  0.08773000  0.21034000  1.0
  H  H81  1  0.87718000  0.84444000  0.28952000  1.0
  H  H82  1  0.44529000  0.91228000  0.78967000  1.0
  H  H83  1  0.12282000  0.15557000  0.71048000  1.0
  H  H84  1  0.63245000  0.23051000  0.19869000  1.0
  H  H85  1  0.03186000  0.93374000  0.30149000  1.0
  H  H86  1  0.36756000  0.76950000  0.80132000  1.0
  H  H87  1  0.96814000  0.06626000  0.69851000  1.0
  H  H88  1  0.70323000  0.20676000  0.07991000  1.0
  H  H89  1  0.12700000  0.12313000  0.42050000  1.0
  H  H90  1  0.29678000  0.79326000  0.92010000  1.0
  H  H91  1  0.87300000  0.87687000  0.57950000  1.0
  H  H92  1  0.69546000  0.03365000  0.96415000  1.0
  H  H93  1  0.06954000  0.23107000  0.53625000  1.0
  H  H94  1  0.30454000  0.96636000  0.03585000  1.0
  H  H95  1  0.93046000  0.76894000  0.46375000  1.0
  H  H96  1  0.52450000  0.66255000  0.89175000  1.0
  H  H97  1  0.77026000  0.13263000  0.60803000  1.0
  H  H98  1  0.47550000  0.33745000  0.10825000  1.0
  H  H99  1  0.22974000  0.86737000  0.39197000  1.0
  H  H100  1  0.46977000  0.67328000  0.97372000  1.0
  H  H101  1  0.69911000  0.99599000  0.52610000  1.0
  H  H102  1  0.53022000  0.32673000  0.02628000  1.0
  H  H103  1  0.30089000  0.00400000  0.47389000  1.0
  H  H104  1  0.59548000  0.69290000  0.01818000  1.0
  H  H105  1  0.67427000  0.07719000  0.48157000  1.0
  H  H106  1  0.40451000  0.30710000  0.98182000  1.0
  H  H107  1  0.32573000  0.92281000  0.51843000  1.0
  C  C108  1  0.42793000  0.63499000  0.59325000  1.0
  C  C109  1  0.04158000  0.33458000  0.90698000  1.0
  C  C110  1  0.57208000  0.36500000  0.40675000  1.0
  C  C111  1  0.95842000  0.66541000  0.09302000  1.0
  C  C112  1  0.36126000  0.66577000  0.54609000  1.0
  C  C113  1  0.11956000  0.31515000  0.95419000  1.0
  C  C114  1  0.63873000  0.33423000  0.45391000  1.0
  C  C115  1  0.88045000  0.68485000  0.04582000  1.0
  C  C116  1  0.28287000  0.59306000  0.44578000  1.0
  C  C117  1  0.14710000  0.33704000  0.05451000  1.0
  C  C118  1  0.71713000  0.40694000  0.55422000  1.0
  C  C119  1  0.85290000  0.66296000  0.94550000  1.0
  C  C120  1  0.27470000  0.49221000  0.39185000  1.0
  C  C121  1  0.10018000  0.38283000  0.10847000  1.0
  C  C122  1  0.72530000  0.50779000  0.60815000  1.0
  C  C123  1  0.89982000  0.61717000  0.89154000  1.0
  C  C124  1  0.34296000  0.46193000  0.43761000  1.0
  C  C125  1  0.02411000  0.40527000  0.06271000  1.0
  C  C126  1  0.65704000  0.53806000  0.56239000  1.0
  C  C127  1  0.97589000  0.59473000  0.93730000  1.0
  C  C128  1  0.41822000  0.53305000  0.54040000  1.0
  C  C129  1  0.99246000  0.37771000  0.95989000  1.0
  C  C130  1  0.58178000  0.46695000  0.45960000  1.0
  C  C131  1  0.00755000  0.62229000  0.04012000  1.0
  C  C132  1  0.51147000  0.71338000  0.70032000  1.0
  C  C133  1  0.01296000  0.31107000  0.79986000  1.0
  C  C134  1  0.48854000  0.28662000  0.29968000  1.0
  C  C135  1  0.98705000  0.68894000  0.20015000  1.0
  C  C136  1  0.20311000  0.61918000  0.39848000  1.0
  C  C137  1  0.22057000  0.30468000  0.10189000  1.0
  C  C138  1  0.79689000  0.38081000  0.60152000  1.0
  C  C139  1  0.77944000  0.69533000  0.89812000  1.0
  C  C140  1  0.87065000  0.96782000  0.11478000  1.0
  C  C141  1  0.85334000  0.25567000  0.38508000  1.0
  C  C142  1  0.12936000  0.03218000  0.88522000  1.0
  C  C143  1  0.14666000  0.74433000  0.61492000  1.0
  C  C144  1  0.85897000  0.97761000  0.02571000  1.0
  C  C145  1  0.95209000  0.33318000  0.47417000  1.0
  C  C146  1  0.14103000  0.02238000  0.97428000  1.0
  C  C147  1  0.04792000  0.66683000  0.52584000  1.0
  C  C148  1  0.80225000  0.95376000  0.87166000  1.0
  C  C149  1  0.08208000  0.43064000  0.62833000  1.0
  C  C150  1  0.19774000  0.04624000  0.12834000  1.0
  C  C151  1  0.91792000  0.56936000  0.37167000  1.0
  C  C152  1  0.74852000  0.91753000  0.76676000  1.0
  C  C153  1  0.15070000  0.48171000  0.73322000  1.0
  C  C154  1  0.25147000  0.08248000  0.23324000  1.0
  C  C155  1  0.84930000  0.51829000  0.26678000  1.0
  C  C156  1  0.78288000  0.97824000  0.73372000  1.0
  C  C157  1  0.24445000  0.54918000  0.76633000  1.0
  C  C158  1  0.21710000  0.02176000  0.26627000  1.0
  C  C159  1  0.75556000  0.45083000  0.23367000  1.0
  C  C160  1  0.86770000  0.07224000  0.80260000  1.0
  C  C161  1  0.26959000  0.56534000  0.69756000  1.0
  C  C162  1  0.13228000  0.92777000  0.19740000  1.0
  C  C163  1  0.73042000  0.43466000  0.30244000  1.0
  C  C164  1  0.92347000  0.10769000  0.90666000  1.0
  C  C165  1  0.20097000  0.51730000  0.59354000  1.0
  C  C166  1  0.07651000  0.89231000  0.09333000  1.0
  C  C167  1  0.79902000  0.48270000  0.40645000  1.0
  C  C168  1  0.88957000  0.04632000  0.93945000  1.0
  C  C169  1  0.10686000  0.45041000  0.56064000  1.0
  C  C170  1  0.11043000  0.95369000  0.06055000  1.0
  C  C171  1  0.89314000  0.54959000  0.43936000  1.0
  C  C172  1  0.00815000  0.14544000  0.13355000  1.0
  C  C173  1  0.01238000  0.37474000  0.36652000  1.0
  C  C174  1  0.99185000  0.85457000  0.86645000  1.0
  C  C175  1  0.98762000  0.62526000  0.63348000  1.0
  C  C176  1  0.97901000  0.23075000  0.19118000  1.0
  C  C177  1  0.04015000  0.28794000  0.30902000  1.0
  C  C178  1  0.02098000  0.76925000  0.80882000  1.0
  C  C179  1  0.95985000  0.71206000  0.69098000  1.0
  C  C180  1  0.58756000  0.90012000  0.25255000  1.0
  C  C181  1  0.64716000  0.83526000  0.24725000  1.0
  C  C182  1  0.41244000  0.09987000  0.74744000  1.0
  C  C183  1  0.35285000  0.16474000  0.75275000  1.0
  C  C184  1  0.50918000  0.86733000  0.14589000  1.0
  C  C185  1  0.72104000  0.86337000  0.35384000  1.0
  C  C186  1  0.49082000  0.13267000  0.85411000  1.0
  C  C187  1  0.27895000  0.13662000  0.64615000  1.0
  C  C188  1  0.58817000  0.98050000  0.09776000  1.0
  C  C189  1  0.88250000  0.99039000  0.40216000  1.0
  C  C190  1  0.41182000  0.01950000  0.90223000  1.0
  C  C191  1  0.11749000  0.00961000  0.59783000  1.0
  C  C192  1  0.58830000  0.07526000  0.15987000  1.0
  C  C193  1  0.91519000  0.92843000  0.34007000  1.0
  C  C194  1  0.41171000  0.92475000  0.84014000  1.0
  C  C195  1  0.08481000  0.07158000  0.65993000  1.0
  C  C196  1  0.63095000  0.15543000  0.15158000  1.0
  C  C197  1  0.00382000  0.97930000  0.34857000  1.0
  C  C198  1  0.36906000  0.84458000  0.84843000  1.0
  C  C199  1  0.99618000  0.02070000  0.65143000  1.0
  C  C200  1  0.67062000  0.14137000  0.08339000  1.0
  C  C201  1  0.05802000  0.08709000  0.41689000  1.0
  C  C202  1  0.32938000  0.85864000  0.91661000  1.0
  C  C203  1  0.94198000  0.91291000  0.58311000  1.0
  C  C204  1  0.66819000  0.04585000  0.01971000  1.0
  C  C205  1  0.02611000  0.14832000  0.48052000  1.0
  C  C206  1  0.33181000  0.95416000  0.98029000  1.0
  C  C207  1  0.97388000  0.85168000  0.51947000  1.0
  C  C208  1  0.62688000  0.96480000  0.02815000  1.0
  C  C209  1  0.93650000  0.09861000  0.47191000  1.0
  C  C210  1  0.37312000  0.03520000  0.97185000  1.0
  C  C211  1  0.06349000  0.90139000  0.52808000  1.0
  C  C212  1  0.56705000  0.81635000  0.01048000  1.0
  C  C213  1  0.80554000  0.05650000  0.48942000  1.0
  C  C214  1  0.43294000  0.18364000  0.98951000  1.0
  C  C215  1  0.19446000  0.94349000  0.51057000  1.0
  C  C216  1  0.53712000  0.70527000  0.97194000  1.0
  C  C217  1  0.73287000  0.06508000  0.52784000  1.0
  C  C218  1  0.46287000  0.29473000  0.02805000  1.0
  C  C219  1  0.26713000  0.93492000  0.47216000  1.0
  N  N220  1  0.78485000  0.91375000  0.92822000  1.0
  N  N221  1  0.98558000  0.35648000  0.57164000  1.0
  N  N222  1  0.21514000  0.08624000  0.07177000  1.0
  N  N223  1  0.01441000  0.64352000  0.42836000  1.0
  N  N224  1  0.92450000  0.05785000  0.03547000  1.0
  N  N225  1  0.02253000  0.38918000  0.46453000  1.0
  N  N226  1  0.07549000  0.94215000  0.96452000  1.0
  N  N227  1  0.97747000  0.61081000  0.53547000  1.0
  N  N228  1  0.55106000  0.88519000  0.08477000  1.0
  N  N229  1  0.80007000  0.96630000  0.41504000  1.0
  N  N230  1  0.44894000  0.11481000  0.91523000  1.0
  N  N231  1  0.19992000  0.03370000  0.58495000  1.0
  N  N232  1  0.61291000  0.86203000  0.97572000  1.0
  N  N233  1  0.88612000  0.13707000  0.52435000  1.0
  N  N234  1  0.38709000  0.13797000  0.02428000  1.0
  N  N235  1  0.11388000  0.86293000  0.47565000  1.0
  O  O236  1  0.55910000  0.67766000  0.74877000  1.0
  O  O237  1  0.92892000  0.31049000  0.75143000  1.0
  O  O238  1  0.44090000  0.32233000  0.25122000  1.0
  O  O239  1  0.07109000  0.68951000  0.24858000  1.0
  O  O240  1  0.53528000  0.80858000  0.74062000  1.0
  O  O241  1  0.06786000  0.29439000  0.75954000  1.0
  O  O242  1  0.46473000  0.19142000  0.25939000  1.0
  O  O243  1  0.93214000  0.70560000  0.24046000  1.0
  O  O244  1  0.21906000  0.71569000  0.44373000  1.0
  O  O245  1  0.27178000  0.27530000  0.05655000  1.0
  O  O246  1  0.78095000  0.28431000  0.55628000  1.0
  O  O247  1  0.72823000  0.72471000  0.94346000  1.0
  O  O248  1  0.12161000  0.54786000  0.32105000  1.0
  O  O249  1  0.22675000  0.30076000  0.17943000  1.0
  O  O250  1  0.87839000  0.45214000  0.67896000  1.0
  O  O251  1  0.77325000  0.69923000  0.82057000  1.0
  O  O252  1  0.33667000  0.36447000  0.38450000  1.0
  O  O253  1  0.97971000  0.45203000  0.11585000  1.0
  O  O254  1  0.66333000  0.63553000  0.61550000  1.0
  O  O255  1  0.02030000  0.54797000  0.88416000  1.0
