# generated using pymatgen
data_CdH11C17SN5O4
_symmetry_space_group_name_H-M   'P 1'
_cell_length_a   9.54372000
_cell_length_b   9.54571000
_cell_length_c   21.88070720
_cell_angle_alpha   102.60597645
_cell_angle_beta   102.59725614
_cell_angle_gamma   89.99320000
_symmetry_Int_Tables_number   1
_chemical_formula_structural   CdH11C17SN5O4
_chemical_formula_sum   'Cd4 H44 C68 S4 N20 O16'
_cell_volume   1896.12519295
_cell_formula_units_Z   4
loop_
 _symmetry_equiv_pos_site_id
 _symmetry_equiv_pos_as_xyz
  1  'x, y, z'
loop_
 _atom_site_type_symbol
 _atom_site_label
 _atom_site_symmetry_multiplicity
 _atom_site_fract_x
 _atom_site_fract_y
 _atom_site_fract_z
 _atom_site_occupancy
  Cd  Cd0  1  0.67737000  0.67738000  0.35477000  1.0
  Cd  Cd1  1  0.32260000  0.32269000  0.64516000  1.0
  Cd  Cd2  1  0.57247000  0.07256000  0.14514000  1.0
  Cd  Cd3  1  0.92743000  0.42737000  0.85486000  1.0
  H  H4  1  0.14579000  0.54670000  0.34313000  1.0
  H  H5  1  0.19716000  0.79650000  0.34287000  1.0
  H  H6  1  0.20339000  0.85457000  0.65715000  1.0
  H  H7  1  0.45359000  0.80261000  0.65696000  1.0
  H  H8  1  0.10428000  0.95342000  0.15687000  1.0
  H  H9  1  0.05238000  0.20373000  0.15710000  1.0
  H  H10  1  0.04627000  0.94717000  0.84314000  1.0
  H  H11  1  0.79623000  0.89581000  0.84308000  1.0
  H  H12  1  0.84673000  0.92272000  0.47268000  1.0
  H  H13  1  0.62609000  0.55023000  0.47273000  1.0
  H  H14  1  0.44989000  0.15337000  0.52725000  1.0
  H  H15  1  0.07720000  0.37393000  0.52723000  1.0
  H  H16  1  0.40361000  0.20008000  0.02725000  1.0
  H  H17  1  0.62391000  0.82719000  0.02730000  1.0
  H  H18  1  0.80007000  0.37598000  0.97279000  1.0
  H  H19  1  0.17279000  0.59655000  0.97285000  1.0
  H  H20  1  0.82795000  0.82820000  0.65603000  1.0
  H  H21  1  0.17195000  0.17198000  0.34390000  1.0
  H  H22  1  0.42201000  0.92197000  0.84400000  1.0
  H  H23  1  0.07836000  0.57757000  0.15613000  1.0
  H  H24  1  0.79006000  0.11988000  0.66476000  1.0
  H  H25  1  0.87480000  0.54535000  0.66481000  1.0
  H  H26  1  0.45500000  0.20999000  0.33522000  1.0
  H  H27  1  0.88013000  0.12530000  0.33510000  1.0
  H  H28  1  0.46022000  0.20507000  0.83524000  1.0
  H  H29  1  0.37520000  0.63025000  0.83523000  1.0
  H  H30  1  0.79529000  0.62467000  0.16486000  1.0
  H  H31  1  0.37026000  0.53990000  0.16480000  1.0
  H  H32  1  0.00651000  0.33569000  0.70137000  1.0
  H  H33  1  0.69510000  0.36590000  0.70139000  1.0
  H  H34  1  0.63442000  0.99363000  0.29868000  1.0
  H  H35  1  0.66419000  0.30524000  0.29858000  1.0
  H  H36  1  0.24360000  0.38426000  0.79858000  1.0
  H  H37  1  0.55506000  0.41437000  0.79861000  1.0
  H  H38  1  0.61576000  0.44503000  0.20139000  1.0
  H  H39  1  0.58596000  0.75661000  0.20138000  1.0
  H  H40  1  0.11106000  0.00526000  0.55788000  1.0
  H  H41  1  0.44689000  0.55251000  0.55785000  1.0
  H  H42  1  0.44745000  0.88900000  0.44209000  1.0
  H  H43  1  0.99460000  0.55309000  0.44209000  1.0
  H  H44  1  0.13919000  0.19742000  0.94208000  1.0
  H  H45  1  0.80313000  0.74459000  0.94212000  1.0
  H  H46  1  0.80251000  0.19674000  0.05793000  1.0
  H  H47  1  0.25519000  0.86080000  0.05798000  1.0
  C  C48  1  0.15492000  0.46550000  0.30110000  1.0
  C  C49  1  0.14590000  0.83562000  0.30085000  1.0
  C  C50  1  0.16426000  0.84515000  0.69915000  1.0
  C  C51  1  0.53458000  0.85396000  0.69901000  1.0
  C  C52  1  0.09491000  0.91441000  0.19890000  1.0
  C  C53  1  0.10380000  0.28488000  0.19910000  1.0
  C  C54  1  0.08538000  0.89596000  0.80110000  1.0
  C  C55  1  0.71518000  0.90499000  0.80101000  1.0
  C  C56  1  0.27872000  0.42834000  0.27980000  1.0
  C  C57  1  0.00077000  0.85151000  0.27963000  1.0
  C  C58  1  0.14833000  0.72119000  0.72030000  1.0
  C  C59  1  0.57170000  0.99904000  0.72021000  1.0
  C  C60  1  0.97103000  0.89839000  0.22012000  1.0
  C  C61  1  0.24896000  0.32189000  0.22029000  1.0
  C  C62  1  0.10129000  0.75089000  0.77978000  1.0
  C  C63  1  0.67805000  0.02883000  0.77975000  1.0
  C  C64  1  0.41842000  0.50930000  0.31273000  1.0
  C  C65  1  0.89409000  0.80349000  0.31263000  1.0
  C  C66  1  0.19644000  0.58153000  0.68727000  1.0
  C  C67  1  0.49075000  0.10572000  0.68717000  1.0
  C  C68  1  0.83133000  0.94647000  0.18718000  1.0
  C  C69  1  0.35564000  0.24070000  0.18730000  1.0
  C  C70  1  0.05321000  0.64408000  0.81267000  1.0
  C  C71  1  0.75919000  0.16844000  0.81271000  1.0
  C  C72  1  0.81222000  0.85586000  0.50185000  1.0
  C  C73  1  0.68983000  0.64621000  0.50190000  1.0
  C  C74  1  0.35383000  0.18789000  0.49810000  1.0
  C  C75  1  0.14415000  0.31035000  0.49807000  1.0
  C  C76  1  0.43796000  0.10392000  0.99811000  1.0
  C  C77  1  0.56032000  0.89417000  0.99816000  1.0
  C  C78  1  0.89618000  0.43958000  0.00194000  1.0
  C  C79  1  0.10597000  0.56187000  0.00199000  1.0
  C  C80  1  0.84665000  0.89339000  0.56893000  1.0
  C  C81  1  0.72238000  0.67581000  0.56898000  1.0
  C  C82  1  0.32429000  0.15339000  0.43103000  1.0
  C  C83  1  0.10668000  0.27772000  0.43098000  1.0
  C  C84  1  0.40346000  0.07435000  0.93104000  1.0
  C  C85  1  0.52774000  0.85668000  0.93109000  1.0
  C  C86  1  0.92586000  0.47204000  0.06902000  1.0
  C  C87  1  0.14351000  0.59632000  0.06906000  1.0
  C  C88  1  0.80183000  0.80201000  0.60367000  1.0
  C  C89  1  0.19815000  0.19819000  0.39627000  1.0
  C  C90  1  0.44827000  0.94816000  0.89636000  1.0
  C  C91  1  0.05209000  0.55145000  0.10376000  1.0
  C  C92  1  0.88723000  0.13011000  0.64785000  1.0
  C  C93  1  0.76075000  0.51798000  0.64787000  1.0
  C  C94  1  0.48223000  0.11288000  0.35215000  1.0
  C  C95  1  0.86982000  0.23935000  0.35206000  1.0
  C  C96  1  0.36303000  0.23227000  0.85212000  1.0
  C  C97  1  0.48928000  0.61997000  0.85213000  1.0
  C  C98  1  0.76802000  0.51063000  0.14792000  1.0
  C  C99  1  0.38047000  0.63705000  0.14788000  1.0
  C  C100  1  0.99539000  0.23549000  0.66545000  1.0
  C  C101  1  0.67027000  0.43004000  0.66543000  1.0
  C  C102  1  0.57008000  0.00479000  0.33457000  1.0
  C  C103  1  0.76438000  0.32994000  0.33449000  1.0
  C  C104  1  0.25486000  0.32008000  0.83452000  1.0
  C  C105  1  0.57983000  0.51456000  0.83452000  1.0
  C  C106  1  0.68008000  0.42021000  0.16550000  1.0
  C  C107  1  0.48578000  0.74526000  0.16545000  1.0
  C  C108  1  0.05460000  0.06865000  0.59150000  1.0
  C  C109  1  0.53703000  0.52282000  0.59147000  1.0
  C  C110  1  0.47726000  0.94559000  0.40853000  1.0
  C  C111  1  0.93127000  0.46300000  0.40845000  1.0
  C  C112  1  0.19566000  0.22716000  0.90845000  1.0
  C  C113  1  0.71300000  0.68118000  0.90856000  1.0
  C  C114  1  0.77286000  0.28688000  0.09156000  1.0
  C  C115  1  0.31869000  0.80435000  0.09158000  1.0
  S  S116  1  0.00516000  0.37524000  0.25011000  1.0
  S  S117  1  0.24461000  0.87492000  0.24987000  1.0
  S  S118  1  0.12484000  0.99476000  0.75017000  1.0
  S  S119  1  0.62486000  0.75530000  0.75002000  1.0
  N  N120  1  0.73500000  0.73499000  0.46987000  1.0
  N  N121  1  0.26496000  0.26513000  0.53009000  1.0
  N  N122  1  0.51511000  0.01506000  0.03013000  1.0
  N  N123  1  0.98506000  0.48478000  0.96995000  1.0
  N  N124  1  0.92538000  0.02458000  0.60062000  1.0
  N  N125  1  0.67532000  0.57625000  0.60065000  1.0
  N  N126  1  0.42391000  0.07472000  0.39938000  1.0
  N  N127  1  0.97538000  0.32470000  0.39930000  1.0
  N  N128  1  0.32486000  0.17392000  0.89934000  1.0
  N  N129  1  0.57470000  0.72540000  0.89941000  1.0
  N  N130  1  0.82629000  0.42512000  0.10071000  1.0
  N  N131  1  0.27474000  0.67513000  0.10071000  1.0
  N  N132  1  0.09886000  0.19530000  0.63040000  1.0
  N  N133  1  0.53174000  0.43503000  0.63036000  1.0
  N  N134  1  0.56503000  0.90136000  0.36963000  1.0
  N  N135  1  0.80459000  0.46841000  0.36957000  1.0
  N  N136  1  0.15139000  0.31493000  0.86957000  1.0
  N  N137  1  0.71833000  0.55459000  0.86961000  1.0
  N  N138  1  0.68502000  0.28169000  0.13044000  1.0
  N  N139  1  0.44537000  0.84871000  0.13043000  1.0
  O  O140  1  0.49909000  0.53684000  0.27650000  1.0
  O  O141  1  0.77727000  0.73947000  0.27645000  1.0
  O  O142  1  0.26036000  0.50082000  0.72343000  1.0
  O  O143  1  0.46296000  0.22257000  0.72336000  1.0
  O  O144  1  0.75074000  0.01040000  0.22342000  1.0
  O  O145  1  0.47265000  0.21315000  0.22345000  1.0
  O  O146  1  0.98956000  0.52718000  0.77641000  1.0
  O  O147  1  0.78679000  0.24914000  0.77652000  1.0
  O  O148  1  0.44769000  0.55302000  0.37336000  1.0
  O  O149  1  0.92548000  0.82056000  0.37326000  1.0
  O  O150  1  0.17945000  0.55244000  0.62663000  1.0
  O  O151  1  0.44726000  0.07437000  0.62653000  1.0
  O  O152  1  0.80205000  0.92950000  0.12655000  1.0
  O  O153  1  0.32403000  0.19683000  0.12667000  1.0
  O  O154  1  0.06993000  0.67542000  0.87330000  1.0
  O  O155  1  0.80302000  0.19759000  0.87335000  1.0
