# generated using pymatgen
data_ZnH10(C8N5)2
_symmetry_space_group_name_H-M   'P 1'
_cell_length_a   7.56476000
_cell_length_b   10.89690000
_cell_length_c   10.89690000
_cell_angle_alpha   60.58460000
_cell_angle_beta   80.40240000
_cell_angle_gamma   80.40250000
_symmetry_Int_Tables_number   1
_chemical_formula_structural   ZnH10(C8N5)2
_chemical_formula_sum   'Zn2 H20 C32 N20'
_cell_volume   767.73112593
_cell_formula_units_Z   2
loop_
 _symmetry_equiv_pos_site_id
 _symmetry_equiv_pos_as_xyz
  1  'x, y, z'
loop_
 _atom_site_type_symbol
 _atom_site_label
 _atom_site_symmetry_multiplicity
 _atom_site_fract_x
 _atom_site_fract_y
 _atom_site_fract_z
 _atom_site_occupancy
  Zn  Zn0  1  0.25000000  0.40543000  0.59457000  1.0
  Zn  Zn1  1  0.75000000  0.59457000  0.40543000  1.0
  H  H2  1  0.67412000  0.57536000  0.94063000  1.0
  H  H3  1  0.82588000  0.05938000  0.42464000  1.0
  H  H4  1  0.32588000  0.42464000  0.05938000  1.0
  H  H5  1  0.17412000  0.94063000  0.57536000  1.0
  H  H6  1  0.52812000  0.19229000  0.51177000  1.0
  H  H7  1  0.97188000  0.48823000  0.80771000  1.0
  H  H8  1  0.47188000  0.80770000  0.48823000  1.0
  H  H9  1  0.02813000  0.51177000  0.19229000  1.0
  H  H10  1  0.62442000  0.92992000  0.62929000  1.0
  H  H11  1  0.87558000  0.37071000  0.07008000  1.0
  H  H12  1  0.37558000  0.07008000  0.37071000  1.0
  H  H13  1  0.12442000  0.62929000  0.92992000  1.0
  H  H14  1  0.52085000  0.78177000  0.88540000  1.0
  H  H15  1  0.97915000  0.11460000  0.21823000  1.0
  H  H16  1  0.47915000  0.21823000  0.11460000  1.0
  H  H17  1  0.02085000  0.88540000  0.78177000  1.0
  H  H18  1  0.35103000  0.77004000  0.10897000  1.0
  H  H19  1  0.14897000  0.89103000  0.22996000  1.0
  H  H20  1  0.64897000  0.22996000  0.89103000  1.0
  H  H21  1  0.85103000  0.10897000  0.77004000  1.0
  C  C22  1  0.54959000  0.51508000  0.81629000  1.0
  C  C23  1  0.95041000  0.18371000  0.48492000  1.0
  C  C24  1  0.45041000  0.48492000  0.18371000  1.0
  C  C25  1  0.04959000  0.81629000  0.51508000  1.0
  C  C26  1  0.56025000  0.52477000  0.94206000  1.0
  C  C27  1  0.93975000  0.05794000  0.47524000  1.0
  C  C28  1  0.43975000  0.47523000  0.05794000  1.0
  C  C29  1  0.06025000  0.94206000  0.52477000  1.0
  C  C30  1  0.48206000  0.12311000  0.62186000  1.0
  C  C31  1  0.01793000  0.37814000  0.87688000  1.0
  C  C32  1  0.51793000  0.87689000  0.37814000  1.0
  C  C33  1  0.98207000  0.62186000  0.12311000  1.0
  C  C34  1  0.53638000  0.97685000  0.68840000  1.0
  C  C35  1  0.96362000  0.31160000  0.02315000  1.0
  C  C36  1  0.46361000  0.02315000  0.31160000  1.0
  C  C37  1  0.03639000  0.68840000  0.97685000  1.0
  C  C38  1  0.47911000  0.89483000  0.82968000  1.0
  C  C39  1  0.02090000  0.17032000  0.10517000  1.0
  C  C40  1  0.52090000  0.10517000  0.17032000  1.0
  C  C41  1  0.97911000  0.82968000  0.89483000  1.0
  C  C42  1  0.36576000  0.95848000  0.90379000  1.0
  C  C43  1  0.13424000  0.09621000  0.04152000  1.0
  C  C44  1  0.63424000  0.04152000  0.09621000  1.0
  C  C45  1  0.86577000  0.90379000  0.95848000  1.0
  C  C46  1  0.30505000  0.88217000  0.05115000  1.0
  C  C47  1  0.19496000  0.94885000  0.11783000  1.0
  C  C48  1  0.69495000  0.11783000  0.94885000  1.0
  C  C49  1  0.80505000  0.05115000  0.88217000  1.0
  C  C50  1  0.31192000  0.10553000  0.82586000  1.0
  C  C51  1  0.18807000  0.17414000  0.89447000  1.0
  C  C52  1  0.68808000  0.89446000  0.17414000  1.0
  C  C53  1  0.81193000  0.82586000  0.10554000  1.0
  N  N54  1  0.42588000  0.44788000  0.80192000  1.0
  N  N55  1  0.07413000  0.19808000  0.55212000  1.0
  N  N56  1  0.57413000  0.55212000  0.19808000  1.0
  N  N57  1  0.92588000  0.80192000  0.44788000  1.0
  N  N58  1  0.46372000  0.46492000  0.67151000  1.0
  N  N59  1  0.03628000  0.32849000  0.53508000  1.0
  N  N60  1  0.53628000  0.53508000  0.32849000  1.0
  N  N61  1  0.96372000  0.67151000  0.46492000  1.0
  N  N62  1  0.66377000  0.57199000  0.69731000  1.0
  N  N63  1  0.83623000  0.30269000  0.42801000  1.0
  N  N64  1  0.33623000  0.42801000  0.30269000  1.0
  N  N65  1  0.16377000  0.69731000  0.57199000  1.0
  N  N66  1  0.60667000  0.53920000  0.60872000  1.0
  N  N67  1  0.89333000  0.39128000  0.46080000  1.0
  N  N68  1  0.39333000  0.46080000  0.39128000  1.0
  N  N69  1  0.10667000  0.60872000  0.53920000  1.0
  N  N70  1  0.37281000  0.18515000  0.68865000  1.0
  N  N71  1  0.12719000  0.31135000  0.81485000  1.0
  N  N72  1  0.62719000  0.81485000  0.31135000  1.0
  N  N73  1  0.87282000  0.68865000  0.18515000  1.0
