# generated using pymatgen
data_ZnH7C11N3O2
_symmetry_space_group_name_H-M   'P 1'
_cell_length_a   15.79850000
_cell_length_b   15.79850000
_cell_length_c   15.79850000
_cell_angle_alpha   100.86100000
_cell_angle_beta   100.86100000
_cell_angle_gamma   100.86100000
_symmetry_Int_Tables_number   1
_chemical_formula_structural   ZnH7C11N3O2
_chemical_formula_sum   'Zn6 H42 C66 N18 O12'
_cell_volume   3699.26104340
_cell_formula_units_Z   6
loop_
 _symmetry_equiv_pos_site_id
 _symmetry_equiv_pos_as_xyz
  1  'x, y, z'
loop_
 _atom_site_type_symbol
 _atom_site_label
 _atom_site_symmetry_multiplicity
 _atom_site_fract_x
 _atom_site_fract_y
 _atom_site_fract_z
 _atom_site_occupancy
  Zn  Zn0  1  0.03099000  0.42797000  0.41197000  1.0
  Zn  Zn1  1  0.42797000  0.41197000  0.03099000  1.0
  Zn  Zn2  1  0.41197000  0.03099000  0.42797000  1.0
  Zn  Zn3  1  0.96901000  0.57203000  0.58803000  1.0
  Zn  Zn4  1  0.57203000  0.58803000  0.96901000  1.0
  Zn  Zn5  1  0.58803000  0.96901000  0.57203000  1.0
  H  H6  1  0.83515000  0.34244000  0.36406000  1.0
  H  H7  1  0.34244000  0.36406000  0.83515000  1.0
  H  H8  1  0.36406000  0.83515000  0.34244000  1.0
  H  H9  1  0.16485000  0.65756000  0.63594000  1.0
  H  H10  1  0.65756000  0.63594000  0.16485000  1.0
  H  H11  1  0.63594000  0.16485000  0.65756000  1.0
  H  H12  1  0.70241000  0.35349000  0.25920000  1.0
  H  H13  1  0.35349000  0.25920000  0.70241000  1.0
  H  H14  1  0.25920000  0.70241000  0.35349000  1.0
  H  H15  1  0.29759000  0.64651000  0.74080000  1.0
  H  H16  1  0.64651000  0.74080000  0.29759000  1.0
  H  H17  1  0.74080000  0.29759000  0.64651000  1.0
  H  H18  1  0.87906000  0.49420000  0.12630000  1.0
  H  H19  1  0.49420000  0.12630000  0.87906000  1.0
  H  H20  1  0.12630000  0.87906000  0.49420000  1.0
  H  H21  1  0.12094000  0.50580000  0.87370000  1.0
  H  H22  1  0.50580000  0.87370000  0.12094000  1.0
  H  H23  1  0.87370000  0.12094000  0.50580000  1.0
  H  H24  1  0.00511000  0.47449000  0.23662000  1.0
  H  H25  1  0.47449000  0.23662000  0.00511000  1.0
  H  H26  1  0.23662000  0.00511000  0.47449000  1.0
  H  H27  1  0.99489000  0.52551000  0.76338000  1.0
  H  H28  1  0.52551000  0.76338000  0.99489000  1.0
  H  H29  1  0.76338000  0.99489000  0.52551000  1.0
  H  H30  1  0.75193000  0.53334000  0.04199000  1.0
  H  H31  1  0.53334000  0.04199000  0.75193000  1.0
  H  H32  1  0.04199000  0.75193000  0.53334000  1.0
  H  H33  1  0.24807000  0.46666000  0.95801000  1.0
  H  H34  1  0.46666000  0.95801000  0.24807000  1.0
  H  H35  1  0.95801000  0.24807000  0.46666000  1.0
  H  H36  1  0.58035000  0.36989000  0.16383000  1.0
  H  H37  1  0.36989000  0.16383000  0.58035000  1.0
  H  H38  1  0.16383000  0.58035000  0.36989000  1.0
  H  H39  1  0.41965000  0.63010000  0.83617000  1.0
  H  H40  1  0.63011000  0.83617000  0.41965000  1.0
  H  H41  1  0.83617000  0.41965000  0.63011000  1.0
  H  H42  1  0.20834000  0.24387000  0.40017000  1.0
  H  H43  1  0.24387000  0.40017000  0.20834000  1.0
  H  H44  1  0.40017000  0.20834000  0.24387000  1.0
  H  H45  1  0.79166000  0.75613000  0.59983000  1.0
  H  H46  1  0.75613000  0.59983000  0.79166000  1.0
  H  H47  1  0.59983000  0.79166000  0.75613000  1.0
  C  C48  1  0.84181000  0.37524000  0.30995000  1.0
  C  C49  1  0.37524000  0.30995000  0.84181000  1.0
  C  C50  1  0.30995000  0.84181000  0.37524000  1.0
  C  C51  1  0.15819000  0.62476000  0.69005000  1.0
  C  C52  1  0.62476000  0.69005000  0.15819000  1.0
  C  C53  1  0.69005000  0.15819000  0.62476000  1.0
  C  C54  1  0.76790000  0.38185000  0.25102000  1.0
  C  C55  1  0.38185000  0.25102000  0.76790000  1.0
  C  C56  1  0.25102000  0.76790000  0.38185000  1.0
  C  C57  1  0.23210000  0.61815000  0.74898000  1.0
  C  C58  1  0.61815000  0.74898000  0.23210000  1.0
  C  C59  1  0.74898000  0.23210000  0.61815000  1.0
  C  C60  1  0.77799000  0.42770000  0.18379000  1.0
  C  C61  1  0.42770000  0.18379000  0.77799000  1.0
  C  C62  1  0.18379000  0.77798000  0.42770000  1.0
  C  C63  1  0.22201000  0.57230000  0.81621000  1.0
  C  C64  1  0.57230000  0.81621000  0.22202000  1.0
  C  C65  1  0.81621000  0.22201000  0.57230000  1.0
  C  C66  1  0.86560000  0.45994000  0.17776000  1.0
  C  C67  1  0.45994000  0.17777000  0.86560000  1.0
  C  C68  1  0.17776000  0.86560000  0.45994000  1.0
  C  C69  1  0.13440000  0.54006000  0.82224000  1.0
  C  C70  1  0.54006000  0.82224000  0.13440000  1.0
  C  C71  1  0.82224000  0.13440000  0.54006000  1.0
  C  C72  1  0.93638000  0.45008000  0.23887000  1.0
  C  C73  1  0.45008000  0.23887000  0.93638000  1.0
  C  C74  1  0.23887000  0.93638000  0.45008000  1.0
  C  C75  1  0.06362000  0.54992000  0.76113000  1.0
  C  C76  1  0.54992000  0.76113000  0.06362000  1.0
  C  C77  1  0.76113000  0.06362000  0.54992000  1.0
  C  C78  1  0.70166000  0.44340000  0.12717000  1.0
  C  C79  1  0.44340000  0.12717000  0.70166000  1.0
  C  C80  1  0.12717000  0.70166000  0.44340000  1.0
  C  C81  1  0.29834000  0.55660000  0.87283000  1.0
  C  C82  1  0.55660000  0.87283000  0.29834000  1.0
  C  C83  1  0.87283000  0.29834000  0.55660000  1.0
  C  C84  1  0.69874000  0.49621000  0.06441000  1.0
  C  C85  1  0.49621000  0.06441000  0.69874000  1.0
  C  C86  1  0.06441000  0.69874000  0.49621000  1.0
  C  C87  1  0.30126000  0.50379000  0.93559000  1.0
  C  C88  1  0.50379000  0.93559000  0.30126000  1.0
  C  C89  1  0.93559000  0.30126000  0.50379000  1.0
  C  C90  1  0.61188000  0.41378000  0.12776000  1.0
  C  C91  1  0.41378000  0.12776000  0.61188000  1.0
  C  C92  1  0.12776000  0.61188000  0.41378000  1.0
  C  C93  1  0.38812000  0.58622000  0.87224000  1.0
  C  C94  1  0.58622000  0.87224000  0.38812000  1.0
  C  C95  1  0.87224000  0.38812000  0.58622000  1.0
  C  C96  1  0.15087000  0.37517000  0.33164000  1.0
  C  C97  1  0.37517000  0.33164000  0.15087000  1.0
  C  C98  1  0.33164000  0.15087000  0.37517000  1.0
  C  C99  1  0.84913000  0.62483000  0.66836000  1.0
  C  C100  1  0.62483000  0.66836000  0.84913000  1.0
  C  C101  1  0.66836000  0.84913000  0.62483000  1.0
  C  C102  1  0.21833000  0.32654000  0.30633000  1.0
  C  C103  1  0.32654000  0.30633000  0.21833000  1.0
  C  C104  1  0.30633000  0.21833000  0.32654000  1.0
  C  C105  1  0.78167000  0.67346000  0.69367000  1.0
  C  C106  1  0.67346000  0.69367000  0.78167000  1.0
  C  C107  1  0.69367000  0.78167000  0.67346000  1.0
  C  C108  1  0.24093000  0.26115000  0.34885000  1.0
  C  C109  1  0.26115000  0.34885000  0.24093000  1.0
  C  C110  1  0.34885000  0.24093000  0.26115000  1.0
  C  C111  1  0.75907000  0.73885000  0.65115000  1.0
  C  C112  1  0.73885000  0.65115000  0.75907000  1.0
  C  C113  1  0.65115000  0.75907000  0.73885000  1.0
  N  N114  1  0.92527000  0.40997000  0.30564000  1.0
  N  N115  1  0.40997000  0.30564000  0.92527000  1.0
  N  N116  1  0.30564000  0.92527000  0.40997000  1.0
  N  N117  1  0.07473000  0.59003000  0.69436000  1.0
  N  N118  1  0.59003000  0.69436000  0.07473000  1.0
  N  N119  1  0.69436000  0.07473000  0.59003000  1.0
  N  N120  1  0.56088000  0.44709000  0.07101000  1.0
  N  N121  1  0.44709000  0.07101000  0.56088000  1.0
  N  N122  1  0.07101000  0.56088000  0.44709000  1.0
  N  N123  1  0.43912000  0.55291000  0.92899000  1.0
  N  N124  1  0.55291000  0.92899000  0.43912000  1.0
  N  N125  1  0.92899000  0.43912000  0.55291000  1.0
  N  N126  1  0.61437000  0.49797000  0.03149000  1.0
  N  N127  1  0.49797000  0.03149000  0.61437000  1.0
  N  N128  1  0.03149000  0.61437000  0.49797000  1.0
  N  N129  1  0.38563000  0.50203000  0.96851000  1.0
  N  N130  1  0.50203000  0.96851000  0.38563000  1.0
  N  N131  1  0.96851000  0.38563000  0.50203000  1.0
  O  O132  1  0.11344000  0.35166000  0.39309000  1.0
  O  O133  1  0.35166000  0.39309000  0.11344000  1.0
  O  O134  1  0.39309000  0.11344000  0.35166000  1.0
  O  O135  1  0.88656000  0.64834000  0.60691000  1.0
  O  O136  1  0.64834000  0.60691000  0.88656000  1.0
  O  O137  1  0.60691000  0.88656000  0.64834000  1.0
  O  O138  1  0.13323000  0.43601000  0.29534000  1.0
  O  O139  1  0.43601000  0.29534000  0.13323000  1.0
  O  O140  1  0.29534000  0.13323000  0.43601000  1.0
  O  O141  1  0.86677000  0.56399000  0.70466000  1.0
  O  O142  1  0.56399000  0.70466000  0.86677000  1.0
  O  O143  1  0.70466000  0.86677000  0.56399000  1.0
