# generated using pymatgen
data_HgH10C8(NO)5
_symmetry_space_group_name_H-M   'P 1'
_cell_length_a   5.32444000
_cell_length_b   13.59890000
_cell_length_c   16.95600000
_cell_angle_alpha   100.79700000
_cell_angle_beta   90.00000000
_cell_angle_gamma   101.29000000
_symmetry_Int_Tables_number   1
_chemical_formula_structural   HgH10C8(NO)5
_chemical_formula_sum   'Hg4 H40 C32 N20 O20'
_cell_volume   1181.79598072
_cell_formula_units_Z   4
loop_
 _symmetry_equiv_pos_site_id
 _symmetry_equiv_pos_as_xyz
  1  'x, y, z'
loop_
 _atom_site_type_symbol
 _atom_site_label
 _atom_site_symmetry_multiplicity
 _atom_site_fract_x
 _atom_site_fract_y
 _atom_site_fract_z
 _atom_site_occupancy
  Hg  Hg0  1  0.06145000  0.05651000  0.19682000  1.0
  Hg  Hg1  1  0.00474000  0.94311000  0.30328000  1.0
  Hg  Hg2  1  0.93855000  0.94349000  0.80318000  1.0
  Hg  Hg3  1  0.99526000  0.05689000  0.69672000  1.0
  H  H4  1  0.90159000  0.14616000  0.03621000  1.0
  H  H5  1  0.75484000  0.85337000  0.46382000  1.0
  H  H6  1  0.09842000  0.85384000  0.96378000  1.0
  H  H7  1  0.24518000  0.14663000  0.53618000  1.0
  H  H8  1  0.22776000  0.46201000  0.16463000  1.0
  H  H9  1  0.76586000  0.53773000  0.33538000  1.0
  H  H10  1  0.77225000  0.53800000  0.83538000  1.0
  H  H11  1  0.23413000  0.46227000  0.66462000  1.0
  H  H12  1  0.02443000  0.55271000  0.18594000  1.0
  H  H13  1  0.47169000  0.44711000  0.31402000  1.0
  H  H14  1  0.97558000  0.44730000  0.81407000  1.0
  H  H15  1  0.52830000  0.55288000  0.68599000  1.0
  H  H16  1  0.08449000  0.50291000  0.08363000  1.0
  H  H17  1  0.58168000  0.49676000  0.41634000  1.0
  H  H18  1  0.91552000  0.49709000  0.91637000  1.0
  H  H19  1  0.41830000  0.50324000  0.58366000  1.0
  H  H20  1  0.58637000  0.16604000  0.27657000  1.0
  H  H21  1  0.41939000  0.83368000  0.22345000  1.0
  H  H22  1  0.41364000  0.83396000  0.72343000  1.0
  H  H23  1  0.58061000  0.16631000  0.77655000  1.0
  H  H24  1  0.65115000  0.29454000  0.33193000  1.0
  H  H25  1  0.35656000  0.70511000  0.16820000  1.0
  H  H26  1  0.34886000  0.70546000  0.66807000  1.0
  H  H27  1  0.64344000  0.29489000  0.83180000  1.0
  H  H28  1  0.33169000  0.23513000  0.29632000  1.0
  H  H29  1  0.09582000  0.76423000  0.20368000  1.0
  H  H30  1  0.66831000  0.76487000  0.70368000  1.0
  H  H31  1  0.90419000  0.23577000  0.79632000  1.0
  H  H32  1  0.22702000  0.36948000  0.95432000  1.0
  H  H33  1  0.85766000  0.63037000  0.54593000  1.0
  H  H34  1  0.77300000  0.63052000  0.04568000  1.0
  H  H35  1  0.14233000  0.36962000  0.45407000  1.0
  H  H36  1  0.97994000  0.25573000  0.93409000  1.0
  H  H37  1  0.72417000  0.74410000  0.56603000  1.0
  H  H38  1  0.02008000  0.74427000  0.06591000  1.0
  H  H39  1  0.27582000  0.25591000  0.43397000  1.0
  H  H40  1  0.30206000  0.24982000  0.90690000  1.0
  H  H41  1  0.05218000  0.75012000  0.59324000  1.0
  H  H42  1  0.69796000  0.75018000  0.09310000  1.0
  H  H43  1  0.94782000  0.24988000  0.40676000  1.0
  C  C44  1  0.05849000  0.48535000  0.14374000  1.0
  C  C45  1  0.57319000  0.51442000  0.35627000  1.0
  C  C46  1  0.94152000  0.51465000  0.85626000  1.0
  C  C47  1  0.42680000  0.48557000  0.64373000  1.0
  C  C48  1  0.80650000  0.35559000  0.20758000  1.0
  C  C49  1  0.45089000  0.64424000  0.29249000  1.0
  C  C50  1  0.19349000  0.64441000  0.79242000  1.0
  C  C51  1  0.54911000  0.35576000  0.70751000  1.0
  C  C52  1  0.53483000  0.24128000  0.28305000  1.0
  C  C53  1  0.29302000  0.75835000  0.21701000  1.0
  C  C54  1  0.46518000  0.75872000  0.71695000  1.0
  C  C55  1  0.70698000  0.24165000  0.78299000  1.0
  C  C56  1  0.40933000  0.25780000  0.14600000  1.0
  C  C57  1  0.15151000  0.74196000  0.35415000  1.0
  C  C58  1  0.59068000  0.74220000  0.85400000  1.0
  C  C59  1  0.84848000  0.25804000  0.64585000  1.0
  C  C60  1  0.44460000  0.30479000  0.07996000  1.0
  C  C61  1  0.13990000  0.69501000  0.42019000  1.0
  C  C62  1  0.55542000  0.69521000  0.92004000  1.0
  C  C63  1  0.86008000  0.30499000  0.57980000  1.0
  C  C64  1  0.66297000  0.38224000  0.07286000  1.0
  C  C65  1  0.28092000  0.61753000  0.42724000  1.0
  C  C66  1  0.33705000  0.61776000  0.92714000  1.0
  C  C67  1  0.71904000  0.38246000  0.57275000  1.0
  C  C68  1  0.18202000  0.28667000  0.95091000  1.0
  C  C69  1  0.89536000  0.71317000  0.54924000  1.0
  C  C70  1  0.81800000  0.71334000  0.04909000  1.0
  C  C71  1  0.10463000  0.28683000  0.45076000  1.0
  C  C72  1  0.07938000  0.19351000  0.06400000  1.0
  C  C73  1  0.88556000  0.80613000  0.43609000  1.0
  C  C74  1  0.92063000  0.80649000  0.93600000  1.0
  C  C75  1  0.11443000  0.19386000  0.56391000  1.0
  N  N76  1  0.83410000  0.40290000  0.14073000  1.0
  N  N77  1  0.43138000  0.59694000  0.35935000  1.0
  N  N78  1  0.16591000  0.59711000  0.85927000  1.0
  N  N79  1  0.56860000  0.40305000  0.64064000  1.0
  N  N80  1  0.58180000  0.28306000  0.20997000  1.0
  N  N81  1  0.29858000  0.71672000  0.29014000  1.0
  N  N82  1  0.41821000  0.71694000  0.79003000  1.0
  N  N83  1  0.70141000  0.28328000  0.70985000  1.0
  N  N84  1  0.23001000  0.26336000  0.02937000  1.0
  N  N85  1  0.96667000  0.73638000  0.47075000  1.0
  N  N86  1  0.77000000  0.73664000  0.97063000  1.0
  N  N87  1  0.03332000  0.26361000  0.52924000  1.0
  N  N88  1  0.18152000  0.18854000  0.13566000  1.0
  N  N89  1  0.99264000  0.81111000  0.36443000  1.0
  N  N90  1  0.81848000  0.81147000  0.86434000  1.0
  N  N91  1  0.00736000  0.18890000  0.63557000  1.0
  N  N92  1  0.54680000  0.96815000  0.09735000  1.0
  N  N93  1  0.57911000  0.03188000  0.40280000  1.0
  N  N94  1  0.45320000  0.03186000  0.90265000  1.0
  N  N95  1  0.42089000  0.96811000  0.59720000  1.0
  O  O96  1  0.97150000  0.37740000  0.26270000  1.0
  O  O97  1  0.59387000  0.62236000  0.23733000  1.0
  O  O98  1  0.02851000  0.62260000  0.73730000  1.0
  O  O99  1  0.40613000  0.37764000  0.76267000  1.0
  O  O100  1  0.70650000  0.42724000  0.01586000  1.0
  O  O101  1  0.27936000  0.57249000  0.48421000  1.0
  O  O102  1  0.29352000  0.57276000  0.98414000  1.0
  O  O103  1  0.72056000  0.42749000  0.51577000  1.0
  O  O104  1  0.55149000  0.05105000  0.14840000  1.0
  O  O105  1  0.50016000  0.94889000  0.35192000  1.0
  O  O106  1  0.44850000  0.94895000  0.85160000  1.0
  O  O107  1  0.49983000  0.05111000  0.64808000  1.0
  O  O108  1  0.33775000  0.90648000  0.07728000  1.0
  O  O109  1  0.43217000  0.09369000  0.42297000  1.0
  O  O110  1  0.66225000  0.09352000  0.92272000  1.0
  O  O111  1  0.56785000  0.90631000  0.57704000  1.0
  O  O112  1  0.75676000  0.94966000  0.06901000  1.0
  O  O113  1  0.80781000  0.05027000  0.43094000  1.0
  O  O114  1  0.24323000  0.05035000  0.93099000  1.0
  O  O115  1  0.19218000  0.94971000  0.56907000  1.0
