# generated using pymatgen
data_CoH8C8(SN3)2
_symmetry_space_group_name_H-M   'P 1'
_cell_length_a   5.47969000
_cell_length_b   7.56582000
_cell_length_c   13.41340000
_cell_angle_alpha   77.83500000
_cell_angle_beta   89.99880000
_cell_angle_gamma   89.99910000
_symmetry_Int_Tables_number   1
_chemical_formula_structural   CoH8C8(SN3)2
_chemical_formula_sum   'Co2 H16 C16 S4 N12'
_cell_volume   543.61013063
_cell_formula_units_Z   2
loop_
 _symmetry_equiv_pos_site_id
 _symmetry_equiv_pos_as_xyz
  1  'x, y, z'
loop_
 _atom_site_type_symbol
 _atom_site_label
 _atom_site_symmetry_multiplicity
 _atom_site_fract_x
 _atom_site_fract_y
 _atom_site_fract_z
 _atom_site_occupancy
  Co  Co0  1  0.99998000  0.49998000  0.50000000  1.0
  Co  Co1  1  0.50000000  0.00002000  0.00000000  1.0
  H  H2  1  0.72394000  0.15868000  0.44843000  1.0
  H  H3  1  0.22392000  0.34130000  0.05157000  1.0
  H  H4  1  0.27603000  0.84129000  0.55156000  1.0
  H  H5  1  0.77607000  0.65870000  0.94843000  1.0
  H  H6  1  0.42946000  0.36614000  0.36880000  1.0
  H  H7  1  0.92944000  0.13387000  0.13121000  1.0
  H  H8  1  0.57055000  0.63382000  0.63120000  1.0
  H  H9  1  0.07055000  0.86617000  0.86879000  1.0
  H  H10  1  0.36266000  0.05553000  0.29279000  1.0
  H  H11  1  0.86262000  0.44448000  0.20721000  1.0
  H  H12  1  0.63736000  0.94443000  0.70722000  1.0
  H  H13  1  0.13737000  0.55556000  0.79279000  1.0
  H  H14  1  0.92937000  0.94871000  0.34989000  1.0
  H  H15  1  0.42932000  0.55129000  0.15011000  1.0
  H  H16  1  0.07064000  0.05126000  0.65011000  1.0
  H  H17  1  0.57065000  0.44873000  0.84990000  1.0
  C  C18  1  0.90565000  0.17676000  0.41654000  1.0
  C  C19  1  0.40562000  0.32325000  0.08345000  1.0
  C  C20  1  0.09436000  0.82319000  0.58346000  1.0
  C  C21  1  0.59438000  0.67679000  0.91654000  1.0
  C  C22  1  0.27314000  0.27761000  0.37498000  1.0
  C  C23  1  0.77312000  0.22240000  0.12501000  1.0
  C  C24  1  0.72687000  0.72236000  0.62502000  1.0
  C  C25  1  0.22688000  0.77763000  0.87498000  1.0
  C  C26  1  0.24321000  0.12408000  0.33677000  1.0
  C  C27  1  0.74318000  0.37593000  0.16324000  1.0
  C  C28  1  0.75682000  0.87592000  0.66323000  1.0
  C  C29  1  0.25680000  0.62409000  0.83677000  1.0
  C  C30  1  0.53674000  0.34073000  0.60099000  1.0
  C  C31  1  0.03675000  0.15927000  0.89902000  1.0
  C  C32  1  0.46327000  0.65925000  0.39901000  1.0
  C  C33  1  0.96331000  0.84076000  0.10098000  1.0
  S  S34  1  0.27106000  0.31134000  0.65640000  1.0
  S  S35  1  0.77108000  0.18863000  0.84361000  1.0
  S  S36  1  0.72891000  0.68864000  0.34361000  1.0
  S  S37  1  0.22890000  0.81140000  0.15639000  1.0
  N  N38  1  0.06118000  0.30927000  0.42514000  1.0
  N  N39  1  0.56115000  0.19074000  0.07486000  1.0
  N  N40  1  0.93882000  0.69070000  0.57487000  1.0
  N  N41  1  0.43885000  0.80928000  0.92514000  1.0
  N  N42  1  0.01086000  0.06383000  0.36363000  1.0
  N  N43  1  0.51084000  0.43618000  0.13637000  1.0
  N  N44  1  0.98914000  0.93614000  0.63637000  1.0
  N  N45  1  0.48915000  0.56385000  0.86363000  1.0
  N  N46  1  0.72738000  0.37753000  0.56056000  1.0
  N  N47  1  0.22739000  0.12246000  0.93944000  1.0
  N  N48  1  0.27264000  0.62245000  0.43943000  1.0
  N  N49  1  0.77264000  0.87756000  0.06056000  1.0
