# generated using pymatgen
data_ZnH16C21N6O5F2
_symmetry_space_group_name_H-M   'P 1'
_cell_length_a   5.71838000
_cell_length_b   11.68830000
_cell_length_c   17.08340000
_cell_angle_alpha   100.08400000
_cell_angle_beta   98.07420000
_cell_angle_gamma   102.16700000
_symmetry_Int_Tables_number   1
_chemical_formula_structural   ZnH16C21N6O5F2
_chemical_formula_sum   'Zn2 H32 C42 N12 O10 F4'
_cell_volume   1080.11130795
_cell_formula_units_Z   2
loop_
 _symmetry_equiv_pos_site_id
 _symmetry_equiv_pos_as_xyz
  1  'x, y, z'
loop_
 _atom_site_type_symbol
 _atom_site_label
 _atom_site_symmetry_multiplicity
 _atom_site_fract_x
 _atom_site_fract_y
 _atom_site_fract_z
 _atom_site_occupancy
  Zn  Zn0  1  0.48755000  0.73290000  0.30087000  1.0
  Zn  Zn1  1  0.51247000  0.26710000  0.69913000  1.0
  H  H2  1  0.71566000  0.24539000  0.42062000  1.0
  H  H3  1  0.28435000  0.75460000  0.57938000  1.0
  H  H4  1  0.46006000  0.60071000  0.45387000  1.0
  H  H5  1  0.53994000  0.39929000  0.54613000  1.0
  H  H6  1  0.86770000  0.56358000  0.26709000  1.0
  H  H7  1  0.13229000  0.43641000  0.73290000  1.0
  H  H8  1  0.05822000  0.39096000  0.42364000  1.0
  H  H9  1  0.94179000  0.60904000  0.57636000  1.0
  H  H10  1  0.12645000  0.42600000  0.33076000  1.0
  H  H11  1  0.87357000  0.57400000  0.66924000  1.0
  H  H12  1  0.16239000  0.21175000  0.28219000  1.0
  H  H13  1  0.83764000  0.78825000  0.71781000  1.0
  H  H14  1  0.13285000  0.20262000  0.38273000  1.0
  H  H15  1  0.86718000  0.79738000  0.61728000  1.0
  H  H16  1  0.63255000  0.01788000  0.35732000  1.0
  H  H17  1  0.36748000  0.98212000  0.64269000  1.0
  H  H18  1  0.95255000  0.80138000  0.20260000  1.0
  H  H19  1  0.04747000  0.19862000  0.79739000  1.0
  H  H20  1  0.84717000  0.32516000  0.05187000  1.0
  H  H21  1  0.15282000  0.67486000  0.94814000  1.0
  H  H22  1  0.20993000  0.08633000  0.09315000  1.0
  H  H23  1  0.79009000  0.91367000  0.90686000  1.0
  H  H24  1  0.39915000  0.12062000  0.23670000  1.0
  H  H25  1  0.60090000  0.87937000  0.76330000  1.0
  H  H26  1  0.81087000  0.78649000  0.49404000  1.0
  H  H27  1  0.18910000  0.21349000  0.50595000  1.0
  H  H28  1  0.38197000  0.05414000  0.44705000  1.0
  H  H29  1  0.61801000  0.94586000  0.55295000  1.0
  H  H30  1  0.85064000  0.64389000  0.09432000  1.0
  H  H31  1  0.14929000  0.35612000  0.90568000  1.0
  H  H32  1  0.39305000  0.45039000  0.04345000  1.0
  H  H33  1  0.60690000  0.54962000  0.95655000  1.0
  C  C34  1  0.58220000  0.56914000  0.41625000  1.0
  C  C35  1  0.41782000  0.43086000  0.58375000  1.0
  C  C36  1  0.78465000  0.55172000  0.31961000  1.0
  C  C37  1  0.21535000  0.44827000  0.68039000  1.0
  C  C38  1  0.97947000  0.39176000  0.36135000  1.0
  C  C39  1  0.02055000  0.60824000  0.63865000  1.0
  C  C40  1  0.83902000  0.26211000  0.31810000  1.0
  C  C41  1  0.16100000  0.73789000  0.68190000  1.0
  C  C42  1  0.03153000  0.18650000  0.32082000  1.0
  C  C43  1  0.96850000  0.81350000  0.67918000  1.0
  C  C44  1  0.74676000  0.98715000  0.31715000  1.0
  C  C45  1  0.25327000  0.01285000  0.68286000  1.0
  C  C46  1  0.91076000  0.87954000  0.23687000  1.0
  C  C47  1  0.08925000  0.12046000  0.76314000  1.0
  C  C48  1  0.72350000  0.24787000  0.22960000  1.0
  C  C49  1  0.27653000  0.75213000  0.77039000  1.0
  C  C50  1  0.84457000  0.29956000  0.17390000  1.0
  C  C51  1  0.15545000  0.70044000  0.82611000  1.0
  C  C52  1  0.74587000  0.28190000  0.09241000  1.0
  C  C53  1  0.25413000  0.71811000  0.90759000  1.0
  C  C54  1  0.51537000  0.20595000  0.06518000  1.0
  C  C55  1  0.48463000  0.79406000  0.93483000  1.0
  C  C56  1  0.38792000  0.14781000  0.11614000  1.0
  C  C57  1  0.61209000  0.85219000  0.88387000  1.0
  C  C58  1  0.49515000  0.16940000  0.19751000  1.0
  C  C59  1  0.50487000  0.83059000  0.80249000  1.0
  C  C60  1  0.23415000  0.81472000  0.43780000  1.0
  C  C61  1  0.76583000  0.18528000  0.56220000  1.0
  C  C62  1  0.11172000  0.91046000  0.46894000  1.0
  C  C63  1  0.88826000  0.08953000  0.53105000  1.0
  C  C64  1  0.89454000  0.88048000  0.49783000  1.0
  C  C65  1  0.10543000  0.11951000  0.50217000  1.0
  C  C66  1  0.21502000  0.03077000  0.47060000  1.0
  C  C67  1  0.78495000  0.96922000  0.52939000  1.0
  C  C68  1  0.29610000  0.61300000  0.15687000  1.0
  C  C69  1  0.70388000  0.38701000  0.84313000  1.0
  C  C70  1  0.14018000  0.55434000  0.07647000  1.0
  C  C71  1  0.85978000  0.44568000  0.92353000  1.0
  C  C72  1  0.91746000  0.58218000  0.05279000  1.0
  C  C73  1  0.08249000  0.41785000  0.94721000  1.0
  C  C74  1  0.22094000  0.47165000  0.02355000  1.0
  C  C75  1  0.77903000  0.52837000  0.97645000  1.0
  N  N76  1  0.63034000  0.61229000  0.34912000  1.0
  N  N77  1  0.36967000  0.38770000  0.65087000  1.0
  N  N78  1  0.69835000  0.48570000  0.42952000  1.0
  N  N79  1  0.30167000  0.51430000  0.57048000  1.0
  N  N80  1  0.82556000  0.47580000  0.36768000  1.0
  N  N81  1  0.17445000  0.52420000  0.63232000  1.0
  N  N82  1  0.92753000  0.05827000  0.29321000  1.0
  N  N83  1  0.07250000  0.94173000  0.70679000  1.0
  N  N84  1  0.03465000  0.99071000  0.24204000  1.0
  N  N85  1  0.96537000  0.00928000  0.75796000  1.0
  N  N86  1  0.73087000  0.87339000  0.28219000  1.0
  N  N87  1  0.26915000  0.12660000  0.71781000  1.0
  O  O88  1  0.51896000  0.61472000  0.16946000  1.0
  O  O89  1  0.48099000  0.38528000  0.83054000  1.0
  O  O90  1  0.19343000  0.66314000  0.21255000  1.0
  O  O91  1  0.80654000  0.33685000  0.78746000  1.0
  O  O92  1  0.33366000  0.83119000  0.37672000  1.0
  O  O93  1  0.66630000  0.16881000  0.62327000  1.0
  O  O94  1  0.23407000  0.72872000  0.47349000  1.0
  O  O95  1  0.76590000  0.27128000  0.52650000  1.0
  O  O96  1  0.65254000  0.22157000  0.36083000  1.0
  O  O97  1  0.34748000  0.77842000  0.63917000  1.0
  F  F98  1  0.07701000  0.37059000  0.19914000  1.0
  F  F99  1  0.92301000  0.62940000  0.80086000  1.0
  F  F100  1  0.41442000  0.18731000  0.98541000  1.0
  F  F101  1  0.58558000  0.81272000  0.01460000  1.0
