# generated using pymatgen
data_Cd3H20C20O19
_symmetry_space_group_name_H-M   'P 1'
_cell_length_a   6.63124000
_cell_length_b   11.62780000
_cell_length_c   17.43960000
_cell_angle_alpha   90.00000000
_cell_angle_beta   98.97040000
_cell_angle_gamma   90.00000000
_symmetry_Int_Tables_number   1
_chemical_formula_structural   Cd3H20C20O19
_chemical_formula_sum   'Cd6 H40 C40 O38'
_cell_volume   1328.26345099
_cell_formula_units_Z   2
loop_
 _symmetry_equiv_pos_site_id
 _symmetry_equiv_pos_as_xyz
  1  'x, y, z'
loop_
 _atom_site_type_symbol
 _atom_site_label
 _atom_site_symmetry_multiplicity
 _atom_site_fract_x
 _atom_site_fract_y
 _atom_site_fract_z
 _atom_site_occupancy
  Cd  Cd0  1  0.25002000  0.83077000  0.25000000  1.0
  Cd  Cd1  1  0.75000000  0.16923000  0.75000000  1.0
  Cd  Cd2  1  0.80896000  0.34689000  0.52861000  1.0
  Cd  Cd3  1  0.69102000  0.34689000  0.97139000  1.0
  Cd  Cd4  1  0.19102000  0.65311000  0.47139000  1.0
  Cd  Cd5  1  0.30895000  0.65311000  0.02861000  1.0
  H  H6  1  0.52755000  0.45593000  0.26186000  1.0
  H  H7  1  0.97246000  0.45595000  0.23813000  1.0
  H  H8  1  0.47246000  0.54406000  0.73814000  1.0
  H  H9  1  0.02754000  0.54407000  0.76186000  1.0
  H  H10  1  0.37849000  0.20310000  0.08175000  1.0
  H  H11  1  0.12148000  0.20312000  0.41825000  1.0
  H  H12  1  0.62149000  0.79689000  0.91825000  1.0
  H  H13  1  0.87850000  0.79689000  0.58175000  1.0
  H  H14  1  0.52870000  0.09752000  0.32133000  1.0
  H  H15  1  0.97130000  0.09754000  0.17866000  1.0
  H  H16  1  0.47131000  0.90247000  0.67866000  1.0
  H  H17  1  0.02869000  0.90248000  0.82133000  1.0
  H  H18  1  0.68846000  0.99281000  0.13547000  1.0
  H  H19  1  0.81155000  0.99282000  0.36453000  1.0
  H  H20  1  0.31153000  0.00718000  0.86453000  1.0
  H  H21  1  0.18846000  0.00718000  0.63546000  1.0
  H  H22  1  0.47930000  0.04035000  0.06622000  1.0
  H  H23  1  0.02072000  0.04036000  0.43378000  1.0
  H  H24  1  0.52070000  0.95964000  0.93378000  1.0
  H  H25  1  0.97928000  0.95965000  0.56621000  1.0
  H  H26  1  0.30235000  0.58655000  0.21015000  1.0
  H  H27  1  0.19783000  0.58654000  0.28986000  1.0
  H  H28  1  0.69775000  0.41345000  0.78986000  1.0
  H  H29  1  0.80227000  0.41346000  0.71015000  1.0
  H  H30  1  0.96374000  0.88023000  0.12058000  1.0
  H  H31  1  0.53628000  0.88025000  0.37946000  1.0
  H  H32  1  0.03627000  0.11976000  0.87945000  1.0
  H  H33  1  0.46373000  0.11976000  0.62056000  1.0
  H  H34  1  0.93976000  0.75095000  0.13636000  1.0
  H  H35  1  0.56024000  0.75098000  0.36366000  1.0
  H  H36  1  0.06024000  0.24904000  0.86365000  1.0
  H  H37  1  0.43976000  0.24904000  0.63635000  1.0
  H  H38  1  0.34058000  0.36124000  0.53174000  1.0
  H  H39  1  0.15942000  0.36124000  0.96826000  1.0
  H  H40  1  0.65940000  0.63876000  0.46827000  1.0
  H  H41  1  0.84058000  0.63876000  0.03175000  1.0
  H  H42  1  0.44417000  0.44161000  0.59641000  1.0
  H  H43  1  0.05582000  0.44162000  0.90358000  1.0
  H  H44  1  0.55581000  0.55840000  0.40358000  1.0
  H  H45  1  0.94416000  0.55837000  0.09641000  1.0
  C  C46  1  0.53212000  0.27992000  0.29995000  1.0
  C  C47  1  0.96788000  0.27993000  0.20004000  1.0
  C  C48  1  0.46788000  0.72007000  0.70005000  1.0
  C  C49  1  0.03212000  0.72008000  0.79995000  1.0
  C  C50  1  0.50319000  0.36672000  0.24407000  1.0
  C  C51  1  0.99681000  0.36674000  0.25592000  1.0
  C  C52  1  0.49681000  0.63327000  0.75593000  1.0
  C  C53  1  0.00318000  0.63328000  0.74407000  1.0
  C  C54  1  0.44685000  0.33824000  0.16577000  1.0
  C  C55  1  0.05314000  0.33825000  0.33422000  1.0
  C  C56  1  0.55315000  0.66175000  0.83422000  1.0
  C  C57  1  0.94684000  0.66175000  0.66577000  1.0
  C  C58  1  0.42285000  0.22302000  0.14299000  1.0
  C  C59  1  0.07713000  0.22303000  0.35701000  1.0
  C  C60  1  0.57714000  0.77697000  0.85701000  1.0
  C  C61  1  0.92285000  0.77698000  0.64299000  1.0
  C  C62  1  0.45251000  0.13710000  0.19946000  1.0
  C  C63  1  0.04747000  0.13712000  0.30054000  1.0
  C  C64  1  0.54748000  0.86289000  0.80054000  1.0
  C  C65  1  0.95252000  0.86290000  0.69946000  1.0
  C  C66  1  0.50674000  0.16477000  0.27745000  1.0
  C  C67  1  0.99326000  0.16479000  0.22255000  1.0
  C  C68  1  0.49326000  0.83521000  0.72255000  1.0
  C  C69  1  0.00674000  0.83522000  0.77744000  1.0
  C  C70  1  0.60047000  0.30765000  0.38347000  1.0
  C  C71  1  0.89954000  0.30767000  0.11652000  1.0
  C  C72  1  0.39954000  0.69233000  0.61653000  1.0
  C  C73  1  0.10046000  0.69235000  0.88347000  1.0
  C  C74  1  0.40511000  0.42985000  0.10557000  1.0
  C  C75  1  0.09488000  0.42986000  0.39442000  1.0
  C  C76  1  0.59489000  0.57014000  0.89443000  1.0
  C  C77  1  0.90510000  0.57014000  0.60558000  1.0
  C  C78  1  0.52248000  0.98571000  0.11768000  1.0
  C  C79  1  0.97752000  0.98573000  0.38232000  1.0
  C  C80  1  0.47751000  0.01428000  0.88232000  1.0
  C  C81  1  0.02249000  0.01428000  0.61767000  1.0
  C  C82  1  0.47026000  0.86328000  0.09494000  1.0
  C  C83  1  0.02972000  0.86329000  0.40506000  1.0
  C  C84  1  0.52971000  0.13671000  0.90506000  1.0
  C  C85  1  0.97028000  0.13672000  0.59494000  1.0
  O  O86  1  0.63584000  0.41277000  0.40370000  1.0
  O  O87  1  0.86415000  0.41278000  0.09629000  1.0
  O  O88  1  0.36416000  0.58722000  0.59630000  1.0
  O  O89  1  0.13585000  0.58724000  0.90370000  1.0
  O  O90  1  0.25012000  0.63409000  0.25002000  1.0
  O  O91  1  0.75003000  0.36591000  0.75001000  1.0
  O  O92  1  0.63205000  0.22562000  0.43228000  1.0
  O  O93  1  0.86796000  0.22564000  0.06772000  1.0
  O  O94  1  0.36795000  0.77436000  0.56772000  1.0
  O  O95  1  0.13203000  0.77438000  0.93228000  1.0
  O  O96  1  0.94364000  0.82849000  0.16273000  1.0
  O  O97  1  0.55636000  0.82852000  0.33730000  1.0
  O  O98  1  0.05635000  0.17150000  0.83729000  1.0
  O  O99  1  0.44365000  0.17150000  0.66272000  1.0
  O  O100  1  0.38355000  0.40448000  0.03402000  1.0
  O  O101  1  0.11644000  0.40449000  0.46598000  1.0
  O  O102  1  0.61645000  0.59551000  0.96598000  1.0
  O  O103  1  0.88355000  0.59551000  0.53402000  1.0
  O  O104  1  0.45625000  0.36289000  0.57535000  1.0
  O  O105  1  0.04375000  0.36290000  0.92464000  1.0
  O  O106  1  0.54373000  0.63711000  0.42465000  1.0
  O  O107  1  0.95626000  0.63710000  0.07536000  1.0
  O  O108  1  0.38860000  0.53379000  0.12942000  1.0
  O  O109  1  0.11140000  0.53380000  0.37058000  1.0
  O  O110  1  0.61141000  0.46620000  0.87058000  1.0
  O  O111  1  0.88859000  0.46621000  0.62942000  1.0
  O  O112  1  0.42134000  0.02150000  0.18098000  1.0
  O  O113  1  0.07865000  0.02152000  0.31902000  1.0
  O  O114  1  0.57864000  0.97848000  0.81902000  1.0
  O  O115  1  0.92135000  0.97849000  0.68097000  1.0
  O  O116  1  0.35372000  0.80396000  0.13211000  1.0
  O  O117  1  0.14625000  0.80396000  0.36789000  1.0
  O  O118  1  0.64623000  0.19605000  0.86789000  1.0
  O  O119  1  0.85376000  0.19605000  0.63210000  1.0
  O  O120  1  0.53894000  0.82404000  0.03702000  1.0
  O  O121  1  0.96105000  0.82405000  0.46298000  1.0
  O  O122  1  0.46104000  0.17594000  0.96298000  1.0
  O  O123  1  0.03897000  0.17596000  0.53702000  1.0
