# generated using pymatgen
data_Cd5H24C22S4(N4Cl5)2
_symmetry_space_group_name_H-M   'P 1'
_cell_length_a   11.85290000
_cell_length_b   12.13390000
_cell_length_c   14.02870000
_cell_angle_alpha   90.00000000
_cell_angle_beta   99.69440000
_cell_angle_gamma   90.00000000
_symmetry_Int_Tables_number   1
_chemical_formula_structural   Cd5H24C22S4(N4Cl5)2
_chemical_formula_sum   'Cd10 H48 C44 S8 N16 Cl20'
_cell_volume   1988.82238001
_cell_formula_units_Z   2
loop_
 _symmetry_equiv_pos_site_id
 _symmetry_equiv_pos_as_xyz
  1  'x, y, z'
loop_
 _atom_site_type_symbol
 _atom_site_label
 _atom_site_symmetry_multiplicity
 _atom_site_fract_x
 _atom_site_fract_y
 _atom_site_fract_z
 _atom_site_occupancy
  Cd  Cd0  1  0.31636000  0.11793000  0.16748000  1.0
  Cd  Cd1  1  0.81637000  0.38207000  0.66748000  1.0
  Cd  Cd2  1  0.68364000  0.88207000  0.83252000  1.0
  Cd  Cd3  1  0.18364000  0.61793000  0.33252000  1.0
  Cd  Cd4  1  0.50000000  0.00000000  0.00000000  1.0
  Cd  Cd5  1  0.00000000  0.50000000  0.50000000  1.0
  Cd  Cd6  1  0.67347000  0.19540000  0.84778000  1.0
  Cd  Cd7  1  0.17347000  0.30460000  0.34778000  1.0
  Cd  Cd8  1  0.32653000  0.80460000  0.15221000  1.0
  Cd  Cd9  1  0.82653000  0.69540000  0.65221000  1.0
  H  H10  1  0.14595000  0.48969000  0.85809000  1.0
  H  H11  1  0.64595000  0.01031000  0.35809000  1.0
  H  H12  1  0.85405000  0.51031000  0.14191000  1.0
  H  H13  1  0.35405000  0.98969000  0.64191000  1.0
  H  H14  1  0.14831000  0.56143000  0.97043000  1.0
  H  H15  1  0.64831000  0.93857000  0.47043000  1.0
  H  H16  1  0.85169000  0.43857000  0.02957000  1.0
  H  H17  1  0.35169000  0.06143000  0.52957000  1.0
  H  H18  1  0.31984000  0.39176000  0.91815000  1.0
  H  H19  1  0.81984000  0.10824000  0.41815000  1.0
  H  H20  1  0.68017000  0.60824000  0.08185000  1.0
  H  H21  1  0.18016000  0.89176000  0.58185000  1.0
  H  H22  1  0.34677000  0.51480000  0.98781000  1.0
  H  H23  1  0.84676000  0.98520000  0.48781000  1.0
  H  H24  1  0.65324000  0.48520000  0.01220000  1.0
  H  H25  1  0.15323000  0.01480000  0.51219000  1.0
  H  H26  1  0.57222000  0.21521000  0.24992000  1.0
  H  H27  1  0.07222000  0.28479000  0.74992000  1.0
  H  H28  1  0.42778000  0.78479000  0.75008000  1.0
  H  H29  1  0.92778000  0.71521000  0.25008000  1.0
  H  H30  1  0.50134000  0.30863000  0.31764000  1.0
  H  H31  1  0.00134000  0.19137000  0.81764000  1.0
  H  H32  1  0.49866000  0.69137000  0.68236000  1.0
  H  H33  1  0.99866000  0.80863000  0.18236000  1.0
  H  H34  1  0.90746000  0.24269000  0.31904000  1.0
  H  H35  1  0.40746000  0.25732000  0.81904000  1.0
  H  H36  1  0.09254000  0.75732000  0.68096000  1.0
  H  H37  1  0.59254000  0.74268000  0.18096000  1.0
  H  H38  1  0.01409000  0.14643000  0.00455000  1.0
  H  H39  1  0.51410000  0.35357000  0.50455000  1.0
  H  H40  1  0.98591000  0.85357000  0.99545000  1.0
  H  H41  1  0.48590000  0.64643000  0.49545000  1.0
  H  H42  1  0.76266000  0.14305000  0.19426000  1.0
  H  H43  1  0.26266000  0.35695000  0.69426000  1.0
  H  H44  1  0.23734000  0.85695000  0.80574000  1.0
  H  H45  1  0.73733000  0.64304000  0.30574000  1.0
  H  H46  1  0.82193000  0.08915000  0.03789000  1.0
  H  H47  1  0.32193000  0.41085000  0.53788000  1.0
  H  H48  1  0.17807000  0.91085000  0.96211000  1.0
  H  H49  1  0.67807000  0.58915000  0.46211000  1.0
  H  H50  1  0.65359000  0.35965000  0.16705000  1.0
  H  H51  1  0.15360000  0.14035000  0.66705000  1.0
  H  H52  1  0.34641000  0.64035000  0.83295000  1.0
  H  H53  1  0.84640000  0.85965000  0.33295000  1.0
  H  H54  1  0.63885000  0.43515000  0.27444000  1.0
  H  H55  1  0.13885000  0.06484000  0.77444000  1.0
  H  H56  1  0.36115000  0.56484000  0.72556000  1.0
  H  H57  1  0.86115000  0.93516000  0.22556000  1.0
  C  C58  1  0.05969000  0.22639000  0.14367000  1.0
  C  C59  1  0.55969000  0.27361000  0.64367000  1.0
  C  C60  1  0.94031000  0.77361000  0.85632000  1.0
  C  C61  1  0.44030000  0.72639000  0.35632000  1.0
  C  C62  1  0.39027000  0.36587000  0.12540000  1.0
  C  C63  1  0.89027000  0.13413000  0.62540000  1.0
  C  C64  1  0.60973000  0.63413000  0.87460000  1.0
  C  C65  1  0.10972000  0.86587000  0.37460000  1.0
  C  C66  1  0.18496000  0.33114000  0.06723000  1.0
  C  C67  1  0.68496000  0.16887000  0.56724000  1.0
  C  C68  1  0.81504000  0.66886000  0.93277000  1.0
  C  C69  1  0.31504000  0.83114000  0.43277000  1.0
  C  C70  1  0.16659000  0.48322000  0.93707000  1.0
  C  C71  1  0.66659000  0.01679000  0.43707000  1.0
  C  C72  1  0.83341000  0.51679000  0.06293000  1.0
  C  C73  1  0.33341000  0.98321000  0.56293000  1.0
  C  C74  1  0.28843000  0.44456000  0.97187000  1.0
  C  C75  1  0.78843000  0.05544000  0.47187000  1.0
  C  C76  1  0.71157000  0.55544000  0.02813000  1.0
  C  C77  1  0.21156000  0.94456000  0.52813000  1.0
  C  C78  1  0.52386000  0.29271000  0.24593000  1.0
  C  C79  1  0.02386000  0.20729000  0.74593000  1.0
  C  C80  1  0.47614000  0.70729000  0.75407000  1.0
  C  C81  1  0.97614000  0.79271000  0.25407000  1.0
  C  C82  1  0.92589000  0.21922000  0.24803000  1.0
  C  C83  1  0.42588000  0.28078000  0.74803000  1.0
  C  C84  1  0.07412000  0.78078000  0.75197000  1.0
  C  C85  1  0.57411000  0.71922000  0.25197000  1.0
  C  C86  1  0.98640000  0.16808000  0.07234000  1.0
  C  C87  1  0.48640000  0.33192000  0.57234000  1.0
  C  C88  1  0.01360000  0.83192000  0.92766000  1.0
  C  C89  1  0.51360000  0.66808000  0.42766000  1.0
  C  C90  1  0.84724000  0.16477000  0.17947000  1.0
  C  C91  1  0.34724000  0.33523000  0.67947000  1.0
  C  C92  1  0.15276000  0.83523000  0.82052000  1.0
  C  C93  1  0.65276000  0.66477000  0.32052000  1.0
  C  C94  1  0.87953000  0.13654000  0.09121000  1.0
  C  C95  1  0.37953000  0.36346000  0.59121000  1.0
  C  C96  1  0.12047000  0.86346000  0.90879000  1.0
  C  C97  1  0.62046000  0.63654000  0.40879000  1.0
  C  C98  1  0.59315000  0.38834000  0.21304000  1.0
  C  C99  1  0.09316000  0.11166000  0.71304000  1.0
  C  C100  1  0.40685000  0.61166000  0.78696000  1.0
  C  C101  1  0.90684000  0.88834000  0.28696000  1.0
  S  S102  1  0.48746000  0.47674000  0.14115000  1.0
  S  S103  1  0.98746000  0.02326000  0.64115000  1.0
  S  S104  1  0.51254000  0.52326000  0.85885000  1.0
  S  S105  1  0.01254000  0.97674000  0.35885000  1.0
  S  S106  1  0.07611000  0.37751000  0.97620000  1.0
  S  S107  1  0.57611000  0.12249000  0.47621000  1.0
  S  S108  1  0.92389000  0.62249000  0.02380000  1.0
  S  S109  1  0.42389000  0.87751000  0.52380000  1.0
  N  N110  1  0.17005000  0.26147000  0.13474000  1.0
  N  N111  1  0.67004000  0.23853000  0.63474000  1.0
  N  N112  1  0.82996000  0.73853000  0.86526000  1.0
  N  N113  1  0.32996000  0.76147000  0.36526000  1.0
  N  N114  1  0.41785000  0.27922000  0.17701000  1.0
  N  N115  1  0.91785000  0.22078000  0.67701000  1.0
  N  N116  1  0.58215000  0.72078000  0.82299000  1.0
  N  N117  1  0.08215000  0.77921000  0.32299000  1.0
  N  N118  1  0.28896000  0.37901000  0.06038000  1.0
  N  N119  1  0.78896000  0.12099000  0.56038000  1.0
  N  N120  1  0.71104000  0.62099000  0.93962000  1.0
  N  N121  1  0.21103000  0.87901000  0.43962000  1.0
  N  N122  1  0.03046000  0.24707000  0.23070000  1.0
  N  N123  1  0.53046000  0.25294000  0.73070000  1.0
  N  N124  1  0.96954000  0.75293000  0.76930000  1.0
  N  N125  1  0.46954000  0.74707000  0.26930000  1.0
  Cl  Cl126  1  0.29974000  0.13298000  0.35273000  1.0
  Cl  Cl127  1  0.79974000  0.36703000  0.85272000  1.0
  Cl  Cl128  1  0.70026000  0.86703000  0.64728000  1.0
  Cl  Cl129  1  0.20026000  0.63298000  0.14728000  1.0
  Cl  Cl130  1  0.50315000  0.99982000  0.18983000  1.0
  Cl  Cl131  1  0.00316000  0.50018000  0.68983000  1.0
  Cl  Cl132  1  0.49684000  0.00018000  0.81017000  1.0
  Cl  Cl133  1  0.99685000  0.49981000  0.31017000  1.0
  Cl  Cl134  1  0.59456000  0.20724000  0.00200000  1.0
  Cl  Cl135  1  0.09456000  0.29276000  0.50200000  1.0
  Cl  Cl136  1  0.40545000  0.79275000  0.99800000  1.0
  Cl  Cl137  1  0.90544000  0.70724000  0.49800000  1.0
  Cl  Cl138  1  0.17840000  0.95007000  0.15508000  1.0
  Cl  Cl139  1  0.67840000  0.54994000  0.65508000  1.0
  Cl  Cl140  1  0.82160000  0.04994000  0.84492000  1.0
  Cl  Cl141  1  0.32160000  0.45006000  0.34492000  1.0
  Cl  Cl142  1  0.30355000  0.10290000  0.97464000  1.0
  Cl  Cl143  1  0.80355000  0.39710000  0.47464000  1.0
  Cl  Cl144  1  0.69645000  0.89711000  0.02537000  1.0
  Cl  Cl145  1  0.19645000  0.60290000  0.52537000  1.0
