# generated using pymatgen
data_AgH16C10SN2ClO7
_symmetry_space_group_name_H-M   'P 1'
_cell_length_a   8.12213000
_cell_length_b   9.61494000
_cell_length_c   11.34380000
_cell_angle_alpha   93.18610000
_cell_angle_beta   109.98100000
_cell_angle_gamma   112.86000000
_symmetry_Int_Tables_number   1
_chemical_formula_structural   AgH16C10SN2ClO7
_chemical_formula_sum   'Ag2 H32 C20 S2 N4 Cl2 O14'
_cell_volume   748.80368813
_cell_formula_units_Z   2
loop_
 _symmetry_equiv_pos_site_id
 _symmetry_equiv_pos_as_xyz
  1  'x, y, z'
loop_
 _atom_site_type_symbol
 _atom_site_label
 _atom_site_symmetry_multiplicity
 _atom_site_fract_x
 _atom_site_fract_y
 _atom_site_fract_z
 _atom_site_occupancy
  Ag  Ag0  1  0.61945000  0.46143000  0.37480000  1.0
  Ag  Ag1  1  0.16037000  0.45800000  0.46799000  1.0
  H  H2  1  0.43513000  0.08239000  0.57069000  1.0
  H  H3  1  0.57679000  0.42772000  0.92181000  1.0
  H  H4  1  0.38883000  0.02597000  0.89961000  1.0
  H  H5  1  0.30045000  0.03468000  0.73730000  1.0
  H  H6  1  0.57332000  0.53805000  0.67498000  1.0
  H  H7  1  0.06452000  0.00440000  0.90418000  1.0
  H  H8  1  0.97260000  0.97838000  0.73598000  1.0
  H  H9  1  0.12095000  0.82608000  0.24933000  1.0
  H  H10  1  0.89246000  0.73613000  0.82884000  1.0
  H  H11  1  0.13905000  0.77320000  0.88314000  1.0
  H  H12  1  0.75458000  0.36963000  0.16961000  1.0
  H  H13  1  0.31695000  0.45587000  0.91356000  1.0
  H  H14  1  0.11013000  0.75610000  0.64960000  1.0
  H  H15  1  0.85936000  0.70541000  0.60145000  1.0
  H  H16  1  0.08238000  0.53068000  0.74550000  1.0
  H  H17  1  0.82983000  0.47591000  0.82288000  1.0
  H  H18  1  0.77382000  0.21522000  0.76257000  1.0
  H  H19  1  0.73344000  0.14101000  0.50994000  1.0
  H  H20  1  0.96385000  0.23656000  0.64324000  1.0
  H  H21  1  0.49753000  0.85036000  0.02431000  1.0
  H  H22  1  0.56889000  0.85871000  0.89344000  1.0
  H  H23  1  0.82817000  0.92256000  0.17756000  1.0
  H  H24  1  0.90635000  0.89360000  0.05464000  1.0
  H  H25  1  0.73802000  0.12776000  0.05221000  1.0
  H  H26  1  0.89782000  0.11944000  0.98201000  1.0
  H  H27  1  0.98484000  0.21720000  0.26680000  1.0
  H  H28  1  0.14525000  0.16806000  0.22114000  1.0
  H  H29  1  0.20383000  0.37253000  0.10184000  1.0
  H  H30  1  0.92102000  0.41737000  0.01987000  1.0
  H  H31  1  0.15593000  0.67975000  0.06590000  1.0
  H  H32  1  0.42685000  0.77578000  0.32061000  1.0
  H  H33  1  0.44950000  0.67698000  0.19315000  1.0
  C  C34  1  0.35118000  0.22645000  0.86621000  1.0
  C  C35  1  0.28391000  0.05575000  0.82817000  1.0
  C  C36  1  0.07748000  0.96082000  0.81781000  1.0
  C  C37  1  0.02294000  0.78823000  0.80728000  1.0
  C  C38  1  0.98542000  0.70122000  0.67629000  1.0
  C  C39  1  0.94908000  0.53432000  0.67966000  1.0
  C  C40  1  0.78192000  0.43907000  0.71852000  1.0
  C  C41  1  0.72770000  0.26369000  0.67880000  1.0
  C  C42  1  0.82642000  0.24209000  0.58962000  1.0
  C  C43  1  0.44571000  0.30224000  0.60042000  1.0
  C  C44  1  0.53942000  0.65942000  0.96151000  1.0
  C  C45  1  0.59740000  0.82928000  0.98882000  1.0
  C  C46  1  0.80853000  0.93274000  0.07802000  1.0
  C  C47  1  0.86375000  0.10204000  0.06770000  1.0
  C  C48  1  0.03567000  0.21295000  0.18869000  1.0
  C  C49  1  0.13398000  0.37498000  0.16929000  1.0
  C  C50  1  0.00975000  0.46343000  0.12351000  1.0
  C  C51  1  0.14925000  0.63981000  0.15352000  1.0
  C  C52  1  0.35614000  0.67121000  0.24498000  1.0
  C  C53  1  0.90801000  0.60729000  0.23219000  1.0
  S  S54  1  0.88603000  0.41595000  0.52451000  1.0
  S  S55  1  0.32982000  0.50518000  0.31921000  1.0
  N  N56  1  0.51763000  0.19577000  0.61631000  1.0
  N  N57  1  0.59942000  0.44737000  0.65001000  1.0
  N  N58  1  0.05898000  0.71090000  0.21092000  1.0
  N  N59  1  0.88712000  0.46055000  0.19266000  1.0
  Cl  Cl60  1  0.50909000  0.81839000  0.62043000  1.0
  Cl  Cl61  1  0.46492000  0.08744000  0.21863000  1.0
  O  O62  1  0.54038000  0.31017000  0.90151000  1.0
  O  O63  1  0.23781000  0.28525000  0.86471000  1.0
  O  O64  1  0.26925000  0.27250000  0.54999000  1.0
  O  O65  1  0.35651000  0.57280000  0.94481000  1.0
  O  O66  1  0.64929000  0.60255000  0.95039000  1.0
  O  O67  1  0.80575000  0.63936000  0.27978000  1.0
  O  O68  1  0.43347000  0.67342000  0.66539000  1.0
  O  O69  1  0.63307000  0.94540000  0.73213000  1.0
  O  O70  1  0.34397000  0.84423000  0.53950000  1.0
  O  O71  1  0.61890000  0.80305000  0.54663000  1.0
  O  O72  1  0.48737000  0.23565000  0.17774000  1.0
  O  O73  1  0.37205000  0.06910000  0.31055000  1.0
  O  O74  1  0.34227000  0.96155000  0.10567000  1.0
  O  O75  1  0.65607000  0.09014000  0.27844000  1.0
