# generated using pymatgen
data_ZnH20C34(SN5)2
_symmetry_space_group_name_H-M   'P 1'
_cell_length_a   8.37950000
_cell_length_b   13.38340000
_cell_length_c   13.38340000
_cell_angle_alpha   107.37400000
_cell_angle_beta   89.99990000
_cell_angle_gamma   89.99990000
_symmetry_Int_Tables_number   1
_chemical_formula_structural   ZnH20C34(SN5)2
_chemical_formula_sum   'Zn2 H40 C68 S4 N20'
_cell_volume   1432.42040745
_cell_formula_units_Z   2
loop_
 _symmetry_equiv_pos_site_id
 _symmetry_equiv_pos_as_xyz
  1  'x, y, z'
loop_
 _atom_site_type_symbol
 _atom_site_label
 _atom_site_symmetry_multiplicity
 _atom_site_fract_x
 _atom_site_fract_y
 _atom_site_fract_z
 _atom_site_occupancy
  Zn  Zn0  1  0.00000000  0.50000000  0.50000000  1.0
  Zn  Zn1  1  0.50000000  0.00000000  0.00000000  1.0
  H  H2  1  0.38873000  0.33343000  0.94500000  1.0
  H  H3  1  0.11127000  0.44500000  0.83343000  1.0
  H  H4  1  0.88873000  0.16657000  0.55500000  1.0
  H  H5  1  0.61127000  0.05500000  0.66657000  1.0
  H  H6  1  0.61127000  0.66657000  0.05500000  1.0
  H  H7  1  0.88873000  0.55500000  0.16657000  1.0
  H  H8  1  0.11127000  0.83343000  0.44500000  1.0
  H  H9  1  0.38873000  0.94500000  0.33344000  1.0
  H  H10  1  0.20956000  0.29953000  0.08491000  1.0
  H  H11  1  0.29044000  0.58491000  0.79954000  1.0
  H  H12  1  0.70956000  0.20047000  0.41509000  1.0
  H  H13  1  0.79044000  0.91509000  0.70047000  1.0
  H  H14  1  0.79044000  0.70047000  0.91508000  1.0
  H  H15  1  0.70956000  0.41509000  0.20047000  1.0
  H  H16  1  0.29044000  0.79954000  0.58491000  1.0
  H  H17  1  0.20956000  0.08491000  0.29953000  1.0
  H  H18  1  0.09214000  0.36961000  0.26586000  1.0
  H  H19  1  0.40786000  0.76586000  0.86961000  1.0
  H  H20  1  0.59214000  0.13039000  0.23414000  1.0
  H  H21  1  0.90786000  0.73414000  0.63039000  1.0
  H  H22  1  0.90786000  0.63039000  0.73414000  1.0
  H  H23  1  0.59214000  0.23414000  0.13039000  1.0
  H  H24  1  0.40786000  0.86961000  0.76586000  1.0
  H  H25  1  0.09215000  0.26586000  0.36961000  1.0
  H  H26  1  0.19575000  0.66990000  0.45100000  1.0
  H  H27  1  0.30424000  0.95100000  0.16990000  1.0
  H  H28  1  0.69575000  0.83010000  0.04900000  1.0
  H  H29  1  0.80425000  0.54900000  0.33010000  1.0
  H  H30  1  0.80425000  0.33010000  0.54900000  1.0
  H  H31  1  0.69575000  0.04900000  0.83010000  1.0
  H  H32  1  0.30425000  0.16990000  0.95100000  1.0
  H  H33  1  0.19575000  0.45100000  0.66990000  1.0
  H  H34  1  0.36508000  0.70762000  0.31230000  1.0
  H  H35  1  0.13492000  0.81230000  0.20762000  1.0
  H  H36  1  0.86508000  0.79238000  0.18770000  1.0
  H  H37  1  0.63492000  0.68770000  0.29238000  1.0
  H  H38  1  0.63492000  0.29238000  0.68770000  1.0
  H  H39  1  0.86508000  0.18770000  0.79238000  1.0
  H  H40  1  0.13492000  0.20762000  0.81230000  1.0
  H  H41  1  0.36508000  0.31230000  0.70762000  1.0
  C  C42  1  0.28891000  0.62449000  0.62449000  1.0
  C  C43  1  0.21109000  0.12449000  0.12449000  1.0
  C  C44  1  0.78891000  0.87551000  0.87551000  1.0
  C  C45  1  0.71110000  0.37551000  0.37551000  1.0
  C  C46  1  0.44729000  0.48996000  0.04071000  1.0
  C  C47  1  0.05271000  0.54071000  0.98996000  1.0
  C  C48  1  0.94729000  0.01004000  0.45929000  1.0
  C  C49  1  0.55271000  0.95929000  0.51004000  1.0
  C  C50  1  0.55271000  0.51004000  0.95929000  1.0
  C  C51  1  0.94729000  0.45929000  0.01004000  1.0
  C  C52  1  0.05271000  0.98996000  0.54071000  1.0
  C  C53  1  0.44729000  0.04071000  0.48996000  1.0
  C  C54  1  0.36911000  0.39153000  0.02051000  1.0
  C  C55  1  0.13090000  0.52051000  0.89153000  1.0
  C  C56  1  0.86910000  0.10847000  0.47949000  1.0
  C  C57  1  0.63089000  0.97949000  0.60847000  1.0
  C  C58  1  0.63090000  0.60847000  0.97949000  1.0
  C  C59  1  0.86910000  0.47949000  0.10847000  1.0
  C  C60  1  0.13090000  0.89153000  0.52051000  1.0
  C  C61  1  0.36910000  0.02051000  0.39153000  1.0
  C  C62  1  0.27302000  0.37330000  0.09634000  1.0
  C  C63  1  0.22697000  0.59634000  0.87330000  1.0
  C  C64  1  0.77302000  0.12670000  0.40366000  1.0
  C  C65  1  0.72698000  0.90366000  0.62670000  1.0
  C  C66  1  0.72697000  0.62670000  0.90366000  1.0
  C  C67  1  0.77302000  0.40366000  0.12670000  1.0
  C  C68  1  0.22698000  0.87330000  0.59634000  1.0
  C  C69  1  0.27302000  0.09634000  0.37330000  1.0
  C  C70  1  0.15796000  0.44234000  0.27504000  1.0
  C  C71  1  0.34204000  0.77504000  0.94234000  1.0
  C  C72  1  0.65796000  0.05766000  0.22496000  1.0
  C  C73  1  0.84204000  0.72496000  0.55766000  1.0
  C  C74  1  0.84204000  0.55766000  0.72496000  1.0
  C  C75  1  0.65796000  0.22496000  0.05766000  1.0
  C  C76  1  0.34204000  0.94234000  0.77504000  1.0
  C  C77  1  0.15797000  0.27504000  0.44234000  1.0
  C  C78  1  0.21589000  0.61121000  0.37603000  1.0
  C  C79  1  0.28411000  0.87603000  0.11121000  1.0
  C  C80  1  0.71589000  0.88879000  0.12397000  1.0
  C  C81  1  0.78411000  0.62397000  0.38879000  1.0
  C  C82  1  0.78411000  0.38879000  0.62397000  1.0
  C  C83  1  0.71589000  0.12397000  0.88879000  1.0
  C  C84  1  0.28411000  0.11121000  0.87603000  1.0
  C  C85  1  0.21589000  0.37603000  0.61121000  1.0
  C  C86  1  0.30978000  0.63122000  0.30003000  1.0
  C  C87  1  0.19022000  0.80003000  0.13122000  1.0
  C  C88  1  0.80978000  0.86878000  0.19997000  1.0
  C  C89  1  0.69022000  0.69997000  0.36878000  1.0
  C  C90  1  0.69022000  0.36878000  0.69997000  1.0
  C  C91  1  0.80978000  0.19997000  0.86878000  1.0
  C  C92  1  0.19022000  0.13122000  0.80003000  1.0
  C  C93  1  0.30979000  0.30003000  0.63122000  1.0
  C  C94  1  0.33479000  0.55061000  0.20501000  1.0
  C  C95  1  0.16521000  0.70501000  0.05061000  1.0
  C  C96  1  0.83479000  0.94939000  0.29499000  1.0
  C  C97  1  0.66521000  0.79499000  0.44939000  1.0
  C  C98  1  0.66521000  0.44939000  0.79499000  1.0
  C  C99  1  0.83479000  0.29499000  0.94939000  1.0
  C  C100  1  0.16521000  0.05061000  0.70501000  1.0
  C  C101  1  0.33479000  0.20501000  0.55061000  1.0
  C  C102  1  0.25413000  0.45357000  0.19213000  1.0
  C  C103  1  0.24587000  0.69213000  0.95357000  1.0
  C  C104  1  0.75413000  0.04643000  0.30787000  1.0
  C  C105  1  0.74587000  0.80787000  0.54643000  1.0
  C  C106  1  0.74587000  0.54643000  0.80787000  1.0
  C  C107  1  0.75413000  0.30787000  0.04643000  1.0
  C  C108  1  0.24587000  0.95357000  0.69213000  1.0
  C  C109  1  0.25413000  0.19213000  0.45357000  1.0
  S  S110  1  0.47403000  0.65218000  0.65218000  1.0
  S  S111  1  0.02597000  0.15218000  0.15218000  1.0
  S  S112  1  0.97403000  0.84782000  0.84782000  1.0
  S  S113  1  0.52597000  0.34782000  0.34782000  1.0
  N  N114  1  0.15122000  0.60523000  0.60523000  1.0
  N  N115  1  0.34876000  0.10523000  0.10523000  1.0
  N  N116  1  0.65124000  0.89477000  0.89477000  1.0
  N  N117  1  0.84876000  0.39477000  0.39477000  1.0
  N  N118  1  0.43147000  0.56722000  0.12984000  1.0
  N  N119  1  0.06852000  0.62984000  0.06722000  1.0
  N  N120  1  0.93147000  0.93278000  0.37016000  1.0
  N  N121  1  0.56853000  0.87016000  0.43278000  1.0
  N  N122  1  0.56853000  0.43278000  0.87016000  1.0
  N  N123  1  0.93147000  0.37016000  0.93278000  1.0
  N  N124  1  0.06852000  0.06722000  0.62984000  1.0
  N  N125  1  0.43148000  0.12984000  0.56722000  1.0
  N  N126  1  0.14161000  0.51776000  0.36471000  1.0
  N  N127  1  0.35839000  0.86471000  0.01776000  1.0
  N  N128  1  0.64161000  0.98224000  0.13528000  1.0
  N  N129  1  0.85839000  0.63528000  0.48224000  1.0
  N  N130  1  0.85839000  0.48224000  0.63528000  1.0
  N  N131  1  0.64161000  0.13528000  0.98224000  1.0
  N  N132  1  0.35839000  0.01776000  0.86472000  1.0
  N  N133  1  0.14161000  0.36472000  0.51776000  1.0
