# generated using pymatgen
data_MnP2H11C4NO7
_symmetry_space_group_name_H-M   'P 1'
_cell_length_a   5.51299000
_cell_length_b   12.27010000
_cell_length_c   14.64500000
_cell_angle_alpha   90.00000000
_cell_angle_beta   90.00000000
_cell_angle_gamma   98.18630000
_symmetry_Int_Tables_number   1
_chemical_formula_structural   MnP2H11C4NO7
_chemical_formula_sum   'Mn4 P8 H44 C16 N4 O28'
_cell_volume   980.56560287
_cell_formula_units_Z   4
loop_
 _symmetry_equiv_pos_site_id
 _symmetry_equiv_pos_as_xyz
  1  'x, y, z'
loop_
 _atom_site_type_symbol
 _atom_site_label
 _atom_site_symmetry_multiplicity
 _atom_site_fract_x
 _atom_site_fract_y
 _atom_site_fract_z
 _atom_site_occupancy
  Mn  Mn0  1  0.72571000  0.61336000  0.03008000  1.0
  Mn  Mn1  1  0.77429000  0.88665000  0.53008000  1.0
  Mn  Mn2  1  0.27429000  0.38665000  0.96992000  1.0
  Mn  Mn3  1  0.22572000  0.11336000  0.46992000  1.0
  P  P4  1  0.28392000  0.72838000  0.10343000  1.0
  P  P5  1  0.21608000  0.77162000  0.60343000  1.0
  P  P6  1  0.71607000  0.27162000  0.89657000  1.0
  P  P7  1  0.78393000  0.22838000  0.39657000  1.0
  P  P8  1  0.22349000  0.65043000  0.90998000  1.0
  P  P9  1  0.27652000  0.84958000  0.40998000  1.0
  P  P10  1  0.77651000  0.34957000  0.09002000  1.0
  P  P11  1  0.72349000  0.15043000  0.59002000  1.0
  H  H12  1  0.03517000  0.85908000  0.97377000  1.0
  H  H13  1  0.46484000  0.64092000  0.47376000  1.0
  H  H14  1  0.96483000  0.14092000  0.02623000  1.0
  H  H15  1  0.53516000  0.35908000  0.52623000  1.0
  H  H16  1  0.30808000  0.94021000  0.00985000  1.0
  H  H17  1  0.19192000  0.55980000  0.50985000  1.0
  H  H18  1  0.69192000  0.05979000  0.99015000  1.0
  H  H19  1  0.80808000  0.44021000  0.49015000  1.0
  H  H20  1  0.24215000  0.84942000  0.81442000  1.0
  H  H21  1  0.25784000  0.65057000  0.31442000  1.0
  H  H22  1  0.75785000  0.15058000  0.18558000  1.0
  H  H23  1  0.74216000  0.34943000  0.68558000  1.0
  H  H24  1  0.47467000  0.95223000  0.85418000  1.0
  H  H25  1  0.02533000  0.54776000  0.35418000  1.0
  H  H26  1  0.52533000  0.04776000  0.14582000  1.0
  H  H27  1  0.97467000  0.45223000  0.64582000  1.0
  H  H28  1  0.92788000  0.97526000  0.84790000  1.0
  H  H29  1  0.57213000  0.52474000  0.34790000  1.0
  H  H30  1  0.07212000  0.02474000  0.15210000  1.0
  H  H31  1  0.42787000  0.47525000  0.65210000  1.0
  H  H32  1  0.16881000  0.08133000  0.87778000  1.0
  H  H33  1  0.33121000  0.41867000  0.37778000  1.0
  H  H34  1  0.83120000  0.91867000  0.12222000  1.0
  H  H35  1  0.66879000  0.58133000  0.62222000  1.0
  H  H36  1  0.11813000  0.96429000  0.69747000  1.0
  H  H37  1  0.38186000  0.53571000  0.19747000  1.0
  H  H38  1  0.88186000  0.03571000  0.30253000  1.0
  H  H39  1  0.61813000  0.46429000  0.80253000  1.0
  H  H40  1  0.32895000  0.07191000  0.72329000  1.0
  H  H41  1  0.17105000  0.42809000  0.22329000  1.0
  H  H42  1  0.67105000  0.92809000  0.27671000  1.0
  H  H43  1  0.82895000  0.57191000  0.77671000  1.0
  H  H44  1  0.03634000  0.09040000  0.71812000  1.0
  H  H45  1  0.46365000  0.40960000  0.21812000  1.0
  H  H46  1  0.96366000  0.90960000  0.28188000  1.0
  H  H47  1  0.53634000  0.59040000  0.78188000  1.0
  H  H48  1  0.27226000  0.83147000  0.22531000  1.0
  H  H49  1  0.22774000  0.66853000  0.72531000  1.0
  H  H50  1  0.72774000  0.16853000  0.77469000  1.0
  H  H51  1  0.77227000  0.33147000  0.27469000  1.0
  H  H52  1  0.63784000  0.77451000  0.90509000  1.0
  H  H53  1  0.86216000  0.72549000  0.40509000  1.0
  H  H54  1  0.36215000  0.22548000  0.09491000  1.0
  H  H55  1  0.13785000  0.27451000  0.59491000  1.0
  C  C56  1  0.34219000  0.77110000  0.98270000  1.0
  C  C57  1  0.15782000  0.72890000  0.48270000  1.0
  C  C58  1  0.65782000  0.22889000  0.01731000  1.0
  C  C59  1  0.84219000  0.27110000  0.51730000  1.0
  C  C60  1  0.23356000  0.87632000  0.96064000  1.0
  C  C61  1  0.26645000  0.62368000  0.46064000  1.0
  C  C62  1  0.76645000  0.12368000  0.03936000  1.0
  C  C63  1  0.73355000  0.37632000  0.53936000  1.0
  C  C64  1  0.28035000  0.91804000  0.86278000  1.0
  C  C65  1  0.21965000  0.58197000  0.36278000  1.0
  C  C66  1  0.71965000  0.08197000  0.13722000  1.0
  C  C67  1  0.78035000  0.41803000  0.63722000  1.0
  C  C68  1  0.12333000  0.00570000  0.83760000  1.0
  C  C69  1  0.37667000  0.49430000  0.33760000  1.0
  C  C70  1  0.87667000  0.99430000  0.16240000  1.0
  C  C71  1  0.62332000  0.50570000  0.66240000  1.0
  N  N72  1  0.15485000  0.03472000  0.73917000  1.0
  N  N73  1  0.34515000  0.46528000  0.23917000  1.0
  N  N74  1  0.84516000  0.96528000  0.26083000  1.0
  N  N75  1  0.65484000  0.53472000  0.76083000  1.0
  O  O76  1  0.46937000  0.65215000  0.13020000  1.0
  O  O77  1  0.03063000  0.84785000  0.63020000  1.0
  O  O78  1  0.53062000  0.34784000  0.86980000  1.0
  O  O79  1  0.96939000  0.15216000  0.36980000  1.0
  O  O80  1  0.01673000  0.67886000  0.11285000  1.0
  O  O81  1  0.48326000  0.82114000  0.61285000  1.0
  O  O82  1  0.98326000  0.32114000  0.88715000  1.0
  O  O83  1  0.51674000  0.17886000  0.38715000  1.0
  O  O84  1  0.33967000  0.84025000  0.15873000  1.0
  O  O85  1  0.16033000  0.65975000  0.65873000  1.0
  O  O86  1  0.66033000  0.15975000  0.84127000  1.0
  O  O87  1  0.83968000  0.34026000  0.34127000  1.0
  O  O88  1  0.33779000  0.55549000  0.95373000  1.0
  O  O89  1  0.16222000  0.94451000  0.45373000  1.0
  O  O90  1  0.66220000  0.44451000  0.04627000  1.0
  O  O91  1  0.83780000  0.05549000  0.54627000  1.0
  O  O92  1  0.94331000  0.63549000  0.90812000  1.0
  O  O93  1  0.55669000  0.86452000  0.40813000  1.0
  O  O94  1  0.05668000  0.36451000  0.09188000  1.0
  O  O95  1  0.44331000  0.13549000  0.59188000  1.0
  O  O96  1  0.34205000  0.67654000  0.81555000  1.0
  O  O97  1  0.15795000  0.82346000  0.31555000  1.0
  O  O98  1  0.65793000  0.32346000  0.18445000  1.0
  O  O99  1  0.84206000  0.17654000  0.68445000  1.0
  O  O100  1  0.60850000  0.78586000  0.97036000  1.0
  O  O101  1  0.89151000  0.71413000  0.47036000  1.0
  O  O102  1  0.39151000  0.21413000  0.02964000  1.0
  O  O103  1  0.10849000  0.28587000  0.52964000  1.0
