# generated using pymatgen
data_CuH7C9N2
_symmetry_space_group_name_H-M   'P 1'
_cell_length_a   28.04620000
_cell_length_b   29.20570000
_cell_length_c   30.40270000
_cell_angle_alpha   88.38710000
_cell_angle_beta   88.28760000
_cell_angle_gamma   85.05820000
_symmetry_Int_Tables_number   1
_chemical_formula_structural   CuH7C9N2
_chemical_formula_sum   'Cu12 H84 C108 N24'
_cell_volume   24791.29215952
_cell_formula_units_Z   12
loop_
 _symmetry_equiv_pos_site_id
 _symmetry_equiv_pos_as_xyz
  1  'x, y, z'
loop_
 _atom_site_type_symbol
 _atom_site_label
 _atom_site_symmetry_multiplicity
 _atom_site_fract_x
 _atom_site_fract_y
 _atom_site_fract_z
 _atom_site_occupancy
  Cu  Cu0  1  0.75666000  0.23127000  0.15757000  1.0
  Cu  Cu1  1  0.83054000  0.23167000  0.23336000  1.0
  Cu  Cu2  1  0.76561000  0.14830000  0.22815000  1.0
  Cu  Cu3  1  0.79413000  0.80311000  0.84595000  1.0
  Cu  Cu4  1  0.88426000  0.79439000  0.77975000  1.0
  Cu  Cu5  1  0.82145000  0.88902000  0.78878000  1.0
  Cu  Cu6  1  0.20495000  0.21508000  0.83491000  1.0
  Cu  Cu7  1  0.12349000  0.20233000  0.76852000  1.0
  Cu  Cu8  1  0.21610000  0.13156000  0.76984000  1.0
  Cu  Cu9  1  0.22410000  0.76288000  0.13692000  1.0
  Cu  Cu10  1  0.15506000  0.74568000  0.21833000  1.0
  Cu  Cu11  1  0.22624000  0.82410000  0.22245000  1.0
  H  H12  1  0.79379000  0.31014000  0.09350000  1.0
  H  H13  1  0.88869000  0.31532000  0.20283000  1.0
  H  H14  1  0.68538000  0.08775000  0.19455000  1.0
  H  H15  1  0.66936000  0.20481000  0.10380000  1.0
  H  H16  1  0.89300000  0.20037000  0.31475000  1.0
  H  H17  1  0.81396000  0.08056000  0.30176000  1.0
  H  H18  1  0.81739000  0.71501000  0.90750000  1.0
  H  H19  1  0.93901000  0.70259000  0.81604000  1.0
  H  H20  1  0.74483000  0.96569000  0.82697000  1.0
  H  H21  1  0.69469000  0.84279000  0.88936000  1.0
  H  H22  1  0.94714000  0.81613000  0.69348000  1.0
  H  H23  1  0.87118000  0.94943000  0.71554000  1.0
  H  H24  1  0.16532000  0.30862000  0.87907000  1.0
  H  H25  1  0.04379000  0.27843000  0.80346000  1.0
  H  H26  1  0.30011000  0.06867000  0.81467000  1.0
  H  H27  1  0.28368000  0.18219000  0.90415000  1.0
  H  H28  1  0.06811000  0.16325000  0.69011000  1.0
  H  H29  1  0.20005000  0.07444000  0.68495000  1.0
  H  H30  1  0.19248000  0.68793000  0.07126000  1.0
  H  H31  1  0.10564000  0.65905000  0.18737000  1.0
  H  H32  1  0.30498000  0.89112000  0.19143000  1.0
  H  H33  1  0.29971000  0.80930000  0.07528000  1.0
  H  H34  1  0.08450000  0.77326000  0.29813000  1.0
  H  H35  1  0.18886000  0.87288000  0.31040000  1.0
  H  H36  1  0.91884000  0.00389000  0.50295000  1.0
  H  H37  1  0.06572000  0.95957000  0.53302000  1.0
  H  H38  1  0.01151000  0.09604000  0.48911000  1.0
  H  H39  1  0.01536000  0.99684000  0.40290000  1.0
  H  H40  1  0.98874000  0.49659000  0.09911000  1.0
  H  H41  1  0.03745000  0.53638000  0.96831000  1.0
  H  H42  1  0.89251000  0.51123000  0.00943000  1.0
  H  H43  1  0.99043000  0.40354000  0.00648000  1.0
  H  H44  1  0.47564000  0.10164000  0.01589000  1.0
  H  H45  1  0.45577000  0.96338000  0.97643000  1.0
  H  H46  1  0.48579000  0.00389000  0.10803000  1.0
  H  H47  1  0.58915000  0.00935000  0.01832000  1.0
  H  H48  1  0.93233000  0.36952000  0.15653000  1.0
  H  H49  1  0.98033000  0.41515000  0.10812000  1.0
  H  H50  1  0.86285000  0.37124000  0.08008000  1.0
  H  H51  1  0.88900000  0.44150000  0.05647000  1.0
  H  H52  1  0.97408000  0.64079000  0.86875000  1.0
  H  H53  1  0.00760000  0.58346000  0.92025000  1.0
  H  H54  1  0.88298000  0.64384000  0.92784000  1.0
  H  H55  1  0.90376000  0.57422000  0.95266000  1.0
  H  H56  1  0.11401000  0.38673000  0.89540000  1.0
  H  H57  1  0.00659000  0.39816000  0.92513000  1.0
  H  H58  1  0.02317000  0.34164000  0.87146000  1.0
  H  H59  1  0.08795000  0.45914000  0.94247000  1.0
  H  H60  1  0.09449000  0.58671000  0.15192000  1.0
  H  H61  1  0.05554000  0.52876000  0.11934000  1.0
  H  H62  1  0.12460000  0.62250000  0.06009000  1.0
  H  H63  1  0.06647000  0.57785000  0.02922000  1.0
  H  H64  1  0.60815000  0.16265000  0.06706000  1.0
  H  H65  1  0.56273000  0.11380000  0.02380000  1.0
  H  H66  1  0.61977000  0.07907000  0.13080000  1.0
  H  H67  1  0.54696000  0.05822000  0.10960000  1.0
  H  H68  1  0.35620000  0.86403000  0.03931000  1.0
  H  H69  1  0.40756000  0.91805000  0.00570000  1.0
  H  H70  1  0.36407000  0.91690000  0.12451000  1.0
  H  H71  1  0.43035000  0.94195000  0.10034000  1.0
  H  H72  1  0.61672000  0.89489000  0.90794000  1.0
  H  H73  1  0.60456000  0.99587000  0.93919000  1.0
  H  H74  1  0.67008000  0.98160000  0.88914000  1.0
  H  H75  1  0.53791000  0.91787000  0.95250000  1.0
  H  H76  1  0.35565000  0.02866000  0.87236000  1.0
  H  H77  1  0.40831000  0.99317000  0.92774000  1.0
  H  H78  1  0.34889000  0.11383000  0.93017000  1.0
  H  H79  1  0.41708000  0.09198000  0.95723000  1.0
  H  H80  1  0.94539000  0.15225000  0.36415000  1.0
  H  H81  1  0.99899000  0.10294000  0.40979000  1.0
  H  H82  1  0.88366000  0.07018000  0.36499000  1.0
  H  H83  1  0.91133000  0.05051000  0.43515000  1.0
  H  H84  1  0.15827000  0.02954000  0.62753000  1.0
  H  H85  1  0.11143000  0.99042000  0.57505000  1.0
  H  H86  1  0.07252000  0.10239000  0.62336000  1.0
  H  H87  1  0.07142000  0.08894000  0.55038000  1.0
  H  H88  1  0.14603000  0.88489000  0.39089000  1.0
  H  H89  1  0.03619000  0.90863000  0.40296000  1.0
  H  H90  1  0.05631000  0.84878000  0.35278000  1.0
  H  H91  1  0.11858000  0.93447000  0.45953000  1.0
  H  H92  1  0.99951000  0.86084000  0.63579000  1.0
  H  H93  1  0.03813000  0.90946000  0.57879000  1.0
  H  H94  1  0.92980000  0.94765000  0.64274000  1.0
  H  H95  1  0.93419000  0.95051000  0.56861000  1.0
  C  C96  1  0.81294000  0.30576000  0.12405000  1.0
  C  C97  1  0.85211000  0.32828000  0.13773000  1.0
  C  C98  1  0.86155000  0.30857000  0.17974000  1.0
  C  C99  1  0.68759000  0.11976000  0.17584000  1.0
  C  C100  1  0.66084000  0.13685000  0.13959000  1.0
  C  C101  1  0.67912000  0.17945000  0.12946000  1.0
  C  C102  1  0.86932000  0.17475000  0.30611000  1.0
  C  C103  1  0.86588000  0.12981000  0.32326000  1.0
  C  C104  1  0.82874000  0.11373000  0.29940000  1.0
  C  C105  1  0.84378000  0.71834000  0.88101000  1.0
  C  C106  1  0.88706000  0.69133000  0.87297000  1.0
  C  C107  1  0.90611000  0.71191000  0.83457000  1.0
  C  C108  1  0.73890000  0.93117000  0.83883000  1.0
  C  C109  1  0.70193000  0.91633000  0.86665000  1.0
  C  C110  1  0.71279000  0.86836000  0.87022000  1.0
  C  C111  1  0.92491000  0.84583000  0.70510000  1.0
  C  C112  1  0.92062000  0.89142000  0.68827000  1.0
  C  C113  1  0.88576000  0.91376000  0.71636000  1.0
  C  C114  1  0.14053000  0.29587000  0.85657000  1.0
  C  C115  1  0.09202000  0.31041000  0.84984000  1.0
  C  C116  1  0.07826000  0.27986000  0.81849000  1.0
  C  C117  1  0.29044000  0.10015000  0.83215000  1.0
  C  C118  1  0.30739000  0.11506000  0.87206000  1.0
  C  C119  1  0.28199000  0.15834000  0.87759000  1.0
  C  C120  1  0.10313000  0.14521000  0.69496000  1.0
  C  C121  1  0.12633000  0.10867000  0.67113000  1.0
  C  C122  1  0.17032000  0.09959000  0.69228000  1.0
  C  C123  1  0.17453000  0.68670000  0.10335000  1.0
  C  C124  1  0.14070000  0.65694000  0.11935000  1.0
  C  C125  1  0.13066000  0.67139000  0.16280000  1.0
  C  C126  1  0.29802000  0.86666000  0.16666000  1.0
  C  C127  1  0.31779000  0.86226000  0.12368000  1.0
  C  C128  1  0.29544000  0.82512000  0.10717000  1.0
  C  C129  1  0.11470000  0.79416000  0.29536000  1.0
  C  C130  1  0.12490000  0.83142000  0.32086000  1.0
  C  C131  1  0.16849000  0.84446000  0.30229000  1.0
  C  C132  1  0.98200000  0.03121000  0.46437000  1.0
  C  C133  1  0.95777000  0.00199000  0.49947000  1.0
  C  C134  1  0.98803000  0.97535000  0.52525000  1.0
  C  C135  1  0.04087000  0.98109000  0.51258000  1.0
  C  C136  1  0.01547000  0.05859000  0.49050000  1.0
  C  C137  1  0.04582000  0.03285000  0.51687000  1.0
  C  C138  1  0.01595000  0.99667000  0.43868000  1.0
  C  C139  1  0.04673000  0.97005000  0.46359000  1.0
  C  C140  1  0.95794000  0.46971000  0.03757000  1.0
  C  C141  1  0.99211000  0.49652000  0.06337000  1.0
  C  C142  1  0.02155000  0.52155000  0.03845000  1.0
  C  C143  1  0.01354000  0.51656000  0.98892000  1.0
  C  C144  1  0.93151000  0.50638000  0.00830000  1.0
  C  C145  1  0.96007000  0.53125000  0.98203000  1.0
  C  C146  1  0.99062000  0.44079000  0.00544000  1.0
  C  C147  1  0.01957000  0.46494000  0.97934000  1.0
  C  C148  1  0.51704000  0.03854000  0.04673000  1.0
  C  C149  1  0.48143000  0.06429000  0.01556000  1.0
  C  C150  1  0.45844000  0.03713000  0.98934000  1.0
  C  C151  1  0.47383000  0.98576000  0.99754000  1.0
  C  C152  1  0.48766000  0.00431000  0.07215000  1.0
  C  C153  1  0.46412000  0.97661000  0.04694000  1.0
  C  C154  1  0.55060000  0.00832000  0.01630000  1.0
  C  C155  1  0.52847000  0.98109000  0.98983000  1.0
  C  C156  1  0.87705000  0.36192000  0.11257000  1.0
  C  C157  1  0.91684000  0.38081000  0.12502000  1.0
  C  C158  1  0.94297000  0.41346000  0.09917000  1.0
  C  C159  1  0.92649000  0.44094000  0.06558000  1.0
  C  C160  1  0.90617000  0.65316000  0.90002000  1.0
  C  C161  1  0.95001000  0.62975000  0.89521000  1.0
  C  C162  1  0.96896000  0.59215000  0.92320000  1.0
  C  C163  1  0.94275000  0.56711000  0.95198000  1.0
  C  C164  1  0.06168000  0.34534000  0.87216000  1.0
  C  C165  1  0.07602000  0.38057000  0.89547000  1.0
  C  C166  1  0.04323000  0.40852000  0.92254000  1.0
  C  C167  1  0.05313000  0.44497000  0.94666000  1.0
  C  C168  1  0.12000000  0.62143000  0.09597000  1.0
  C  C169  1  0.09509000  0.58824000  0.11587000  1.0
  C  C170  1  0.06814000  0.55474000  0.09619000  1.0
  C  C171  1  0.05423000  0.55293000  0.05370000  1.0
  C  C172  1  0.62539000  0.11349000  0.11760000  1.0
  C  C173  1  0.60095000  0.12917000  0.08163000  1.0
  C  C174  1  0.56776000  0.10357000  0.05845000  1.0
  C  C175  1  0.54424000  0.06820000  0.07474000  1.0
  C  C176  1  0.35223000  0.89067000  0.10332000  1.0
  C  C177  1  0.36991000  0.88867000  0.06118000  1.0
  C  C178  1  0.40450000  0.91767000  0.04164000  1.0
  C  C179  1  0.43239000  0.94426000  0.06433000  1.0
  C  C180  1  0.66450000  0.94497000  0.88839000  1.0
  C  C181  1  0.62453000  0.93092000  0.90937000  1.0
  C  C182  1  0.59333000  0.96117000  0.93563000  1.0
  C  C183  1  0.55260000  0.95077000  0.95787000  1.0
  C  C184  1  0.34174000  0.09323000  0.90198000  1.0
  C  C185  1  0.36470000  0.05042000  0.89909000  1.0
  C  C186  1  0.40007000  0.03038000  0.92920000  1.0
  C  C187  1  0.42390000  0.05449000  0.95793000  1.0
  C  C188  1  0.89425000  0.10452000  0.35615000  1.0
  C  C189  1  0.93315000  0.11913000  0.37514000  1.0
  C  C190  1  0.96212000  0.09354000  0.40778000  1.0
  C  C191  1  0.94837000  0.05964000  0.43504000  1.0
  C  C192  1  0.10701000  0.08668000  0.63458000  1.0
  C  C193  1  0.12591000  0.04800000  0.61443000  1.0
  C  C194  1  0.10415000  0.02760000  0.57811000  1.0
  C  C195  1  0.07490000  0.05137000  0.54885000  1.0
  C  C196  1  0.09453000  0.85350000  0.35460000  1.0
  C  C197  1  0.10796000  0.88122000  0.38639000  1.0
  C  C198  1  0.07355000  0.90861000  0.41253000  1.0
  C  C199  1  0.08261000  0.93618000  0.44610000  1.0
  C  C200  1  0.94401000  0.91250000  0.65104000  1.0
  C  C201  1  0.98151000  0.89418000  0.62606000  1.0
  C  C202  1  0.00021000  0.91724000  0.58738000  1.0
  C  C203  1  0.97282000  0.94715000  0.56147000  1.0
  N  N204  1  0.83063000  0.27681000  0.18979000  1.0
  N  N205  1  0.80030000  0.27505000  0.15525000  1.0
  N  N206  1  0.71406000  0.18662000  0.15724000  1.0
  N  N207  1  0.71931000  0.14960000  0.18622000  1.0
  N  N208  1  0.81175000  0.14633000  0.27028000  1.0
  N  N209  1  0.83707000  0.18420000  0.27451000  1.0
  N  N210  1  0.87660000  0.74822000  0.82135000  1.0
  N  N211  1  0.83775000  0.75223000  0.85018000  1.0
  N  N212  1  0.75296000  0.85599000  0.84653000  1.0
  N  N213  1  0.76904000  0.89501000  0.82679000  1.0
  N  N214  1  0.87070000  0.88400000  0.74730000  1.0
  N  N215  1  0.89507000  0.84177000  0.74029000  1.0
  N  N216  1  0.11557000  0.24985000  0.80743000  1.0
  N  N217  1  0.15419000  0.25958000  0.83138000  1.0
  N  N218  1  0.25240000  0.16827000  0.84391000  1.0
  N  N219  1  0.25761000  0.13199000  0.81572000  1.0
  N  N220  1  0.17263000  0.12827000  0.72594000  1.0
  N  N221  1  0.13088000  0.15670000  0.72761000  1.0
  N  N222  1  0.15649000  0.70664000  0.17159000  1.0
  N  N223  1  0.18396000  0.71612000  0.13472000  1.0
  N  N224  1  0.26496000  0.80914000  0.13785000  1.0
  N  N225  1  0.26660000  0.83488000  0.17494000  1.0
  N  N226  1  0.18271000  0.81721000  0.26847000  1.0
  N  N227  1  0.14948000  0.78566000  0.26443000  1.0
