# generated using pymatgen
data_NaH5C5SO4
_symmetry_space_group_name_H-M   'P 1'
_cell_length_a   5.46355000
_cell_length_b   10.67810000
_cell_length_c   11.65490000
_cell_angle_alpha   96.63770000
_cell_angle_beta   90.00000000
_cell_angle_gamma   90.00000000
_symmetry_Int_Tables_number   1
_chemical_formula_structural   NaH5C5SO4
_chemical_formula_sum   'Na4 H20 C20 S4 O16'
_cell_volume   675.39298794
_cell_formula_units_Z   4
loop_
 _symmetry_equiv_pos_site_id
 _symmetry_equiv_pos_as_xyz
  1  'x, y, z'
loop_
 _atom_site_type_symbol
 _atom_site_label
 _atom_site_symmetry_multiplicity
 _atom_site_fract_x
 _atom_site_fract_y
 _atom_site_fract_z
 _atom_site_occupancy
  Na  Na0  1  0.90344000  0.67402000  0.59575000  1.0
  Na  Na1  1  0.40344000  0.82598000  0.40426000  1.0
  Na  Na2  1  0.09656000  0.32599000  0.40425000  1.0
  Na  Na3  1  0.59656000  0.17401000  0.59574000  1.0
  H  H4  1  0.72692000  0.87615000  0.81834000  1.0
  H  H5  1  0.22692000  0.62386000  0.18166000  1.0
  H  H6  1  0.27308000  0.12386000  0.18167000  1.0
  H  H7  1  0.77309000  0.37614000  0.81833000  1.0
  H  H8  1  0.43130000  0.14976000  0.82472000  1.0
  H  H9  1  0.93130000  0.35022000  0.17528000  1.0
  H  H10  1  0.56867000  0.85023000  0.17529000  1.0
  H  H11  1  0.06871000  0.64977000  0.82472000  1.0
  H  H12  1  0.47640000  0.79332000  0.96692000  1.0
  H  H13  1  0.97641000  0.70670000  0.03308000  1.0
  H  H14  1  0.52360000  0.20670000  0.03309000  1.0
  H  H15  1  0.02359000  0.29330000  0.96691000  1.0
  H  H16  1  0.14688000  0.60691000  0.38207000  1.0
  H  H17  1  0.64687000  0.89310000  0.61794000  1.0
  H  H18  1  0.85312000  0.39309000  0.61793000  1.0
  H  H19  1  0.35313000  0.10691000  0.38206000  1.0
  H  H20  1  0.91427000  0.68897000  0.36829000  1.0
  H  H21  1  0.41427000  0.81103000  0.63171000  1.0
  H  H22  1  0.08573000  0.31103000  0.63171000  1.0
  H  H23  1  0.58574000  0.18897000  0.36829000  1.0
  C  C24  1  0.12445000  0.03380000  0.85634000  1.0
  C  C25  1  0.62445000  0.46621000  0.14366000  1.0
  C  C26  1  0.87556000  0.96621000  0.14366000  1.0
  C  C27  1  0.37554000  0.53380000  0.85633000  1.0
  C  C28  1  0.97272000  0.98284000  0.93971000  1.0
  C  C29  1  0.47273000  0.51715000  0.06029000  1.0
  C  C30  1  0.02728000  0.01715000  0.06030000  1.0
  C  C31  1  0.52728000  0.48285000  0.93970000  1.0
  C  C32  1  0.77222000  0.90104000  0.90891000  1.0
  C  C33  1  0.27223000  0.59896000  0.09109000  1.0
  C  C34  1  0.22776000  0.09896000  0.09110000  1.0
  C  C35  1  0.72777000  0.40104000  0.90891000  1.0
  C  C36  1  0.31769000  0.11298000  0.88972000  1.0
  C  C37  1  0.81768000  0.38702000  0.11028000  1.0
  C  C38  1  0.68233000  0.88702000  0.11028000  1.0
  C  C39  1  0.18232000  0.61297000  0.88971000  1.0
  C  C40  1  0.63108000  0.85456000  0.99206000  1.0
  C  C41  1  0.13110000  0.64544000  0.00793000  1.0
  C  C42  1  0.36892000  0.14545000  0.00794000  1.0
  C  C43  1  0.86891000  0.35455000  0.99206000  1.0
  S  S44  1  0.07644000  0.99127000  0.70516000  1.0
  S  S45  1  0.57646000  0.50874000  0.29484000  1.0
  S  S46  1  0.92356000  0.00873000  0.29484000  1.0
  S  S47  1  0.42355000  0.49126000  0.70516000  1.0
  O  O48  1  0.11253000  0.85297000  0.68638000  1.0
  O  O49  1  0.61253000  0.64703000  0.31362000  1.0
  O  O50  1  0.88748000  0.14703000  0.31362000  1.0
  O  O51  1  0.38746000  0.35297000  0.68638000  1.0
  O  O52  1  0.25522000  0.06030000  0.64419000  1.0
  O  O53  1  0.75523000  0.43970000  0.35581000  1.0
  O  O54  1  0.74478000  0.93969000  0.35582000  1.0
  O  O55  1  0.24477000  0.56030000  0.64419000  1.0
  O  O56  1  0.82064000  0.02502000  0.68099000  1.0
  O  O57  1  0.32065000  0.47499000  0.31902000  1.0
  O  O58  1  0.17936000  0.97498000  0.31902000  1.0
  O  O59  1  0.67936000  0.52500000  0.68098000  1.0
  O  O60  1  0.07038000  0.68847000  0.41109000  1.0
  O  O61  1  0.57038000  0.81153000  0.58891000  1.0
  O  O62  1  0.92962000  0.31153000  0.58890000  1.0
  O  O63  1  0.42962000  0.18847000  0.41109000  1.0
