# generated using pymatgen
data_CoPH9C9N2O3
_symmetry_space_group_name_H-M   'P 1'
_cell_length_a   9.07942000
_cell_length_b   9.80119000
_cell_length_c   12.54261364
_cell_angle_alpha   89.03079984
_cell_angle_beta   68.77425081
_cell_angle_gamma   90.01910000
_symmetry_Int_Tables_number   1
_chemical_formula_structural   CoPH9C9N2O3
_chemical_formula_sum   'Co4 P4 H36 C36 N8 O12'
_cell_volume   1040.26363091
_cell_formula_units_Z   4
loop_
 _symmetry_equiv_pos_site_id
 _symmetry_equiv_pos_as_xyz
  1  'x, y, z'
loop_
 _atom_site_type_symbol
 _atom_site_label
 _atom_site_symmetry_multiplicity
 _atom_site_fract_x
 _atom_site_fract_y
 _atom_site_fract_z
 _atom_site_occupancy
  Co  Co0  1  0.20550000  0.92094000  0.46785000  1.0
  Co  Co1  1  0.67330000  0.57910000  0.53203000  1.0
  Co  Co2  1  0.79450000  0.07906000  0.53215000  1.0
  Co  Co3  1  0.32670000  0.42090000  0.46797000  1.0
  P  P4  1  0.88135000  0.79629000  0.61189000  1.0
  P  P5  1  0.49338000  0.70370000  0.38808000  1.0
  P  P6  1  0.11865000  0.20371000  0.38811000  1.0
  P  P7  1  0.50661000  0.29630000  0.61192000  1.0
  H  H8  1  0.94316000  0.77833000  0.69934000  1.0
  H  H9  1  0.64268000  0.72188000  0.30066000  1.0
  H  H10  1  0.05684000  0.22167000  0.30066000  1.0
  H  H11  1  0.35732000  0.27812000  0.69934000  1.0
  H  H12  1  0.43393000  0.87063000  0.60148000  1.0
  H  H13  1  0.03547000  0.62960000  0.39826000  1.0
  H  H14  1  0.56608000  0.12938000  0.39851000  1.0
  H  H15  1  0.96453000  0.37041000  0.60174000  1.0
  H  H16  1  0.00855000  0.09355000  0.69823000  1.0
  H  H17  1  0.70671000  0.40631000  0.30179000  1.0
  H  H18  1  0.99144000  0.90645000  0.30178000  1.0
  H  H19  1  0.29328000  0.59369000  0.69821000  1.0
  H  H20  1  0.12658000  0.10012000  0.87519000  1.0
  H  H21  1  0.00176000  0.39971000  0.12476000  1.0
  H  H22  1  0.87343000  0.89988000  0.12481000  1.0
  H  H23  1  0.99824000  0.60030000  0.87524000  1.0
  H  H24  1  0.43793000  0.05716000  0.84994000  1.0
  H  H25  1  0.28779000  0.44293000  0.14978000  1.0
  H  H26  1  0.56207000  0.94284000  0.15006000  1.0
  H  H27  1  0.71220000  0.55707000  0.85023000  1.0
  H  H28  1  0.53397000  0.93236000  0.75039000  1.0
  H  H29  1  0.28443000  0.56766000  0.24937000  1.0
  H  H30  1  0.46603000  0.06764000  0.24961000  1.0
  H  H31  1  0.71557000  0.43234000  0.75063000  1.0
  H  H32  1  0.12974000  0.83510000  0.92050000  1.0
  H  H33  1  0.05023000  0.66495000  0.07934000  1.0
  H  H34  1  0.87026000  0.16490000  0.07950000  1.0
  H  H35  1  0.94978000  0.33505000  0.92066000  1.0
  H  H36  1  0.67820000  0.92997000  0.84672000  1.0
  H  H37  1  0.52491000  0.57050000  0.15324000  1.0
  H  H38  1  0.32180000  0.07003000  0.15328000  1.0
  H  H39  1  0.47509000  0.42950000  0.84676000  1.0
  H  H40  1  0.87190000  0.84243000  0.92275000  1.0
  H  H41  1  0.79468000  0.65813000  0.07718000  1.0
  H  H42  1  0.12810000  0.15757000  0.07725000  1.0
  H  H43  1  0.20532000  0.34187000  0.92282000  1.0
  C  C44  1  0.33448000  0.93347000  0.65050000  1.0
  C  C45  1  0.98498000  0.56672000  0.34929000  1.0
  C  C46  1  0.66552000  0.06653000  0.34950000  1.0
  C  C47  1  0.01502000  0.43328000  0.65070000  1.0
  C  C48  1  0.11376000  0.04830000  0.70499000  1.0
  C  C49  1  0.81869000  0.45165000  0.29496000  1.0
  C  C50  1  0.88624000  0.95170000  0.29501000  1.0
  C  C51  1  0.18131000  0.54836000  0.70504000  1.0
  C  C52  1  0.17034000  0.05189000  0.79275000  1.0
  C  C53  1  0.96303000  0.44803000  0.20716000  1.0
  C  C54  1  0.82967000  0.94811000  0.20725000  1.0
  C  C55  1  0.03697000  0.55197000  0.79284000  1.0
  C  C56  1  0.41977000  0.95833000  0.81603000  1.0
  C  C57  1  0.23581000  0.54173000  0.18375000  1.0
  C  C58  1  0.58023000  0.04167000  0.18397000  1.0
  C  C59  1  0.76419000  0.45827000  0.81625000  1.0
  C  C60  1  0.36935000  0.85077000  0.91015000  1.0
  C  C61  1  0.27952000  0.64934000  0.08965000  1.0
  C  C62  1  0.63065000  0.14923000  0.08985000  1.0
  C  C63  1  0.72048000  0.35066000  0.91035000  1.0
  C  C64  1  0.21747000  0.79928000  0.95500000  1.0
  C  C65  1  0.17251000  0.70079000  0.04484000  1.0
  C  C66  1  0.78253000  0.20072000  0.04500000  1.0
  C  C67  1  0.82750000  0.29920000  0.95515000  1.0
  C  C68  1  0.48378000  0.80177000  0.95544000  1.0
  C  C69  1  0.43925000  0.69846000  0.04442000  1.0
  C  C70  1  0.51622000  0.19823000  0.04456000  1.0
  C  C71  1  0.56075000  0.30154000  0.95558000  1.0
  C  C72  1  0.64160000  0.85212000  0.91428000  1.0
  C  C73  1  0.55587000  0.64827000  0.08562000  1.0
  C  C74  1  0.35841000  0.14789000  0.08572000  1.0
  C  C75  1  0.44413000  0.35173000  0.91438000  1.0
  C  C76  1  0.75155000  0.80171000  0.95698000  1.0
  C  C77  1  0.70855000  0.69871000  0.04292000  1.0
  C  C78  1  0.24845000  0.19829000  0.04302000  1.0
  C  C79  1  0.29145000  0.30129000  0.95708000  1.0
  N  N80  1  0.21753000  0.97372000  0.61655000  1.0
  N  N81  1  0.83407000  0.52636000  0.38333000  1.0
  N  N82  1  0.78245000  0.02628000  0.38346000  1.0
  N  N83  1  0.16592000  0.47364000  0.61667000  1.0
  N  N84  1  0.30976000  0.97873000  0.75686000  1.0
  N  N85  1  0.06660000  0.52133000  0.24298000  1.0
  N  N86  1  0.69025000  0.02127000  0.24314000  1.0
  N  N87  1  0.93340000  0.47867000  0.75702000  1.0
  O  O88  1  0.02249000  0.80346000  0.49647000  1.0
  O  O89  1  0.51904000  0.69679000  0.50352000  1.0
  O  O90  1  0.97751000  0.19654000  0.50353000  1.0
  O  O91  1  0.48095000  0.30321000  0.49648000  1.0
  O  O92  1  0.77642000  0.67121000  0.62147000  1.0
  O  O93  1  0.39783000  0.82854000  0.37844000  1.0
  O  O94  1  0.22357000  0.32879000  0.37853000  1.0
  O  O95  1  0.60217000  0.17147000  0.62156000  1.0
  O  O96  1  0.78903000  0.93144000  0.63842000  1.0
  O  O97  1  0.42791000  0.56834000  0.36158000  1.0
  O  O98  1  0.21097000  0.06857000  0.36158000  1.0
  O  O99  1  0.57209000  0.43166000  0.63842000  1.0
