# generated using pymatgen
data_CuH16C20IN6
_symmetry_space_group_name_H-M   'P 1'
_cell_length_a   8.01684000
_cell_length_b   10.10550000
_cell_length_c   12.05058141
_cell_angle_alpha   89.39136135
_cell_angle_beta   70.56920660
_cell_angle_gamma   90.01450000
_symmetry_Int_Tables_number   1
_chemical_formula_structural   CuH16C20IN6
_chemical_formula_sum   'Cu2 H32 C40 I2 N12'
_cell_volume   920.60424968
_cell_formula_units_Z   2
loop_
 _symmetry_equiv_pos_site_id
 _symmetry_equiv_pos_as_xyz
  1  'x, y, z'
loop_
 _atom_site_type_symbol
 _atom_site_label
 _atom_site_symmetry_multiplicity
 _atom_site_fract_x
 _atom_site_fract_y
 _atom_site_fract_z
 _atom_site_occupancy
  Cu  Cu0  1  0.70650000  0.74988000  0.99998000  1.0
  Cu  Cu1  1  0.29350000  0.25012000  0.00002000  1.0
  H  H2  1  0.39287000  0.69150000  0.89671000  1.0
  H  H3  1  0.29018000  0.80852000  0.10319000  1.0
  H  H4  1  0.60713000  0.30850000  0.10329000  1.0
  H  H5  1  0.70982000  0.19148000  0.89681000  1.0
  H  H6  1  0.85599000  0.47529000  0.86333000  1.0
  H  H7  1  0.71984000  0.02486000  0.13675000  1.0
  H  H8  1  0.14401000  0.52471000  0.13667000  1.0
  H  H9  1  0.28016000  0.97514000  0.86325000  1.0
  H  H10  1  0.24946000  0.53247000  0.79775000  1.0
  H  H11  1  0.04782000  0.96756000  0.20208000  1.0
  H  H12  1  0.75054000  0.46753000  0.20225000  1.0
  H  H13  1  0.95218000  0.03244000  0.79792000  1.0
  H  H14  1  0.32564000  0.36871000  0.78598000  1.0
  H  H15  1  0.11236000  0.13132000  0.21399000  1.0
  H  H16  1  0.67436000  0.63129000  0.21402000  1.0
  H  H17  1  0.88764000  0.86868000  0.78601000  1.0
  H  H18  1  0.48160000  0.23525000  0.69831000  1.0
  H  H19  1  0.18049000  0.26465000  0.30176000  1.0
  H  H20  1  0.51840000  0.76475000  0.30169000  1.0
  H  H21  1  0.81952000  0.73535000  0.69824000  1.0
  H  H22  1  0.60395000  0.04603000  0.57328000  1.0
  H  H23  1  0.17756000  0.45394000  0.42674000  1.0
  H  H24  1  0.39605000  0.95397000  0.42672000  1.0
  H  H25  1  0.82244000  0.54606000  0.57326000  1.0
  H  H26  1  0.71327000  0.07180000  0.35485000  1.0
  H  H27  1  0.06779000  0.42828000  0.64524000  1.0
  H  H28  1  0.28673000  0.92820000  0.64515000  1.0
  H  H29  1  0.93221000  0.57172000  0.35476000  1.0
  H  H30  1  0.70301000  0.28506000  0.26265000  1.0
  H  H31  1  0.96554000  0.21493000  0.73738000  1.0
  H  H32  1  0.29699000  0.71494000  0.73735000  1.0
  H  H33  1  0.03446000  0.78507000  0.26262000  1.0
  C  C34  1  0.49765000  0.61843000  0.87370000  1.0
  C  C35  1  0.37192000  0.88161000  0.12623000  1.0
  C  C36  1  0.50235000  0.38157000  0.12630000  1.0
  C  C37  1  0.62807000  0.11839000  0.87377000  1.0
  C  C38  1  0.73135000  0.50612000  0.85423000  1.0
  C  C39  1  0.58615000  0.99394000  0.14576000  1.0
  C  C40  1  0.26865000  0.49388000  0.14577000  1.0
  C  C41  1  0.41385000  0.00606000  0.85424000  1.0
  C  C42  1  0.36582000  0.47054000  0.75689000  1.0
  C  C43  1  0.12329000  0.02947000  0.24301000  1.0
  C  C44  1  0.63419000  0.52946000  0.24310000  1.0
  C  C45  1  0.87671000  0.97053000  0.75699000  1.0
  C  C46  1  0.43446000  0.48499000  0.62459000  1.0
  C  C47  1  0.05920000  0.01499000  0.37540000  1.0
  C  C48  1  0.56554000  0.51501000  0.37541000  1.0
  C  C49  1  0.94080000  0.98500000  0.62460000  1.0
  C  C50  1  0.52593000  0.24846000  0.60330000  1.0
  C  C51  1  0.12947000  0.25150000  0.39675000  1.0
  C  C52  1  0.47407000  0.75155000  0.39670000  1.0
  C  C53  1  0.87054000  0.74849000  0.60325000  1.0
  C  C54  1  0.59578000  0.14209000  0.53358000  1.0
  C  C55  1  0.12943000  0.35791000  0.46646000  1.0
  C  C56  1  0.40421000  0.85791000  0.46642000  1.0
  C  C57  1  0.87056000  0.64210000  0.53355000  1.0
  C  C58  1  0.65853000  0.15696000  0.40951000  1.0
  C  C59  1  0.06783000  0.34311000  0.59055000  1.0
  C  C60  1  0.34147000  0.84304000  0.59049000  1.0
  C  C61  1  0.93217000  0.65689000  0.40945000  1.0
  C  C62  1  0.65114000  0.27754000  0.35824000  1.0
  C  C63  1  0.00923000  0.22250000  0.64179000  1.0
  C  C64  1  0.34886000  0.72246000  0.64176000  1.0
  C  C65  1  0.99077000  0.77750000  0.35821000  1.0
  C  C66  1  0.51148000  0.37553000  0.55418000  1.0
  C  C67  1  0.06574000  0.12445000  0.44584000  1.0
  C  C68  1  0.48852000  0.62447000  0.44582000  1.0
  C  C69  1  0.93426000  0.87555000  0.55416000  1.0
  C  C70  1  0.42251000  0.60918000  0.57279000  1.0
  C  C71  1  0.99537000  0.89080000  0.42720000  1.0
  C  C72  1  0.57748000  0.39082000  0.42721000  1.0
  C  C73  1  0.00463000  0.10920000  0.57280000  1.0
  I  I74  1  0.02225000  0.74997000  0.00026000  1.0
  I  I75  1  0.97775000  0.25004000  0.99974000  1.0
  N  N76  1  0.64453000  0.61904000  0.90364000  1.0
  N  N77  1  0.54872000  0.88108000  0.09628000  1.0
  N  N78  1  0.35547000  0.38096000  0.09636000  1.0
  N  N79  1  0.45128000  0.11892000  0.90372000  1.0
  N  N80  1  0.49775000  0.51011000  0.81040000  1.0
  N  N81  1  0.30870000  0.98982000  0.18966000  1.0
  N  N82  1  0.50225000  0.48989000  0.18960000  1.0
  N  N83  1  0.69130000  0.01018000  0.81034000  1.0
  N  N84  1  0.64607000  0.43700000  0.79676000  1.0
  N  N85  1  0.44337000  0.06297000  0.20331000  1.0
  N  N86  1  0.35393000  0.56300000  0.20324000  1.0
  N  N87  1  0.55663000  0.93704000  0.79669000  1.0
