# generated using pymatgen
data_CuH6C8(N4Cl)2
_symmetry_space_group_name_H-M   'P 1'
_cell_length_a   7.29774000
_cell_length_b   7.76274000
_cell_length_c   11.90947128
_cell_angle_alpha   108.96013547
_cell_angle_beta   107.74469658
_cell_angle_gamma   90.20930000
_symmetry_Int_Tables_number   1
_chemical_formula_structural   CuH6C8(N4Cl)2
_chemical_formula_sum   'Cu2 H12 C16 N16 Cl4'
_cell_volume   603.75413941
_cell_formula_units_Z   2
loop_
 _symmetry_equiv_pos_site_id
 _symmetry_equiv_pos_as_xyz
  1  'x, y, z'
loop_
 _atom_site_type_symbol
 _atom_site_label
 _atom_site_symmetry_multiplicity
 _atom_site_fract_x
 _atom_site_fract_y
 _atom_site_fract_z
 _atom_site_occupancy
  Cu  Cu0  1  0.02833000  0.77839000  0.55657000  1.0
  Cu  Cu1  1  0.97167000  0.22161000  0.44343000  1.0
  H  H2  1  0.60812000  0.35830000  0.71611000  1.0
  H  H3  1  0.39188000  0.64170000  0.28389000  1.0
  H  H4  1  0.64985000  0.28537000  0.06769000  1.0
  H  H5  1  0.91785000  0.78243000  0.06788000  1.0
  H  H6  1  0.35015000  0.71463000  0.93231000  1.0
  H  H7  1  0.08215000  0.21757000  0.93212000  1.0
  H  H8  1  0.84170000  0.59188000  0.18380000  1.0
  H  H9  1  0.15830000  0.40812000  0.81620000  1.0
  H  H10  1  0.31269000  0.16362000  0.64507000  1.0
  H  H11  1  0.83334000  0.48164000  0.64537000  1.0
  H  H12  1  0.68731000  0.83639000  0.35494000  1.0
  H  H13  1  0.16666000  0.51836000  0.35463000  1.0
  C  C14  1  0.35436000  0.08388000  0.70720000  1.0
  C  C15  1  0.85337000  0.62354000  0.70740000  1.0
  C  C16  1  0.64564000  0.91612000  0.29280000  1.0
  C  C17  1  0.14663000  0.37646000  0.29260000  1.0
  C  C18  1  0.61742000  0.30663000  0.88595000  1.0
  C  C19  1  0.76857000  0.57962000  0.88605000  1.0
  C  C20  1  0.38258000  0.69337000  0.11405000  1.0
  C  C21  1  0.23142000  0.42038000  0.11395000  1.0
  C  C22  1  0.65910000  0.40930000  0.81822000  1.0
  C  C23  1  0.34090000  0.59071000  0.18179000  1.0
  C  C24  1  0.68404000  0.36847000  0.01700000  1.0
  C  C25  1  0.83294000  0.64869000  0.01711000  1.0
  C  C26  1  0.31596000  0.63153000  0.98300000  1.0
  C  C27  1  0.16705000  0.35131000  0.98289000  1.0
  C  C28  1  0.79061000  0.54070000  0.08139000  1.0
  C  C29  1  0.20939000  0.45930000  0.91861000  1.0
  N  N30  1  0.27058000  0.92221000  0.69149000  1.0
  N  N31  1  0.92116000  0.76957000  0.69160000  1.0
  N  N32  1  0.72942000  0.07778000  0.30851000  1.0
  N  N33  1  0.07884000  0.23043000  0.30840000  1.0
  N  N34  1  0.36140000  0.87791000  0.79513000  1.0
  N  N35  1  0.93351000  0.91759000  0.79513000  1.0
  N  N36  1  0.63860000  0.12209000  0.20487000  1.0
  N  N37  1  0.06649000  0.08239000  0.20486000  1.0
  N  N38  1  0.49689000  0.00640000  0.87283000  1.0
  N  N39  1  0.87568000  0.86683000  0.87286000  1.0
  N  N40  1  0.50311000  0.99359000  0.12717000  1.0
  N  N41  1  0.12433000  0.13317000  0.12714000  1.0
  N  N42  1  0.49534000  0.13791000  0.81959000  1.0
  N  N43  1  0.82447000  0.68201000  0.81975000  1.0
  N  N44  1  0.50466000  0.86209000  0.18041000  1.0
  N  N45  1  0.17553000  0.31799000  0.18025000  1.0
  Cl  Cl46  1  0.77984000  0.56932000  0.41077000  1.0
  Cl  Cl47  1  0.13105000  0.84140000  0.41069000  1.0
  Cl  Cl48  1  0.22017000  0.43068000  0.58923000  1.0
  Cl  Cl49  1  0.86896000  0.15861000  0.58932000  1.0
