# generated using pymatgen
data_K2BH5C4O7
_symmetry_space_group_name_H-M   'P 1'
_cell_length_a   6.56010000
_cell_length_b   10.32870000
_cell_length_c   13.23020000
_cell_angle_alpha   90.00000000
_cell_angle_beta   90.00010000
_cell_angle_gamma   89.99990000
_symmetry_Int_Tables_number   1
_chemical_formula_structural   K2BH5C4O7
_chemical_formula_sum   'K8 B4 H20 C16 O28'
_cell_volume   896.44269489
_cell_formula_units_Z   4
loop_
 _symmetry_equiv_pos_site_id
 _symmetry_equiv_pos_as_xyz
  1  'x, y, z'
loop_
 _atom_site_type_symbol
 _atom_site_label
 _atom_site_symmetry_multiplicity
 _atom_site_fract_x
 _atom_site_fract_y
 _atom_site_fract_z
 _atom_site_occupancy
  K  K0  1  0.29420000  0.46356000  0.19284000  1.0
  K  K1  1  0.20579000  0.53645000  0.69284000  1.0
  K  K2  1  0.79421000  0.03643000  0.80716000  1.0
  K  K3  1  0.70579000  0.96356000  0.30715000  1.0
  K  K4  1  0.93538000  0.37192000  0.41785000  1.0
  K  K5  1  0.56462000  0.62808000  0.91785000  1.0
  K  K6  1  0.43538000  0.12808000  0.58215000  1.0
  K  K7  1  0.06462000  0.87192000  0.08215000  1.0
  B  B8  1  0.20193000  0.11677000  0.28687000  1.0
  B  B9  1  0.29807000  0.88324000  0.78687000  1.0
  B  B10  1  0.70193000  0.38323000  0.71313000  1.0
  B  B11  1  0.79807000  0.61677000  0.21313000  1.0
  H  H12  1  0.97392000  0.19443000  0.21001000  1.0
  H  H13  1  0.52608000  0.80557000  0.71001000  1.0
  H  H14  1  0.47392000  0.30557000  0.78999000  1.0
  H  H15  1  0.02608000  0.69443000  0.28999000  1.0
  H  H16  1  0.21945000  0.92272000  0.29328000  1.0
  H  H17  1  0.28055000  0.07728000  0.79328000  1.0
  H  H18  1  0.71945000  0.57728000  0.70672000  1.0
  H  H19  1  0.78055000  0.42272000  0.20672000  1.0
  H  H20  1  0.66528000  0.53479000  0.54433000  1.0
  H  H21  1  0.83472000  0.46521000  0.04434000  1.0
  H  H22  1  0.16528000  0.96520000  0.45566000  1.0
  H  H23  1  0.33471000  0.03479000  0.95566000  1.0
  H  H24  1  0.60136000  0.74709000  0.48418000  1.0
  H  H25  1  0.89864000  0.25291000  0.98418000  1.0
  H  H26  1  0.10136000  0.75291000  0.51582000  1.0
  H  H27  1  0.39863000  0.24709000  0.01582000  1.0
  H  H28  1  0.41354000  0.22550000  0.35832000  1.0
  H  H29  1  0.08646000  0.77450000  0.85832000  1.0
  H  H30  1  0.91354000  0.27450000  0.64168000  1.0
  H  H31  1  0.58646000  0.72550000  0.14168000  1.0
  C  C32  1  0.35051000  0.70836000  0.38094000  1.0
  C  C33  1  0.14950000  0.29164000  0.88094000  1.0
  C  C34  1  0.85051000  0.79164000  0.61906000  1.0
  C  C35  1  0.64949000  0.20836000  0.11906000  1.0
  C  C36  1  0.54396000  0.54746000  0.48848000  1.0
  C  C37  1  0.95604000  0.45255000  0.98848000  1.0
  C  C38  1  0.04396000  0.95255000  0.51152000  1.0
  C  C39  1  0.45604000  0.04746000  0.01152000  1.0
  C  C40  1  0.43539000  0.42519000  0.46011000  1.0
  C  C41  1  0.06460000  0.57480000  0.96011000  1.0
  C  C42  1  0.93540000  0.07480000  0.53989000  1.0
  C  C43  1  0.56461000  0.92519000  0.03989000  1.0
  C  C44  1  0.50848000  0.66792000  0.45519000  1.0
  C  C45  1  0.99153000  0.33207000  0.95519000  1.0
  C  C46  1  0.00847000  0.83207000  0.54481000  1.0
  C  C47  1  0.49152000  0.16792000  0.04481000  1.0
  O  O48  1  0.09509000  0.22339000  0.25232000  1.0
  O  O49  1  0.40491000  0.77662000  0.75232000  1.0
  O  O50  1  0.59509000  0.27662000  0.74768000  1.0
  O  O51  1  0.90491000  0.72339000  0.24768000  1.0
  O  O52  1  0.37153000  0.13187000  0.34721000  1.0
  O  O53  1  0.12848000  0.86813000  0.84721000  1.0
  O  O54  1  0.87153000  0.36813000  0.65279000  1.0
  O  O55  1  0.62847000  0.63187000  0.15279000  1.0
  O  O56  1  0.13303000  0.99431000  0.26302000  1.0
  O  O57  1  0.36697000  0.00569000  0.76302000  1.0
  O  O58  1  0.63303000  0.50569000  0.73698000  1.0
  O  O59  1  0.86697000  0.49431000  0.23698000  1.0
  O  O60  1  0.21238000  0.62851000  0.35342000  1.0
  O  O61  1  0.28762000  0.37149000  0.85342000  1.0
  O  O62  1  0.71238000  0.87149000  0.64658000  1.0
  O  O63  1  0.78762000  0.12851000  0.14658000  1.0
  O  O64  1  0.30293000  0.38221000  0.52141000  1.0
  O  O65  1  0.19707000  0.61779000  0.02141000  1.0
  O  O66  1  0.80293000  0.11779000  0.47859000  1.0
  O  O67  1  0.69708000  0.88221000  0.97859000  1.0
  O  O68  1  0.49650000  0.36849000  0.37996000  1.0
  O  O69  1  0.00350000  0.63151000  0.87996000  1.0
  O  O70  1  0.99650000  0.13151000  0.62004000  1.0
  O  O71  1  0.50350000  0.86849000  0.12004000  1.0
  O  O72  1  0.36580000  0.82533000  0.35088000  1.0
  O  O73  1  0.13420000  0.17467000  0.85088000  1.0
  O  O74  1  0.86580000  0.67467000  0.64912000  1.0
  O  O75  1  0.63420000  0.32533000  0.14912000  1.0
