# generated using pymatgen
data_CuH11C18SN5O4
_symmetry_space_group_name_H-M   'P 1'
_cell_length_a   12.27310000
_cell_length_b   16.97410000
_cell_length_c   20.65860000
_cell_angle_alpha   92.93510000
_cell_angle_beta   89.99990000
_cell_angle_gamma   89.99980000
_symmetry_Int_Tables_number   1
_chemical_formula_structural   CuH11C18SN5O4
_chemical_formula_sum   'Cu8 H88 C144 S8 N40 O32'
_cell_volume   4298.05356910
_cell_formula_units_Z   8
loop_
 _symmetry_equiv_pos_site_id
 _symmetry_equiv_pos_as_xyz
  1  'x, y, z'
loop_
 _atom_site_type_symbol
 _atom_site_label
 _atom_site_symmetry_multiplicity
 _atom_site_fract_x
 _atom_site_fract_y
 _atom_site_fract_z
 _atom_site_occupancy
  Cu  Cu0  1  0.72930000  0.14463000  0.44923000  1.0
  Cu  Cu1  1  0.22930000  0.35537000  0.05077000  1.0
  Cu  Cu2  1  0.27070000  0.85537000  0.55077000  1.0
  Cu  Cu3  1  0.77070000  0.64463000  0.94923000  1.0
  Cu  Cu4  1  0.21570000  0.63765000  0.43726000  1.0
  Cu  Cu5  1  0.71569000  0.86236000  0.06274000  1.0
  Cu  Cu6  1  0.78431000  0.36236000  0.56275000  1.0
  Cu  Cu7  1  0.28431000  0.13764000  0.93726000  1.0
  H  H8  1  0.61348000  0.95951000  0.18085000  1.0
  H  H9  1  0.11348000  0.54049000  0.31916000  1.0
  H  H10  1  0.38652000  0.04049000  0.81915000  1.0
  H  H11  1  0.88653000  0.45951000  0.68084000  1.0
  H  H12  1  0.11567000  0.44809000  0.17313000  1.0
  H  H13  1  0.61567000  0.05191000  0.32687000  1.0
  H  H14  1  0.88434000  0.55191000  0.82687000  1.0
  H  H15  1  0.38433000  0.94809000  0.67313000  1.0
  H  H16  1  0.04348000  0.27787000  0.33989000  1.0
  H  H17  1  0.54348000  0.22213000  0.16011000  1.0
  H  H18  1  0.95653000  0.72213000  0.66011000  1.0
  H  H19  1  0.45652000  0.77787000  0.83989000  1.0
  H  H20  1  0.95237000  0.18703000  0.41569000  1.0
  H  H21  1  0.45236000  0.31298000  0.08431000  1.0
  H  H22  1  0.04763000  0.81298000  0.58431000  1.0
  H  H23  1  0.54764000  0.68703000  0.91569000  1.0
  H  H24  1  0.43738000  0.68266000  0.40868000  1.0
  H  H25  1  0.93738000  0.81733000  0.09132000  1.0
  H  H26  1  0.56262000  0.31734000  0.59132000  1.0
  H  H27  1  0.06262000  0.18266000  0.90868000  1.0
  H  H28  1  0.53248000  0.77731000  0.33793000  1.0
  H  H29  1  0.03248000  0.72269000  0.16207000  1.0
  H  H30  1  0.46752000  0.22270000  0.66207000  1.0
  H  H31  1  0.96752000  0.27731000  0.83793000  1.0
  H  H32  1  0.56630000  0.04830000  0.10176000  1.0
  H  H33  1  0.06629000  0.45170000  0.39825000  1.0
  H  H34  1  0.43370000  0.95169000  0.89825000  1.0
  H  H35  1  0.93371000  0.54831000  0.60175000  1.0
  H  H36  1  0.22039000  0.82212000  0.25100000  1.0
  H  H37  1  0.72039000  0.67787000  0.24900000  1.0
  H  H38  1  0.77961000  0.17787000  0.74900000  1.0
  H  H39  1  0.27961000  0.32212000  0.75100000  1.0
  H  H40  1  0.72787000  0.31429000  0.25435000  1.0
  H  H41  1  0.22786000  0.18571000  0.24565000  1.0
  H  H42  1  0.27214000  0.68571000  0.74565000  1.0
  H  H43  1  0.77213000  0.81429000  0.75435000  1.0
  H  H44  1  0.49978000  0.12019000  0.00668000  1.0
  H  H45  1  0.99977000  0.37981000  0.49333000  1.0
  H  H46  1  0.50022000  0.87981000  0.99332000  1.0
  H  H47  1  0.00023000  0.62020000  0.50668000  1.0
  H  H48  1  0.13870000  0.72608000  0.32481000  1.0
  H  H49  1  0.63870000  0.77391000  0.17518000  1.0
  H  H50  1  0.86130000  0.27391000  0.67519000  1.0
  H  H51  1  0.36130000  0.22609000  0.82482000  1.0
  H  H52  1  0.65056000  0.22257000  0.33278000  1.0
  H  H53  1  0.15055000  0.27743000  0.16722000  1.0
  H  H54  1  0.34945000  0.77743000  0.66722000  1.0
  H  H55  1  0.84945000  0.72257000  0.83278000  1.0
  H  H56  1  0.75999000  0.85023000  0.32631000  1.0
  H  H57  1  0.25999000  0.64978000  0.17369000  1.0
  H  H58  1  0.24001000  0.14977000  0.67369000  1.0
  H  H59  1  0.74001000  0.35022000  0.82631000  1.0
  H  H60  1  0.99212000  0.61604000  0.00663000  1.0
  H  H61  1  0.49211000  0.88396000  0.49337000  1.0
  H  H62  1  0.00788000  0.38396000  0.99337000  1.0
  H  H63  1  0.50788000  0.11604000  0.50663000  1.0
  H  H64  1  0.27250000  0.33544000  0.32386000  1.0
  H  H65  1  0.77250000  0.16455000  0.17614000  1.0
  H  H66  1  0.72751000  0.66456000  0.67614000  1.0
  H  H67  1  0.22750000  0.83545000  0.82386000  1.0
  H  H68  1  0.06636000  0.53561000  0.09497000  1.0
  H  H69  1  0.56636000  0.96439000  0.40502000  1.0
  H  H70  1  0.93364000  0.46438000  0.90502000  1.0
  H  H71  1  0.43364000  0.03562000  0.59497000  1.0
  H  H72  1  0.89061000  0.72984000  0.35368000  1.0
  H  H73  1  0.39060000  0.77016000  0.14632000  1.0
  H  H74  1  0.10940000  0.27016000  0.64631000  1.0
  H  H75  1  0.60940000  0.22984000  0.85369000  1.0
  H  H76  1  0.23935000  0.95794000  0.12138000  1.0
  H  H77  1  0.73935000  0.54206000  0.37862000  1.0
  H  H78  1  0.76065000  0.04206000  0.87862000  1.0
  H  H79  1  0.26064000  0.45793000  0.62138000  1.0
  H  H80  1  0.18660000  0.03512000  0.02620000  1.0
  H  H81  1  0.68660000  0.46488000  0.47381000  1.0
  H  H82  1  0.81340000  0.96489000  0.97380000  1.0
  H  H83  1  0.31340000  0.53512000  0.52620000  1.0
  H  H84  1  0.41120000  0.22483000  0.36120000  1.0
  H  H85  1  0.91120000  0.27517000  0.13880000  1.0
  H  H86  1  0.58880000  0.77517000  0.63880000  1.0
  H  H87  1  0.08880000  0.72483000  0.86120000  1.0
  H  H88  1  0.67436000  0.55906000  0.05088000  1.0
  H  H89  1  0.17436000  0.94095000  0.44912000  1.0
  H  H90  1  0.32564000  0.44093000  0.94911000  1.0
  H  H91  1  0.82564000  0.05906000  0.55089000  1.0
  H  H92  1  0.73393000  0.47613000  0.14137000  1.0
  H  H93  1  0.23393000  0.02388000  0.35863000  1.0
  H  H94  1  0.26607000  0.52386000  0.85862000  1.0
  H  H95  1  0.76607000  0.97613000  0.64137000  1.0
  C  C96  1  0.06823000  0.76552000  0.44479000  1.0
  C  C97  1  0.56824000  0.73449000  0.05521000  1.0
  C  C98  1  0.93177000  0.23449000  0.55521000  1.0
  C  C99  1  0.43177000  0.26551000  0.94479000  1.0
  C  C100  1  0.93516000  0.36053000  0.24696000  1.0
  C  C101  1  0.43515000  0.13947000  0.25304000  1.0
  C  C102  1  0.06485000  0.63947000  0.75304000  1.0
  C  C103  1  0.56485000  0.86052000  0.74695000  1.0
  C  C104  1  0.89178000  0.30468000  0.29163000  1.0
  C  C105  1  0.39177000  0.19531000  0.20837000  1.0
  C  C106  1  0.10823000  0.69532000  0.70837000  1.0
  C  C107  1  0.60823000  0.80468000  0.79163000  1.0
  C  C108  1  0.42934000  0.86483000  0.24605000  1.0
  C  C109  1  0.92934000  0.63517000  0.25395000  1.0
  C  C110  1  0.57066000  0.13517000  0.75395000  1.0
  C  C111  1  0.07066000  0.36483000  0.74605000  1.0
  C  C112  1  0.40790000  0.99543000  0.11872000  1.0
  C  C113  1  0.90790000  0.50457000  0.38129000  1.0
  C  C114  1  0.59210000  0.00457000  0.88128000  1.0
  C  C115  1  0.09210000  0.49543000  0.61872000  1.0
  C  C116  1  0.43761000  0.94657000  0.17198000  1.0
  C  C117  1  0.93761000  0.55343000  0.32802000  1.0
  C  C118  1  0.56239000  0.05343000  0.82802000  1.0
  C  C119  1  0.06239000  0.44656000  0.67198000  1.0
  C  C120  1  0.58262000  0.27612000  0.45149000  1.0
  C  C121  1  0.08261000  0.22388000  0.04851000  1.0
  C  C122  1  0.41739000  0.72388000  0.54851000  1.0
  C  C123  1  0.91738000  0.77612000  0.95149000  1.0
  C  C124  1  0.93869000  0.44420000  0.17419000  1.0
  C  C125  1  0.43869000  0.05580000  0.32581000  1.0
  C  C126  1  0.06131000  0.55580000  0.82581000  1.0
  C  C127  1  0.56131000  0.94420000  0.67419000  1.0
  C  C128  1  0.38301000  0.80824000  0.28910000  1.0
  C  C129  1  0.88301000  0.69175000  0.21090000  1.0
  C  C130  1  0.61699000  0.19176000  0.71090000  1.0
  C  C131  1  0.11699000  0.30824000  0.78910000  1.0
  C  C132  1  0.90544000  0.49707000  0.12435000  1.0
  C  C133  1  0.40544000  0.00293000  0.37565000  1.0
  C  C134  1  0.09456000  0.50292000  0.87565000  1.0
  C  C135  1  0.59456000  0.99708000  0.62435000  1.0
  C  C136  1  0.95610000  0.26692000  0.33689000  1.0
  C  C137  1  0.45610000  0.23309000  0.16312000  1.0
  C  C138  1  0.04390000  0.73309000  0.66312000  1.0
  C  C139  1  0.54390000  0.76691000  0.83689000  1.0
  C  C140  1  0.85287000  0.92151000  0.39690000  1.0
  C  C141  1  0.35287000  0.57849000  0.10310000  1.0
  C  C142  1  0.14713000  0.07849000  0.60310000  1.0
  C  C143  1  0.64713000  0.42151000  0.89690000  1.0
  C  C144  1  0.90647000  0.21680000  0.37906000  1.0
  C  C145  1  0.40647000  0.28320000  0.12094000  1.0
  C  C146  1  0.09353000  0.78320000  0.62094000  1.0
  C  C147  1  0.59353000  0.71680000  0.87906000  1.0
  C  C148  1  0.79569000  0.99820000  0.39633000  1.0
  C  C149  1  0.29569000  0.50181000  0.10367000  1.0
  C  C150  1  0.20431000  0.00180000  0.60367000  1.0
  C  C151  1  0.70431000  0.49820000  0.89633000  1.0
  C  C152  1  0.39317000  0.71523000  0.37303000  1.0
  C  C153  1  0.89317000  0.78477000  0.12697000  1.0
  C  C154  1  0.60683000  0.28478000  0.62697000  1.0
  C  C155  1  0.10683000  0.21523000  0.87303000  1.0
  C  C156  1  0.35901000  0.41801000  0.38894000  1.0
  C  C157  1  0.85901000  0.08199000  0.11106000  1.0
  C  C158  1  0.64099000  0.58199000  0.61106000  1.0
  C  C159  1  0.14099000  0.91801000  0.88894000  1.0
  C  C160  1  0.29410000  0.49094000  0.38330000  1.0
  C  C161  1  0.79410000  0.00906000  0.11670000  1.0
  C  C162  1  0.70590000  0.50906000  0.61670000  1.0
  C  C163  1  0.20590000  0.99093000  0.88330000  1.0
  C  C164  1  0.44498000  0.76755000  0.33366000  1.0
  C  C165  1  0.94498000  0.73244000  0.16634000  1.0
  C  C166  1  0.55502000  0.23245000  0.66635000  1.0
  C  C167  1  0.05502000  0.26755000  0.83365000  1.0
  C  C168  1  0.48141000  0.04314000  0.08655000  1.0
  C  C169  1  0.98141000  0.45686000  0.41345000  1.0
  C  C170  1  0.51859000  0.95686000  0.91345000  1.0
  C  C171  1  0.01859000  0.54314000  0.58655000  1.0
  C  C172  1  0.27095000  0.79245000  0.28551000  1.0
  C  C173  1  0.77095000  0.70755000  0.21448000  1.0
  C  C174  1  0.72905000  0.20755000  0.71449000  1.0
  C  C175  1  0.22905000  0.29245000  0.78552000  1.0
  C  C176  1  0.48887000  0.31640000  0.42214000  1.0
  C  C177  1  0.98886000  0.18360000  0.07786000  1.0
  C  C178  1  0.51113000  0.68360000  0.57786000  1.0
  C  C179  1  0.01113000  0.81639000  0.92214000  1.0
  C  C180  1  0.78019000  0.28737000  0.28955000  1.0
  C  C181  1  0.28019000  0.21262000  0.21045000  1.0
  C  C182  1  0.21981000  0.71263000  0.71045000  1.0
  C  C183  1  0.71981000  0.78738000  0.78955000  1.0
  C  C184  1  0.44509000  0.08365000  0.03384000  1.0
  C  C185  1  0.94509000  0.41635000  0.46617000  1.0
  C  C186  1  0.55491000  0.91635000  0.96616000  1.0
  C  C187  1  0.05491000  0.58365000  0.53384000  1.0
  C  C188  1  0.97506000  0.81127000  0.42085000  1.0
  C  C189  1  0.47506000  0.68873000  0.07915000  1.0
  C  C190  1  0.02494000  0.18873000  0.57915000  1.0
  C  C191  1  0.52494000  0.31127000  0.92085000  1.0
  C  C192  1  0.22528000  0.73953000  0.32646000  1.0
  C  C193  1  0.72528000  0.76046000  0.17353000  1.0
  C  C194  1  0.77472000  0.26046000  0.67354000  1.0
  C  C195  1  0.27472000  0.23954000  0.82647000  1.0
  C  C196  1  0.73686000  0.23676000  0.33321000  1.0
  C  C197  1  0.23686000  0.26324000  0.16679000  1.0
  C  C198  1  0.26314000  0.76325000  0.66679000  1.0
  C  C199  1  0.76315000  0.73676000  0.83321000  1.0
  C  C200  1  0.82665000  0.85262000  0.36120000  1.0
  C  C201  1  0.32665000  0.64738000  0.13880000  1.0
  C  C202  1  0.17335000  0.14738000  0.63879000  1.0
  C  C203  1  0.67335000  0.35263000  0.86121000  1.0
  C  C204  1  0.93837000  0.58355000  0.03767000  1.0
  C  C205  1  0.43837000  0.91645000  0.46233000  1.0
  C  C206  1  0.06163000  0.41644000  0.96232000  1.0
  C  C207  1  0.56163000  0.08356000  0.53767000  1.0
  C  C208  1  0.33856000  0.34466000  0.35864000  1.0
  C  C209  1  0.83856000  0.15533000  0.14136000  1.0
  C  C210  1  0.66144000  0.65533000  0.64136000  1.0
  C  C211  1  0.16144000  0.84466000  0.85864000  1.0
  C  C212  1  0.97876000  0.53858000  0.08670000  1.0
  C  C213  1  0.47876000  0.96142000  0.41330000  1.0
  C  C214  1  0.02124000  0.46142000  0.91330000  1.0
  C  C215  1  0.52124000  0.03858000  0.58670000  1.0
  C  C216  1  0.89619000  0.78946000  0.37527000  1.0
  C  C217  1  0.39618000  0.71054000  0.12473000  1.0
  C  C218  1  0.10382000  0.21053000  0.62473000  1.0
  C  C219  1  0.60381000  0.28947000  0.87527000  1.0
  C  C220  1  0.29938000  0.99329000  0.09717000  1.0
  C  C221  1  0.79938000  0.50671000  0.40283000  1.0
  C  C222  1  0.70062000  0.00671000  0.90283000  1.0
  C  C223  1  0.20062000  0.49329000  0.59717000  1.0
  C  C224  1  0.26956000  0.03573000  0.04456000  1.0
  C  C225  1  0.76956000  0.46427000  0.45545000  1.0
  C  C226  1  0.73044000  0.96427000  0.95544000  1.0
  C  C227  1  0.23044000  0.53573000  0.54456000  1.0
  C  C228  1  0.41238000  0.28657000  0.37796000  1.0
  C  C229  1  0.91238000  0.21343000  0.12204000  1.0
  C  C230  1  0.58762000  0.71343000  0.62204000  1.0
  C  C231  1  0.08762000  0.78657000  0.87796000  1.0
  C  C232  1  0.76004000  0.55176000  0.06246000  1.0
  C  C233  1  0.26004000  0.94824000  0.43754000  1.0
  C  C234  1  0.23995000  0.44823000  0.93754000  1.0
  C  C235  1  0.73995000  0.05177000  0.56246000  1.0
  C  C236  1  0.79359000  0.50587000  0.11224000  1.0
  C  C237  1  0.29359000  0.99413000  0.38775000  1.0
  C  C238  1  0.20641000  0.49413000  0.88775000  1.0
  C  C239  1  0.70641000  0.00587000  0.61225000  1.0
  S  S240  1  0.96224000  0.90882000  0.44725000  1.0
  S  S241  1  0.46225000  0.59118000  0.05276000  1.0
  S  S242  1  0.03775000  0.09118000  0.55275000  1.0
  S  S243  1  0.53775000  0.40882000  0.94725000  1.0
  S  S244  1  0.46909000  0.41549000  0.44042000  1.0
  S  S245  1  0.96909000  0.08451000  0.05958000  1.0
  S  S246  1  0.53091000  0.58451000  0.55958000  1.0
  S  S247  1  0.03091000  0.91548000  0.94043000  1.0
  N  N248  1  0.53925000  0.93511000  0.19607000  1.0
  N  N249  1  0.03925000  0.56489000  0.30393000  1.0
  N  N250  1  0.46075000  0.06489000  0.80393000  1.0
  N  N251  1  0.96075000  0.43510000  0.69607000  1.0
  N  N252  1  0.34148000  0.07963000  0.01245000  1.0
  N  N253  1  0.84147000  0.42038000  0.48756000  1.0
  N  N254  1  0.65852000  0.92038000  0.98755000  1.0
  N  N255  1  0.15853000  0.57963000  0.51245000  1.0
  N  N256  1  0.28475000  0.70236000  0.37038000  1.0
  N  N257  1  0.78475000  0.79764000  0.12962000  1.0
  N  N258  1  0.71525000  0.29764000  0.62962000  1.0
  N  N259  1  0.21525000  0.20236000  0.87038000  1.0
  N  N260  1  0.79814000  0.20330000  0.37832000  1.0
  N  N261  1  0.29813000  0.29670000  0.12169000  1.0
  N  N262  1  0.20187000  0.79671000  0.62169000  1.0
  N  N263  1  0.70187000  0.70330000  0.87831000  1.0
  N  N264  1  0.83120000  0.58921000  0.02481000  1.0
  N  N265  1  0.33120000  0.91079000  0.47518000  1.0
  N  N266  1  0.16880000  0.41078000  0.97518000  1.0
  N  N267  1  0.66880000  0.08922000  0.52482000  1.0
  N  N268  1  0.36628000  0.90265000  0.20324000  1.0
  N  N269  1  0.86628000  0.59734000  0.29676000  1.0
  N  N270  1  0.63372000  0.09735000  0.79676000  1.0
  N  N271  1  0.13372000  0.40265000  0.70323000  1.0
  N  N272  1  0.04245000  0.42686000  0.19186000  1.0
  N  N273  1  0.54245000  0.07315000  0.30814000  1.0
  N  N274  1  0.95755000  0.57315000  0.80814000  1.0
  N  N275  1  0.45755000  0.92685000  0.69186000  1.0
  N  N276  1  0.53609000  0.88312000  0.24298000  1.0
  N  N277  1  0.03609000  0.61687000  0.25702000  1.0
  N  N278  1  0.46391000  0.11688000  0.75702000  1.0
  N  N279  1  0.96391000  0.38312000  0.74298000  1.0
  N  N280  1  0.04220000  0.37385000  0.23795000  1.0
  N  N281  1  0.54220000  0.12615000  0.26205000  1.0
  N  N282  1  0.95780000  0.62615000  0.76205000  1.0
  N  N283  1  0.45780000  0.87385000  0.73795000  1.0
  N  N284  1  0.86894000  0.40264000  0.20870000  1.0
  N  N285  1  0.36894000  0.09736000  0.29130000  1.0
  N  N286  1  0.13106000  0.59735000  0.79130000  1.0
  N  N287  1  0.63106000  0.90264000  0.70869000  1.0
  O  O288  1  0.32634000  0.55140000  0.41861000  1.0
  O  O289  1  0.82634000  0.94860000  0.08139000  1.0
  O  O290  1  0.67366000  0.44860000  0.58139000  1.0
  O  O291  1  0.17366000  0.05140000  0.91861000  1.0
  O  O292  1  0.83472000  0.05424000  0.43395000  1.0
  O  O293  1  0.33473000  0.44576000  0.06605000  1.0
  O  O294  1  0.16527000  0.94576000  0.56605000  1.0
  O  O295  1  0.66527000  0.55425000  0.93395000  1.0
  O  O296  1  0.58883000  0.20073000  0.43804000  1.0
  O  O297  1  0.08883000  0.29927000  0.06196000  1.0
  O  O298  1  0.41117000  0.79927000  0.56195000  1.0
  O  O299  1  0.91117000  0.70072000  0.93804000  1.0
  O  O300  1  0.07205000  0.69149000  0.42589000  1.0
  O  O301  1  0.57205000  0.80851000  0.07411000  1.0
  O  O302  1  0.92796000  0.30851000  0.57411000  1.0
  O  O303  1  0.42795000  0.19149000  0.92589000  1.0
  O  O304  1  0.13820000  0.80070000  0.47971000  1.0
  O  O305  1  0.63820000  0.69930000  0.02030000  1.0
  O  O306  1  0.86180000  0.19930000  0.52030000  1.0
  O  O307  1  0.36181000  0.30070000  0.97971000  1.0
  O  O308  1  0.64870000  0.31661000  0.48526000  1.0
  O  O309  1  0.14871000  0.18339000  0.01474000  1.0
  O  O310  1  0.35129000  0.68339000  0.51474000  1.0
  O  O311  1  0.85129000  0.81660000  0.98526000  1.0
  O  O312  1  0.71231000  0.00270000  0.36106000  1.0
  O  O313  1  0.21231000  0.49730000  0.13894000  1.0
  O  O314  1  0.28770000  0.99730000  0.63893000  1.0
  O  O315  1  0.78770000  0.50270000  0.86107000  1.0
  O  O316  1  0.21166000  0.48783000  0.34683000  1.0
  O  O317  1  0.71166000  0.01217000  0.15317000  1.0
  O  O318  1  0.78834000  0.51217000  0.65317000  1.0
  O  O319  1  0.28834000  0.98783000  0.84683000  1.0
