# generated using pymatgen
data_KH4C9O6F
_symmetry_space_group_name_H-M   'P 1'
_cell_length_a   4.23759000
_cell_length_b   10.62500000
_cell_length_c   10.97060000
_cell_angle_alpha   89.99990000
_cell_angle_beta   90.00000000
_cell_angle_gamma   98.18480000
_symmetry_Int_Tables_number   1
_chemical_formula_structural   KH4C9O6F
_chemical_formula_sum   'K2 H8 C18 O12 F2'
_cell_volume   488.91331108
_cell_formula_units_Z   2
loop_
 _symmetry_equiv_pos_site_id
 _symmetry_equiv_pos_as_xyz
  1  'x, y, z'
loop_
 _atom_site_type_symbol
 _atom_site_label
 _atom_site_symmetry_multiplicity
 _atom_site_fract_x
 _atom_site_fract_y
 _atom_site_fract_z
 _atom_site_occupancy
  K  K0  1  0.82749000  0.50598000  0.33254000  1.0
  K  K1  1  0.32749000  0.00598000  0.66746000  1.0
  H  H2  1  0.12549000  0.75977000  0.49830000  1.0
  H  H3  1  0.62549000  0.25977000  0.50170000  1.0
  H  H4  1  0.78159000  0.83142000  0.83687000  1.0
  H  H5  1  0.28158000  0.33141000  0.16313000  1.0
  H  H6  1  0.57089000  0.79009000  0.12977000  1.0
  H  H7  1  0.07089000  0.29009000  0.87023000  1.0
  H  H8  1  0.23594000  0.13454000  0.10929000  1.0
  H  H9  1  0.73593000  0.63454000  0.89071000  1.0
  C  C10  1  0.05897000  0.08332000  0.29018000  1.0
  C  C11  1  0.55897000  0.58332000  0.70982000  1.0
  C  C12  1  0.85432000  0.99173000  0.35552000  1.0
  C  C13  1  0.35431000  0.49173000  0.64448000  1.0
  C  C14  1  0.67107000  0.88768000  0.29924000  1.0
  C  C15  1  0.17107000  0.38768000  0.70075000  1.0
  C  C16  1  0.70518000  0.87289000  0.17345000  1.0
  C  C17  1  0.20518000  0.37289000  0.82655000  1.0
  C  C18  1  0.90636000  0.96194000  0.10550000  1.0
  C  C19  1  0.40635000  0.46194000  0.89451000  1.0
  C  C20  1  0.07879000  0.06682000  0.16398000  1.0
  C  C21  1  0.57877000  0.56682000  0.83602000  1.0
  C  C22  1  0.26688000  0.19199000  0.35193000  1.0
  C  C23  1  0.76687000  0.69199000  0.64807000  1.0
  C  C24  1  0.43598000  0.79119000  0.36279000  1.0
  C  C25  1  0.93599000  0.29119000  0.63721000  1.0
  C  C26  1  0.94317000  0.94574000  0.97142000  1.0
  C  C27  1  0.44316000  0.44574000  0.02858000  1.0
  O  O28  1  0.33360000  0.29773000  0.29660000  1.0
  O  O29  1  0.83359000  0.79773000  0.70340000  1.0
  O  O30  1  0.37346000  0.16995000  0.45718000  1.0
  O  O31  1  0.87346000  0.66995000  0.54282000  1.0
  O  O32  1  0.31538000  0.82956000  0.46486000  1.0
  O  O33  1  0.81537000  0.32956000  0.53514000  1.0
  O  O34  1  0.35557000  0.68501000  0.31651000  1.0
  O  O35  1  0.85558000  0.18501000  0.68349000  1.0
  O  O36  1  0.74243000  0.84840000  0.92759000  1.0
  O  O37  1  0.24242000  0.34840000  0.07241000  1.0
  O  O38  1  0.13989000  0.01498000  0.90941000  1.0
  O  O39  1  0.63988000  0.51498000  0.09059000  1.0
  F  F40  1  0.83659000  0.00310000  0.47807000  1.0
  F  F41  1  0.33659000  0.50310000  0.52193000  1.0
