# generated using pymatgen
data_ErCuH15C16N2O13
_symmetry_space_group_name_H-M   'P 1'
_cell_length_a   10.57120000
_cell_length_b   13.96810000
_cell_length_c   19.16130000
_cell_angle_alpha   89.99980000
_cell_angle_beta   80.12570000
_cell_angle_gamma   89.99980000
_symmetry_Int_Tables_number   1
_chemical_formula_structural   ErCuH15C16N2O13
_chemical_formula_sum   'Er4 Cu4 H60 C64 N8 O52'
_cell_volume   2787.43648076
_cell_formula_units_Z   4
loop_
 _symmetry_equiv_pos_site_id
 _symmetry_equiv_pos_as_xyz
  1  'x, y, z'
loop_
 _atom_site_type_symbol
 _atom_site_label
 _atom_site_symmetry_multiplicity
 _atom_site_fract_x
 _atom_site_fract_y
 _atom_site_fract_z
 _atom_site_occupancy
  Er  Er0  1  0.84534000  0.93432000  0.55638000  1.0
  Er  Er1  1  0.15469000  0.43433000  0.94362000  1.0
  Er  Er2  1  0.15460000  0.06567000  0.44362000  1.0
  Er  Er3  1  0.84541000  0.56568000  0.05637000  1.0
  Cu  Cu4  1  0.24484000  0.93430000  0.78278000  1.0
  Cu  Cu5  1  0.75514000  0.43430000  0.71721000  1.0
  Cu  Cu6  1  0.75513000  0.06569000  0.21722000  1.0
  Cu  Cu7  1  0.24484000  0.56570000  0.28278000  1.0
  H  H8  1  0.23349000  0.74494000  0.83987000  1.0
  H  H9  1  0.87715000  0.74706000  0.70724000  1.0
  H  H10  1  0.01433000  0.88876000  0.71285000  1.0
  H  H11  1  0.78154000  0.60365000  0.62817000  1.0
  H  H12  1  0.37755000  0.65260000  0.79334000  1.0
  H  H13  1  0.25823000  0.90065000  0.94453000  1.0
  H  H14  1  0.11237000  0.89509000  0.94437000  1.0
  H  H15  1  0.49628000  0.49964000  0.78592000  1.0
  H  H16  1  0.55727000  0.92870000  0.58582000  1.0
  H  H17  1  0.59321000  0.93597000  0.50359000  1.0
  H  H18  1  0.82728000  0.89784000  0.39625000  1.0
  H  H19  1  0.79738000  0.81095000  0.45284000  1.0
  H  H20  1  0.28291000  0.81751000  0.48614000  1.0
  H  H21  1  0.22132000  0.73758000  0.55859000  1.0
  H  H22  1  0.27995000  0.85353000  0.57503000  1.0
  H  H23  1  0.76650000  0.24493000  0.66013000  1.0
  H  H24  1  0.12284000  0.24707000  0.79276000  1.0
  H  H25  1  0.98566000  0.38877000  0.78714000  1.0
  H  H26  1  0.21845000  0.10366000  0.87182000  1.0
  H  H27  1  0.62245000  0.15259000  0.70666000  1.0
  H  H28  1  0.74175000  0.40065000  0.55547000  1.0
  H  H29  1  0.88761000  0.39510000  0.55562000  1.0
  H  H30  1  0.50371000  0.99963000  0.71408000  1.0
  H  H31  1  0.44277000  0.42871000  0.91416000  1.0
  H  H32  1  0.40681000  0.43599000  0.99641000  1.0
  H  H33  1  0.17274000  0.39785000  0.10374000  1.0
  H  H34  1  0.20264000  0.31097000  0.04716000  1.0
  H  H35  1  0.71712000  0.31754000  0.01386000  1.0
  H  H36  1  0.77870000  0.23762000  0.94141000  1.0
  H  H37  1  0.72008000  0.35357000  0.92496000  1.0
  H  H38  1  0.76650000  0.25507000  0.16013000  1.0
  H  H39  1  0.12283000  0.25292000  0.29276000  1.0
  H  H40  1  0.98564000  0.11123000  0.28715000  1.0
  H  H41  1  0.21844000  0.39636000  0.37184000  1.0
  H  H42  1  0.62242000  0.34738000  0.20666000  1.0
  H  H43  1  0.74174000  0.09934000  0.05547000  1.0
  H  H44  1  0.88760000  0.10489000  0.05563000  1.0
  H  H45  1  0.50370000  0.50034000  0.21408000  1.0
  H  H46  1  0.44270000  0.07129000  0.41418000  1.0
  H  H47  1  0.40675000  0.06403000  0.49643000  1.0
  H  H48  1  0.17268000  0.10214000  0.60376000  1.0
  H  H49  1  0.20257000  0.18903000  0.54718000  1.0
  H  H50  1  0.71703000  0.18248000  0.51387000  1.0
  H  H51  1  0.77863000  0.26241000  0.44141000  1.0
  H  H52  1  0.71999000  0.14647000  0.42498000  1.0
  H  H53  1  0.23349000  0.75506000  0.33987000  1.0
  H  H54  1  0.87715000  0.75293000  0.20725000  1.0
  H  H55  1  0.01432000  0.61123000  0.21286000  1.0
  H  H56  1  0.78154000  0.89635000  0.12817000  1.0
  H  H57  1  0.37756000  0.84738000  0.29334000  1.0
  H  H58  1  0.25823000  0.59934000  0.44454000  1.0
  H  H59  1  0.11237000  0.60490000  0.44438000  1.0
  H  H60  1  0.49628000  0.00035000  0.28591000  1.0
  H  H61  1  0.55732000  0.57130000  0.08582000  1.0
  H  H62  1  0.59326000  0.56404000  0.00358000  1.0
  H  H63  1  0.82731000  0.60216000  0.89625000  1.0
  H  H64  1  0.79742000  0.68906000  0.95284000  1.0
  H  H65  1  0.28300000  0.68251000  0.98613000  1.0
  H  H66  1  0.22138000  0.76244000  0.05859000  1.0
  H  H67  1  0.28003000  0.64650000  0.07502000  1.0
  C  C68  1  0.15490000  0.74202000  0.81010000  1.0
  C  C69  1  0.08527000  0.65779000  0.80826000  1.0
  C  C70  1  0.98087000  0.65812000  0.77167000  1.0
  C  C71  1  0.95592000  0.74220000  0.73683000  1.0
  C  C72  1  0.03222000  0.82267000  0.73978000  1.0
  C  C73  1  0.12310000  0.57235000  0.84686000  1.0
  C  C74  1  0.88999000  0.57485000  0.77175000  1.0
  C  C75  1  0.69140000  0.61761000  0.66361000  1.0
  C  C76  1  0.63256000  0.70684000  0.66548000  1.0
  C  C77  1  0.51717000  0.72231000  0.71236000  1.0
  C  C78  1  0.46625000  0.64614000  0.75543000  1.0
  C  C79  1  0.53160000  0.55943000  0.75165000  1.0
  C  C80  1  0.44745000  0.81695000  0.71332000  1.0
  C  C81  1  0.70168000  0.78596000  0.62265000  1.0
  C  C82  1  0.22811000  0.81192000  0.54012000  1.0
  C  C83  1  0.09686000  0.85395000  0.54220000  1.0
  C  C84  1  0.84509000  0.24202000  0.68990000  1.0
  C  C85  1  0.91473000  0.15779000  0.69174000  1.0
  C  C86  1  0.01913000  0.15812000  0.72832000  1.0
  C  C87  1  0.04407000  0.24220000  0.76317000  1.0
  C  C88  1  0.96777000  0.32268000  0.76021000  1.0
  C  C89  1  0.87692000  0.07234000  0.65313000  1.0
  C  C90  1  0.11001000  0.07486000  0.72825000  1.0
  C  C91  1  0.30859000  0.11762000  0.83639000  1.0
  C  C92  1  0.36743000  0.20685000  0.83451000  1.0
  C  C93  1  0.48282000  0.22231000  0.78764000  1.0
  C  C94  1  0.53374000  0.14613000  0.74457000  1.0
  C  C95  1  0.46840000  0.05941000  0.74835000  1.0
  C  C96  1  0.55255000  0.31695000  0.78667000  1.0
  C  C97  1  0.29833000  0.28597000  0.87734000  1.0
  C  C98  1  0.77192000  0.31196000  0.95987000  1.0
  C  C99  1  0.90317000  0.35397000  0.95779000  1.0
  C  C100  1  0.84509000  0.25798000  0.18989000  1.0
  C  C101  1  0.91473000  0.34221000  0.19174000  1.0
  C  C102  1  0.01914000  0.34187000  0.22832000  1.0
  C  C103  1  0.04406000  0.25778000  0.26317000  1.0
  C  C104  1  0.96775000  0.17732000  0.26022000  1.0
  C  C105  1  0.87693000  0.42767000  0.15313000  1.0
  C  C106  1  0.11001000  0.42513000  0.22826000  1.0
  C  C107  1  0.30857000  0.38238000  0.33640000  1.0
  C  C108  1  0.36741000  0.29315000  0.33453000  1.0
  C  C109  1  0.48279000  0.27767000  0.28766000  1.0
  C  C110  1  0.53372000  0.35384000  0.24458000  1.0
  C  C111  1  0.46839000  0.44057000  0.24836000  1.0
  C  C112  1  0.55251000  0.18304000  0.28670000  1.0
  C  C113  1  0.29827000  0.21404000  0.37737000  1.0
  C  C114  1  0.77185000  0.18807000  0.45989000  1.0
  C  C115  1  0.90310000  0.14605000  0.45780000  1.0
  C  C116  1  0.15490000  0.75798000  0.31010000  1.0
  C  C117  1  0.08526000  0.84220000  0.30826000  1.0
  C  C118  1  0.98085000  0.84188000  0.27168000  1.0
  C  C119  1  0.95591000  0.75780000  0.23684000  1.0
  C  C120  1  0.03221000  0.67731000  0.23979000  1.0
  C  C121  1  0.12308000  0.92765000  0.34687000  1.0
  C  C122  1  0.88998000  0.92514000  0.27175000  1.0
  C  C123  1  0.69140000  0.88239000  0.16360000  1.0
  C  C124  1  0.63258000  0.79315000  0.16547000  1.0
  C  C125  1  0.51720000  0.77767000  0.21235000  1.0
  C  C126  1  0.46627000  0.85384000  0.25543000  1.0
  C  C127  1  0.53160000  0.94057000  0.25165000  1.0
  C  C128  1  0.44748000  0.68303000  0.21332000  1.0
  C  C129  1  0.70173000  0.71404000  0.12265000  1.0
  C  C130  1  0.22818000  0.68810000  0.04011000  1.0
  C  C131  1  0.09693000  0.64607000  0.04220000  1.0
  N  N132  1  0.13023000  0.82249000  0.77648000  1.0
  N  N133  1  0.64309000  0.54589000  0.70697000  1.0
  N  N134  1  0.86976000  0.32249000  0.72351000  1.0
  N  N135  1  0.35690000  0.04589000  0.79303000  1.0
  N  N136  1  0.86975000  0.17750000  0.22351000  1.0
  N  N137  1  0.35689000  0.45411000  0.29304000  1.0
  N  N138  1  0.13023000  0.67750000  0.27649000  1.0
  N  N139  1  0.64309000  0.95411000  0.20697000  1.0
  O  O140  1  0.22333000  0.57629000  0.87558000  1.0
  O  O141  1  0.05192000  0.49814000  0.85237000  1.0
  O  O142  1  0.80076000  0.56445000  0.82380000  1.0
  O  O143  1  0.90425000  0.52456000  0.71504000  1.0
  O  O144  1  0.72865000  0.86044000  0.65617000  1.0
  O  O145  1  0.73659000  0.77626000  0.55641000  1.0
  O  O146  1  0.38998000  0.84239000  0.77543000  1.0
  O  O147  1  0.44635000  0.86128000  0.65649000  1.0
  O  O148  1  0.08566000  0.93716000  0.51459000  1.0
  O  O149  1  0.99625000  0.81068000  0.57119000  1.0
  O  O150  1  0.19113000  0.92490000  0.92032000  1.0
  O  O151  1  0.61518000  0.96198000  0.54713000  1.0
  O  O152  1  0.84081000  0.87244000  0.44430000  1.0
  O  O153  1  0.77668000  0.07628000  0.62441000  1.0
  O  O154  1  0.94810000  0.99814000  0.64762000  1.0
  O  O155  1  0.19923000  0.06444000  0.67621000  1.0
  O  O156  1  0.09572000  0.02456000  0.78498000  1.0
  O  O157  1  0.27136000  0.36044000  0.84382000  1.0
  O  O158  1  0.26344000  0.27629000  0.94358000  1.0
  O  O159  1  0.61002000  0.34239000  0.72456000  1.0
  O  O160  1  0.55365000  0.36128000  0.84350000  1.0
  O  O161  1  0.91437000  0.43719000  0.98541000  1.0
  O  O162  1  0.00378000  0.31071000  0.92881000  1.0
  O  O163  1  0.80884000  0.42490000  0.57968000  1.0
  O  O164  1  0.38488000  0.46200000  0.95286000  1.0
  O  O165  1  0.15923000  0.37247000  0.05569000  1.0
  O  O166  1  0.77669000  0.42373000  0.12442000  1.0
  O  O167  1  0.94815000  0.50185000  0.14760000  1.0
  O  O168  1  0.19926000  0.43555000  0.17622000  1.0
  O  O169  1  0.09572000  0.47543000  0.28497000  1.0
  O  O170  1  0.27133000  0.13956000  0.34383000  1.0
  O  O171  1  0.26333000  0.22373000  0.44359000  1.0
  O  O172  1  0.61000000  0.15760000  0.22459000  1.0
  O  O173  1  0.55361000  0.13871000  0.34353000  1.0
  O  O174  1  0.91428000  0.06283000  0.48540000  1.0
  O  O175  1  0.00372000  0.18930000  0.42882000  1.0
  O  O176  1  0.80883000  0.07509000  0.07968000  1.0
  O  O177  1  0.38479000  0.03802000  0.45288000  1.0
  O  O178  1  0.15915000  0.12754000  0.55571000  1.0
  O  O179  1  0.22332000  0.92373000  0.37559000  1.0
  O  O180  1  0.05187000  0.00184000  0.35239000  1.0
  O  O181  1  0.80075000  0.93555000  0.32379000  1.0
  O  O182  1  0.90426000  0.97544000  0.21503000  1.0
  O  O183  1  0.72868000  0.63956000  0.15617000  1.0
  O  O184  1  0.73668000  0.72376000  0.05642000  1.0
  O  O185  1  0.38998000  0.65761000  0.27542000  1.0
  O  O186  1  0.44638000  0.63870000  0.15648000  1.0
  O  O187  1  0.08576000  0.56285000  0.01459000  1.0
  O  O188  1  0.99632000  0.68932000  0.07119000  1.0
  O  O189  1  0.19113000  0.57510000  0.42032000  1.0
  O  O190  1  0.61523000  0.53803000  0.04712000  1.0
  O  O191  1  0.84084000  0.62756000  0.94430000  1.0
