# generated using pymatgen
data_CdH18C16(NO2)4
_symmetry_space_group_name_H-M   'P 1'
_cell_length_a   8.37093000
_cell_length_b   10.35270000
_cell_length_c   11.25230000
_cell_angle_alpha   89.99960000
_cell_angle_beta   87.35340000
_cell_angle_gamma   89.99970000
_symmetry_Int_Tables_number   1
_chemical_formula_structural   CdH18C16(NO2)4
_chemical_formula_sum   'Cd2 H36 C32 N8 O16'
_cell_volume   974.10360847
_cell_formula_units_Z   2
loop_
 _symmetry_equiv_pos_site_id
 _symmetry_equiv_pos_as_xyz
  1  'x, y, z'
loop_
 _atom_site_type_symbol
 _atom_site_label
 _atom_site_symmetry_multiplicity
 _atom_site_fract_x
 _atom_site_fract_y
 _atom_site_fract_z
 _atom_site_occupancy
  Cd  Cd0  1  0.00000000  0.00000000  0.00000000  1.0
  Cd  Cd1  1  0.50000000  0.50000000  0.50000000  1.0
  H  H2  1  0.01565000  0.24507000  0.42314000  1.0
  H  H3  1  0.48435000  0.74507000  0.07687000  1.0
  H  H4  1  0.98435000  0.75493000  0.57687000  1.0
  H  H5  1  0.51565000  0.25493000  0.92313000  1.0
  H  H6  1  0.44850000  0.27964000  0.17736000  1.0
  H  H7  1  0.05150000  0.77965000  0.32263000  1.0
  H  H8  1  0.55150000  0.72036000  0.82264000  1.0
  H  H9  1  0.94850000  0.22035000  0.67737000  1.0
  H  H10  1  0.72659000  0.11396000  0.19729000  1.0
  H  H11  1  0.77340000  0.61396000  0.30272000  1.0
  H  H12  1  0.27340000  0.88604000  0.80271000  1.0
  H  H13  1  0.22660000  0.38604000  0.69728000  1.0
  H  H14  1  0.72145000  0.20830000  0.32865000  1.0
  H  H15  1  0.77855000  0.70830000  0.17136000  1.0
  H  H16  1  0.27855000  0.79170000  0.67136000  1.0
  H  H17  1  0.22145000  0.29170000  0.82864000  1.0
  H  H18  1  0.76975000  0.01409000  0.45077000  1.0
  H  H19  1  0.73024000  0.51408000  0.04923000  1.0
  H  H20  1  0.23025000  0.98591000  0.54923000  1.0
  H  H21  1  0.26976000  0.48591000  0.95077000  1.0
  H  H22  1  0.80654000  0.91961000  0.32149000  1.0
  H  H23  1  0.69346000  0.41961000  0.17852000  1.0
  H  H24  1  0.19346000  0.08039000  0.67852000  1.0
  H  H25  1  0.30655000  0.58039000  0.82148000  1.0
  H  H26  1  0.48324000  0.04824000  0.39042000  1.0
  H  H27  1  0.01676000  0.54823000  0.10958000  1.0
  H  H28  1  0.51676000  0.95177000  0.60958000  1.0
  H  H29  1  0.98324000  0.45177000  0.89041000  1.0
  H  H30  1  0.52823000  0.88142000  0.40342000  1.0
  H  H31  1  0.97177000  0.38141000  0.09658000  1.0
  H  H32  1  0.47177000  0.11859000  0.59659000  1.0
  H  H33  1  0.02824000  0.61859000  0.90341000  1.0
  H  H34  1  0.52644000  0.95477000  0.26032000  1.0
  H  H35  1  0.97356000  0.45477000  0.23968000  1.0
  H  H36  1  0.47356000  0.04523000  0.73968000  1.0
  H  H37  1  0.02644000  0.54524000  0.76032000  1.0
  C  C38  1  0.19579000  0.22867000  0.27952000  1.0
  C  C39  1  0.30422000  0.72867000  0.22048000  1.0
  C  C40  1  0.80422000  0.77133000  0.72048000  1.0
  C  C41  1  0.69578000  0.27133000  0.77952000  1.0
  C  C42  1  0.29414000  0.16836000  0.06045000  1.0
  C  C43  1  0.20587000  0.66836000  0.43955000  1.0
  C  C44  1  0.70587000  0.83163000  0.93955000  1.0
  C  C45  1  0.79413000  0.33164000  0.56045000  1.0
  C  C46  1  0.18358000  0.17202000  0.16792000  1.0
  C  C47  1  0.31643000  0.67202000  0.33208000  1.0
  C  C48  1  0.81643000  0.82798000  0.83208000  1.0
  C  C49  1  0.68357000  0.32798000  0.66792000  1.0
  C  C50  1  0.95064000  0.14964000  0.26346000  1.0
  C  C51  1  0.54936000  0.64963000  0.23654000  1.0
  C  C52  1  0.04936000  0.85036000  0.73654000  1.0
  C  C53  1  0.45064000  0.35036000  0.76346000  1.0
  C  C54  1  0.32603000  0.29941000  0.33296000  1.0
  C  C55  1  0.17398000  0.79941000  0.16704000  1.0
  C  C56  1  0.67397000  0.70059000  0.66704000  1.0
  C  C57  1  0.82602000  0.20059000  0.83296000  1.0
  C  C58  1  0.77731000  0.12326000  0.28539000  1.0
  C  C59  1  0.72269000  0.62326000  0.21461000  1.0
  C  C60  1  0.22268000  0.87674000  0.71461000  1.0
  C  C61  1  0.27731000  0.37674000  0.78539000  1.0
  C  C62  1  0.73600000  0.00088000  0.35806000  1.0
  C  C63  1  0.76400000  0.50088000  0.14194000  1.0
  C  C64  1  0.26400000  0.99912000  0.64194000  1.0
  C  C65  1  0.23600000  0.49912000  0.85805000  1.0
  C  C66  1  0.55821000  0.96967000  0.35305000  1.0
  C  C67  1  0.94179000  0.46966000  0.14695000  1.0
  C  C68  1  0.44179000  0.03033000  0.64695000  1.0
  C  C69  1  0.05821000  0.53034000  0.85305000  1.0
  N  N70  1  0.04844000  0.21207000  0.33747000  1.0
  N  N71  1  0.45156000  0.71207000  0.16254000  1.0
  N  N72  1  0.95156000  0.78793000  0.66254000  1.0
  N  N73  1  0.54844000  0.28793000  0.83746000  1.0
  N  N74  1  0.03251000  0.12285000  0.16131000  1.0
  N  N75  1  0.46749000  0.62284000  0.33869000  1.0
  N  N76  1  0.96749000  0.87715000  0.83869000  1.0
  N  N77  1  0.53251000  0.37716000  0.66131000  1.0
  O  O78  1  0.24875000  0.11372000  0.96794000  1.0
  O  O79  1  0.25126000  0.61372000  0.53206000  1.0
  O  O80  1  0.75126000  0.88628000  0.03206000  1.0
  O  O81  1  0.74874000  0.38628000  0.46794000  1.0
  O  O82  1  0.42990000  0.22681000  0.06632000  1.0
  O  O83  1  0.07011000  0.72680000  0.43369000  1.0
  O  O84  1  0.57011000  0.77319000  0.93369000  1.0
  O  O85  1  0.92989000  0.27320000  0.56631000  1.0
  O  O86  1  0.31083000  0.33884000  0.43761000  1.0
  O  O87  1  0.18919000  0.83883000  0.06239000  1.0
  O  O88  1  0.68918000  0.66117000  0.56239000  1.0
  O  O89  1  0.81081000  0.16116000  0.93761000  1.0
  O  O90  1  0.45645000  0.32000000  0.26619000  1.0
  O  O91  1  0.04356000  0.82001000  0.23381000  1.0
  O  O92  1  0.54355000  0.68000000  0.73381000  1.0
  O  O93  1  0.95644000  0.17999000  0.76619000  1.0
