# generated using pymatgen
data_ZnH5C4N9
_symmetry_space_group_name_H-M   'P 1'
_cell_length_a   7.39795000
_cell_length_b   7.78840000
_cell_length_c   14.19130000
_cell_angle_alpha   89.99990000
_cell_angle_beta   90.00000000
_cell_angle_gamma   95.13960000
_symmetry_Int_Tables_number   1
_chemical_formula_structural   ZnH5C4N9
_chemical_formula_sum   'Zn4 H20 C16 N36'
_cell_volume   814.38951129
_cell_formula_units_Z   4
loop_
 _symmetry_equiv_pos_site_id
 _symmetry_equiv_pos_as_xyz
  1  'x, y, z'
loop_
 _atom_site_type_symbol
 _atom_site_label
 _atom_site_symmetry_multiplicity
 _atom_site_fract_x
 _atom_site_fract_y
 _atom_site_fract_z
 _atom_site_occupancy
  Zn  Zn0  1  0.83469000  0.49263000  0.42214000  1.0
  Zn  Zn1  1  0.66531000  0.00737000  0.92214000  1.0
  Zn  Zn2  1  0.16531000  0.50737000  0.57786000  1.0
  Zn  Zn3  1  0.33469000  0.99263000  0.07786000  1.0
  H  H4  1  0.53995000  0.90248000  0.27176000  1.0
  H  H5  1  0.96005000  0.59752000  0.77176000  1.0
  H  H6  1  0.46005000  0.09752000  0.72824000  1.0
  H  H7  1  0.03995000  0.40248000  0.22824000  1.0
  H  H8  1  0.47944000  0.35072000  0.11981000  1.0
  H  H9  1  0.02056000  0.14929000  0.61981000  1.0
  H  H10  1  0.52056000  0.64929000  0.88019000  1.0
  H  H11  1  0.97944000  0.85071000  0.38019000  1.0
  H  H12  1  0.65352000  0.52471000  0.24411000  1.0
  H  H13  1  0.84648000  0.97529000  0.74411000  1.0
  H  H14  1  0.34648000  0.47529000  0.75589000  1.0
  H  H15  1  0.15352000  0.02471000  0.25589000  1.0
  H  H16  1  0.78736000  0.13247000  0.46511000  1.0
  H  H17  1  0.71264000  0.36753000  0.96511000  1.0
  H  H18  1  0.21264000  0.86753000  0.53489000  1.0
  H  H19  1  0.28737000  0.63247000  0.03489000  1.0
  H  H20  1  0.69829000  0.92864000  0.42013000  1.0
  H  H21  1  0.80171000  0.57136000  0.92013000  1.0
  H  H22  1  0.30171000  0.07136000  0.57987000  1.0
  H  H23  1  0.19829000  0.42864000  0.07987000  1.0
  C  C24  1  0.66375000  0.13864000  0.33677000  1.0
  C  C25  1  0.83625000  0.36135000  0.83677000  1.0
  C  C26  1  0.33625000  0.86135000  0.66323000  1.0
  C  C27  1  0.16375000  0.63865000  0.16323000  1.0
  C  C28  1  0.56481000  0.04201000  0.26480000  1.0
  C  C29  1  0.93519000  0.45799000  0.76480000  1.0
  C  C30  1  0.43519000  0.95799000  0.73520000  1.0
  C  C31  1  0.06481000  0.54201000  0.23520000  1.0
  C  C32  1  0.53161000  0.29091000  0.18199000  1.0
  C  C33  1  0.96839000  0.20909000  0.68199000  1.0
  C  C34  1  0.46839000  0.70909000  0.81801000  1.0
  C  C35  1  0.03161000  0.79090000  0.31801000  1.0
  C  C36  1  0.62746000  0.38545000  0.25046000  1.0
  C  C37  1  0.87254000  0.11455000  0.75046000  1.0
  C  C38  1  0.37254000  0.61455000  0.74954000  1.0
  C  C39  1  0.12746000  0.88545000  0.24954000  1.0
  N  N40  1  0.96263000  0.66666667  0.52932000  1.0
  N  N41  1  0.53737000  0.83338000  0.02932000  1.0
  N  N42  1  0.03737000  0.33338000  0.47068000  1.0
  N  N43  1  0.46263000  0.16662000  0.97068000  1.0
  N  N44  1  0.85422000  0.72492000  0.58175000  1.0
  N  N45  1  0.64578000  0.77508000  0.08175000  1.0
  N  N46  1  0.14578000  0.27508000  0.41825000  1.0
  N  N47  1  0.35422000  0.22492000  0.91825000  1.0
  N  N48  1  0.74766000  0.78205000  0.62988000  1.0
  N  N49  1  0.75234000  0.71795000  0.12988000  1.0
  N  N50  1  0.25234000  0.21795000  0.37012000  1.0
  N  N51  1  0.24766000  0.28205000  0.87012000  1.0
  N  N52  1  0.63891000  0.68105000  0.40326000  1.0
  N  N53  1  0.86109000  0.81895000  0.90326000  1.0
  N  N54  1  0.36109000  0.31895000  0.59674000  1.0
  N  N55  1  0.13891000  0.18105000  0.09674000  1.0
  N  N56  1  0.48662000  0.65127000  0.43093000  1.0
  N  N57  1  0.01338000  0.84873000  0.93093000  1.0
  N  N58  1  0.51339000  0.34873000  0.56907000  1.0
  N  N59  1  0.98662000  0.15127000  0.06907000  1.0
  N  N60  1  0.33481000  0.62735000  0.45499000  1.0
  N  N61  1  0.16519000  0.87265000  0.95499000  1.0
  N  N62  1  0.66519000  0.37265000  0.54501000  1.0
  N  N63  1  0.83481000  0.12735000  0.04501000  1.0
  N  N64  1  0.69514000  0.31211000  0.32730000  1.0
  N  N65  1  0.80486000  0.18789000  0.82730000  1.0
  N  N66  1  0.30486000  0.68789000  0.67270000  1.0
  N  N67  1  0.19514000  0.81211000  0.17270000  1.0
  N  N68  1  0.50034000  0.11775000  0.19010000  1.0
  N  N69  1  0.99966000  0.38225000  0.69010000  1.0
  N  N70  1  0.49967000  0.88225000  0.80990000  1.0
  N  N71  1  0.00034000  0.61775000  0.30990000  1.0
  N  N72  1  0.72465000  0.05978000  0.41299000  1.0
  N  N73  1  0.77535000  0.44022000  0.91299000  1.0
  N  N74  1  0.27535000  0.94022000  0.58701000  1.0
  N  N75  1  0.22465000  0.55978000  0.08701000  1.0
