# generated using pymatgen
data_Na2H14C12S2N2Cl4O7
_symmetry_space_group_name_H-M   'P 1'
_cell_length_a   6.37685000
_cell_length_b   6.37794000
_cell_length_c   27.75821669
_cell_angle_alpha   93.85821591
_cell_angle_beta   93.10520343
_cell_angle_gamma   118.13100000
_symmetry_Int_Tables_number   1
_chemical_formula_structural   Na2H14C12S2N2Cl4O7
_chemical_formula_sum   'Na4 H28 C24 S4 N4 Cl8 O14'
_cell_volume   988.59623786
_cell_formula_units_Z   2
loop_
 _symmetry_equiv_pos_site_id
 _symmetry_equiv_pos_as_xyz
  1  'x, y, z'
loop_
 _atom_site_type_symbol
 _atom_site_label
 _atom_site_symmetry_multiplicity
 _atom_site_fract_x
 _atom_site_fract_y
 _atom_site_fract_z
 _atom_site_occupancy
  Na  Na0  1  0.36924000  0.41934000  0.76367000  1.0
  Na  Na1  1  0.65559000  0.10549000  0.73625000  1.0
  Na  Na2  1  0.63076000  0.58066000  0.23633000  1.0
  Na  Na3  1  0.34441000  0.89452000  0.26375000  1.0
  H  H4  1  0.62700000  0.43897000  0.99129000  1.0
  H  H5  1  0.44804000  0.13668000  0.50862000  1.0
  H  H6  1  0.37300000  0.56102000  0.00871000  1.0
  H  H7  1  0.55197000  0.86332000  0.49138000  1.0
  H  H8  1  0.87575000  0.26364000  0.02062000  1.0
  H  H9  1  0.24334000  0.35620000  0.47936000  1.0
  H  H10  1  0.12424000  0.73635000  0.97938000  1.0
  H  H11  1  0.75669000  0.64380000  0.52064000  1.0
  H  H12  1  0.89374000  0.93638000  0.96755000  1.0
  H  H13  1  0.96901000  0.42704000  0.53244000  1.0
  H  H14  1  0.10624000  0.06360000  0.03245000  1.0
  H  H15  1  0.03100000  0.57296000  0.46756000  1.0
  H  H16  1  0.66443000  0.79787000  0.88698000  1.0
  H  H17  1  0.91099000  0.27807000  0.61298000  1.0
  H  H18  1  0.33556000  0.20211000  0.11302000  1.0
  H  H19  1  0.08900000  0.72193000  0.38702000  1.0
  H  H20  1  0.24778000  0.68210000  0.68612000  1.0
  H  H21  1  0.99597000  0.06179000  0.81381000  1.0
  H  H22  1  0.75222000  0.31790000  0.31388000  1.0
  H  H23  1  0.00403000  0.93820000  0.18619000  1.0
  H  H24  1  0.47202000  0.65053000  0.67732000  1.0
  H  H25  1  0.97328000  0.29484000  0.82261000  1.0
  H  H26  1  0.52798000  0.34947000  0.32268000  1.0
  H  H27  1  0.02673000  0.70516000  0.17739000  1.0
  H  H28  1  0.86587000  0.62001000  0.72170000  1.0
  H  H29  1  0.89833000  0.64430000  0.77830000  1.0
  H  H30  1  0.13413000  0.37999000  0.27830000  1.0
  H  H31  1  0.10167000  0.35570000  0.22170000  1.0
  C  C32  1  0.51195000  0.03298000  0.89366000  1.0
  C  C33  1  0.13945000  0.11890000  0.60625000  1.0
  C  C34  1  0.48804000  0.96701000  0.10634000  1.0
  C  C35  1  0.86055000  0.88110000  0.39375000  1.0
  C  C36  1  0.49961000  0.21314000  0.92351000  1.0
  C  C37  1  0.28979000  0.07676000  0.57639000  1.0
  C  C38  1  0.50039000  0.78686000  0.07649000  1.0
  C  C39  1  0.71021000  0.92325000  0.42361000  1.0
  C  C40  1  0.63477000  0.29723000  0.96863000  1.0
  C  C41  1  0.32888000  0.16698000  0.53129000  1.0
  C  C42  1  0.36523000  0.70277000  0.03137000  1.0
  C  C43  1  0.67113000  0.83302000  0.46871000  1.0
  C  C44  1  0.77646000  0.19868000  0.98479000  1.0
  C  C45  1  0.21405000  0.29248000  0.51516000  1.0
  C  C46  1  0.22353000  0.80131000  0.01520000  1.0
  C  C47  1  0.78596000  0.70753000  0.48484000  1.0
  C  C48  1  0.78604000  0.01754000  0.95559000  1.0
  C  C49  1  0.06193000  0.33106000  0.54436000  1.0
  C  C50  1  0.21395000  0.98244000  0.04441000  1.0
  C  C51  1  0.93808000  0.66894000  0.45564000  1.0
  C  C52  1  0.65618000  0.93721000  0.91024000  1.0
  C  C53  1  0.02700000  0.24654000  0.58970000  1.0
  C  C54  1  0.34381000  0.06278000  0.08976000  1.0
  C  C55  1  0.97298000  0.75345000  0.41029000  1.0
  S  S56  1  0.35802000  0.92039000  0.83407000  1.0
  S  S57  1  0.08653000  0.02441000  0.66582000  1.0
  S  S58  1  0.64197000  0.07961000  0.16593000  1.0
  S  S59  1  0.91346000  0.97560000  0.33418000  1.0
  N  N60  1  0.07830000  0.83299000  0.83606000  1.0
  N  N61  1  0.99718333  0.74275000  0.66385000  1.0
  N  N62  1  0.92170000  0.16701000  0.16394000  1.0
  N  N63  1  0.00281667  0.25726000  0.33615000  1.0
  Cl  Cl64  1  0.95649000  0.60452000  0.87421000  1.0
  Cl  Cl65  1  0.73040000  0.58277000  0.62574000  1.0
  Cl  Cl66  1  0.04351000  0.39547000  0.12579000  1.0
  Cl  Cl67  1  0.26960000  0.41724000  0.37426000  1.0
  Cl  Cl68  1  0.32144000  0.33692000  0.90653000  1.0
  Cl  Cl69  1  0.43060000  0.91565000  0.59339000  1.0
  Cl  Cl70  1  0.67856000  0.66308000  0.09347000  1.0
  Cl  Cl71  1  0.56941000  0.08436000  0.40662000  1.0
  O  O72  1  0.41696000  0.73311000  0.81864000  1.0
  O  O73  1  0.91455000  0.09858000  0.68127000  1.0
  O  O74  1  0.58303000  0.26688000  0.18135000  1.0
  O  O75  1  0.08546000  0.90144000  0.31873000  1.0
  O  O76  1  0.43597000  0.11977000  0.80425000  1.0
  O  O77  1  0.31590000  0.13229000  0.69561000  1.0
  O  O78  1  0.56403000  0.88022000  0.19575000  1.0
  O  O79  1  0.68410000  0.86773000  0.30439000  1.0
  O  O80  1  0.38836000  0.68140000  0.70311000  1.0
  O  O81  1  0.97825000  0.18533000  0.79682000  1.0
  O  O82  1  0.61165000  0.31860000  0.29689000  1.0
  O  O83  1  0.02175000  0.81467000  0.20318000  1.0
  O  O84  1  0.78880000  0.53881000  0.75000000  1.0
  O  O85  1  0.21120000  0.46119000  0.25000000  1.0
