# generated using pymatgen
data_CuH16C16(NO)4
_symmetry_space_group_name_H-M   'P 1'
_cell_length_a   7.16160000
_cell_length_b   7.17900000
_cell_length_c   8.92246000
_cell_angle_alpha   98.31350000
_cell_angle_beta   105.81100000
_cell_angle_gamma   98.15950000
_symmetry_Int_Tables_number   1
_chemical_formula_structural   CuH16C16(NO)4
_chemical_formula_sum   'Cu1 H16 C16 N4 O4'
_cell_volume   428.74350745
_cell_formula_units_Z   1
loop_
 _symmetry_equiv_pos_site_id
 _symmetry_equiv_pos_as_xyz
  1  'x, y, z'
loop_
 _atom_site_type_symbol
 _atom_site_label
 _atom_site_symmetry_multiplicity
 _atom_site_fract_x
 _atom_site_fract_y
 _atom_site_fract_z
 _atom_site_occupancy
  Cu  Cu0  1  0.00000000  0.00000000  0.00000000  1.0
  H  H1  1  0.10689000  0.21716000  0.56945000  1.0
  H  H2  1  0.89310000  0.78284000  0.43054000  1.0
  H  H3  1  0.26374000  0.05544000  0.53573000  1.0
  H  H4  1  0.73626000  0.94456000  0.46428000  1.0
  H  H5  1  0.18142000  0.55877000  0.53947000  1.0
  H  H6  1  0.81858000  0.44122000  0.46053000  1.0
  H  H7  1  0.57145000  0.17076000  0.46936000  1.0
  H  H8  1  0.42855000  0.82923000  0.53065000  1.0
  H  H9  1  0.36414000  0.33512000  0.21421000  1.0
  H  H10  1  0.63587000  0.66488000  0.78579000  1.0
  H  H11  1  0.43332000  0.65295000  0.12607000  1.0
  H  H12  1  0.56668000  0.34705000  0.87392000  1.0
  H  H13  1  0.19836000  0.65824000  0.85165000  1.0
  H  H14  1  0.80163000  0.34176000  0.14835000  1.0
  H  H15  1  0.95851000  0.29543000  0.76277000  1.0
  H  H16  1  0.04148000  0.70457000  0.23723000  1.0
  C  C17  1  0.06995000  0.11437000  0.32241000  1.0
  C  C18  1  0.93002000  0.88564000  0.67758000  1.0
  C  C19  1  0.20017000  0.17673000  0.49601000  1.0
  C  C20  1  0.79983000  0.82326000  0.50399000  1.0
  C  C21  1  0.35874000  0.34397000  0.50619000  1.0
  C  C22  1  0.64126000  0.65602000  0.49382000  1.0
  C  C23  1  0.32031000  0.53105000  0.52108000  1.0
  C  C24  1  0.67969000  0.46895000  0.47892000  1.0
  C  C25  1  0.54057000  0.31555000  0.48520000  1.0
  C  C26  1  0.45944000  0.68445000  0.51481000  1.0
  C  C27  1  0.28566000  0.37055000  0.10318000  1.0
  C  C28  1  0.71434000  0.62945000  0.89681000  1.0
  C  C29  1  0.19943000  0.53588000  0.91068000  1.0
  C  C30  1  0.80056000  0.46412000  0.08932000  1.0
  C  C31  1  0.08147000  0.35683000  0.86792000  1.0
  C  C32  1  0.91853000  0.64317000  0.13209000  1.0
  N  N33  1  0.13647000  0.25552000  0.98863000  1.0
  N  N34  1  0.86352000  0.74448000  0.01137000  1.0
  N  N35  1  0.32593000  0.54087000  0.05940000  1.0
  N  N36  1  0.67407000  0.45913000  0.94061000  1.0
  O  O37  1  0.15784000  0.03605000  0.22737000  1.0
  O  O38  1  0.84217000  0.96394000  0.77262000  1.0
  O  O39  1  0.89813000  0.14631000  0.28196000  1.0
  O  O40  1  0.10191000  0.85368000  0.71804000  1.0
