# generated using pymatgen
data_ZnH8C12N2O5
_symmetry_space_group_name_H-M   'P 1'
_cell_length_a   8.24975000
_cell_length_b   12.03340000
_cell_length_c   12.62000000
_cell_angle_alpha   98.79550000
_cell_angle_beta   90.00000000
_cell_angle_gamma   90.00000000
_symmetry_Int_Tables_number   1
_chemical_formula_structural   ZnH8C12N2O5
_chemical_formula_sum   'Zn4 H32 C48 N8 O20'
_cell_volume   1238.08681205
_cell_formula_units_Z   4
loop_
 _symmetry_equiv_pos_site_id
 _symmetry_equiv_pos_as_xyz
  1  'x, y, z'
loop_
 _atom_site_type_symbol
 _atom_site_label
 _atom_site_symmetry_multiplicity
 _atom_site_fract_x
 _atom_site_fract_y
 _atom_site_fract_z
 _atom_site_occupancy
  Zn  Zn0  1  0.92694000  0.51988000  0.69396000  1.0
  Zn  Zn1  1  0.42694000  0.98012000  0.80604000  1.0
  Zn  Zn2  1  0.07306000  0.48012000  0.30604000  1.0
  Zn  Zn3  1  0.57306000  0.01988000  0.19396000  1.0
  H  H4  1  0.18248000  0.55298000  0.57943000  1.0
  H  H5  1  0.68248000  0.94702000  0.92057000  1.0
  H  H6  1  0.81752000  0.44702000  0.42057000  1.0
  H  H7  1  0.31752000  0.05298000  0.07943000  1.0
  H  H8  1  0.04496000  0.62550000  0.53856000  1.0
  H  H9  1  0.54496000  0.87450000  0.96144000  1.0
  H  H10  1  0.95504000  0.37450000  0.46144000  1.0
  H  H11  1  0.45504000  0.12550000  0.03856000  1.0
  H  H12  1  0.57221000  0.31664000  0.03620000  1.0
  H  H13  1  0.07222000  0.18336000  0.46381000  1.0
  H  H14  1  0.42779000  0.68336000  0.96381000  1.0
  H  H15  1  0.92778000  0.81665000  0.53620000  1.0
  H  H16  1  0.70092000  0.50618000  0.07476000  1.0
  H  H17  1  0.20092000  0.99382000  0.42524000  1.0
  H  H18  1  0.29908000  0.49382000  0.92524000  1.0
  H  H19  1  0.79908000  0.00618000  0.57476000  1.0
  H  H20  1  0.76210000  0.28739000  0.71530000  1.0
  H  H21  1  0.26210000  0.21261000  0.78470000  1.0
  H  H22  1  0.23790000  0.71261000  0.28470000  1.0
  H  H23  1  0.73790000  0.78739000  0.21530000  1.0
  H  H24  1  0.82253000  0.65806000  0.09469000  1.0
  H  H25  1  0.32253000  0.84194000  0.40531000  1.0
  H  H26  1  0.17747000  0.34194000  0.90531000  1.0
  H  H27  1  0.67746000  0.15806000  0.59469000  1.0
  H  H28  1  0.97471000  0.84060000  0.10505000  1.0
  H  H29  1  0.47471000  0.65940000  0.39495000  1.0
  H  H30  1  0.02529000  0.15940000  0.89495000  1.0
  H  H31  1  0.52529000  0.34060000  0.60505000  1.0
  H  H32  1  0.09307000  0.74814000  0.77132000  1.0
  H  H33  1  0.59307000  0.75186000  0.72868000  1.0
  H  H34  1  0.90693000  0.25186000  0.22868000  1.0
  H  H35  1  0.40693000  0.24814000  0.27132000  1.0
  C  C36  1  0.59400000  0.16938000  0.84217000  1.0
  C  C37  1  0.09400000  0.33062000  0.65784000  1.0
  C  C38  1  0.40600000  0.83062000  0.15784000  1.0
  C  C39  1  0.90600000  0.66938000  0.34216000  1.0
  C  C40  1  0.65914000  0.28586000  0.87267000  1.0
  C  C41  1  0.15914000  0.21414000  0.62733000  1.0
  C  C42  1  0.34086000  0.71414000  0.12733000  1.0
  C  C43  1  0.84086000  0.78586000  0.37267000  1.0
  C  C44  1  0.63994000  0.35029000  0.97404000  1.0
  C  C45  1  0.13994000  0.14971000  0.52596000  1.0
  C  C46  1  0.36006000  0.64971000  0.02596000  1.0
  C  C47  1  0.86006000  0.85029000  0.47404000  1.0
  C  C48  1  0.71001000  0.45672000  0.99509000  1.0
  C  C49  1  0.21001000  0.04328000  0.50491000  1.0
  C  C50  1  0.28999000  0.54328000  0.00491000  1.0
  C  C51  1  0.78999000  0.95672000  0.49509000  1.0
  C  C52  1  0.79302000  0.49864000  0.91250000  1.0
  C  C53  1  0.29302000  0.00136000  0.58750000  1.0
  C  C54  1  0.20698000  0.50136000  0.08750000  1.0
  C  C55  1  0.70698000  0.99864000  0.41250000  1.0
  C  C56  1  0.74360000  0.33418000  0.79528000  1.0
  C  C57  1  0.24360000  0.16582000  0.70472000  1.0
  C  C58  1  0.25640000  0.66582000  0.20472000  1.0
  C  C59  1  0.75640000  0.83418000  0.29528000  1.0
  C  C60  1  0.87466000  0.60930000  0.92581000  1.0
  C  C61  1  0.37466000  0.89070000  0.57419000  1.0
  C  C62  1  0.12534000  0.39070000  0.07419000  1.0
  C  C63  1  0.62534000  0.10930000  0.42581000  1.0
  C  C64  1  0.87930000  0.68188000  0.02356000  1.0
  C  C65  1  0.37930000  0.81812000  0.47644000  1.0
  C  C66  1  0.12070000  0.31812000  0.97644000  1.0
  C  C67  1  0.62069000  0.18188000  0.52356000  1.0
  C  C68  1  0.96530000  0.78211000  0.03028000  1.0
  C  C69  1  0.46529000  0.71789000  0.46972000  1.0
  C  C70  1  0.03471000  0.21789000  0.96972000  1.0
  C  C71  1  0.53470000  0.28211000  0.53028000  1.0
  C  C72  1  0.04584000  0.80769000  0.93983000  1.0
  C  C73  1  0.54583000  0.69231000  0.56017000  1.0
  C  C74  1  0.95416000  0.19231000  0.06017000  1.0
  C  C75  1  0.45416000  0.30769000  0.43983000  1.0
  C  C76  1  0.03281000  0.73205000  0.84432000  1.0
  C  C77  1  0.53281000  0.76795000  0.65568000  1.0
  C  C78  1  0.96719000  0.26795000  0.15568000  1.0
  C  C79  1  0.46719000  0.23205000  0.34432000  1.0
  C  C80  1  0.15513000  0.90866000  0.94604000  1.0
  C  C81  1  0.65513000  0.59134000  0.55396000  1.0
  C  C82  1  0.84487000  0.09134000  0.05396000  1.0
  C  C83  1  0.34487000  0.40866000  0.44604000  1.0
  N  N84  1  0.80540000  0.43747000  0.81384000  1.0
  N  N85  1  0.30540000  0.06254000  0.68616000  1.0
  N  N86  1  0.19460000  0.56253000  0.18616000  1.0
  N  N87  1  0.69460000  0.93747000  0.31384000  1.0
  N  N88  1  0.94999000  0.63575000  0.83761000  1.0
  N  N89  1  0.45000000  0.86425000  0.66239000  1.0
  N  N90  1  0.05001000  0.36425000  0.16238000  1.0
  N  N91  1  0.55001000  0.13575000  0.33762000  1.0
  O  O92  1  0.47956000  0.13766000  0.90094000  1.0
  O  O93  1  0.97957000  0.36234000  0.59906000  1.0
  O  O94  1  0.52044000  0.86234000  0.09906000  1.0
  O  O95  1  0.02043000  0.63766000  0.40094000  1.0
  O  O96  1  0.64684000  0.10873000  0.75949000  1.0
  O  O97  1  0.14685000  0.39128000  0.74051000  1.0
  O  O98  1  0.35315000  0.89127000  0.24051000  1.0
  O  O99  1  0.85316000  0.60873000  0.25949000  1.0
  O  O100  1  0.21795000  0.92302000  0.85632000  1.0
  O  O101  1  0.71795000  0.57698000  0.64368000  1.0
  O  O102  1  0.78205000  0.07698000  0.14368000  1.0
  O  O103  1  0.28205000  0.42302000  0.35632000  1.0
  O  O104  1  0.17795000  0.96568000  0.03686000  1.0
  O  O105  1  0.67795000  0.53432000  0.46314000  1.0
  O  O106  1  0.82205000  0.03432000  0.96314000  1.0
  O  O107  1  0.32205000  0.46568000  0.53686000  1.0
  O  O108  1  0.08848000  0.60450000  0.60601000  1.0
  O  O109  1  0.58848000  0.89550000  0.89399000  1.0
  O  O110  1  0.91152000  0.39550000  0.39399000  1.0
  O  O111  1  0.41152000  0.10450000  0.10601000  1.0
