# generated using pymatgen
data_Zn4H32C55O13
_symmetry_space_group_name_H-M   'P 1'
_cell_length_a   15.36210000
_cell_length_b   15.64750000
_cell_length_c   17.91460000
_cell_angle_alpha   67.34550000
_cell_angle_beta   88.80100000
_cell_angle_gamma   71.57070000
_symmetry_Int_Tables_number   1
_chemical_formula_structural   Zn4H32C55O13
_chemical_formula_sum   'Zn4 H32 C55 O13'
_cell_volume   3745.12723197
_cell_formula_units_Z   1
loop_
 _symmetry_equiv_pos_site_id
 _symmetry_equiv_pos_as_xyz
  1  'x, y, z'
loop_
 _atom_site_type_symbol
 _atom_site_label
 _atom_site_symmetry_multiplicity
 _atom_site_fract_x
 _atom_site_fract_y
 _atom_site_fract_z
 _atom_site_occupancy
  Zn  Zn0  1  0.43245000  0.57191000  0.56500000  1.0
  Zn  Zn1  1  0.52924000  0.59193000  0.40537000  1.0
  Zn  Zn2  1  0.42738000  0.44216000  0.46139000  1.0
  Zn  Zn3  1  0.61225000  0.38931000  0.57063000  1.0
  H  H4  1  0.68830000  0.26738000  0.09237000  1.0
  H  H5  1  0.41899000  0.20299000  0.31293000  1.0
  H  H6  1  0.38024000  0.08031000  0.28243000  1.0
  H  H7  1  0.51838000  0.82612000  0.55863000  1.0
  H  H8  1  0.65563000  0.08450000  0.67317000  1.0
  H  H9  1  0.58659000  0.86179000  0.62806000  1.0
  H  H10  1  0.66493000  0.90905000  0.71602000  1.0
  H  H11  1  0.48694000  0.25197000  0.40521000  1.0
  H  H12  1  0.31076000  0.72571000  0.17901000  1.0
  H  H13  1  0.31520000  0.73058000  0.91116000  1.0
  H  H14  1  0.72809000  0.23274000  0.97121000  1.0
  H  H15  1  0.28023000  0.76887000  0.03062000  1.0
  H  H16  1  0.69632000  0.27518000  0.82268000  1.0
  H  H17  1  0.46881000  0.52988000  0.80035000  1.0
  H  H18  1  0.59107000  0.36921000  0.15702000  1.0
  H  H19  1  0.40485000  0.62245000  0.84804000  1.0
  H  H20  1  0.94067000  0.53767000  0.27142000  1.0
  H  H21  1  0.34225000  0.43584000  0.84422000  1.0
  H  H22  1  0.27553000  0.55891000  0.82548000  1.0
  H  H23  1  0.25861000  0.46111000  0.90966000  1.0
  H  H24  1  0.13153000  0.52794000  0.79584000  1.0
  H  H25  1  0.19671000  0.40496000  0.81449000  1.0
  H  H26  1  0.78855000  0.51710000  0.30835000  1.0
  H  H27  1  0.29167000  0.46591000  0.70167000  1.0
  H  H28  1  0.22431000  0.58673000  0.68158000  1.0
  H  H29  1  0.05452000  0.48177000  0.72681000  1.0
  H  H30  1  0.08385000  0.55561000  0.30570000  1.0
  H  H31  1  0.86138000  0.46805000  0.55464000  1.0
  H  H32  1  0.94743000  0.47548000  0.63300000  1.0
  H  H33  1  0.19234000  0.55546000  0.40322000  1.0
  H  H34  1  0.39147000  0.90574000  0.31977000  1.0
  H  H35  1  0.50395000  0.44455000  0.20977000  1.0
  C  C36  1  0.72604000  0.48248000  0.45519000  1.0
  C  C37  1  0.41700000  0.59926000  0.91364000  1.0
  C  C38  1  0.36660000  0.66011000  0.94864000  1.0
  C  C39  1  0.26850000  0.52540000  0.53948000  1.0
  C  C40  1  0.38037000  0.63387000  0.03401000  1.0
  C  C41  1  0.44717000  0.54145000  0.08392000  1.0
  C  C42  1  0.33052000  0.69849000  0.06975000  1.0
  C  C43  1  0.34631000  0.67450000  0.15192000  1.0
  C  C44  1  0.45674000  0.51571000  0.16890000  1.0
  C  C45  1  0.92237000  0.52398000  0.33318000  1.0
  C  C46  1  0.81791000  0.49136000  0.43425000  1.0
  C  C47  1  0.65409000  0.32105000  0.85176000  1.0
  C  C48  1  0.15513000  0.50966000  0.64266000  1.0
  C  C49  1  0.07141000  0.49315000  0.66513000  1.0
  C  C50  1  0.01048000  0.48947000  0.61159000  1.0
  C  C51  1  0.46448000  0.75301000  0.46199000  1.0
  C  C52  1  0.02807000  0.50386000  0.53082000  1.0
  C  C53  1  0.11218000  0.52090000  0.50610000  1.0
  C  C54  1  0.96401000  0.50260000  0.47280000  1.0
  C  C55  1  0.98531000  0.52143000  0.39118000  1.0
  C  C56  1  0.06910000  0.54022000  0.36854000  1.0
  C  C57  1  0.12957000  0.54022000  0.42314000  1.0
  C  C58  1  0.52530000  0.46599000  0.83955000  1.0
  C  C59  1  0.88031000  0.48489000  0.49296000  1.0
  C  C60  1  0.83880000  0.51181000  0.35333000  1.0
  C  C61  1  0.17538000  0.52128000  0.56332000  1.0
  C  C62  1  0.41215000  0.02400000  0.34243000  1.0
  C  C63  1  0.55878000  0.23859000  0.54442000  1.0
  C  C64  1  0.45578000  0.85724000  0.44199000  1.0
  C  C65  1  0.62289000  0.06230000  0.63371000  1.0
  C  C66  1  0.62744000  0.96432000  0.65759000  1.0
  C  C67  1  0.58316000  0.93806000  0.60769000  1.0
  C  C68  1  0.53526000  0.00741000  0.53092000  1.0
  C  C69  1  0.54182000  0.44523000  0.92284000  1.0
  C  C70  1  0.53129000  0.10739000  0.50564000  1.0
  C  C71  1  0.49184000  0.97936000  0.47673000  1.0
  C  C72  1  0.45029000  0.05120000  0.39751000  1.0
  C  C73  1  0.45018000  0.14930000  0.37400000  1.0
  C  C74  1  0.48845000  0.17652000  0.42546000  1.0
  C  C75  1  0.42823000  0.55663000  0.29063000  1.0
  C  C76  1  0.49027000  0.88307000  0.49817000  1.0
  C  C77  1  0.41720000  0.92809000  0.36297000  1.0
  C  C78  1  0.57360000  0.13368000  0.56018000  1.0
  C  C79  1  0.55700000  0.43017000  0.71626000  1.0
  C  C80  1  0.61572000  0.35815000  0.97104000  1.0
  C  C81  1  0.57935000  0.40533000  0.80434000  1.0
  C  C82  1  0.40879000  0.58125000  0.20211000  1.0
  C  C83  1  0.67127000  0.29820000  0.93362000  1.0
  C  C84  1  0.22099000  0.51178000  0.70322000  1.0
  C  C85  1  0.19999000  0.48001000  0.79171000  1.0
  C  C86  1  0.27297000  0.48393000  0.84588000  1.0
  C  C87  1  0.48654000  0.50791000  0.96065000  1.0
  C  C88  1  0.50289000  0.47921000  0.04595000  1.0
  C  C89  1  0.57655000  0.39090000  0.09188000  1.0
  C  C90  1  0.63144000  0.33348000  0.05599000  1.0
  O  O91  1  0.50195000  0.49745000  0.50394000  1.0
  O  O92  1  0.45045000  0.61971000  0.30737000  1.0
  O  O93  1  0.61282000  0.37764000  0.68436000  1.0
  O  O94  1  0.42193000  0.47594000  0.34246000  1.0
  O  O95  1  0.48314000  0.50205000  0.68009000  1.0
  O  O96  1  0.44708000  0.70223000  0.53209000  1.0
  O  O97  1  0.62240000  0.25935000  0.57162000  1.0
  O  O98  1  0.65967000  0.53146000  0.39697000  1.0
  O  O99  1  0.30937000  0.46756000  0.50556000  1.0
  O  O100  1  0.71981000  0.42875000  0.52835000  1.0
  O  O101  1  0.30088000  0.58306000  0.55552000  1.0
  O  O102  1  0.48979000  0.72339000  0.40521000  1.0
  O  O103  1  0.48036000  0.29954000  0.50725000  1.0
