# generated using pymatgen
data_CuH6C5(NO)3
_symmetry_space_group_name_H-M   'P 1'
_cell_length_a   6.42046000
_cell_length_b   7.18887000
_cell_length_c   8.55277000
_cell_angle_alpha   90.62950000
_cell_angle_beta   100.77300000
_cell_angle_gamma   101.76500000
_symmetry_Int_Tables_number   1
_chemical_formula_structural   CuH6C5(NO)3
_chemical_formula_sum   'Cu2 H12 C10 N6 O6'
_cell_volume   379.16091835
_cell_formula_units_Z   2
loop_
 _symmetry_equiv_pos_site_id
 _symmetry_equiv_pos_as_xyz
  1  'x, y, z'
loop_
 _atom_site_type_symbol
 _atom_site_label
 _atom_site_symmetry_multiplicity
 _atom_site_fract_x
 _atom_site_fract_y
 _atom_site_fract_z
 _atom_site_occupancy
  Cu  Cu0  1  0.50001000  0.50000000  0.50000000  1.0
  Cu  Cu1  1  0.00000000  0.49999000  0.50000000  1.0
  H  H2  1  0.14844000  0.98742000  0.81324000  1.0
  H  H3  1  0.85156000  0.01258000  0.18675000  1.0
  H  H4  1  0.72680000  0.76900000  0.95926000  1.0
  H  H5  1  0.27319000  0.23099000  0.04073000  1.0
  H  H6  1  0.97898000  0.64342000  0.12989000  1.0
  H  H7  1  0.02103000  0.35658000  0.87011000  1.0
  H  H8  1  0.11603000  0.44893000  0.16141000  1.0
  H  H9  1  0.88397000  0.55107000  0.83859000  1.0
  H  H10  1  0.26428000  0.67925000  0.12657000  1.0
  H  H11  1  0.73573000  0.32075000  0.87343000  1.0
  H  H12  1  0.19188000  0.78406000  0.37035000  1.0
  H  H13  1  0.80811000  0.21593000  0.62966000  1.0
  C  C14  1  0.35896000  0.71640000  0.73788000  1.0
  C  C15  1  0.64104000  0.28359000  0.26212000  1.0
  C  C16  1  0.43032000  0.86259000  0.87381000  1.0
  C  C17  1  0.56967000  0.13740000  0.12619000  1.0
  C  C18  1  0.30135000  0.99286000  0.89578000  1.0
  C  C19  1  0.69864000  0.00714000  0.10421000  1.0
  C  C20  1  0.62867000  0.87093000  0.97839000  1.0
  C  C21  1  0.37132000  0.12907000  0.02159000  1.0
  C  C22  1  0.13213000  0.60209000  0.18090000  1.0
  C  C23  1  0.86787000  0.39791000  0.81910000  1.0
  N  N24  1  0.26873000  0.28803000  0.54468000  1.0
  N  N25  1  0.73127000  0.71198000  0.45532000  1.0
  N  N26  1  0.22400000  0.14620000  0.45979000  1.0
  N  N27  1  0.77601000  0.85382000  0.54023000  1.0
  N  N28  1  0.17458000  0.00872000  0.37564000  1.0
  N  N29  1  0.82543000  0.99128000  0.62439000  1.0
  O  O30  1  0.50262000  0.63364000  0.70295000  1.0
  O  O31  1  0.49739000  0.36636000  0.29705000  1.0
  O  O32  1  0.15994000  0.68852000  0.66814000  1.0
  O  O33  1  0.84006000  0.31147000  0.33185000  1.0
  O  O34  1  0.18515000  0.64356000  0.35068000  1.0
  O  O35  1  0.81485000  0.35644000  0.64932000  1.0
