# generated using pymatgen
data_CdH8C10N3O5
_symmetry_space_group_name_H-M   'P 1'
_cell_length_a   7.71266000
_cell_length_b   11.69220000
_cell_length_c   12.69900000
_cell_angle_alpha   90.00000000
_cell_angle_beta   90.00000000
_cell_angle_gamma   93.63750000
_symmetry_Int_Tables_number   1
_chemical_formula_structural   CdH8C10N3O5
_chemical_formula_sum   'Cd4 H32 C40 N12 O20'
_cell_volume   1142.86291698
_cell_formula_units_Z   4
loop_
 _symmetry_equiv_pos_site_id
 _symmetry_equiv_pos_as_xyz
  1  'x, y, z'
loop_
 _atom_site_type_symbol
 _atom_site_label
 _atom_site_symmetry_multiplicity
 _atom_site_fract_x
 _atom_site_fract_y
 _atom_site_fract_z
 _atom_site_occupancy
  Cd  Cd0  1  0.39511000  0.15917000  0.72803000  1.0
  Cd  Cd1  1  0.10489000  0.34083000  0.22803000  1.0
  Cd  Cd2  1  0.60489000  0.84083000  0.27197000  1.0
  Cd  Cd3  1  0.89511000  0.65917000  0.77197000  1.0
  H  H4  1  0.34396000  0.57765000  0.56595000  1.0
  H  H5  1  0.15604000  0.92235000  0.06594000  1.0
  H  H6  1  0.65604000  0.42235000  0.43406000  1.0
  H  H7  1  0.84396000  0.07765000  0.93406000  1.0
  H  H8  1  0.39457000  0.08876000  0.95283000  1.0
  H  H9  1  0.10543000  0.41124000  0.45283000  1.0
  H  H10  1  0.60543000  0.91124000  0.04717000  1.0
  H  H11  1  0.89457000  0.58876000  0.54717000  1.0
  H  H12  1  0.57412000  0.05460000  0.90818000  1.0
  H  H13  1  0.92588000  0.44540000  0.40818000  1.0
  H  H14  1  0.42588000  0.94540000  0.09182000  1.0
  H  H15  1  0.07412000  0.55460000  0.59182000  1.0
  H  H16  1  0.75283000  0.35251000  0.84253000  1.0
  H  H17  1  0.74717000  0.14749000  0.34253000  1.0
  H  H18  1  0.24717000  0.64749000  0.15747000  1.0
  H  H19  1  0.25283000  0.85251000  0.65747000  1.0
  H  H20  1  0.54423000  0.91919000  0.64264000  1.0
  H  H21  1  0.95577000  0.58081000  0.14264000  1.0
  H  H22  1  0.45577000  0.08081000  0.35736000  1.0
  H  H23  1  0.04423000  0.41919000  0.85736000  1.0
  H  H24  1  0.79009000  0.84931000  0.54766000  1.0
  H  H25  1  0.70991000  0.65069000  0.04766000  1.0
  H  H26  1  0.20991000  0.15069000  0.45234000  1.0
  H  H27  1  0.29009000  0.34931000  0.95234000  1.0
  H  H28  1  0.00181000  0.20216000  0.52818000  1.0
  H  H29  1  0.49819000  0.29784000  0.02818000  1.0
  H  H30  1  0.99819000  0.79784000  0.47182000  1.0
  H  H31  1  0.50181000  0.70216000  0.97182000  1.0
  H  H32  1  0.73871000  0.25758000  0.61864000  1.0
  H  H33  1  0.76129000  0.24242000  0.11864000  1.0
  H  H34  1  0.26129000  0.74242000  0.38136000  1.0
  H  H35  1  0.23871000  0.75758000  0.88136000  1.0
  C  C36  1  0.46119000  0.42034000  0.67734000  1.0
  C  C37  1  0.03881000  0.07966000  0.17734000  1.0
  C  C38  1  0.53881000  0.57966000  0.32266000  1.0
  C  C39  1  0.96119000  0.92034000  0.82266000  1.0
  C  C40  1  0.55821000  0.52480000  0.69169000  1.0
  C  C41  1  0.94179000  0.97520000  0.19169000  1.0
  C  C42  1  0.44179000  0.47520000  0.30831000  1.0
  C  C43  1  0.05821000  0.02480000  0.80831000  1.0
  C  C44  1  0.66980000  0.39489000  0.78772000  1.0
  C  C45  1  0.83020000  0.10511000  0.28772000  1.0
  C  C46  1  0.33020000  0.60511000  0.21228000  1.0
  C  C47  1  0.16980000  0.89489000  0.71228000  1.0
  C  C48  1  0.31518000  0.38549000  0.60656000  1.0
  C  C49  1  0.18482000  0.11451000  0.10656000  1.0
  C  C50  1  0.68482000  0.61451000  0.39344000  1.0
  C  C51  1  0.81518000  0.88549000  0.89344000  1.0
  C  C52  1  0.54182000  0.63989000  0.64781000  1.0
  C  C53  1  0.95818000  0.86011000  0.14781000  1.0
  C  C54  1  0.45818000  0.36011000  0.35219000  1.0
  C  C55  1  0.04182000  0.13989000  0.85219000  1.0
  C  C56  1  0.64641000  0.98027000  0.61470000  1.0
  C  C57  1  0.85359000  0.51973000  0.11470000  1.0
  C  C58  1  0.35359000  0.01973000  0.38530000  1.0
  C  C59  1  0.14641000  0.48027000  0.88530000  1.0
  C  C60  1  0.78845000  0.94094000  0.56153000  1.0
  C  C61  1  0.71155000  0.55906000  0.06153000  1.0
  C  C62  1  0.21156000  0.05906000  0.43847000  1.0
  C  C63  1  0.28845000  0.44094000  0.93847000  1.0
  C  C64  1  0.92280000  0.01910000  0.52813000  1.0
  C  C65  1  0.57720000  0.48090000  0.02813000  1.0
  C  C66  1  0.07720000  0.98090000  0.47187000  1.0
  C  C67  1  0.42280000  0.51910000  0.97187000  1.0
  C  C68  1  0.90390000  0.13540000  0.55020000  1.0
  C  C69  1  0.59610000  0.36460000  0.05020000  1.0
  C  C70  1  0.09610000  0.86460000  0.44979000  1.0
  C  C71  1  0.40390000  0.63540000  0.94980000  1.0
  C  C72  1  0.75659000  0.16774000  0.60218000  1.0
  C  C73  1  0.74341000  0.33226000  0.10218000  1.0
  C  C74  1  0.24341000  0.83226000  0.39782000  1.0
  C  C75  1  0.25659000  0.66774000  0.89782000  1.0
  N  N76  1  0.53331000  0.33999000  0.73925000  1.0
  N  N77  1  0.96669000  0.16001000  0.23925000  1.0
  N  N78  1  0.46669000  0.66001000  0.26075000  1.0
  N  N79  1  0.03331000  0.83999000  0.76075000  1.0
  N  N80  1  0.69035000  0.50660000  0.76145000  1.0
  N  N81  1  0.80965000  0.99340000  0.26145000  1.0
  N  N82  1  0.30965000  0.49340000  0.23855000  1.0
  N  N83  1  0.19035000  0.00660000  0.73855000  1.0
  N  N84  1  0.62882000  0.09198000  0.63502000  1.0
  N  N85  1  0.87118000  0.40802000  0.13502000  1.0
  N  N86  1  0.37118000  0.90802000  0.36498000  1.0
  N  N87  1  0.12882000  0.59198000  0.86498000  1.0
  O  O88  1  0.26386000  0.28153000  0.60023000  1.0
  O  O89  1  0.23614000  0.21847000  0.10023000  1.0
  O  O90  1  0.73614000  0.71847000  0.39977000  1.0
  O  O91  1  0.76386000  0.78153000  0.89977000  1.0
  O  O92  1  0.24815000  0.46538000  0.55109000  1.0
  O  O93  1  0.25185000  0.03462000  0.05109000  1.0
  O  O94  1  0.75185000  0.53462000  0.44891000  1.0
  O  O95  1  0.74815000  0.96538000  0.94891000  1.0
  O  O96  1  0.64479000  0.72159000  0.67305000  1.0
  O  O97  1  0.85521000  0.77841000  0.17305000  1.0
  O  O98  1  0.35521000  0.27841000  0.32695000  1.0
  O  O99  1  0.14479000  0.22159000  0.82695000  1.0
  O  O100  1  0.41392000  0.65563000  0.58096000  1.0
  O  O101  1  0.08608000  0.84437000  0.08096000  1.0
  O  O102  1  0.58608000  0.34437000  0.41904000  1.0
  O  O103  1  0.91392000  0.15563000  0.91904000  1.0
  O  O104  1  0.48714000  0.11218000  0.90101000  1.0
  O  O105  1  0.01286000  0.38782000  0.40101000  1.0
  O  O106  1  0.51286000  0.88782000  0.09899000  1.0
  O  O107  1  0.98714000  0.61218000  0.59899000  1.0
