# generated using pymatgen
data_ZnH21C29NCl6O11
_symmetry_space_group_name_H-M   'P 1'
_cell_length_a   13.68290000
_cell_length_b   18.66400000
_cell_length_c   19.55190000
_cell_angle_alpha   89.27900000
_cell_angle_beta   89.69850000
_cell_angle_gamma   81.26190000
_symmetry_Int_Tables_number   1
_chemical_formula_structural   ZnH21C29NCl6O11
_chemical_formula_sum   'Zn2 H42 C58 N2 Cl12 O22'
_cell_volume   4934.74438702
_cell_formula_units_Z   2
loop_
 _symmetry_equiv_pos_site_id
 _symmetry_equiv_pos_as_xyz
  1  'x, y, z'
loop_
 _atom_site_type_symbol
 _atom_site_label
 _atom_site_symmetry_multiplicity
 _atom_site_fract_x
 _atom_site_fract_y
 _atom_site_fract_z
 _atom_site_occupancy
  Zn  Zn0  1  0.50073000  0.41967000  0.50034000  1.0
  Zn  Zn1  1  0.50010000  0.58045000  0.50445000  1.0
  H  H2  1  0.97672000  0.32307000  0.45660000  1.0
  H  H3  1  0.97095000  0.31619000  0.54810000  1.0
  H  H4  1  0.08458000  0.28404000  0.50381000  1.0
  H  H5  1  0.02125000  0.65022000  0.45344000  1.0
  H  H6  1  0.03506000  0.66026000  0.54375000  1.0
  H  H7  1  0.91732000  0.69026000  0.50375000  1.0
  H  H8  1  0.49334000  0.15789000  0.67259000  1.0
  H  H9  1  0.57390000  0.22551000  0.67309000  1.0
  H  H10  1  0.62055000  0.13330000  0.69683000  1.0
  H  H11  1  0.50873000  0.91047000  0.64157000  1.0
  H  H12  1  0.51169000  0.82632000  0.68829000  1.0
  H  H13  1  0.41061000  0.89864000  0.69981000  1.0
  H  H14  1  0.73535000  0.31270000  0.61718000  1.0
  H  H15  1  0.73404000  0.30022000  0.52658000  1.0
  H  H16  1  0.73239000  0.22326000  0.58409000  1.0
  H  H17  1  0.45795000  0.70198000  0.68434000  1.0
  H  H18  1  0.35771000  0.65205000  0.67695000  1.0
  H  H19  1  0.33297000  0.74990000  0.67510000  1.0
  H  H20  1  0.73736000  0.95693000  0.58614000  1.0
  H  H21  1  0.68342000  0.87747000  0.60859000  1.0
  H  H22  1  0.79796000  0.86870000  0.56204000  1.0
  H  H23  1  0.32693000  0.12333000  0.60918000  1.0
  H  H24  1  0.26283000  0.04757000  0.59346000  1.0
  H  H25  1  0.20853000  0.13748000  0.56791000  1.0
  H  H26  1  0.46517000  0.33097000  0.14744000  1.0
  H  H27  1  0.56698000  0.30899000  0.08892000  1.0
  H  H28  1  0.47730000  0.38784000  0.07407000  1.0
  H  H29  1  0.67300000  0.68886000  0.79515000  1.0
  H  H30  1  0.74495000  0.60327000  0.81769000  1.0
  H  H31  1  0.70913000  0.66882000  0.88264000  1.0
  H  H32  1  0.47811000  0.32814000  0.28866000  1.0
  H  H33  1  0.58885000  0.29441000  0.33430000  1.0
  H  H34  1  0.59112000  0.29753000  0.24237000  1.0
  H  H35  1  0.69522000  0.64492000  0.63249000  1.0
  H  H36  1  0.68473000  0.55158000  0.62795000  1.0
  H  H37  1  0.76165000  0.58222000  0.69262000  1.0
  H  H38  1  0.50997000  0.09881000  0.35722000  1.0
  H  H39  1  0.47797000  0.18297000  0.31090000  1.0
  H  H40  1  0.39924000  0.11429000  0.30688000  1.0
  H  H41  1  0.46408000  0.86672000  0.34319000  1.0
  H  H42  1  0.53332000  0.78015000  0.32125000  1.0
  H  H43  1  0.58044000  0.86206000  0.29883000  1.0
  C  C44  1  0.52934000  0.49982000  0.63314000  1.0
  C  C45  1  0.48766000  0.50856000  0.37186000  1.0
  C  C46  1  0.53589000  0.45151000  0.25821000  1.0
  C  C47  1  0.57829000  0.55513000  0.74350000  1.0
  C  C48  1  0.49052000  0.51251000  0.29451000  1.0
  C  C49  1  0.54189000  0.49782000  0.71015000  1.0
  C  C50  1  0.60375000  0.51133000  0.04341000  1.0
  C  C51  1  0.43573000  0.52457000  0.96073000  1.0
  C  C52  1  0.61352000  0.50540000  0.97204000  1.0
  C  C53  1  0.42599000  0.52383000  0.03221000  1.0
  C  C54  1  0.52984000  0.51227000  0.92985000  1.0
  C  C55  1  0.50979000  0.51813000  0.07443000  1.0
  C  C56  1  0.43010000  0.27459000  0.45213000  1.0
  C  C57  1  0.56044000  0.72675000  0.45752000  1.0
  C  C58  1  0.43946000  0.19883000  0.44594000  1.0
  C  C59  1  0.55264000  0.80250000  0.45335000  1.0
  C  C60  1  0.49663000  0.15476000  0.49465000  1.0
  C  C61  1  0.50342000  0.84376000  0.50645000  1.0
  C  C62  1  0.54830000  0.18852000  0.54360000  1.0
  C  C63  1  0.45740000  0.80800000  0.55828000  1.0
  C  C64  1  0.54764000  0.26389000  0.53822000  1.0
  C  C65  1  0.45464000  0.73306000  0.55177000  1.0
  C  C66  1  0.68883000  0.46960000  0.49168000  1.0
  C  C67  1  0.31522000  0.51765000  0.51599000  1.0
  C  C68  1  0.58789000  0.02695000  0.49409000  1.0
  C  C69  1  0.40989000  0.97148000  0.50271000  1.0
  C  C70  1  0.58921000  0.95202000  0.50221000  1.0
  C  C71  1  0.40902000  0.04697000  0.50304000  1.0
  C  C72  1  0.49957000  0.92344000  0.50489000  1.0
  C  C73  1  0.49847000  0.07535000  0.49689000  1.0
  C  C74  1  0.20923000  0.52340000  0.51787000  1.0
  C  C75  1  0.79506000  0.45684000  0.49445000  1.0
  C  C76  1  0.01879000  0.52055000  0.51360000  1.0
  C  C77  1  0.98545000  0.45425000  0.50843000  1.0
  C  C78  1  0.88474000  0.45135000  0.50101000  1.0
  C  C79  1  0.11974000  0.52457000  0.51650000  1.0
  C  C80  1  0.45182000  0.57590000  0.25813000  1.0
  C  C81  1  0.50880000  0.44266000  0.74979000  1.0
  C  C82  1  0.45976000  0.57846000  0.18652000  1.0
  C  C83  1  0.50968000  0.44584000  0.82148000  1.0
  C  C84  1  0.50012000  0.51653000  0.15002000  1.0
  C  C85  1  0.53861000  0.50545000  0.85451000  1.0
  C  C86  1  0.53616000  0.45240000  0.18620000  1.0
  C  C87  1  0.57421000  0.55981000  0.81543000  1.0
  C  C88  1  0.01857000  0.32542000  0.50423000  1.0
  C  C89  1  0.98383000  0.64933000  0.50331000  1.0
  C  C90  1  0.56942000  0.16828000  0.66337000  1.0
  C  C91  1  0.46360000  0.87139000  0.66276000  1.0
  C  C92  1  0.70834000  0.28164000  0.57610000  1.0
  C  C93  1  0.38516000  0.70180000  0.66103000  1.0
  C  C94  1  0.72616000  0.90263000  0.56955000  1.0
  C  C95  1  0.27808000  0.10023000  0.57365000  1.0
  C  C96  1  0.51810000  0.35325000  0.11360000  1.0
  C  C97  1  0.68635000  0.64635000  0.83474000  1.0
  C  C98  1  0.55909000  0.32472000  0.28866000  1.0
  C  C99  1  0.69275000  0.59560000  0.66306000  1.0
  C  C100  1  0.44845000  0.13979000  0.33964000  1.0
  C  C101  1  0.53876000  0.83574000  0.33711000  1.0
  N  N102  1  0.48660000  0.30593000  0.49531000  1.0
  N  N103  1  0.50929000  0.69345000  0.50381000  1.0
  Cl  Cl104  1  0.69808000  0.05790000  0.47710000  1.0
  Cl  Cl105  1  0.29863000  0.93968000  0.49554000  1.0
  Cl  Cl106  1  0.39152000  0.65092000  0.29972000  1.0
  Cl  Cl107  1  0.45901000  0.37315000  0.71256000  1.0
  Cl  Cl108  1  0.42328000  0.65880000  0.14266000  1.0
  Cl  Cl109  1  0.47550000  0.37580000  0.87010000  1.0
  Cl  Cl110  1  0.70699000  0.51056000  0.09315000  1.0
  Cl  Cl111  1  0.33174000  0.53941000  0.91042000  1.0
  Cl  Cl112  1  0.72954000  0.48781000  0.93587000  1.0
  Cl  Cl113  1  0.31075000  0.52696000  0.06861000  1.0
  Cl  Cl114  1  0.34249000  0.32808000  0.40482000  1.0
  Cl  Cl115  1  0.64108000  0.67584000  0.40388000  1.0
  O  O116  1  0.55186000  0.44148000  0.60110000  1.0
  O  O117  1  0.51197000  0.56278000  0.40211000  1.0
  O  O118  1  0.49544000  0.56158000  0.60769000  1.0
  O  O119  1  0.46227000  0.45251000  0.39961000  1.0
  O  O120  1  0.64524000  0.41670000  0.47412000  1.0
  O  O121  1  0.35130000  0.57397000  0.49837000  1.0
  O  O122  1  0.64935000  0.53314000  0.50834000  1.0
  O  O123  1  0.36202000  0.45508000  0.53196000  1.0
  O  O124  1  0.05502000  0.39296000  0.50999000  1.0
  O  O125  1  0.94881000  0.58158000  0.51501000  1.0
  O  O126  1  0.59956000  0.14798000  0.59435000  1.0
  O  O127  1  0.40528000  0.84467000  0.61063000  1.0
  O  O128  1  0.60171000  0.29943000  0.57960000  1.0
  O  O129  1  0.39443000  0.69638000  0.58754000  1.0
  O  O130  1  0.67704000  0.90565000  0.50439000  1.0
  O  O131  1  0.32166000  0.09365000  0.50641000  1.0
  O  O132  1  0.58173000  0.39188000  0.15253000  1.0
  O  O133  1  0.59709000  0.61759000  0.85105000  1.0
  O  O134  1  0.58667000  0.39537000  0.29492000  1.0
  O  O135  1  0.60989000  0.61198000  0.70907000  1.0
  O  O136  1  0.38843000  0.16965000  0.39623000  1.0
  O  O137  1  0.59340000  0.83604000  0.40023000  1.0
