# generated using pymatgen
data_MnH10C15O7
_symmetry_space_group_name_H-M   'P 1'
_cell_length_a   6.96307000
_cell_length_b   7.17386000
_cell_length_c   13.85334237
_cell_angle_alpha   104.96922354
_cell_angle_beta   99.17137072
_cell_angle_gamma   90.00020000
_symmetry_Int_Tables_number   1
_chemical_formula_structural   MnH10C15O7
_chemical_formula_sum   'Mn2 H20 C30 O14'
_cell_volume   659.35840824
_cell_formula_units_Z   2
loop_
 _symmetry_equiv_pos_site_id
 _symmetry_equiv_pos_as_xyz
  1  'x, y, z'
loop_
 _atom_site_type_symbol
 _atom_site_label
 _atom_site_symmetry_multiplicity
 _atom_site_fract_x
 _atom_site_fract_y
 _atom_site_fract_z
 _atom_site_occupancy
  Mn  Mn0  1  1.00000000  0.49999000  0.50000000  1.0
  Mn  Mn1  1  0.50000000  0.00000000  0.50000000  1.0
  H  H2  1  0.19554000  0.38729000  0.20888000  1.0
  H  H3  1  0.30374000  0.17841000  0.79129000  1.0
  H  H4  1  0.80445000  0.61271000  0.79111000  1.0
  H  H5  1  0.69625000  0.82158000  0.20870000  1.0
  H  H6  1  0.22050000  0.00975000  0.27730000  1.0
  H  H7  1  0.27956000  0.73232000  0.72251000  1.0
  H  H8  1  0.77952000  0.99024000  0.72271000  1.0
  H  H9  1  0.72046000  0.26769000  0.27750000  1.0
  H  H10  1  0.24436000  0.99780000  0.09869000  1.0
  H  H11  1  0.25545000  0.89907000  0.90101000  1.0
  H  H12  1  0.75566000  0.00220000  0.90132000  1.0
  H  H13  1  0.74456000  0.10094000  0.09899000  1.0
  H  H14  1  0.94071000  0.90379000  0.58847000  1.0
  H  H15  1  0.56028000  0.31562000  0.41195000  1.0
  H  H16  1  0.05929000  0.09621000  0.41153000  1.0
  H  H17  1  0.43972000  0.68438000  0.58805000  1.0
  H  H18  1  0.11570000  0.85721000  0.52920000  1.0
  H  H19  1  0.38438000  0.32776000  0.47053000  1.0
  H  H20  1  0.88430000  0.14279000  0.47080000  1.0
  H  H21  1  0.61561000  0.67224000  0.52947000  1.0
  C  C22  1  0.20718000  0.51912000  0.18459000  1.0
  C  C23  1  0.29204000  0.33449000  0.81546000  1.0
  C  C24  1  0.79281000  0.48089000  0.81541000  1.0
  C  C25  1  0.70795000  0.66552000  0.18454000  1.0
  C  C26  1  0.20089000  0.70066000  0.25361000  1.0
  C  C27  1  0.29860000  0.44693000  0.74635000  1.0
  C  C28  1  0.79911000  0.29934000  0.74639000  1.0
  C  C29  1  0.70140000  0.55309000  0.25366000  1.0
  C  C30  1  0.21814000  0.87028000  0.22214000  1.0
  C  C31  1  0.28156000  0.64803000  0.77771000  1.0
  C  C32  1  0.78187000  0.12971000  0.77786000  1.0
  C  C33  1  0.71844000  0.35199000  0.22230000  1.0
  C  C34  1  0.23497000  0.86483000  0.12221000  1.0
  C  C35  1  0.26470000  0.74257000  0.87758000  1.0
  C  C36  1  0.76505000  0.13517000  0.87779000  1.0
  C  C37  1  0.73531000  0.25743000  0.12242000  1.0
  C  C38  1  0.23990000  0.68509000  0.05399000  1.0
  C  C39  1  0.25943000  0.63108000  0.94589000  1.0
  C  C40  1  0.76011000  0.31491000  0.94600000  1.0
  C  C41  1  0.74057000  0.36892000  0.05411000  1.0
  C  C42  1  0.22948000  0.51433000  0.08644000  1.0
  C  C43  1  0.26961000  0.42790000  0.91354000  1.0
  C  C44  1  0.77052000  0.48566000  0.91356000  1.0
  C  C45  1  0.73038000  0.57209000  0.08645000  1.0
  C  C46  1  0.24958000  0.34582000  0.00001000  1.0
  C  C47  1  0.75040000  0.65418000  0.99998000  1.0
  C  C48  1  0.17826000  0.71212000  0.35987000  1.0
  C  C49  1  0.32202000  0.35221000  0.64025000  1.0
  C  C50  1  0.82174000  0.28788000  0.64013000  1.0
  C  C51  1  0.67798000  0.64779000  0.35974000  1.0
  O  O52  1  0.24981000  0.17432000  0.00003000  1.0
  O  O53  1  0.75015000  0.82567000  0.99996000  1.0
  O  O54  1  0.20581000  0.87980000  0.42584000  1.0
  O  O55  1  0.29301000  0.45334000  0.57395000  1.0
  O  O56  1  0.79420000  0.12019000  0.57416000  1.0
  O  O57  1  0.70698000  0.54666000  0.42605000  1.0
  O  O58  1  0.13362000  0.55921000  0.38242000  1.0
  O  O59  1  0.36895000  0.17750000  0.61818000  1.0
  O  O60  1  0.86638000  0.44079000  0.61758000  1.0
  O  O61  1  0.63105000  0.82250000  0.38182000  1.0
  O  O62  1  0.04502000  0.81168000  0.57704000  1.0
  O  O63  1  0.45566000  0.23470000  0.42294000  1.0
  O  O64  1  0.95498000  0.18832000  0.42296000  1.0
  O  O65  1  0.54435000  0.76529000  0.57706000  1.0
