# generated using pymatgen
data_Al2H33C34I(N4O5)2
_symmetry_space_group_name_H-M   'P 1'
_cell_length_a   6.76955000
_cell_length_b   22.23630000
_cell_length_c   26.56580000
_cell_angle_alpha   78.92300000
_cell_angle_beta   89.99990000
_cell_angle_gamma   89.99890000
_symmetry_Int_Tables_number   1
_chemical_formula_structural   Al2H33C34I(N4O5)2
_chemical_formula_sum   'Al4 H66 C68 I2 N16 O20'
_cell_volume   3924.44225323
_cell_formula_units_Z   2
loop_
 _symmetry_equiv_pos_site_id
 _symmetry_equiv_pos_as_xyz
  1  'x, y, z'
loop_
 _atom_site_type_symbol
 _atom_site_label
 _atom_site_symmetry_multiplicity
 _atom_site_fract_x
 _atom_site_fract_y
 _atom_site_fract_z
 _atom_site_occupancy
  Al  Al0  1  0.09612000  0.50095000  0.49799000  1.0
  Al  Al1  1  0.59612000  0.49905000  0.50201000  1.0
  Al  Al2  1  0.69947000  0.00059000  0.00117000  1.0
  Al  Al3  1  0.19946000  0.99941000  0.99883000  1.0
  H  H4  1  0.14400000  0.73794000  0.18591000  1.0
  H  H5  1  0.64398000  0.26206000  0.81409000  1.0
  H  H6  1  0.00570000  0.65641000  0.24085000  1.0
  H  H7  1  0.50568000  0.34360000  0.75914000  1.0
  H  H8  1  0.54383000  0.71575000  0.26837000  1.0
  H  H9  1  0.04381000  0.28426000  0.73163000  1.0
  H  H10  1  0.67064000  0.65814000  0.24348000  1.0
  H  H11  1  0.17060000  0.34186000  0.75652000  1.0
  H  H12  1  0.00394000  0.77394000  0.32426000  1.0
  H  H13  1  0.50390000  0.22606000  0.67574000  1.0
  H  H14  1  0.96835000  0.85650000  0.25643000  1.0
  H  H15  1  0.46838000  0.14350000  0.74357000  1.0
  H  H16  1  0.19725000  0.78017000  0.23557000  1.0
  H  H17  1  0.69725000  0.21983000  0.76443000  1.0
  H  H18  1  0.71188000  0.84301000  0.25033000  1.0
  H  H19  1  0.21190000  0.15698000  0.74967000  1.0
  H  H20  1  0.62739000  0.91883000  0.88223000  1.0
  H  H21  1  0.12737000  0.08116000  0.11777000  1.0
  H  H22  1  0.21225000  0.81033000  0.83224000  1.0
  H  H23  1  0.71223000  0.18967000  0.16776000  1.0
  H  H24  1  0.24292000  0.87336000  0.90044000  1.0
  H  H25  1  0.74289000  0.12662000  0.09957000  1.0
  H  H26  1  0.58561000  0.64720000  0.69616000  1.0
  H  H27  1  0.08560000  0.35281000  0.30384000  1.0
  H  H28  1  0.56188000  0.58694000  0.62559000  1.0
  H  H29  1  0.06188000  0.41307000  0.37441000  1.0
  H  H30  1  0.16221000  0.63368000  0.58259000  1.0
  H  H31  1  0.66222000  0.36631000  0.41741000  1.0
  H  H32  1  0.18414000  0.69669000  0.65119000  1.0
  H  H33  1  0.68413000  0.30330000  0.34881000  1.0
  H  H34  1  0.30904000  0.64751000  0.27741000  1.0
  H  H35  1  0.42099000  0.67979000  0.34864000  1.0
  H  H36  1  0.17898000  0.69883000  0.36525000  1.0
  H  H37  1  0.31292000  0.75070000  0.31783000  1.0
  H  H38  1  0.80902000  0.35249000  0.72259000  1.0
  H  H39  1  0.92096000  0.32019000  0.65136000  1.0
  H  H40  1  0.67896000  0.30116000  0.63475000  1.0
  H  H41  1  0.81290000  0.24929000  0.68217000  1.0
  H  H42  1  0.45577000  0.89250000  0.81829000  1.0
  H  H43  1  0.39024000  0.88075000  0.73795000  1.0
  H  H44  1  0.64550000  0.86612000  0.72813000  1.0
  H  H45  1  0.48336000  0.80519000  0.75589000  1.0
  H  H46  1  0.95574000  0.10750000  0.18171000  1.0
  H  H47  1  0.89020000  0.11926000  0.26205000  1.0
  H  H48  1  0.14546000  0.13389000  0.27187000  1.0
  H  H49  1  0.98334000  0.19483000  0.24410000  1.0
  H  H50  1  0.42450000  0.75442000  0.19715000  1.0
  H  H51  1  0.34547000  0.82978000  0.13380000  1.0
  H  H52  1  0.56880000  0.80651000  0.10646000  1.0
  H  H53  1  0.56886000  0.87013000  0.13848000  1.0
  H  H54  1  0.92448000  0.24557000  0.80285000  1.0
  H  H55  1  0.84545000  0.17021000  0.86620000  1.0
  H  H56  1  0.06880000  0.19349000  0.89355000  1.0
  H  H57  1  0.06887000  0.12987000  0.86153000  1.0
  H  H58  1  0.57531000  0.78201000  0.32626000  1.0
  H  H59  1  0.62626000  0.83120000  0.39594000  1.0
  H  H60  1  0.76153000  0.87467000  0.34359000  1.0
  H  H61  1  0.88456000  0.82017000  0.39151000  1.0
  H  H62  1  0.07528000  0.21798000  0.67376000  1.0
  H  H63  1  0.12620000  0.16880000  0.60406000  1.0
  H  H64  1  0.26148000  0.12533000  0.65641000  1.0
  H  H65  1  0.38451000  0.17982000  0.60849000  1.0
  H  H66  1  0.35333000  0.57674000  0.47090000  1.0
  H  H67  1  0.85332000  0.42326000  0.52910000  1.0
  H  H68  1  0.45182000  0.91897000  0.00986000  1.0
  H  H69  1  0.95182000  0.08103000  0.99012000  1.0
  C  C70  1  0.34975000  0.43047000  0.44079000  1.0
  C  C71  1  0.84975000  0.56953000  0.55921000  1.0
  C  C72  1  0.33955000  0.42517000  0.57861000  1.0
  C  C73  1  0.83956000  0.57483000  0.42139000  1.0
  C  C74  1  0.04447000  0.69297000  0.26171000  1.0
  C  C75  1  0.54446000  0.30703000  0.73829000  1.0
  C  C76  1  0.68356000  0.70453000  0.25150000  1.0
  C  C77  1  0.18354000  0.29547000  0.74850000  1.0
  C  C78  1  0.71644000  0.75183000  0.20164000  1.0
  C  C79  1  0.21643000  0.24817000  0.79837000  1.0
  C  C80  1  0.95443000  0.87846000  0.12456000  1.0
  C  C81  1  0.45440000  0.12154000  0.87544000  1.0
  C  C82  1  0.85222000  0.70595000  0.29039000  1.0
  C  C83  1  0.35220000  0.29405000  0.70961000  1.0
  C  C84  1  0.08748000  0.75127000  0.22098000  1.0
  C  C85  1  0.58747000  0.24873000  0.77902000  1.0
  C  C86  1  0.90081000  0.79152000  0.20747000  1.0
  C  C87  1  0.40081000  0.20848000  0.79253000  1.0
  C  C88  1  0.85749000  0.82079000  0.25507000  1.0
  C  C89  1  0.35750000  0.17921000  0.74493000  1.0
  C  C90  1  0.86198000  0.77107000  0.30497000  1.0
  C  C91  1  0.36196000  0.22892000  0.69503000  1.0
  C  C92  1  0.93371000  0.83868000  0.16249000  1.0
  C  C93  1  0.43373000  0.16132000  0.83751000  1.0
  C  C94  1  0.82744000  0.65932000  0.33619000  1.0
  C  C95  1  0.32738000  0.34068000  0.66381000  1.0
  C  C96  1  0.83044000  0.61958000  0.37456000  1.0
  C  C97  1  0.33042000  0.38041000  0.62545000  1.0
  C  C98  1  0.75575000  0.89521000  0.87043000  1.0
  C  C99  1  0.25572000  0.10478000  0.12957000  1.0
  C  C100  1  0.73677000  0.86300000  0.82952000  1.0
  C  C101  1  0.23674000  0.13699000  0.17048000  1.0
  C  C102  1  0.90547000  0.83012000  0.81715000  1.0
  C  C103  1  0.40545000  0.16988000  0.18285000  1.0
  C  C104  1  0.08662000  0.83633000  0.84222000  1.0
  C  C105  1  0.58660000  0.16366000  0.15779000  1.0
  C  C106  1  0.10432000  0.87068000  0.88017000  1.0
  C  C107  1  0.60429000  0.12931000  0.11983000  1.0
  C  C108  1  0.93432000  0.89929000  0.89518000  1.0
  C  C109  1  0.43428000  0.10070000  0.10483000  1.0
  C  C110  1  0.89907000  0.71160000  0.71871000  1.0
  C  C111  1  0.39906000  0.28842000  0.28128000  1.0
  C  C112  1  0.90321000  0.78548000  0.78320000  1.0
  C  C113  1  0.40320000  0.21452000  0.21680000  1.0
  C  C114  1  0.70999000  0.64481000  0.67059000  1.0
  C  C115  1  0.21000000  0.35520000  0.32940000  1.0
  C  C116  1  0.69704000  0.61120000  0.63166000  1.0
  C  C117  1  0.19705000  0.38881000  0.36833000  1.0
  C  C118  1  0.86032000  0.60717000  0.60000000  1.0
  C  C119  1  0.36033000  0.39284000  0.39999000  1.0
  C  C120  1  0.03626000  0.63780000  0.60727000  1.0
  C  C121  1  0.53627000  0.36220000  0.39272000  1.0
  C  C122  1  0.04862000  0.67247000  0.64543000  1.0
  C  C123  1  0.54862000  0.32753000  0.35456000  1.0
  C  C124  1  0.88582000  0.67589000  0.67774000  1.0
  C  C125  1  0.38582000  0.32412000  0.32225000  1.0
  C  C126  1  0.45347000  0.07741000  0.92284000  1.0
  C  C127  1  0.95352000  0.92259000  0.07716000  1.0
  C  C128  1  0.44405000  0.06557000  0.06234000  1.0
  C  C129  1  0.94406000  0.93443000  0.93767000  1.0
  C  C130  1  0.28245000  0.70122000  0.33297000  1.0
  C  C131  1  0.78242000  0.29877000  0.66703000  1.0
  C  C132  1  0.51870000  0.85379000  0.75409000  1.0
  C  C133  1  0.01866000  0.14623000  0.24591000  1.0
  C  C134  1  0.50582000  0.82480000  0.13878000  1.0
  C  C135  1  0.00581000  0.17519000  0.86122000  1.0
  C  C136  1  0.74772000  0.82901000  0.36894000  1.0
  C  C137  1  0.24767000  0.17099000  0.63106000  1.0
  I  I138  1  0.80655000  0.69439000  0.13621000  1.0
  I  I139  1  0.30655000  0.30562000  0.86377000  1.0
  N  N140  1  0.07001000  0.78061000  0.75566000  1.0
  N  N141  1  0.57000000  0.21939000  0.24434000  1.0
  N  N142  1  0.06778000  0.74330000  0.72292000  1.0
  N  N143  1  0.56778000  0.25671000  0.27707000  1.0
  N  N144  1  0.74956000  0.70770000  0.75293000  1.0
  N  N145  1  0.24954000  0.29231000  0.24707000  1.0
  N  N146  1  0.75109000  0.74508000  0.78593000  1.0
  N  N147  1  0.25108000  0.25492000  0.21407000  1.0
  N  N148  1  0.20497000  0.66847000  0.29535000  1.0
  N  N149  1  0.70494000  0.33152000  0.70464000  1.0
  N  N150  1  0.56024000  0.86773000  0.80405000  1.0
  N  N151  1  0.06022000  0.13226000  0.19596000  1.0
  N  N152  1  0.54184000  0.78263000  0.18718000  1.0
  N  N153  1  0.04184000  0.21736000  0.81283000  1.0
  N  N154  1  0.71229000  0.77829000  0.34257000  1.0
  N  N155  1  0.21224000  0.22171000  0.65744000  1.0
  O  O156  1  0.51122000  0.44210000  0.56188000  1.0
  O  O157  1  0.01123000  0.55790000  0.43813000  1.0
  O  O158  1  0.17903000  0.44683000  0.45338000  1.0
  O  O159  1  0.67904000  0.55317000  0.54662000  1.0
  O  O160  1  0.17486000  0.44312000  0.55781000  1.0
  O  O161  1  0.67486000  0.55688000  0.44219000  1.0
  O  O162  1  0.01430000  0.55720000  0.54024000  1.0
  O  O163  1  0.51429000  0.44280000  0.45977000  1.0
  O  O164  1  0.34718000  0.53738000  0.49413000  1.0
  O  O165  1  0.84718000  0.46262000  0.50587000  1.0
  O  O166  1  0.27957000  0.05164000  0.04429000  1.0
  O  O167  1  0.77958000  0.94836000  0.95571000  1.0
  O  O168  1  0.62054000  0.06136000  0.94297000  1.0
  O  O169  1  0.12059000  0.93864000  0.05704000  1.0
  O  O170  1  0.61494000  0.05250000  0.04715000  1.0
  O  O171  1  0.11494000  0.94750000  0.95285000  1.0
  O  O172  1  0.78342000  0.94057000  0.05984000  1.0
  O  O173  1  0.28336000  0.05944000  0.94015000  1.0
  O  O174  1  0.45024000  0.96332000  0.00382000  1.0
  O  O175  1  0.95023000  0.03668000  0.99618000  1.0
