# generated using pymatgen
data_CuH8C7O9
_symmetry_space_group_name_H-M   'P 1'
_cell_length_a   7.60615000
_cell_length_b   8.13946000
_cell_length_c   9.31156000
_cell_angle_alpha   65.60050000
_cell_angle_beta   79.81150000
_cell_angle_gamma   62.25290000
_symmetry_Int_Tables_number   1
_chemical_formula_structural   CuH8C7O9
_chemical_formula_sum   'Cu2 H16 C14 O18'
_cell_volume   464.53802748
_cell_formula_units_Z   2
loop_
 _symmetry_equiv_pos_site_id
 _symmetry_equiv_pos_as_xyz
  1  'x, y, z'
loop_
 _atom_site_type_symbol
 _atom_site_label
 _atom_site_symmetry_multiplicity
 _atom_site_fract_x
 _atom_site_fract_y
 _atom_site_fract_z
 _atom_site_occupancy
  Cu  Cu0  1  0.69666000  0.59678000  0.35389000  1.0
  Cu  Cu1  1  0.30333000  0.40323000  0.64611000  1.0
  H  H2  1  0.37767000  0.86131000  0.19433000  1.0
  H  H3  1  0.62232000  0.13869000  0.80567000  1.0
  H  H4  1  0.37893000  0.93207000  0.33275000  1.0
  H  H5  1  0.62106000  0.06794000  0.66725000  1.0
  H  H6  1  0.92236000  0.27433000  0.56199000  1.0
  H  H7  1  0.07763000  0.72568000  0.43800000  1.0
  H  H8  1  0.07176000  0.29641000  0.42120000  1.0
  H  H9  1  0.92824000  0.70359000  0.57880000  1.0
  H  H10  1  0.09638000  0.93564000  0.09765000  1.0
  H  H11  1  0.90363000  0.06437000  0.90236000  1.0
  H  H12  1  0.02761000  0.81028000  0.87625000  1.0
  H  H13  1  0.97239000  0.18972000  0.12376000  1.0
  H  H14  1  0.46983000  0.87963000  0.82581000  1.0
  H  H15  1  0.53018000  0.12037000  0.17418000  1.0
  H  H16  1  0.86692000  0.42916000  0.86954000  1.0
  H  H17  1  0.13309000  0.57083000  0.13046000  1.0
  C  C18  1  0.78986000  0.66731000  0.02290000  1.0
  C  C19  1  0.21014000  0.33270000  0.97712000  1.0
  C  C20  1  0.64760000  0.58539000  0.01886000  1.0
  C  C21  1  0.35241000  0.41461000  0.98113000  1.0
  C  C22  1  0.46861000  0.73492000  0.89786000  1.0
  C  C23  1  0.53139000  0.26506000  0.10215000  1.0
  C  C24  1  0.26859000  0.76321000  0.97562000  1.0
  C  C25  1  0.73142000  0.23679000  0.02438000  1.0
  C  C26  1  0.72540000  0.44246000  0.92757000  1.0
  C  C27  1  0.27460000  0.55754000  0.07244000  1.0
  C  C28  1  0.45972000  0.41429000  0.18720000  1.0
  C  C29  1  0.54029000  0.58571000  0.81280000  1.0
  C  C30  1  0.38969000  0.34974000  0.35652000  1.0
  C  C31  1  0.61030000  0.65026000  0.64348000  1.0
  O  O32  1  0.46373000  0.86220000  0.26466000  1.0
  O  O33  1  0.53626000  0.13781000  0.73534000  1.0
  O  O34  1  0.92868000  0.32501000  0.44725000  1.0
  O  O35  1  0.07131000  0.67499000  0.55275000  1.0
  O  O36  1  0.82394000  0.66781000  0.15265000  1.0
  O  O37  1  0.17605000  0.33220000  0.84734000  1.0
  O  O38  1  0.86965000  0.72989000  0.89466000  1.0
  O  O39  1  0.13035000  0.27011000  0.10534000  1.0
  O  O40  1  0.40127000  0.44350000  0.43427000  1.0
  O  O41  1  0.59872000  0.55650000  0.56573000  1.0
  O  O42  1  0.31457000  0.22843000  0.40317000  1.0
  O  O43  1  0.68543000  0.77157000  0.59683000  1.0
  O  O44  1  0.59145000  0.49901000  0.17636000  1.0
  O  O45  1  0.40855000  0.50099000  0.82364000  1.0
  O  O46  1  0.24052000  0.86441000  0.07805000  1.0
  O  O47  1  0.75948000  0.13558000  0.92196000  1.0
  O  O48  1  0.11449000  0.88175000  0.86008000  1.0
  O  O49  1  0.88551000  0.11826000  0.13992000  1.0
