# generated using pymatgen
data_Zr6H30C55O43
_symmetry_space_group_name_H-M   'P 1'
_cell_length_a   14.74260000
_cell_length_b   14.75110001
_cell_length_c   14.75691341
_cell_angle_alpha   60.21979254
_cell_angle_beta   60.27756688
_cell_angle_gamma   60.03655883
_symmetry_Int_Tables_number   1
_chemical_formula_structural   Zr6H30C55O43
_chemical_formula_sum   'Zr6 H30 C55 O43'
_cell_volume   2278.35702365
_cell_formula_units_Z   1
loop_
 _symmetry_equiv_pos_site_id
 _symmetry_equiv_pos_as_xyz
  1  'x, y, z'
loop_
 _atom_site_type_symbol
 _atom_site_label
 _atom_site_symmetry_multiplicity
 _atom_site_fract_x
 _atom_site_fract_y
 _atom_site_fract_z
 _atom_site_occupancy
  Zr  Zr0  1  0.38145000  0.11820000  0.38100000  1.0
  Zr  Zr1  1  0.62168000  0.88208000  0.61935000  1.0
  Zr  Zr2  1  0.62006000  0.12035000  0.38048000  1.0
  Zr  Zr3  1  0.38272000  0.87932000  0.62085000  1.0
  Zr  Zr4  1  0.38090000  0.11969000  0.62056000  1.0
  Zr  Zr5  1  0.62096000  0.87925000  0.38123000  1.0
  H  H6  1  0.40571000  0.28192000  0.40705000  1.0
  H  H7  1  0.40835000  0.90834000  0.78274000  1.0
  H  H8  1  0.78424000  0.90449000  0.40674000  1.0
  H  H9  1  0.40891000  0.90288000  0.40686000  1.0
  H  H10  1  0.08269000  0.41414000  0.35547000  1.0
  H  H11  1  0.06794000  0.38994000  0.66447000  1.0
  H  H12  1  0.91248000  0.58468000  0.35817000  1.0
  H  H13  1  0.34818000  0.13603000  0.09316000  1.0
  H  H14  1  0.66978000  0.88254000  0.06210000  1.0
  H  H15  1  0.35220000  0.13783000  0.92007000  1.0
  H  H16  1  0.07231000  0.15758000  0.90474000  1.0
  H  H17  1  0.08278000  0.85989000  0.90775000  1.0
  H  H18  1  0.90154000  0.15647000  0.07312000  1.0
  H  H19  1  0.66651000  0.56164000  0.37784000  1.0
  H  H20  1  0.35788000  0.58638000  0.64678000  1.0
  H  H21  1  0.66410000  0.39166000  0.38087000  1.0
  H  H22  1  0.61307000  0.44166000  0.11647000  1.0
  H  H23  1  0.37217000  0.34920000  0.01459000  1.0
  H  H24  1  0.26184000  0.43385000  0.09630000  1.0
  H  H25  1  0.26677000  0.60323000  0.92540000  1.0
  H  H26  1  0.37735000  0.51782000  0.84461000  1.0
  H  H27  1  0.08936000  0.84921000  0.64174000  1.0
  H  H28  1  0.07980000  0.15301000  0.36665000  1.0
  H  H29  1  0.91816000  0.85420000  0.63884000  1.0
  H  H30  1  0.98109000  0.62249000  0.65870000  1.0
  H  H31  1  0.67713000  0.73881000  0.95601000  1.0
  H  H32  1  0.97856000  0.75166000  0.19230000  1.0
  H  H33  1  0.26186000  0.47282000  0.56117000  1.0
  H  H34  1  0.95359000  0.09740000  0.25064000  1.0
  H  H35  1  0.63149000  0.67166000  0.87457000  1.0
  C  C36  1  0.19111000  0.29734000  0.50481000  1.0
  C  C37  1  0.50813000  0.00785000  0.79772000  1.0
  C  C38  1  0.79938000  0.68903000  0.50735000  1.0
  C  C39  1  0.50426000  0.00284000  0.19351000  1.0
  C  C40  1  0.49932000  0.30317000  0.19872000  1.0
  C  C41  1  0.19575000  0.99982000  0.50402000  1.0
  C  C42  1  0.50125000  0.69692000  0.80700000  1.0
  C  C43  1  0.80437000  0.00267000  0.50068000  1.0
  C  C44  1  0.50500000  0.29912000  0.50697000  1.0
  C  C45  1  0.80065000  0.00424000  0.19090000  1.0
  C  C46  1  0.50817000  0.68899000  0.50733000  1.0
  C  C47  1  0.19229000  0.00480000  0.79985000  1.0
  C  C48  1  0.89544000  0.58293000  0.51233000  1.0
  C  C49  1  0.08639000  0.39489000  0.50826000  1.0
  C  C50  1  0.93686000  0.52655000  0.60124000  1.0
  C  C51  1  0.04193000  0.44743000  0.42276000  1.0
  C  C52  1  0.03326000  0.43380000  0.59762000  1.0
  C  C53  1  0.94748000  0.54142000  0.42469000  1.0
  C  C54  1  0.51153000  0.00964000  0.89619000  1.0
  C  C55  1  0.50680000  0.00614000  0.08956000  1.0
  C  C56  1  0.60301000  0.93858000  0.93453000  1.0
  C  C57  1  0.41807000  0.08021000  0.04885000  1.0
  C  C58  1  0.59925000  0.93608000  0.03216000  1.0
  C  C59  1  0.42034000  0.08116000  0.95311000  1.0
  C  C60  1  0.89930000  0.00522000  0.08749000  1.0
  C  C61  1  0.08848000  0.00727000  0.89827000  1.0
  C  C62  1  0.94930000  0.92128000  0.04044000  1.0
  C  C63  1  0.03731000  0.09194000  0.94361000  1.0
  C  C64  1  0.04334000  0.92350000  0.94579000  1.0
  C  C65  1  0.94316000  0.09085000  0.03718000  1.0
  C  C66  1  0.50679000  0.39699000  0.51161000  1.0
  C  C67  1  0.51081000  0.58485000  0.51068000  1.0
  C  C68  1  0.42031000  0.45027000  0.58898000  1.0
  C  C69  1  0.59808000  0.53001000  0.43606000  1.0
  C  C70  1  0.42365000  0.54369000  0.58799000  1.0
  C  C71  1  0.59605000  0.43629000  0.43714000  1.0
  C  C72  1  0.49347000  0.40806000  0.10376000  1.0
  C  C73  1  0.49587000  0.60226000  0.91022000  1.0
  C  C74  1  0.42564000  0.44782000  0.04217000  1.0
  C  C75  1  0.55995000  0.56575000  0.97714000  1.0
  C  C76  1  0.42808000  0.54148000  0.94812000  1.0
  C  C77  1  0.55907000  0.46980000  0.07070000  1.0
  C  C78  1  0.34230000  0.42689000  0.02955000  1.0
  C  C79  1  0.34530000  0.53331000  0.92235000  1.0
  C  C80  1  0.90653000  0.00295000  0.49817000  1.0
  C  C81  1  0.09509000  0.99995000  0.50277000  1.0
  C  C82  1  0.95082000  0.08914000  0.42066000  1.0
  C  C83  1  0.05082000  0.91477000  0.57961000  1.0
  C  C84  1  0.04491000  0.08669000  0.42426000  1.0
  C  C85  1  0.95701000  0.91670000  0.57703000  1.0
  C  C86  1  0.87589000  0.55380000  0.70679000  1.0
  C  C87  1  0.71237000  0.87546000  0.86780000  1.0
  C  C88  1  0.90620000  0.82874000  0.08304000  1.0
  C  C89  1  0.32234000  0.41381000  0.67632000  1.0
  C  C90  1  0.90167000  0.18955000  0.33548000  1.0
  O  O91  1  0.23240000  0.25992000  0.42602000  1.0
  O  O92  1  0.58397000  0.92971000  0.75903000  1.0
  O  O93  1  0.76276000  0.73115000  0.58158000  1.0
  O  O94  1  0.42528000  0.07788000  0.23507000  1.0
  O  O95  1  0.57743000  0.26256000  0.23771000  1.0
  O  O96  1  0.23590000  0.92233000  0.58036000  1.0
  O  O97  1  0.42907000  0.73406000  0.76210000  1.0
  O  O98  1  0.76313000  0.08029000  0.42490000  1.0
  O  O99  1  0.42510000  0.26273000  0.58060000  1.0
  O  O100  1  0.76331000  0.92525000  0.23240000  1.0
  O  O101  1  0.58304000  0.72995000  0.42863000  1.0
  O  O102  1  0.23266000  0.08051000  0.76240000  1.0
  O  O103  1  0.76327000  0.07990000  0.23133000  1.0
  O  O104  1  0.42953000  0.73069000  0.58205000  1.0
  O  O105  1  0.23377000  0.92593000  0.76220000  1.0
  O  O106  1  0.58052000  0.26086000  0.42933000  1.0
  O  O107  1  0.42507000  0.26089000  0.23556000  1.0
  O  O108  1  0.76675000  0.92463000  0.57599000  1.0
  O  O109  1  0.57845000  0.73782000  0.76797000  1.0
  O  O110  1  0.23510000  0.07657000  0.42735000  1.0
  O  O111  1  0.58008000  0.92472000  0.23449000  1.0
  O  O112  1  0.23243000  0.26055000  0.57983000  1.0
  O  O113  1  0.42819000  0.08150000  0.76115000  1.0
  O  O114  1  0.76386000  0.73174000  0.42677000  1.0
  O  O115  1  0.43488000  0.93030000  0.43406000  1.0
  O  O116  1  0.70394000  0.93248000  0.43222000  1.0
  O  O117  1  0.43417000  0.93415000  0.70259000  1.0
  O  O118  1  0.43260000  0.20157000  0.43440000  1.0
  O  O119  1  0.55119000  0.05044000  0.54972000  1.0
  O  O120  1  0.35242000  0.04870000  0.55050000  1.0
  O  O121  1  0.55216000  0.85065000  0.55068000  1.0
  O  O122  1  0.55099000  0.04877000  0.35177000  1.0
  O  O123  1  0.91807000  0.60568000  0.72358000  1.0
  O  O124  1  0.79816000  0.52321000  0.77807000  1.0
  O  O125  1  0.73915000  0.76470000  0.89839000  1.0
  O  O126  1  0.77892000  0.92131000  0.79362000  1.0
  O  O127  1  0.94223000  0.73581000  0.16428000  1.0
  O  O128  1  0.85259000  0.82933000  0.04144000  1.0
  O  O129  1  0.23589000  0.44796000  0.64186000  1.0
  O  O130  1  0.31218000  0.36867000  0.77384000  1.0
  O  O131  1  0.92468000  0.17636000  0.24027000  1.0
  O  O132  1  0.85413000  0.28146000  0.34388000  1.0
  O  O133  1  0.62324000  0.62211000  0.95279000  1.0
