# generated using pymatgen
data_AlH3C27(Cl2O)6
_symmetry_space_group_name_H-M   'P 1'
_cell_length_a   4.24914000
_cell_length_b   16.12688676
_cell_length_c   16.29670000
_cell_angle_alpha   60.34573498
_cell_angle_beta   89.38550000
_cell_angle_gamma   88.75807122
_symmetry_Int_Tables_number   1
_chemical_formula_structural   AlH3C27(Cl2O)6
_chemical_formula_sum   'Al1 H3 C27 Cl12 O6'
_cell_volume   970.24708880
_cell_formula_units_Z   1
loop_
 _symmetry_equiv_pos_site_id
 _symmetry_equiv_pos_as_xyz
  1  'x, y, z'
loop_
 _atom_site_type_symbol
 _atom_site_label
 _atom_site_symmetry_multiplicity
 _atom_site_fract_x
 _atom_site_fract_y
 _atom_site_fract_z
 _atom_site_occupancy
  Al  Al0  1  0.99995000  0.50073000  0.99863000  1.0
  H  H1  1  0.49997000  0.91961000  0.16091000  1.0
  H  H2  1  0.57571000  0.91980000  0.42273000  1.0
  H  H3  1  0.42456000  0.65761000  0.42272000  1.0
  C  C4  1  0.50796000  0.35574000  0.07114000  1.0
  C  C5  1  0.49997000  0.57258000  0.85490000  1.0
  C  C6  1  0.49187000  0.57322000  0.07114000  1.0
  C  C7  1  0.52308000  0.93383000  0.28495000  1.0
  C  C8  1  0.50006000  0.88143000  0.23727000  1.0
  C  C9  1  0.47710000  0.78136000  0.28493000  1.0
  C  C10  1  0.46405000  0.73381000  0.38437000  1.0
  C  C11  1  0.50023000  0.78220000  0.43571000  1.0
  C  C12  1  0.53627000  0.88195000  0.38437000  1.0
  C  C13  1  0.33715000  0.71529000  0.08968000  1.0
  C  C14  1  0.31780000  0.76238000  0.14289000  1.0
  C  C15  1  0.47435000  0.72782000  0.23081000  1.0
  C  C16  1  0.63920000  0.63952000  0.26251000  1.0
  C  C17  1  0.63109000  0.58775000  0.21386000  1.0
  C  C18  1  0.48663000  0.62634000  0.12588000  1.0
  C  C19  1  0.68207000  0.09485000  0.14287000  1.0
  C  C20  1  0.66263000  0.19514000  0.08966000  1.0
  C  C21  1  0.51318000  0.24789000  0.12588000  1.0
  C  C22  1  0.36881000  0.19847000  0.21388000  1.0
  C  C23  1  0.36080000  0.09807000  0.26252000  1.0
  C  C24  1  0.52563000  0.04148000  0.23081000  1.0
  C  C25  1  0.33377000  0.76196000  0.59665000  1.0
  C  C26  1  0.34723000  0.71535000  0.69615000  1.0
  C  C27  1  0.50003000  0.62584000  0.74837000  1.0
  C  C28  1  0.65289000  0.58854000  0.69616000  1.0
  C  C29  1  0.66654000  0.64145000  0.59666000  1.0
  C  C30  1  0.50019000  0.72891000  0.54226000  1.0
  Cl  Cl31  1  0.80041000  0.47569000  0.26124000  1.0
  Cl  Cl32  1  0.17628000  0.76575000  0.97857000  1.0
  Cl  Cl33  1  0.86815000  0.58978000  0.36196000  1.0
  Cl  Cl34  1  0.08353000  0.86326000  0.09558000  1.0
  Cl  Cl35  1  0.82356000  0.25581000  0.97857000  1.0
  Cl  Cl36  1  0.91639000  0.04129000  0.09556000  1.0
  Cl  Cl37  1  0.19952000  0.26314000  0.26129000  1.0
  Cl  Cl38  1  0.13189000  0.04833000  0.36200000  1.0
  Cl  Cl39  1  0.09732000  0.86197000  0.54314000  1.0
  Cl  Cl40  1  0.17992000  0.77304000  0.75103000  1.0
  Cl  Cl41  1  0.90301000  0.59495000  0.54315000  1.0
  Cl  Cl42  1  0.82018000  0.47597000  0.75105000  1.0
  O  O43  1  0.72884000  0.58632000  0.01844000  1.0
  O  O44  1  0.74088000  0.39639000  0.08313000  1.0
  O  O45  1  0.73921000  0.52035000  0.89602000  1.0
  O  O46  1  0.25894000  0.52058000  0.08312000  1.0
  O  O47  1  0.26073000  0.58373000  0.89601000  1.0
  O  O48  1  0.27098000  0.39535000  0.01842000  1.0
