# generated using pymatgen
data_Al6H74C99O31
_symmetry_space_group_name_H-M   'P 1'
_cell_length_a   12.44490000
_cell_length_b   12.85630000
_cell_length_c   27.76800000
_cell_angle_alpha   90.48030000
_cell_angle_beta   90.46310000
_cell_angle_gamma   117.81930000
_symmetry_Int_Tables_number   1
_chemical_formula_structural   Al6H74C99O31
_chemical_formula_sum   'Al6 H74 C99 O31'
_cell_volume   3928.77571538
_cell_formula_units_Z   1
loop_
 _symmetry_equiv_pos_site_id
 _symmetry_equiv_pos_as_xyz
  1  'x, y, z'
loop_
 _atom_site_type_symbol
 _atom_site_label
 _atom_site_symmetry_multiplicity
 _atom_site_fract_x
 _atom_site_fract_y
 _atom_site_fract_z
 _atom_site_occupancy
  Al  Al0  1  0.18292000  0.58339000  0.49288000  1.0
  Al  Al1  1  0.92460000  0.58149000  0.49674000  1.0
  Al  Al2  1  0.92540000  0.34868000  0.49527000  1.0
  Al  Al3  1  0.16472000  0.07440000  0.98142000  1.0
  Al  Al4  1  0.41063000  0.32082000  0.98175000  1.0
  Al  Al5  1  0.43300000  0.09889000  0.98157000  1.0
  H  H6  1  0.12288000  0.47182000  0.19878000  1.0
  H  H7  1  0.59230000  0.47043000  0.85851000  1.0
  H  H8  1  0.83557000  0.54510000  0.72059000  1.0
  H  H9  1  0.86915000  0.56906000  0.63307000  1.0
  H  H10  1  0.94669000  0.22032000  0.62168000  1.0
  H  H11  1  0.26347000  0.50949000  0.78206000  1.0
  H  H12  1  0.29815000  0.47774000  0.86827000  1.0
  H  H13  1  0.97653000  0.19719000  0.70916000  1.0
  H  H14  1  0.09649000  0.13566000  0.75573000  1.0
  H  H15  1  0.12388000  0.10453000  0.84256000  1.0
  H  H16  1  0.33725000  0.48962000  0.70356000  1.0
  H  H17  1  0.36931000  0.35734000  0.21859000  1.0
  H  H18  1  0.30485000  0.51353000  0.61602000  1.0
  H  H19  1  0.28424000  0.72346000  0.62000000  1.0
  H  H20  1  0.00966000  0.79605000  0.78157000  1.0
  H  H21  1  0.05075000  0.85439000  0.86831000  1.0
  H  H22  1  0.32243000  0.77920000  0.70685000  1.0
  H  H23  1  0.39392000  0.92642000  0.75991000  1.0
  H  H24  1  0.83202000  0.29487000  0.20237000  1.0
  H  H25  1  0.43192000  0.97586000  0.84716000  1.0
  H  H26  1  0.02419000  0.86216000  0.70529000  1.0
  H  H27  1  0.98327000  0.80007000  0.61919000  1.0
  H  H28  1  0.17637000  0.66284000  0.25641000  1.0
  H  H29  1  0.47510000  0.17189000  0.21585000  1.0
  H  H30  1  0.01831000  0.12646000  0.20536000  1.0
  H  H31  1  0.20256000  0.17327000  0.27676000  1.0
  H  H32  1  0.95491000  0.28309000  0.25560000  1.0
  H  H33  1  0.70852000  0.61240000  0.23204000  1.0
  H  H34  1  0.77198000  0.58965000  0.17819000  1.0
  H  H35  1  0.61243000  0.53314000  0.18246000  1.0
  H  H36  1  0.46537000  0.51077000  0.28340000  1.0
  H  H37  1  0.37021000  0.49363000  0.33395000  1.0
  H  H38  1  0.52730000  0.72746000  0.28420000  1.0
  H  H39  1  0.02997000  0.70311000  0.18589000  1.0
  H  H40  1  0.44261000  0.70841000  0.33744000  1.0
  H  H41  1  0.57402000  0.63208000  0.37980000  1.0
  H  H42  1  0.66287000  0.77635000  0.35823000  1.0
  H  H43  1  0.65919000  0.65434000  0.32647000  1.0
  H  H44  1  0.45468000  0.85251000  0.25420000  1.0
  H  H45  1  0.40074000  0.79761000  0.19513000  1.0
  H  H46  1  0.47403000  0.95164000  0.20633000  1.0
  H  H47  1  0.41841000  0.10141000  0.28964000  1.0
  H  H48  1  0.29569000  0.05348000  0.33043000  1.0
  H  H49  1  0.39031000  0.98510000  0.33027000  1.0
  H  H50  1  0.18534000  0.04054000  0.22459000  1.0
  H  H51  1  0.90756000  0.85512000  0.22614000  1.0
  H  H52  1  0.88188000  0.75132000  0.27251000  1.0
  H  H53  1  0.95693000  0.90377000  0.28651000  1.0
  H  H54  1  0.73441000  0.03008000  0.77144000  1.0
  H  H55  1  0.64262000  0.03486000  0.81920000  1.0
  H  H56  1  0.91952000  0.18700000  0.81141000  1.0
  H  H57  1  0.83273000  0.19662000  0.85942000  1.0
  H  H58  1  0.76606000  0.98212000  0.87933000  1.0
  H  H59  1  0.92541000  0.06916000  0.88409000  1.0
  H  H60  1  0.86042000  0.97684000  0.83273000  1.0
  H  H61  1  0.64864000  0.19638000  0.61122000  1.0
  H  H62  1  0.73110000  0.69359000  0.76549000  1.0
  H  H63  1  0.71679000  0.63382000  0.82422000  1.0
  H  H64  1  0.50462000  0.59857000  0.75731000  1.0
  H  H65  1  0.48945000  0.54727000  0.81668000  1.0
  H  H66  1  0.60640000  0.75889000  0.84771000  1.0
  H  H67  1  0.47374000  0.73549000  0.81496000  1.0
  H  H68  1  0.61833000  0.80875000  0.78764000  1.0
  H  H69  1  0.96547000  0.55365000  0.23399000  1.0
  H  H70  1  0.90642000  0.58449000  0.28745000  1.0
  H  H71  1  0.95686000  0.47665000  0.28779000  1.0
  H  H72  1  0.51671000  0.36879000  0.27512000  1.0
  H  H73  1  0.65383000  0.05664000  0.24666000  1.0
  H  H74  1  0.75153000  0.14351000  0.29448000  1.0
  H  H75  1  0.59206000  0.07633000  0.30158000  1.0
  H  H76  1  0.63974000  0.16197000  0.86453000  1.0
  H  H77  1  0.60323000  0.17382000  0.69833000  1.0
  H  H78  1  0.37814000  0.68382000  0.46055000  1.0
  H  H79  1  0.96501000  0.97961000  0.00986000  1.0
  C  C80  1  0.08698000  0.70874000  0.42566000  1.0
  C  C81  1  0.70558000  0.35321000  0.33867000  1.0
  C  C82  1  0.18450000  0.23846000  0.25845000  1.0
  C  C83  1  0.77877000  0.39637000  0.42956000  1.0
  C  C84  1  0.08195000  0.21288000  0.22009000  1.0
  C  C85  1  0.20957000  0.31193000  0.09556000  1.0
  C  C86  1  0.11333000  0.33723000  0.37893000  1.0
  C  C87  1  0.27788000  0.34197000  0.22779000  1.0
  C  C88  1  0.17542000  0.31756000  0.18861000  1.0
  C  C89  1  0.24216000  0.43044000  0.25416000  1.0
  C  C90  1  0.14770000  0.32410000  0.28648000  1.0
  C  C91  1  0.72724000  0.37130000  0.38179000  1.0
  C  C92  1  0.13949000  0.40477000  0.21637000  1.0
  C  C93  1  0.04690000  0.30001000  0.24677000  1.0
  C  C94  1  0.19220000  0.31539000  0.13851000  1.0
  C  C95  1  0.09385000  0.37202000  0.42596000  1.0
  C  C96  1  0.12957000  0.32767000  0.33627000  1.0
  C  C97  1  0.26330000  0.93542000  0.27080000  1.0
  C  C98  1  0.29183000  0.85959000  0.23272000  1.0
  C  C99  1  0.25598000  0.93254000  0.10205000  1.0
  C  C100  1  0.10420000  0.75902000  0.37847000  1.0
  C  C101  1  0.18271000  0.95621000  0.23246000  1.0
  C  C102  1  0.56394000  0.24260000  0.22701000  1.0
  C  C103  1  0.21118000  0.88206000  0.19379000  1.0
  C  C104  1  0.06719000  0.84321000  0.24872000  1.0
  C  C105  1  0.14734000  0.81954000  0.28758000  1.0
  C  C106  1  0.09585000  0.76794000  0.21103000  1.0
  C  C107  1  0.10454000  0.71177000  0.56407000  1.0
  C  C108  1  0.17680000  0.74632000  0.24877000  1.0
  C  C109  1  0.23832000  0.91079000  0.14483000  1.0
  C  C110  1  0.12075000  0.78733000  0.33625000  1.0
  C  C111  1  0.75953000  0.38474000  0.61630000  1.0
  C  C112  1  0.68730000  0.27293000  0.63528000  1.0
  C  C113  1  0.66138000  0.32551000  0.18964000  1.0
  C  C114  1  0.66315000  0.26046000  0.68434000  1.0
  C  C115  1  0.71449000  0.35793000  0.71628000  1.0
  C  C116  1  0.79137000  0.46867000  0.69684000  1.0
  C  C117  1  0.81107000  0.48250000  0.64763000  1.0
  C  C118  1  0.68134000  0.25039000  0.79553000  1.0
  C  C119  1  0.79309000  0.40272000  0.56485000  1.0
  C  C120  1  0.64510000  0.23513000  0.84360000  1.0
  C  C121  1  0.62000000  0.41137000  0.84067000  1.0
  C  C122  1  0.65621000  0.42630000  0.79260000  1.0
  C  C123  1  0.68484000  0.34485000  0.76826000  1.0
  C  C124  1  0.66605000  0.22830000  0.25576000  1.0
  C  C125  1  0.61332000  0.31471000  0.86578000  1.0
  C  C126  1  0.12498000  0.36715000  0.61401000  1.0
  C  C127  1  0.03233000  0.27744000  0.63995000  1.0
  C  C128  1  0.04961000  0.26474000  0.68852000  1.0
  C  C129  1  0.15929000  0.34121000  0.71199000  1.0
  C  C130  1  0.25117000  0.43147000  0.68571000  1.0
  C  C131  1  0.10352000  0.38674000  0.56319000  1.0
  C  C132  1  0.23447000  0.44447000  0.63707000  1.0
  C  C133  1  0.23467000  0.42082000  0.79518000  1.0
  C  C134  1  0.25307000  0.40359000  0.84328000  1.0
  C  C135  1  0.68746000  0.33901000  0.28827000  1.0
  C  C136  1  0.15403000  0.19267000  0.82872000  1.0
  C  C137  1  0.13794000  0.21044000  0.78063000  1.0
  C  C138  1  0.17749000  0.32467000  0.76317000  1.0
  C  C139  1  0.21189000  0.28924000  0.86029000  1.0
  C  C140  1  0.13160000  0.75820000  0.61443000  1.0
  C  C141  1  0.22841000  0.75447000  0.63924000  1.0
  C  C142  1  0.24964000  0.78666000  0.68760000  1.0
  C  C143  1  0.58683000  0.35253000  0.25837000  1.0
  C  C144  1  0.17605000  0.82468000  0.71260000  1.0
  C  C145  1  0.08050000  0.83005000  0.68706000  1.0
  C  C146  1  0.76228000  0.31157000  0.21924000  1.0
  C  C147  1  0.05799000  0.79672000  0.63870000  1.0
  C  C148  1  0.10279000  0.83712000  0.79554000  1.0
  C  C149  1  0.12455000  0.86750000  0.84413000  1.0
  C  C150  1  0.33967000  0.93519000  0.83242000  1.0
  C  C151  1  0.31766000  0.90668000  0.78369000  1.0
  C  C152  1  0.19883000  0.85658000  0.76427000  1.0
  C  C153  1  0.24337000  0.91632000  0.86303000  1.0
  C  C154  1  0.23690000  0.28855000  0.04782000  1.0
  C  C155  1  0.68463000  0.43651000  0.22231000  1.0
  C  C156  1  0.56728000  0.27972000  0.04842000  1.0
  C  C157  1  0.78667000  0.42146000  0.25087000  1.0
  C  C158  1  0.26706000  0.97266000  0.05325000  1.0
  C  C159  1  0.23203000  0.26582000  0.91078000  1.0
  C  C160  1  0.56218000  0.28978000  0.91493000  1.0
  C  C161  1  0.26725000  0.95834000  0.91391000  1.0
  C  C162  1  0.61932000  0.30684000  0.09605000  1.0
  C  C163  1  0.69493000  0.54884000  0.20287000  1.0
  C  C164  1  0.41285000  0.54793000  0.30223000  1.0
  C  C165  1  0.49544000  0.67457000  0.31699000  1.0
  C  C166  1  0.60366000  0.68486000  0.34700000  1.0
  C  C167  1  0.41201000  0.86607000  0.22171000  1.0
  C  C168  1  0.64191000  0.31583000  0.13921000  1.0
  C  C169  1  0.34695000  0.02373000  0.30687000  1.0
  C  C170  1  0.94692000  0.83788000  0.25885000  1.0
  C  C171  1  0.72722000  0.08759000  0.79939000  1.0
  C  C172  1  0.83804000  0.13538000  0.83283000  1.0
  C  C173  1  0.84830000  0.03577000  0.85864000  1.0
  C  C174  1  0.67118000  0.62097000  0.78884000  1.0
  C  C175  1  0.54866000  0.61924000  0.79314000  1.0
  C  C176  1  0.56235000  0.73687000  0.81193000  1.0
  C  C177  1  0.90996000  0.51431000  0.26578000  1.0
  C  C178  1  0.66502000  0.12000000  0.27553000  1.0
  O  O179  1  0.17029000  0.47373000  0.44018000  1.0
  O  O180  1  0.55005000  0.18119000  0.02996000  1.0
  O  O181  1  0.35973000  0.98437000  0.02886000  1.0
  O  O182  1  0.16726000  0.68255000  0.44081000  1.0
  O  O183  1  0.18346000  0.96623000  0.93627000  1.0
  O  O184  1  0.16506000  0.16341000  0.92590000  1.0
  O  O185  1  0.31842000  0.34943000  0.93522000  1.0
  O  O186  1  0.52784000  0.36118000  0.93361000  1.0
  O  O187  1  0.54918000  0.19576000  0.93527000  1.0
  O  O188  1  0.37500000  0.98957000  0.93152000  1.0
  O  O189  1  0.33821000  0.16613000  0.98227000  1.0
  O  O190  1  0.81574000  0.50204000  0.54655000  1.0
  O  O191  1  0.98929000  0.69121000  0.44793000  1.0
  O  O192  1  0.79964000  0.49385000  0.44981000  1.0
  O  O193  1  0.80609000  0.31982000  0.44714000  1.0
  O  O194  1  0.99820000  0.29917000  0.44833000  1.0
  O  O195  1  0.18149000  0.47830000  0.54298000  1.0
  O  O196  1  0.17926000  0.68432000  0.54461000  1.0
  O  O197  1  0.00405000  0.69749000  0.54425000  1.0
  O  O198  1  0.31885000  0.54279000  0.26967000  1.0
  O  O199  1  0.71587000  0.17711000  0.77215000  1.0
  O  O200  1  0.66213000  0.51693000  0.76550000  1.0
  O  O201  1  0.80514000  0.32151000  0.54218000  1.0
  O  O202  1  0.00256000  0.31003000  0.54354000  1.0
  O  O203  1  0.00900000  0.50349000  0.49422000  1.0
  O  O204  1  0.18441000  0.99643000  0.03872000  1.0
  O  O205  1  0.16217000  0.19348000  0.02768000  1.0
  O  O206  1  0.33962000  0.36519000  0.03067000  1.0
  O  O207  1  0.53624000  0.35163000  0.02905000  1.0
  O  O208  1  0.34253000  0.65716000  0.49175000  1.0
  O  O209  1  0.00549000  0.99093000  0.97933000  1.0
