# generated using pymatgen
data_ZnH4C2(N2Cl)2
_symmetry_space_group_name_H-M   'P 1'
_cell_length_a   7.37458000
_cell_length_b   7.40603000
_cell_length_c   13.48630000
_cell_angle_alpha   90.00030000
_cell_angle_beta   90.00030000
_cell_angle_gamma   89.99990000
_symmetry_Int_Tables_number   1
_chemical_formula_structural   ZnH4C2(N2Cl)2
_chemical_formula_sum   'Zn4 H16 C8 N16 Cl8'
_cell_volume   736.57262552
_cell_formula_units_Z   4
loop_
 _symmetry_equiv_pos_site_id
 _symmetry_equiv_pos_as_xyz
  1  'x, y, z'
loop_
 _atom_site_type_symbol
 _atom_site_label
 _atom_site_symmetry_multiplicity
 _atom_site_fract_x
 _atom_site_fract_y
 _atom_site_fract_z
 _atom_site_occupancy
  Zn  Zn0  1  0.76389000  0.72366000  0.57524000  1.0
  Zn  Zn1  1  0.23612000  0.22366000  0.42475000  1.0
  Zn  Zn2  1  0.23612000  0.72366000  0.07524000  1.0
  Zn  Zn3  1  0.76388000  0.22366000  0.92475000  1.0
  H  H4  1  0.50528000  0.60783000  0.29204000  1.0
  H  H5  1  0.49473000  0.10783000  0.70796000  1.0
  H  H6  1  0.49472000  0.60783000  0.79204000  1.0
  H  H7  1  0.50528000  0.10782000  0.20796000  1.0
  H  H8  1  0.51964000  0.63265000  0.42049000  1.0
  H  H9  1  0.48037000  0.13265000  0.57951000  1.0
  H  H10  1  0.48036000  0.63265000  0.92049000  1.0
  H  H11  1  0.51963000  0.13265000  0.07951000  1.0
  H  H12  1  0.71427000  0.75626000  0.19125000  1.0
  H  H13  1  0.28573000  0.25625000  0.80875000  1.0
  H  H14  1  0.28573000  0.75626000  0.69126000  1.0
  H  H15  1  0.71427000  0.25625000  0.30874000  1.0
  H  H16  1  0.91384000  0.84785000  0.24154000  1.0
  H  H17  1  0.08616000  0.34784000  0.75846000  1.0
  H  H18  1  0.08616000  0.84785000  0.74154000  1.0
  H  H19  1  0.91384000  0.34785000  0.25846000  1.0
  C  C20  1  0.72807000  0.74506000  0.34199000  1.0
  C  C21  1  0.27193000  0.24506000  0.65801000  1.0
  C  C22  1  0.27193000  0.74506000  0.84199000  1.0
  C  C23  1  0.72807000  0.24506000  0.15801000  1.0
  C  C24  1  0.94829000  0.91346000  0.41890000  1.0
  C  C25  1  0.05171000  0.41345000  0.58110000  1.0
  C  C26  1  0.05170000  0.91346000  0.91890000  1.0
  C  C27  1  0.94830000  0.41346000  0.08110000  1.0
  N  N28  1  0.57862000  0.64649000  0.35223000  1.0
  N  N29  1  0.42138000  0.14649000  0.64777000  1.0
  N  N30  1  0.42138000  0.64649000  0.85223000  1.0
  N  N31  1  0.57862000  0.14649000  0.14777000  1.0
  N  N32  1  0.78847000  0.79119000  0.25259000  1.0
  N  N33  1  0.21153000  0.29119000  0.74741000  1.0
  N  N34  1  0.21153000  0.79119000  0.75259000  1.0
  N  N35  1  0.78847000  0.29119000  0.24741000  1.0
  N  N36  1  0.81744000  0.79685000  0.42646000  1.0
  N  N37  1  0.18256000  0.29684000  0.57354000  1.0
  N  N38  1  0.18255000  0.79685000  0.92646000  1.0
  N  N39  1  0.81745000  0.29685000  0.07354000  1.0
  N  N40  1  0.06652000  0.01909000  0.41755000  1.0
  N  N41  1  0.93348000  0.51909000  0.58245000  1.0
  N  N42  1  0.93348000  0.01908000  0.91755000  1.0
  N  N43  1  0.06652000  0.51909000  0.08245000  1.0
  Cl  Cl44  1  0.47491000  0.63056000  0.58515000  1.0
  Cl  Cl45  1  0.52509000  0.13056000  0.41485000  1.0
  Cl  Cl46  1  0.52509000  0.63055000  0.08515000  1.0
  Cl  Cl47  1  0.47491000  0.13054000  0.91485000  1.0
  Cl  Cl48  1  0.83435000  0.96209000  0.66802000  1.0
  Cl  Cl49  1  0.16565000  0.46209000  0.33198000  1.0
  Cl  Cl50  1  0.16566000  0.96209000  0.16803000  1.0
  Cl  Cl51  1  0.83434000  0.46209000  0.83197000  1.0
