# generated using pymatgen
data_CuH7C7INO
_symmetry_space_group_name_H-M   'P 1'
_cell_length_a   4.20225000
_cell_length_b   10.93380000
_cell_length_c   18.04360000
_cell_angle_alpha   89.99970000
_cell_angle_beta   90.00000000
_cell_angle_gamma   96.34070000
_symmetry_Int_Tables_number   1
_chemical_formula_structural   CuH7C7INO
_chemical_formula_sum   'Cu4 H28 C28 I4 N4 O4'
_cell_volume   823.96991981
_cell_formula_units_Z   4
loop_
 _symmetry_equiv_pos_site_id
 _symmetry_equiv_pos_as_xyz
  1  'x, y, z'
loop_
 _atom_site_type_symbol
 _atom_site_label
 _atom_site_symmetry_multiplicity
 _atom_site_fract_x
 _atom_site_fract_y
 _atom_site_fract_z
 _atom_site_occupancy
  Cu  Cu0  1  0.24441000  0.48501000  0.04612000  1.0
  Cu  Cu1  1  0.75558000  0.01500000  0.54612000  1.0
  Cu  Cu2  1  0.75558000  0.51500000  0.95388000  1.0
  Cu  Cu3  1  0.24441000  0.98501000  0.45387000  1.0
  H  H4  1  0.42804000  0.42533000  0.20068000  1.0
  H  H5  1  0.57195000  0.07467000  0.70068000  1.0
  H  H6  1  0.57195000  0.57467000  0.79932000  1.0
  H  H7  1  0.42805000  0.92533000  0.29932000  1.0
  H  H8  1  0.01592000  0.68250000  0.34421000  1.0
  H  H9  1  0.98409000  0.81750000  0.84420000  1.0
  H  H10  1  0.98411000  0.31750000  0.65580000  1.0
  H  H11  1  0.01593000  0.18250000  0.15579000  1.0
  H  H12  1  0.82862000  0.78355000  0.22978000  1.0
  H  H13  1  0.17137000  0.71645000  0.72977000  1.0
  H  H14  1  0.17139000  0.21645000  0.77024000  1.0
  H  H15  1  0.82863000  0.28355000  0.27021000  1.0
  H  H16  1  0.95250000  0.69935000  0.10622000  1.0
  H  H17  1  0.04748000  0.80065000  0.60620000  1.0
  H  H18  1  0.04750000  0.30066000  0.89380000  1.0
  H  H19  1  0.95250000  0.19935000  0.39378000  1.0
  H  H20  1  0.31253000  0.43317000  0.46005000  1.0
  H  H21  1  0.68746000  0.06683000  0.96004000  1.0
  H  H22  1  0.68746000  0.56682000  0.53996000  1.0
  H  H23  1  0.31254000  0.93317000  0.03995000  1.0
  H  H24  1  0.95382000  0.47520000  0.41821000  1.0
  H  H25  1  0.04618000  0.02480000  0.91821000  1.0
  H  H26  1  0.04618000  0.52479000  0.58179000  1.0
  H  H27  1  0.95383000  0.97520000  0.08179000  1.0
  H  H28  1  0.27086000  0.59134000  0.43863000  1.0
  H  H29  1  0.72914000  0.90866000  0.93863000  1.0
  H  H30  1  0.72914000  0.40865000  0.56137000  1.0
  H  H31  1  0.27086000  0.09134000  0.06136000  1.0
  C  C32  1  0.29670000  0.50483000  0.20929000  1.0
  C  C33  1  0.70330000  0.99518000  0.70929000  1.0
  C  C34  1  0.70331000  0.49517000  0.79071000  1.0
  C  C35  1  0.29670000  0.00483000  0.29071000  1.0
  C  C36  1  0.23783000  0.54494000  0.28114000  1.0
  C  C37  1  0.76217000  0.95506000  0.78113000  1.0
  C  C38  1  0.76218000  0.45506000  0.71887000  1.0
  C  C39  1  0.23784000  0.04494000  0.21886000  1.0
  C  C40  1  0.06774000  0.64728000  0.28943000  1.0
  C  C41  1  0.93226000  0.85272000  0.78942000  1.0
  C  C42  1  0.93228000  0.35272000  0.71058000  1.0
  C  C43  1  0.06775000  0.14728000  0.21056000  1.0
  C  C44  1  0.96440000  0.70448000  0.22636000  1.0
  C  C45  1  0.03559000  0.79553000  0.72635000  1.0
  C  C46  1  0.03561000  0.29552000  0.77365000  1.0
  C  C47  1  0.96441000  0.20448000  0.27363000  1.0
  C  C48  1  0.03211000  0.65798000  0.15702000  1.0
  C  C49  1  0.96787000  0.84203000  0.65701000  1.0
  C  C50  1  0.96789000  0.34203000  0.84299000  1.0
  C  C51  1  0.03212000  0.15798000  0.34298000  1.0
  C  C52  1  0.35306000  0.47610000  0.34521000  1.0
  C  C53  1  0.64694000  0.02389000  0.84521000  1.0
  C  C54  1  0.64694000  0.52389000  0.65479000  1.0
  C  C55  1  0.35308000  0.97610000  0.15479000  1.0
  C  C56  1  0.21559000  0.49514000  0.42043000  1.0
  C  C57  1  0.78441000  0.00486000  0.92042000  1.0
  C  C58  1  0.78441000  0.50485000  0.57958000  1.0
  C  C59  1  0.21559000  0.99514000  0.07957000  1.0
  I  I60  1  0.68471000  0.33058000  0.04665000  1.0
  I  I61  1  0.31527000  0.16943000  0.54664000  1.0
  I  I62  1  0.31528000  0.66943000  0.95336000  1.0
  I  I63  1  0.68471000  0.83058000  0.45336000  1.0
  N  N64  1  0.19583000  0.55926000  0.14826000  1.0
  N  N65  1  0.80414000  0.94075000  0.64825000  1.0
  N  N66  1  0.80415000  0.44075000  0.85175000  1.0
  N  N67  1  0.19584000  0.05926000  0.35174000  1.0
  O  O68  1  0.55419000  0.40321000  0.33566000  1.0
  O  O69  1  0.44580000  0.09678000  0.83566000  1.0
  O  O70  1  0.44581000  0.59678000  0.66434000  1.0
  O  O71  1  0.55420000  0.90321000  0.16434000  1.0
