# generated using pymatgen
data_Zn3H14C20(BrO7)2
_symmetry_space_group_name_H-M   'P 1'
_cell_length_a   18.71460000
_cell_length_b   18.90280000
_cell_length_c   19.14053640
_cell_angle_alpha   109.11593956
_cell_angle_beta   109.58280495
_cell_angle_gamma   108.99200000
_symmetry_Int_Tables_number   1
_chemical_formula_structural   Zn3H14C20(BrO7)2
_chemical_formula_sum   'Zn6 H28 C40 Br4 O28'
_cell_volume   5258.28669574
_cell_formula_units_Z   2
loop_
 _symmetry_equiv_pos_site_id
 _symmetry_equiv_pos_as_xyz
  1  'x, y, z'
loop_
 _atom_site_type_symbol
 _atom_site_label
 _atom_site_symmetry_multiplicity
 _atom_site_fract_x
 _atom_site_fract_y
 _atom_site_fract_z
 _atom_site_occupancy
  Zn  Zn0  1  0.04873000  0.49848000  0.04892000  1.0
  Zn  Zn1  1  0.92118000  0.49419000  0.92379000  1.0
  Zn  Zn2  1  0.95777000  0.94411000  0.51747000  1.0
  Zn  Zn3  1  0.07876000  0.06374000  0.51113000  1.0
  Zn  Zn4  1  0.51068000  0.93573000  0.95470000  1.0
  Zn  Zn5  1  0.51499000  0.06079000  0.07878000  1.0
  H  H6  1  0.92724000  0.12545000  0.67176000  1.0
  H  H7  1  0.14319000  0.91084000  0.32704000  1.0
  H  H8  1  0.70238000  0.95738000  0.19028000  1.0
  H  H9  1  0.30138000  0.07018000  0.89379000  1.0
  H  H10  1  0.70600000  0.93363000  0.36940000  1.0
  H  H11  1  0.28075000  0.07334000  0.70009000  1.0
  H  H12  1  0.83264000  0.03283000  0.32289000  1.0
  H  H13  1  0.15857000  0.95474000  0.73691000  1.0
  H  H14  1  0.08722000  0.28072000  0.71033000  1.0
  H  H15  1  0.99785000  0.77611000  0.32904000  1.0
  H  H16  1  0.30877000  0.68975000  0.91146000  1.0
  H  H17  1  0.74362000  0.25112000  0.10122000  1.0
  H  H18  1  0.26514000  0.82973000  0.98790000  1.0
  H  H19  1  0.67913000  0.12573000  0.91518000  1.0
  H  H20  1  0.19756000  0.59730000  0.92946000  1.0
  H  H21  1  0.85919000  0.34775000  0.08669000  1.0
  H  H22  1  0.18541000  0.46462000  0.95959000  1.0
  H  H23  1  0.16857000  0.44012000  0.85404000  1.0
  H  H24  1  0.23899000  0.41391000  0.91795000  1.0
  H  H25  1  0.89981000  0.54015000  0.15556000  1.0
  H  H26  1  0.84638000  0.56981000  0.08188000  1.0
  H  H27  1  0.83331000  0.58607000  0.17380000  1.0
  H  H28  1  0.00884000  0.72030000  0.94374000  1.0
  H  H29  1  0.10328000  0.77324000  0.04709000  1.0
  H  H30  1  0.09239000  0.82786000  0.98653000  1.0
  H  H31  1  0.61143000  0.19508000  0.76725000  1.0
  H  H32  1  0.71366000  0.27898000  0.79599000  1.0
  H  H33  1  0.70621000  0.18239000  0.79831000  1.0
  C  C34  1  0.06962000  0.60296000  0.94914000  1.0
  C  C35  1  0.84524000  0.38403000  0.96597000  1.0
  C  C36  1  0.13500000  0.66934000  0.94404000  1.0
  C  C37  1  0.77727000  0.31070000  0.96137000  1.0
  C  C38  1  0.87506000  0.98148000  0.40484000  1.0
  C  C39  1  0.11196000  0.99038000  0.63859000  1.0
  C  C40  1  0.03991000  0.14629000  0.62033000  1.0
  C  C41  1  0.04695000  0.91044000  0.40727000  1.0
  C  C42  1  0.41036000  0.04580000  0.93777000  1.0
  C  C43  1  0.60913000  0.99847000  0.14935000  1.0
  C  C44  1  0.37796000  0.86113000  0.97215000  1.0
  C  C45  1  0.62876000  0.08713000  0.99204000  1.0
  C  C46  1  0.66711000  0.98484000  0.28361000  1.0
  C  C47  1  0.33503000  0.04172000  0.79853000  1.0
  C  C48  1  0.66339000  0.98161000  0.21092000  1.0
  C  C49  1  0.34506000  0.05308000  0.87516000  1.0
  C  C50  1  0.72734000  0.96708000  0.33725000  1.0
  C  C51  1  0.26452000  0.03995000  0.73417000  1.0
  C  C52  1  0.80890000  0.99413000  0.34987000  1.0
  C  C53  1  0.18003000  0.99391000  0.70945000  1.0
  C  C54  1  0.01517000  0.38159000  0.90360000  1.0
  C  C55  1  0.02008000  0.62278000  0.12426000  1.0
  C  C56  1  0.97566000  0.19340000  0.70539000  1.0
  C  C57  1  0.09492000  0.84645000  0.30730000  1.0
  C  C58  1  0.03824000  0.21479000  0.68405000  1.0
  C  C59  1  0.04467000  0.83860000  0.34435000  1.0
  C  C60  1  0.96356000  0.25167000  0.76554000  1.0
  C  C61  1  0.08999000  0.77526000  0.24328000  1.0
  C  C62  1  0.02843000  0.32178000  0.84180000  1.0
  C  C63  1  0.02237000  0.69303000  0.19291000  1.0
  C  C64  1  0.27084000  0.71535000  0.93294000  1.0
  C  C65  1  0.73878000  0.23321000  0.03863000  1.0
  C  C66  1  0.29796000  0.80017000  0.96202000  1.0
  C  C67  1  0.68378000  0.15039000  0.97746000  1.0
  C  C68  1  0.20010000  0.65741000  0.93501000  1.0
  C  C69  1  0.79596000  0.29929000  0.03068000  1.0
  C  C70  1  0.17959000  0.41895000  0.90202000  1.0
  C  C71  1  0.87810000  0.58625000  0.14890000  1.0
  C  C72  1  0.07885000  0.76544000  0.98270000  1.0
  C  C73  1  0.68199000  0.22860000  0.80884000  1.0
  Br  Br74  1  0.84382000  0.21334000  0.73291000  1.0
  Br  Br75  1  0.18750000  0.80236000  0.22465000  1.0
  Br  Br76  1  0.59422000  0.01065000  0.32463000  1.0
  Br  Br77  1  0.41428000  0.02641000  0.76094000  1.0
  O  O78  1  0.09817000  0.57668000  0.99959000  1.0
  O  O79  1  0.81966000  0.41096000  0.91329000  1.0
  O  O80  1  0.43744000  0.09400000  0.01727000  1.0
  O  O81  1  0.59109000  0.95553000  0.07298000  1.0
  O  O82  1  0.41043000  0.83493000  0.92552000  1.0
  O  O83  1  0.61446000  0.11352000  0.05354000  1.0
  O  O84  1  0.41147000  0.93880000  0.02879000  1.0
  O  O85  1  0.59733000  0.00725000  0.93864000  1.0
  O  O86  1  0.98850000  0.57716000  0.90181000  1.0
  O  O87  1  0.92404000  0.41589000  0.02121000  1.0
  O  O88  1  0.06627000  0.41033000  0.98312000  1.0
  O  O89  1  0.96580000  0.59624000  0.04825000  1.0
  O  O90  1  0.95847000  0.40247000  0.87535000  1.0
  O  O91  1  0.07005000  0.59241000  0.14848000  1.0
  O  O92  1  0.85194000  0.92994000  0.43340000  1.0
  O  O93  1  0.13575000  0.03749000  0.60747000  1.0
  O  O94  1  0.95230000  0.02498000  0.42097000  1.0
  O  O95  1  0.03222000  0.93781000  0.61246000  1.0
  O  O96  1  0.98938000  0.06900000  0.59666000  1.0
  O  O97  1  0.09763000  0.98893000  0.43003000  1.0
  O  O98  1  0.09278000  0.16933000  0.59256000  1.0
  O  O99  1  0.99530000  0.88845000  0.43552000  1.0
  O  O100  1  0.43392000  0.99199000  0.91047000  1.0
  O  O101  1  0.58596000  0.05457000  0.17531000  1.0
  O  O102  1  0.11077000  0.33362000  0.86712000  1.0
  O  O103  1  0.95000000  0.67280000  0.20085000  1.0
  O  O104  1  0.12565000  0.73726000  0.94372000  1.0
  O  O105  1  0.69522000  0.26389000  0.89401000  1.0
