# generated using pymatgen
data_Zn2H16C26N4O9
_symmetry_space_group_name_H-M   'P 1'
_cell_length_a   14.03010000
_cell_length_b   16.34050000
_cell_length_c   19.13940000
_cell_angle_alpha   113.18000000
_cell_angle_beta   90.01220000
_cell_angle_gamma   115.40600000
_symmetry_Int_Tables_number   1
_chemical_formula_structural   Zn2H16C26N4O9
_chemical_formula_sum   'Zn8 H64 C104 N16 O36'
_cell_volume   3567.22241683
_cell_formula_units_Z   4
loop_
 _symmetry_equiv_pos_site_id
 _symmetry_equiv_pos_as_xyz
  1  'x, y, z'
loop_
 _atom_site_type_symbol
 _atom_site_label
 _atom_site_symmetry_multiplicity
 _atom_site_fract_x
 _atom_site_fract_y
 _atom_site_fract_z
 _atom_site_occupancy
  Zn  Zn0  1  0.39102000  0.46167000  0.89134000  1.0
  Zn  Zn1  1  0.92953000  0.53841000  0.60877000  1.0
  Zn  Zn2  1  0.60898000  0.53834000  0.10866000  1.0
  Zn  Zn3  1  0.07047000  0.46158000  0.39123000  1.0
  Zn  Zn4  1  0.86259000  0.44283000  0.16798000  1.0
  Zn  Zn5  1  0.41969000  0.55716000  0.33195000  1.0
  Zn  Zn6  1  0.13740000  0.55718000  0.83201000  1.0
  Zn  Zn7  1  0.58031000  0.44284000  0.66805000  1.0
  H  H8  1  0.28404000  0.77462000  0.72513000  1.0
  H  H9  1  0.50949000  0.22552000  0.77505000  1.0
  H  H10  1  0.71597000  0.22538000  0.27487000  1.0
  H  H11  1  0.49051000  0.77449000  0.22494000  1.0
  H  H12  1  0.48433000  0.84201000  0.74280000  1.0
  H  H13  1  0.64253000  0.15825000  0.75763000  1.0
  H  H14  1  0.51567000  0.15798000  0.25719000  1.0
  H  H15  1  0.35746000  0.84175000  0.24237000  1.0
  H  H16  1  0.56123000  0.72159000  0.71314000  1.0
  H  H17  1  0.83977000  0.27879000  0.78731000  1.0
  H  H18  1  0.43877000  0.27840000  0.28685000  1.0
  H  H19  1  0.16023000  0.72121000  0.21269000  1.0
  H  H20  1  0.11074000  0.25272000  0.69474000  1.0
  H  H21  1  0.85813000  0.74753000  0.80531000  1.0
  H  H22  1  0.88925000  0.74728000  0.30526000  1.0
  H  H23  1  0.14187000  0.25247000  0.19469000  1.0
  H  H24  1  0.99990000  0.16011000  0.55985000  1.0
  H  H25  1  0.83985000  0.84019000  0.94016000  1.0
  H  H26  1  0.00010000  0.83989000  0.44015000  1.0
  H  H27  1  0.16014000  0.15981000  0.05984000  1.0
  H  H28  1  0.02787000  0.25228000  0.47743000  1.0
  H  H29  1  0.77551000  0.74804000  0.02258000  1.0
  H  H30  1  0.97213000  0.74773000  0.52257000  1.0
  H  H31  1  0.22449000  0.25196000  0.97741000  1.0
  H  H32  1  0.45271000  0.64024000  0.04588000  1.0
  H  H33  1  0.81285000  0.35991000  0.45420000  1.0
  H  H34  1  0.54729000  0.35977000  0.95412000  1.0
  H  H35  1  0.18715000  0.64009000  0.54581000  1.0
  H  H36  1  0.54072000  0.82807000  0.09492000  1.0
  H  H37  1  0.71288000  0.17208000  0.40514000  1.0
  H  H38  1  0.45929000  0.17193000  0.90509000  1.0
  H  H39  1  0.28712000  0.82792000  0.59486000  1.0
  H  H40  1  0.59185000  0.78552000  0.86309000  1.0
  H  H41  1  0.80615000  0.21448000  0.63700000  1.0
  H  H42  1  0.40814000  0.21448000  0.13691000  1.0
  H  H43  1  0.19384000  0.78551000  0.36300000  1.0
  H  H44  1  0.51024000  0.60047000  0.82457000  1.0
  H  H45  1  0.90970000  0.39953000  0.67558000  1.0
  H  H46  1  0.48975000  0.39953000  0.17543000  1.0
  H  H47  1  0.09029000  0.60047000  0.32443000  1.0
  H  H48  1  0.94607000  0.30722000  0.18202000  1.0
  H  H49  1  0.63881000  0.69277000  0.31797000  1.0
  H  H50  1  0.05393000  0.69278000  0.81798000  1.0
  H  H51  1  0.36119000  0.30723000  0.68202000  1.0
  H  H52  1  0.87436000  0.12241000  0.14500000  1.0
  H  H53  1  0.75196000  0.87761000  0.35514000  1.0
  H  H54  1  0.12564000  0.87759000  0.85500000  1.0
  H  H55  1  0.24803000  0.12239000  0.64486000  1.0
  H  H56  1  0.56901000  0.07407000  0.04244000  1.0
  H  H57  1  0.49465000  0.92593000  0.45716000  1.0
  H  H58  1  0.43099000  0.92593000  0.95756000  1.0
  H  H59  1  0.50535000  0.07407000  0.54284000  1.0
  H  H60  1  0.65265000  0.26113000  0.08524000  1.0
  H  H61  1  0.39133000  0.73889000  0.41436000  1.0
  H  H62  1  0.34735000  0.73886000  0.91476000  1.0
  H  H63  1  0.60867000  0.26110000  0.58563000  1.0
  H  H64  1  0.88428000  0.40344000  0.02684000  1.0
  H  H65  1  0.48082000  0.59644000  0.47302000  1.0
  H  H66  1  0.11572000  0.59656000  0.97316000  1.0
  H  H67  1  0.51918000  0.40356000  0.52698000  1.0
  H  H68  1  0.79475000  0.43912000  0.02680000  1.0
  H  H69  1  0.35564000  0.56088000  0.47309000  1.0
  H  H70  1  0.20525000  0.56088000  0.97320000  1.0
  H  H71  1  0.64436000  0.43912000  0.52691000  1.0
  C  C72  1  0.13336000  0.58258000  0.67888000  1.0
  C  C73  1  0.55062000  0.41746000  0.82111000  1.0
  C  C74  1  0.86664000  0.41742000  0.32113000  1.0
  C  C75  1  0.44937000  0.58254000  0.17889000  1.0
  C  C76  1  0.25283000  0.62144000  0.68843000  1.0
  C  C77  1  0.63129000  0.37868000  0.81165000  1.0
  C  C78  1  0.74717000  0.37855000  0.31157000  1.0
  C  C79  1  0.36870000  0.62132000  0.18835000  1.0
  C  C80  1  0.32009000  0.72433000  0.71304000  1.0
  C  C81  1  0.59579000  0.27584000  0.78715000  1.0
  C  C82  1  0.67991000  0.27566000  0.28696000  1.0
  C  C83  1  0.40421000  0.72416000  0.21285000  1.0
  C  C84  1  0.43150000  0.76164000  0.72283000  1.0
  C  C85  1  0.66998000  0.23860000  0.77748000  1.0
  C  C86  1  0.56850000  0.23836000  0.27716000  1.0
  C  C87  1  0.33002000  0.76140000  0.22252000  1.0
  C  C88  1  0.47456000  0.69516000  0.70659000  1.0
  C  C89  1  0.77945000  0.30513000  0.79372000  1.0
  C  C90  1  0.52544000  0.30483000  0.29340000  1.0
  C  C91  1  0.22055000  0.69487000  0.20628000  1.0
  C  C92  1  0.40770000  0.59142000  0.67965000  1.0
  C  C93  1  0.81622000  0.40884000  0.82056000  1.0
  C  C94  1  0.59230000  0.40858000  0.32034000  1.0
  C  C95  1  0.18378000  0.59116000  0.17944000  1.0
  C  C96  1  0.29503000  0.55309000  0.67016000  1.0
  C  C97  1  0.74182000  0.44710000  0.82993000  1.0
  C  C98  1  0.70497000  0.44691000  0.32984000  1.0
  C  C99  1  0.25818000  0.55290000  0.17007000  1.0
  C  C100  1  0.45906000  0.52355000  0.66018000  1.0
  C  C101  1  0.93540000  0.47679000  0.84014000  1.0
  C  C102  1  0.54094000  0.47645000  0.33981000  1.0
  C  C103  1  0.06460000  0.52322000  0.15986000  1.0
  C  C104  1  0.25666000  0.44246000  0.76805000  1.0
  C  C105  1  0.81425000  0.55766000  0.73200000  1.0
  C  C106  1  0.74334000  0.55754000  0.23195000  1.0
  C  C107  1  0.18575000  0.44234000  0.26800000  1.0
  C  C108  1  0.19782000  0.39169000  0.68583000  1.0
  C  C109  1  0.80604000  0.60851000  0.81417000  1.0
  C  C110  1  0.80217000  0.60831000  0.31417000  1.0
  C  C111  1  0.19396000  0.39150000  0.18583000  1.0
  C  C112  1  0.12215000  0.28995000  0.65677000  1.0
  C  C113  1  0.83217000  0.71027000  0.84324000  1.0
  C  C114  1  0.87785000  0.71005000  0.34323000  1.0
  C  C115  1  0.16782000  0.28973000  0.15676000  1.0
  C  C116  1  0.06053000  0.23879000  0.58184000  1.0
  C  C117  1  0.82170000  0.76146000  0.91816000  1.0
  C  C118  1  0.93947000  0.76121000  0.41816000  1.0
  C  C119  1  0.17829000  0.23854000  0.08184000  1.0
  C  C120  1  0.07612000  0.28960000  0.53578000  1.0
  C  C121  1  0.78639000  0.71066000  0.96423000  1.0
  C  C122  1  0.92388000  0.71040000  0.46422000  1.0
  C  C123  1  0.21360000  0.28934000  0.03577000  1.0
  C  C124  1  0.15448000  0.39050000  0.56308000  1.0
  C  C125  1  0.76380000  0.60974000  0.93693000  1.0
  C  C126  1  0.84553000  0.60950000  0.43692000  1.0
  C  C127  1  0.23620000  0.39027000  0.06307000  1.0
  C  C128  1  0.21709000  0.44331000  0.63903000  1.0
  C  C129  1  0.77358000  0.55690000  0.86098000  1.0
  C  C130  1  0.78291000  0.55669000  0.36097000  1.0
  C  C131  1  0.22642000  0.44311000  0.13902000  1.0
  C  C132  1  0.16828000  0.43912000  0.50879000  1.0
  C  C133  1  0.72899000  0.56108000  0.99119000  1.0
  C  C134  1  0.83173000  0.56087000  0.49121000  1.0
  C  C135  1  0.27101000  0.43893000  0.00881000  1.0
  C  C136  1  0.48494000  0.67551000  0.00754000  1.0
  C  C137  1  0.80967000  0.32461000  0.49255000  1.0
  C  C138  1  0.51506000  0.32449000  0.99246000  1.0
  C  C139  1  0.19034000  0.67539000  0.50746000  1.0
  C  C140  1  0.53445000  0.77947000  0.03471000  1.0
  C  C141  1  0.75516000  0.22065000  0.46536000  1.0
  C  C142  1  0.46555000  0.22054000  0.96529000  1.0
  C  C143  1  0.24484000  0.77935000  0.53465000  1.0
  C  C144  1  0.57307000  0.82008000  0.98222000  1.0
  C  C145  1  0.75301000  0.17999000  0.51784000  1.0
  C  C146  1  0.42692000  0.17992000  0.01778000  1.0
  C  C147  1  0.24699000  0.82001000  0.48217000  1.0
  C  C148  1  0.56268000  0.75581000  0.90501000  1.0
  C  C149  1  0.80681000  0.24422000  0.59508000  1.0
  C  C150  1  0.43731000  0.24419000  0.09499000  1.0
  C  C151  1  0.19318000  0.75578000  0.40492000  1.0
  C  C152  1  0.51581000  0.65312000  0.88313000  1.0
  C  C153  1  0.86269000  0.34691000  0.61699000  1.0
  C  C154  1  0.48418000  0.34688000  0.11687000  1.0
  C  C155  1  0.13731000  0.65309000  0.38302000  1.0
  C  C156  1  0.86329000  0.25288000  0.15103000  1.0
  C  C157  1  0.61035000  0.74714000  0.34891000  1.0
  C  C158  1  0.13671000  0.74712000  0.84897000  1.0
  C  C159  1  0.38965000  0.25286000  0.65108000  1.0
  C  C160  1  0.82349000  0.15083000  0.13058000  1.0
  C  C161  1  0.67262000  0.84920000  0.36942000  1.0
  C  C162  1  0.17651000  0.84917000  0.86942000  1.0
  C  C163  1  0.32738000  0.15081000  0.63057000  1.0
  C  C164  1  0.71738000  0.08485000  0.08915000  1.0
  C  C165  1  0.63245000  0.91519000  0.41077000  1.0
  C  C166  1  0.28262000  0.91515000  0.91085000  1.0
  C  C167  1  0.36755000  0.08481000  0.58923000  1.0
  C  C168  1  0.65300000  0.12326000  0.07215000  1.0
  C  C169  1  0.52955000  0.87677000  0.42757000  1.0
  C  C170  1  0.34700000  0.87674000  0.92784000  1.0
  C  C171  1  0.47044000  0.12323000  0.57243000  1.0
  C  C172  1  0.69848000  0.22645000  0.09635000  1.0
  C  C173  1  0.47188000  0.77358000  0.40335000  1.0
  C  C174  1  0.30152000  0.77355000  0.90364000  1.0
  C  C175  1  0.52812000  0.22641000  0.59665000  1.0
  N  N176  1  0.47593000  0.61373000  0.93315000  1.0
  N  N177  1  0.86236000  0.38635000  0.56696000  1.0
  N  N178  1  0.52406000  0.38627000  0.06685000  1.0
  N  N179  1  0.13764000  0.61365000  0.43304000  1.0
  N  N180  1  0.61779000  0.92418000  0.00225000  1.0
  N  N181  1  0.69351000  0.07587000  0.49775000  1.0
  N  N182  1  0.38220000  0.07582000  0.99775000  1.0
  N  N183  1  0.30649000  0.92413000  0.50226000  1.0
  N  N184  1  0.67911000  0.98111000  0.06824000  1.0
  N  N185  1  0.69804000  0.01895000  0.43180000  1.0
  N  N186  1  0.32089000  0.01889000  0.93176000  1.0
  N  N187  1  0.30196000  0.98104000  0.56821000  1.0
  N  N188  1  0.80132000  0.28960000  0.13447000  1.0
  N  N189  1  0.51163000  0.71042000  0.36537000  1.0
  N  N190  1  0.19869000  0.71041000  0.86553000  1.0
  N  N191  1  0.48838000  0.28957000  0.63463000  1.0
  O  O192  1  0.09019000  0.59894000  0.63016000  1.0
  O  O193  1  0.49111000  0.40110000  0.86980000  1.0
  O  O194  1  0.90982000  0.40106000  0.36984000  1.0
  O  O195  1  0.50890000  0.59891000  0.13020000  1.0
  O  O196  1  0.08112000  0.53628000  0.71689000  1.0
  O  O197  1  0.54468000  0.46374000  0.78306000  1.0
  O  O198  1  0.91888000  0.46372000  0.28312000  1.0
  O  O199  1  0.45532000  0.53625000  0.21693000  1.0
  O  O200  1  0.26203000  0.52550000  0.81614000  1.0
  O  O201  1  0.73666000  0.47461000  0.68387000  1.0
  O  O202  1  0.73797000  0.47450000  0.18386000  1.0
  O  O203  1  0.26334000  0.52539000  0.31613000  1.0
  O  O204  1  0.29985000  0.39707000  0.78650000  1.0
  O  O205  1  0.90290000  0.60299000  0.71363000  1.0
  O  O206  1  0.70015000  0.60293000  0.21351000  1.0
  O  O207  1  0.09710000  0.39701000  0.28637000  1.0
  O  O208  1  0.56035000  0.56567000  0.69114000  1.0
  O  O209  1  0.99458000  0.43473000  0.80904000  1.0
  O  O210  1  0.43964000  0.43432000  0.30885000  1.0
  O  O211  1  0.00542000  0.56527000  0.19096000  1.0
  O  O212  1  0.40487000  0.43068000  0.61718000  1.0
  O  O213  1  0.97397000  0.56957000  0.88335000  1.0
  O  O214  1  0.59513000  0.56931000  0.38282000  1.0
  O  O215  1  0.02603000  0.43044000  0.11665000  1.0
  O  O216  1  0.25804000  0.50795000  0.51325000  1.0
  O  O217  1  0.74996000  0.49226000  0.98678000  1.0
  O  O218  1  0.74197000  0.49204000  0.48675000  1.0
  O  O219  1  0.25004000  0.50774000  0.01322000  1.0
  O  O220  1  0.08067000  0.40352000  0.46013000  1.0
  O  O221  1  0.67696000  0.59665000  0.03983000  1.0
  O  O222  1  0.91934000  0.59648000  0.53987000  1.0
  O  O223  1  0.32305000  0.40336000  0.96017000  1.0
  O  O224  1  0.81816000  0.39961000  0.04475000  1.0
  O  O225  1  0.41854000  0.60027000  0.45507000  1.0
  O  O226  1  0.18184000  0.60039000  0.95525000  1.0
  O  O227  1  0.58146000  0.39973000  0.54493000  1.0
