# generated using pymatgen
data_AgH17C10S(NO2)2
_symmetry_space_group_name_H-M   'P 1'
_cell_length_a   6.76270000
_cell_length_b   10.12130000
_cell_length_c   19.11790000
_cell_angle_alpha   89.99980000
_cell_angle_beta   94.19280000
_cell_angle_gamma   89.99890000
_symmetry_Int_Tables_number   1
_chemical_formula_structural   AgH17C10S(NO2)2
_chemical_formula_sum   'Ag4 H68 C40 S4 N8 O16'
_cell_volume   1305.06677422
_cell_formula_units_Z   4
loop_
 _symmetry_equiv_pos_site_id
 _symmetry_equiv_pos_as_xyz
  1  'x, y, z'
loop_
 _atom_site_type_symbol
 _atom_site_label
 _atom_site_symmetry_multiplicity
 _atom_site_fract_x
 _atom_site_fract_y
 _atom_site_fract_z
 _atom_site_occupancy
  Ag  Ag0  1  0.83313000  0.86780000  0.73477000  1.0
  Ag  Ag1  1  0.66687000  0.36780000  0.26523000  1.0
  Ag  Ag2  1  0.16685000  0.13219000  0.26523000  1.0
  Ag  Ag3  1  0.33315000  0.63219000  0.73476000  1.0
  H  H4  1  0.78021000  0.73505000  0.87756000  1.0
  H  H5  1  0.71982000  0.23505000  0.12245000  1.0
  H  H6  1  0.21982000  0.26496000  0.12245000  1.0
  H  H7  1  0.28020000  0.76495000  0.87755000  1.0
  H  H8  1  0.98589000  0.63482000  0.90589000  1.0
  H  H9  1  0.51412000  0.13485000  0.09411000  1.0
  H  H10  1  0.01413000  0.36516000  0.09411000  1.0
  H  H11  1  0.48588000  0.86516000  0.90589000  1.0
  H  H12  1  0.72304000  0.61819000  0.99035000  1.0
  H  H13  1  0.77699000  0.11820000  0.00965000  1.0
  H  H14  1  0.27698000  0.38181000  0.00965000  1.0
  H  H15  1  0.22303000  0.88181000  0.99035000  1.0
  H  H16  1  0.54760000  0.57073000  0.92197000  1.0
  H  H17  1  0.95240000  0.07072000  0.07803000  1.0
  H  H18  1  0.45241000  0.42928000  0.07803000  1.0
  H  H19  1  0.04760000  0.92928000  0.92197000  1.0
  H  H20  1  0.91708000  0.41281000  0.97387000  1.0
  H  H21  1  0.58291000  0.91284000  0.02612000  1.0
  H  H22  1  0.08290000  0.58717000  0.02612000  1.0
  H  H23  1  0.41709000  0.08718000  0.97387000  1.0
  H  H24  1  0.66873000  0.37157000  0.98726000  1.0
  H  H25  1  0.83126000  0.87158000  0.01273000  1.0
  H  H26  1  0.33126000  0.62843000  0.01273000  1.0
  H  H27  1  0.16873000  0.12843000  0.98726000  1.0
  H  H28  1  0.59531000  0.34146000  0.85834000  1.0
  H  H29  1  0.90467000  0.84144000  0.14166000  1.0
  H  H30  1  0.40467000  0.65856000  0.14165000  1.0
  H  H31  1  0.09531000  0.15856000  0.85834000  1.0
  H  H32  1  0.79910000  0.24188000  0.88738000  1.0
  H  H33  1  0.70085000  0.74188000  0.11261000  1.0
  H  H34  1  0.20085000  0.75812000  0.11261000  1.0
  H  H35  1  0.29912000  0.25812000  0.88738000  1.0
  H  H36  1  0.85882000  0.35756000  0.77676000  1.0
  H  H37  1  0.64112000  0.85755000  0.22322000  1.0
  H  H38  1  0.14114000  0.64245000  0.22322000  1.0
  H  H39  1  0.35884000  0.14244000  0.77677000  1.0
  H  H40  1  0.03335000  0.40965000  0.84436000  1.0
  H  H41  1  0.46662000  0.90967000  0.15563000  1.0
  H  H42  1  0.96661000  0.59034000  0.15563000  1.0
  H  H43  1  0.53337000  0.09033000  0.84436000  1.0
  H  H44  1  0.65368000  0.55914000  0.79513000  1.0
  H  H45  1  0.84630000  0.05911000  0.20487000  1.0
  H  H46  1  0.34631000  0.44088000  0.20487000  1.0
  H  H47  1  0.15369000  0.94087000  0.79513000  1.0
  H  H48  1  0.91088000  0.45693000  0.67717000  1.0
  H  H49  1  0.58912000  0.95693000  0.32283000  1.0
  H  H50  1  0.08911000  0.54307000  0.32284000  1.0
  H  H51  1  0.41088000  0.04307000  0.67717000  1.0
  H  H52  1  0.70214000  0.56625000  0.66648000  1.0
  H  H53  1  0.79788000  0.06625000  0.33352000  1.0
  H  H54  1  0.29787000  0.43375000  0.33352000  1.0
  H  H55  1  0.20213000  0.93374000  0.66648000  1.0
  H  H56  1  0.09683000  0.73282000  0.50911000  1.0
  H  H57  1  0.40319000  0.23282000  0.49089000  1.0
  H  H58  1  0.90319000  0.26719000  0.49090000  1.0
  H  H59  1  0.59682000  0.76718000  0.50911000  1.0
  H  H60  1  0.91743000  0.66204000  0.44640000  1.0
  H  H61  1  0.58258000  0.16203000  0.55360000  1.0
  H  H62  1  0.08258000  0.33798000  0.55361000  1.0
  H  H63  1  0.41743000  0.83797000  0.44640000  1.0
  H  H64  1  0.74632000  0.42182000  0.57605000  1.0
  H  H65  1  0.75369000  0.92181000  0.42396000  1.0
  H  H66  1  0.25367000  0.57820000  0.42395000  1.0
  H  H67  1  0.24632000  0.07820000  0.57605000  1.0
  H  H68  1  0.70856000  0.47612000  0.48754000  1.0
  H  H69  1  0.79145000  0.97610000  0.51247000  1.0
  H  H70  1  0.29146000  0.52390000  0.51247000  1.0
  H  H71  1  0.20856000  0.02390000  0.48753000  1.0
  C  C72  1  0.82844000  0.63195000  0.88615000  1.0
  C  C73  1  0.67157000  0.13196000  0.11386000  1.0
  C  C74  1  0.17158000  0.36805000  0.11386000  1.0
  C  C75  1  0.32843000  0.86805000  0.88614000  1.0
  C  C76  1  0.70591000  0.56435000  0.94022000  1.0
  C  C77  1  0.79409000  0.06435000  0.05978000  1.0
  C  C78  1  0.29409000  0.43565000  0.05978000  1.0
  C  C79  1  0.20591000  0.93565000  0.94022000  1.0
  C  C80  1  0.76378000  0.41882000  0.95016000  1.0
  C  C81  1  0.73622000  0.91883000  0.04983000  1.0
  C  C82  1  0.23621000  0.58117000  0.04983000  1.0
  C  C83  1  0.26378000  0.08118000  0.95016000  1.0
  C  C84  1  0.75040000  0.34503000  0.88021000  1.0
  C  C85  1  0.74956000  0.84503000  0.11978000  1.0
  C  C86  1  0.24956000  0.65497000  0.11978000  1.0
  C  C87  1  0.25042000  0.15497000  0.88021000  1.0
  C  C88  1  0.87465000  0.41200000  0.82649000  1.0
  C  C89  1  0.62531000  0.91200000  0.17350000  1.0
  C  C90  1  0.12531000  0.58800000  0.17350000  1.0
  C  C91  1  0.37466000  0.08800000  0.82649000  1.0
  C  C92  1  0.80964000  0.55567000  0.81700000  1.0
  C  C93  1  0.69035000  0.05567000  0.18300000  1.0
  C  C94  1  0.19035000  0.44433000  0.18300000  1.0
  C  C95  1  0.30964000  0.94433000  0.81700000  1.0
  C  C96  1  0.86479000  0.56073000  0.67314000  1.0
  C  C97  1  0.63522000  0.06072000  0.32687000  1.0
  C  C98  1  0.13522000  0.43928000  0.32687000  1.0
  C  C99  1  0.36479000  0.93928000  0.67313000  1.0
  C  C100  1  0.95780000  0.63208000  0.61381000  1.0
  C  C101  1  0.54221000  0.13207000  0.38619000  1.0
  C  C102  1  0.04222000  0.36792000  0.38620000  1.0
  C  C103  1  0.45781000  0.86792000  0.61381000  1.0
  C  C104  1  0.02525000  0.64089000  0.49084000  1.0
  C  C105  1  0.47477000  0.14088000  0.50916000  1.0
  C  C106  1  0.97477000  0.35912000  0.50917000  1.0
  C  C107  1  0.52524000  0.85912000  0.49084000  1.0
  C  C108  1  0.82090000  0.45918000  0.53121000  1.0
  C  C109  1  0.67910000  0.95917000  0.46880000  1.0
  C  C110  1  0.17911000  0.54083000  0.46880000  1.0
  C  C111  1  0.32090000  0.04083000  0.53120000  1.0
  S  S112  1  0.95080000  0.64361000  0.75374000  1.0
  S  S113  1  0.54922000  0.14361000  0.24626000  1.0
  S  S114  1  0.04922000  0.35639000  0.24627000  1.0
  S  S115  1  0.45078000  0.85639000  0.75373000  1.0
  N  N116  1  0.91994000  0.58494000  0.54824000  1.0
  N  N117  1  0.58008000  0.08494000  0.45177000  1.0
  N  N118  1  0.08007000  0.41506000  0.45177000  1.0
  N  N119  1  0.41994000  0.91506000  0.54824000  1.0
  N  N120  1  0.87394000  0.12920000  0.68289000  1.0
  N  N121  1  0.62608000  0.62919000  0.31711000  1.0
  N  N122  1  0.12607000  0.87082000  0.31710000  1.0
  N  N123  1  0.37393000  0.37082000  0.68290000  1.0
  O  O124  1  0.06507000  0.73119000  0.62689000  1.0
  O  O125  1  0.43494000  0.23119000  0.37312000  1.0
  O  O126  1  0.93497000  0.26879000  0.37312000  1.0
  O  O127  1  0.56508000  0.76880000  0.62688000  1.0
  O  O128  1  0.87109000  0.10158000  0.74860000  1.0
  O  O129  1  0.62892000  0.60156000  0.25141000  1.0
  O  O130  1  0.12892000  0.89842000  0.25140000  1.0
  O  O131  1  0.37107000  0.39842000  0.74860000  1.0
  O  O132  1  0.86563000  0.03289000  0.63948000  1.0
  O  O133  1  0.63440000  0.53289000  0.36053000  1.0
  O  O134  1  0.13435000  0.96708000  0.36052000  1.0
  O  O135  1  0.36567000  0.46708000  0.63948000  1.0
  O  O136  1  0.88454000  0.24579000  0.66257000  1.0
  O  O137  1  0.61546000  0.74579000  0.33743000  1.0
  O  O138  1  0.11546000  0.75418000  0.33743000  1.0
  O  O139  1  0.38452000  0.25418000  0.66257000  1.0
