# generated using pymatgen
data_PrCdH7C5SN2O11
_symmetry_space_group_name_H-M   'P 1'
_cell_length_a   8.73690000
_cell_length_b   10.61440000
_cell_length_c   13.90320000
_cell_angle_alpha   90.00000000
_cell_angle_beta   101.63000000
_cell_angle_gamma   89.99990000
_symmetry_Int_Tables_number   1
_chemical_formula_structural   PrCdH7C5SN2O11
_chemical_formula_sum   'Pr4 Cd4 H28 C20 S4 N8 O44'
_cell_volume   1262.87000643
_cell_formula_units_Z   4
loop_
 _symmetry_equiv_pos_site_id
 _symmetry_equiv_pos_as_xyz
  1  'x, y, z'
loop_
 _atom_site_type_symbol
 _atom_site_label
 _atom_site_symmetry_multiplicity
 _atom_site_fract_x
 _atom_site_fract_y
 _atom_site_fract_z
 _atom_site_occupancy
  Pr  Pr0  1  0.93498000  0.89151000  0.11127000  1.0
  Pr  Pr1  1  0.06502000  0.39151000  0.38873000  1.0
  Pr  Pr2  1  0.06502000  0.10849000  0.88873000  1.0
  Pr  Pr3  1  0.93498000  0.60849000  0.61127000  1.0
  Cd  Cd4  1  0.61693000  0.48698000  0.13438000  1.0
  Cd  Cd5  1  0.38307000  0.98698000  0.36562000  1.0
  Cd  Cd6  1  0.38307000  0.51302000  0.86562000  1.0
  Cd  Cd7  1  0.61693000  0.01302000  0.63438000  1.0
  H  H8  1  0.62400000  0.26427000  0.33591000  1.0
  H  H9  1  0.37600000  0.76427000  0.16409000  1.0
  H  H10  1  0.37600000  0.73573000  0.66409000  1.0
  H  H11  1  0.62400000  0.23573000  0.83591000  1.0
  H  H12  1  0.01470000  0.89670000  0.34326000  1.0
  H  H13  1  0.98530000  0.39670000  0.15674000  1.0
  H  H14  1  0.98530000  0.10330000  0.65674000  1.0
  H  H15  1  0.01470000  0.60330000  0.84326000  1.0
  H  H16  1  0.82952000  0.90588000  0.31943000  1.0
  H  H17  1  0.17048000  0.40588000  0.18057000  1.0
  H  H18  1  0.17048000  0.09412000  0.68057000  1.0
  H  H19  1  0.82952000  0.59412000  0.81943000  1.0
  H  H20  1  0.01889000  0.62146000  0.17461000  1.0
  H  H21  1  0.98111000  0.12146000  0.32539000  1.0
  H  H22  1  0.98111000  0.37854000  0.82539000  1.0
  H  H23  1  0.01889000  0.87854000  0.67461000  1.0
  H  H24  1  0.05876000  0.68375000  0.27764000  1.0
  H  H25  1  0.94125000  0.18375000  0.22236000  1.0
  H  H26  1  0.94124000  0.31625000  0.72236000  1.0
  H  H27  1  0.05876000  0.81625000  0.77764000  1.0
  H  H28  1  0.55363000  0.88517000  0.06908000  1.0
  H  H29  1  0.44637000  0.38517000  0.43092000  1.0
  H  H30  1  0.44637000  0.11483000  0.93092000  1.0
  H  H31  1  0.55363000  0.61483000  0.56908000  1.0
  H  H32  1  0.62098000  0.02342000  0.08264000  1.0
  H  H33  1  0.37902000  0.52342000  0.41736000  1.0
  H  H34  1  0.37902000  0.97658000  0.91736000  1.0
  H  H35  1  0.62098000  0.47658000  0.58264000  1.0
  C  C36  1  0.52867000  0.24738000  0.27390000  1.0
  C  C37  1  0.47133000  0.74738000  0.22610000  1.0
  C  C38  1  0.47133000  0.75262000  0.72610000  1.0
  C  C39  1  0.52867000  0.25262000  0.77390000  1.0
  C  C40  1  0.33095000  0.15901000  0.17766000  1.0
  C  C41  1  0.66905000  0.65900000  0.32234000  1.0
  C  C42  1  0.66905000  0.84099000  0.82234000  1.0
  C  C43  1  0.33095000  0.34099000  0.67766000  1.0
  C  C44  1  0.37350000  0.26748000  0.13110000  1.0
  C  C45  1  0.62649000  0.76748000  0.36890000  1.0
  C  C46  1  0.62649000  0.73252000  0.86890000  1.0
  C  C47  1  0.37351000  0.23252000  0.63110000  1.0
  C  C48  1  0.21442000  0.06019000  0.14877000  1.0
  C  C49  1  0.78558000  0.56019000  0.35123000  1.0
  C  C50  1  0.78557000  0.93981000  0.85123000  1.0
  C  C51  1  0.21442000  0.43981000  0.64877000  1.0
  C  C52  1  0.31506000  0.32831000  0.03472000  1.0
  C  C53  1  0.68494000  0.82831000  0.46528000  1.0
  C  C54  1  0.68494000  0.67169000  0.96528000  1.0
  C  C55  1  0.31506000  0.17169000  0.53472000  1.0
  S  S56  1  0.78602000  0.21947000  0.04302000  1.0
  S  S57  1  0.21398000  0.71947000  0.45698000  1.0
  S  S58  1  0.21398000  0.78053000  0.95698000  1.0
  S  S59  1  0.78602000  0.28053000  0.54302000  1.0
  N  N60  1  0.49838000  0.32080000  0.19366000  1.0
  N  N61  1  0.50162000  0.82080000  0.30634000  1.0
  N  N62  1  0.50162000  0.67920000  0.80634000  1.0
  N  N63  1  0.49838000  0.17920000  0.69366000  1.0
  N  N64  1  0.42894000  0.14983000  0.26832000  1.0
  N  N65  1  0.57106000  0.64983000  0.23168000  1.0
  N  N66  1  0.57106000  0.85017000  0.73168000  1.0
  N  N67  1  0.42894000  0.35017000  0.76832000  1.0
  O  O68  1  0.18786000  0.98289000  0.21453000  1.0
  O  O69  1  0.81214000  0.48289000  0.28547000  1.0
  O  O70  1  0.81214000  0.01711000  0.78547000  1.0
  O  O71  1  0.18786000  0.51711000  0.71453000  1.0
  O  O72  1  0.13839000  0.04803000  0.06054000  1.0
  O  O73  1  0.86160000  0.54803000  0.43946000  1.0
  O  O74  1  0.86160000  0.95197000  0.93946000  1.0
  O  O75  1  0.13840000  0.45197000  0.56054000  1.0
  O  O76  1  0.20394000  0.28245000  0.97240000  1.0
  O  O77  1  0.79606000  0.78245000  0.52760000  1.0
  O  O78  1  0.79606000  0.71755000  0.02760000  1.0
  O  O79  1  0.20394000  0.21755000  0.47240000  1.0
  O  O80  1  0.38315000  0.43123000  0.01890000  1.0
  O  O81  1  0.61685000  0.93123000  0.48109000  1.0
  O  O82  1  0.61685000  0.56877000  0.98110000  1.0
  O  O83  1  0.38315000  0.06877000  0.51890000  1.0
  O  O84  1  0.61897000  0.18489000  0.01603000  1.0
  O  O85  1  0.38103000  0.68488000  0.48397000  1.0
  O  O86  1  0.38103000  0.81511000  0.98397000  1.0
  O  O87  1  0.61897000  0.31511000  0.51603000  1.0
  O  O88  1  0.80789000  0.34530000  0.09256000  1.0
  O  O89  1  0.19211000  0.84530000  0.40744000  1.0
  O  O90  1  0.19211000  0.65470000  0.90744000  1.0
  O  O91  1  0.80789000  0.15470000  0.59256000  1.0
  O  O92  1  0.86766000  0.12393000  0.11626000  1.0
  O  O93  1  0.13234000  0.62393000  0.38374000  1.0
  O  O94  1  0.13234000  0.87607000  0.88374000  1.0
  O  O95  1  0.86766000  0.37607000  0.61626000  1.0
  O  O96  1  0.85912000  0.22208000  0.95575000  1.0
  O  O97  1  0.14088000  0.72208000  0.54425000  1.0
  O  O98  1  0.14088000  0.77792000  0.04425000  1.0
  O  O99  1  0.85912000  0.27792000  0.45575000  1.0
  O  O100  1  0.92285000  0.93466000  0.29744000  1.0
  O  O101  1  0.07715000  0.43466000  0.20256000  1.0
  O  O102  1  0.07715000  0.06534000  0.70256000  1.0
  O  O103  1  0.92285000  0.56534000  0.79744000  1.0
  O  O104  1  0.00631000  0.70083000  0.20805000  1.0
  O  O105  1  0.99369000  0.20083000  0.29195000  1.0
  O  O106  1  0.99369000  0.29917000  0.79195000  1.0
  O  O107  1  0.00631000  0.79917000  0.70805000  1.0
  O  O108  1  0.64341000  0.93519000  0.10307000  1.0
  O  O109  1  0.35659000  0.43519000  0.39693000  1.0
  O  O110  1  0.35659000  0.06481000  0.89693000  1.0
  O  O111  1  0.64341000  0.56481000  0.60307000  1.0
