# generated using pymatgen
data_Cu2H5C3SN4ClO
_symmetry_space_group_name_H-M   'P 1'
_cell_length_a   6.02642000
_cell_length_b   6.99770000
_cell_length_c   10.15510000
_cell_angle_alpha   78.33170000
_cell_angle_beta   74.10760000
_cell_angle_gamma   76.29610000
_symmetry_Int_Tables_number   1
_chemical_formula_structural   Cu2H5C3SN4ClO
_chemical_formula_sum   'Cu4 H10 C6 S2 N8 Cl2 O2'
_cell_volume   395.80947793
_cell_formula_units_Z   2
loop_
 _symmetry_equiv_pos_site_id
 _symmetry_equiv_pos_as_xyz
  1  'x, y, z'
loop_
 _atom_site_type_symbol
 _atom_site_label
 _atom_site_symmetry_multiplicity
 _atom_site_fract_x
 _atom_site_fract_y
 _atom_site_fract_z
 _atom_site_occupancy
  Cu  Cu0  1  0.55522000  0.19799000  0.48380000  1.0
  Cu  Cu1  1  0.44481000  0.80202000  0.51619000  1.0
  Cu  Cu2  1  0.14863000  0.53143000  0.37663000  1.0
  Cu  Cu3  1  0.85141000  0.46857000  0.62336000  1.0
  H  H4  1  0.17983000  0.09558000  0.85575000  1.0
  H  H5  1  0.82014000  0.90441000  0.14426000  1.0
  H  H6  1  0.07122000  0.40216000  0.13361000  1.0
  H  H7  1  0.92878000  0.59784000  0.86639000  1.0
  H  H8  1  0.92279000  0.25157000  0.07792000  1.0
  H  H9  1  0.07719000  0.74843000  0.92209000  1.0
  H  H10  1  0.26213000  0.38004000  0.88912000  1.0
  H  H11  1  0.73785000  0.61994000  0.11088000  1.0
  H  H12  1  0.45837000  0.23060000  0.98996000  1.0
  H  H13  1  0.54162000  0.76940000  0.01003000  1.0
  C  C14  1  0.27564000  0.09722000  0.29557000  1.0
  C  C15  1  0.72436000  0.90278000  0.70443000  1.0
  C  C16  1  0.09148000  0.26166000  0.09516000  1.0
  C  C17  1  0.90853000  0.73834000  0.90485000  1.0
  C  C18  1  0.28954000  0.24373000  0.96390000  1.0
  C  C19  1  0.71045000  0.75627000  0.03610000  1.0
  S  S20  1  0.42297000  0.27881000  0.29706000  1.0
  S  S21  1  0.57705000  0.72120000  0.70294000  1.0
  N  N22  1  0.28463000  0.91575000  0.37240000  1.0
  N  N23  1  0.71538000  0.08425000  0.62761000  1.0
  N  N24  1  0.16095000  0.81608000  0.32517000  1.0
  N  N25  1  0.83905000  0.18393000  0.67483000  1.0
  N  N26  1  0.07213000  0.92836000  0.22580000  1.0
  N  N27  1  0.92786000  0.07164000  0.77420000  1.0
  N  N28  1  0.14049000  0.10400000  0.20686000  1.0
  N  N29  1  0.85951000  0.89602000  0.79313000  1.0
  Cl  Cl30  1  0.22906000  0.48759000  0.61876000  1.0
  Cl  Cl31  1  0.77097000  0.51240000  0.38123000  1.0
  O  O32  1  0.30522000  0.07159000  0.90556000  1.0
  O  O33  1  0.69476000  0.92841000  0.09444000  1.0
