# generated using pymatgen
data_Zn2H10C27Br2(N4Cl)2
_symmetry_space_group_name_H-M   'P 1'
_cell_length_a   18.57550000
_cell_length_b   18.77770000
_cell_length_c   18.84620000
_cell_angle_alpha   103.61200000
_cell_angle_beta   110.14500000
_cell_angle_gamma   109.83700000
_symmetry_Int_Tables_number   1
_chemical_formula_structural   Zn2H10C27Br2(N4Cl)2
_chemical_formula_sum   'Zn4 H20 C54 Br4 N16 Cl4'
_cell_volume   5323.59551121
_cell_formula_units_Z   2
loop_
 _symmetry_equiv_pos_site_id
 _symmetry_equiv_pos_as_xyz
  1  'x, y, z'
loop_
 _atom_site_type_symbol
 _atom_site_label
 _atom_site_symmetry_multiplicity
 _atom_site_fract_x
 _atom_site_fract_y
 _atom_site_fract_z
 _atom_site_occupancy
  Zn  Zn0  1  0.08805000  0.60675000  0.48908000  1.0
  Zn  Zn1  1  0.08528000  0.48889000  0.60580000  1.0
  Zn  Zn2  1  0.87419000  0.40241000  0.51444000  1.0
  Zn  Zn3  1  0.87608000  0.51585000  0.40345000  1.0
  H  H4  1  0.41392000  0.91533000  0.00989000  1.0
  H  H5  1  0.42307000  0.01921000  0.94939000  1.0
  H  H6  1  0.45970000  0.01907000  0.87436000  1.0
  H  H7  1  0.49523000  0.88299000  0.02731000  1.0
  H  H8  1  0.60317000  0.11887000  0.97323000  1.0
  H  H9  1  0.57828000  0.00913000  0.14586000  1.0
  H  H10  1  0.83554000  0.51084000  0.64237000  1.0
  H  H11  1  0.83861000  0.64129000  0.51281000  1.0
  H  H12  1  0.24980000  0.63397000  0.77610000  1.0
  H  H13  1  0.27175000  0.77100000  0.62354000  1.0
  H  H14  1  0.12639000  0.50636000  0.35988000  1.0
  H  H15  1  0.13314000  0.36417000  0.51077000  1.0
  H  H16  1  0.82214000  0.23251000  0.37871000  1.0
  H  H17  1  0.82098000  0.37906000  0.23213000  1.0
  H  H18  1  0.83091000  0.54107000  0.22801000  1.0
  H  H19  1  0.82911000  0.22470000  0.53754000  1.0
  H  H20  1  0.10639000  0.32135000  0.63422000  1.0
  H  H21  1  0.10838000  0.63970000  0.32496000  1.0
  H  H22  1  0.51268000  0.05329000  0.10403000  1.0
  H  H23  1  0.55290000  0.14406000  0.03294000  1.0
  C  C24  1  0.04213000  0.74067000  0.55767000  1.0
  C  C25  1  0.03655000  0.54729000  0.74160000  1.0
  C  C26  1  0.89991000  0.56434000  0.26474000  1.0
  C  C27  1  0.89800000  0.26139000  0.56048000  1.0
  C  C28  1  0.03994000  0.31114000  0.60989000  1.0
  C  C29  1  0.04194000  0.61478000  0.31456000  1.0
  C  C30  1  0.15153000  0.42213000  0.42210000  1.0
  C  C31  1  0.79766000  0.27347000  0.27318000  1.0
  C  C32  1  0.96630000  0.59086000  0.24222000  1.0
  C  C33  1  0.96467000  0.23872000  0.58639000  1.0
  C  C34  1  0.47965000  0.93241000  0.01756000  1.0
  C  C35  1  0.47620000  0.01914000  0.93603000  1.0
  C  C36  1  0.56284000  0.09403000  0.00112000  1.0
  C  C37  1  0.54486000  0.01655000  0.08976000  1.0
  C  C38  1  0.73845000  0.20134000  0.20098000  1.0
  C  C39  1  0.47949000  0.93753000  0.93659000  1.0
  C  C40  1  0.61203000  0.06815000  0.06684000  1.0
  C  C41  1  0.90209000  0.52141000  0.66656000  1.0
  C  C42  1  0.90585000  0.66542000  0.52584000  1.0
  C  C43  1  0.64494000  0.01150000  0.02633000  1.0
  C  C44  1  0.56719000  0.94299000  0.93947000  1.0
  C  C45  1  0.68281000  0.14002000  0.13935000  1.0
  C  C46  1  0.40710000  0.86674000  0.86437000  1.0
  C  C47  1  0.35162000  0.80586000  0.80229000  1.0
  C  C48  1  0.95511000  0.56329000  0.82133000  1.0
  C  C49  1  0.96011000  0.82085000  0.57161000  1.0
  C  C50  1  0.95371000  0.57387000  0.88774000  1.0
  C  C51  1  0.95781000  0.88697000  0.58011000  1.0
  C  C52  1  0.95274000  0.58228000  0.95995000  1.0
  C  C53  1  0.95573000  0.95865000  0.58571000  1.0
  C  C54  1  0.95366000  0.58727000  0.02690000  1.0
  C  C55  1  0.95532000  0.02484000  0.58778000  1.0
  C  C56  1  0.95620000  0.59049000  0.09956000  1.0
  C  C57  1  0.95656000  0.09677000  0.58849000  1.0
  C  C58  1  0.69012000  0.46542000  0.38893000  1.0
  C  C59  1  0.68910000  0.38983000  0.46205000  1.0
  C  C60  1  0.95970000  0.59154000  0.16623000  1.0
  C  C61  1  0.95889000  0.16291000  0.58788000  1.0
  C  C62  1  0.20830000  0.40055000  0.40007000  1.0
  C  C63  1  0.26765000  0.39181000  0.39066000  1.0
  C  C64  1  0.33770000  0.38922000  0.38733000  1.0
  C  C65  1  0.40600000  0.39200000  0.38954000  1.0
  C  C66  1  0.48250000  0.39900000  0.39616000  1.0
  C  C67  1  0.55432000  0.40805000  0.40502000  1.0
  C  C68  1  0.24360000  0.65472000  0.72634000  1.0
  C  C69  1  0.25494000  0.72489000  0.64838000  1.0
  C  C70  1  0.96802000  0.74811000  0.55563000  1.0
  C  C71  1  0.96296000  0.54713000  0.74888000  1.0
  C  C72  1  0.63653000  0.41972000  0.41715000  1.0
  C  C73  1  0.28873000  0.73424000  0.73108000  1.0
  C  C74  1  0.12067000  0.47780000  0.40281000  1.0
  C  C75  1  0.12421000  0.40506000  0.48022000  1.0
  C  C76  1  0.82998000  0.28083000  0.35544000  1.0
  C  C77  1  0.82942000  0.35585000  0.28046000  1.0
  Br  Br78  1  0.56454000  0.83414000  0.91652000  1.0
  Br  Br79  1  0.57317000  0.96823000  0.84432000  1.0
  Br  Br80  1  0.68973000  0.96471000  0.10564000  1.0
  Br  Br81  1  0.74699000  0.07851000  0.01843000  1.0
  N  N82  1  0.02517000  0.66114000  0.53202000  1.0
  N  N83  1  0.02082000  0.52529000  0.66277000  1.0
  N  N84  1  0.93723000  0.50798000  0.61603000  1.0
  N  N85  1  0.94049000  0.61444000  0.51129000  1.0
  N  N86  1  0.76548000  0.46249000  0.41440000  1.0
  N  N87  1  0.76482000  0.41516000  0.46017000  1.0
  N  N88  1  0.18690000  0.60284000  0.64771000  1.0
  N  N89  1  0.19387000  0.64677000  0.59881000  1.0
  N  N90  1  0.08128000  0.49397000  0.44798000  1.0
  N  N91  1  0.08346000  0.44926000  0.49549000  1.0
  N  N92  1  0.87521000  0.36131000  0.40688000  1.0
  N  N93  1  0.87483000  0.40738000  0.36074000  1.0
  N  N94  1  0.93354000  0.57192000  0.34324000  1.0
  N  N95  1  0.93124000  0.34012000  0.56827000  1.0
  N  N96  1  0.01941000  0.37092000  0.59883000  1.0
  N  N97  1  0.02178000  0.60315000  0.37411000  1.0
  Cl  Cl98  1  0.13823000  0.81880000  0.58247000  1.0
  Cl  Cl99  1  0.13040000  0.56538000  0.81878000  1.0
  Cl  Cl100  1  0.66911000  0.51958000  0.33074000  1.0
  Cl  Cl101  1  0.66666667  0.33006000  0.51431000  1.0
