# generated using pymatgen
data_Zn2H21C42S5Br2N2O23
_symmetry_space_group_name_H-M   'P 1'
_cell_length_a   16.50900000
_cell_length_b   17.82120000
_cell_length_c   28.78420000
_cell_angle_alpha   89.60280000
_cell_angle_beta   89.88990000
_cell_angle_gamma   89.86340000
_symmetry_Int_Tables_number   1
_chemical_formula_structural   Zn2H21C42S5Br2N2O23
_chemical_formula_sum   'Zn4 H42 C84 S10 Br4 N4 O46'
_cell_volume   8468.36204382
_cell_formula_units_Z   2
loop_
 _symmetry_equiv_pos_site_id
 _symmetry_equiv_pos_as_xyz
  1  'x, y, z'
loop_
 _atom_site_type_symbol
 _atom_site_label
 _atom_site_symmetry_multiplicity
 _atom_site_fract_x
 _atom_site_fract_y
 _atom_site_fract_z
 _atom_site_occupancy
  Zn  Zn0  1  0.41796000  0.50029000  0.50171000  1.0
  Zn  Zn1  1  0.58668000  0.49944000  0.50058000  1.0
  Zn  Zn2  1  0.58568000  0.50066000  0.11968000  1.0
  Zn  Zn3  1  0.41678000  0.50445000  0.11910000  1.0
  H  H4  1  0.71590000  0.58819000  0.45373000  1.0
  H  H5  1  0.86820000  0.59081000  0.45155000  1.0
  H  H6  1  0.71496000  0.41243000  0.54913000  1.0
  H  H7  1  0.29232000  0.57431000  0.44369000  1.0
  H  H8  1  0.28638000  0.42633000  0.55551000  1.0
  H  H9  1  0.13365000  0.42329000  0.55547000  1.0
  H  H10  1  0.37190000  0.73313000  0.51277000  1.0
  H  H11  1  0.36517000  0.87345000  0.50703000  1.0
  H  H12  1  0.63036000  0.74079000  0.49580000  1.0
  H  H13  1  0.37267000  0.26899000  0.48056000  1.0
  H  H14  1  0.62875000  0.25599000  0.50597000  1.0
  H  H15  1  0.62113000  0.11542000  0.50705000  1.0
  H  H16  1  0.41412000  0.40151000  0.22442000  1.0
  H  H17  1  0.41713000  0.40015000  0.39765000  1.0
  H  H18  1  0.62833000  0.49805000  0.97127000  1.0
  H  H19  1  0.62636000  0.50475000  0.88421000  1.0
  H  H20  1  0.36801000  0.49693000  0.97397000  1.0
  H  H21  1  0.62673000  0.50263000  0.64725000  1.0
  H  H22  1  0.36780000  0.47800000  0.64849000  1.0
  H  H23  1  0.36706000  0.48836000  0.73536000  1.0
  H  H24  1  0.28654000  0.59080000  0.16680000  1.0
  H  H25  1  0.13436000  0.59201000  0.16944000  1.0
  H  H26  1  0.28929000  0.42028000  0.06930000  1.0
  H  H27  1  0.71052000  0.57935000  0.17433000  1.0
  H  H28  1  0.71813000  0.42010000  0.06986000  1.0
  H  H29  1  0.87069000  0.41924000  0.06922000  1.0
  H  H30  1  0.63592000  0.74366000  0.11770000  1.0
  H  H31  1  0.63103000  0.88365000  0.12391000  1.0
  H  H32  1  0.37583000  0.73555000  0.11906000  1.0
  H  H33  1  0.62735000  0.26405000  0.12814000  1.0
  H  H34  1  0.36723000  0.26563000  0.13341000  1.0
  H  H35  1  0.36615000  0.12517000  0.13371000  1.0
  H  H36  1  0.96948000  0.32316000  0.52140000  1.0
  H  H37  1  0.02512000  0.53413000  0.40572000  1.0
  H  H38  1  0.60779000  0.98435000  0.44772000  1.0
  H  H39  1  0.37276000  0.01831000  0.44694000  1.0
  H  H40  1  0.37005000  0.57815000  0.82289000  1.0
  H  H41  1  0.61505000  0.58401000  0.79658000  1.0
  H  H42  1  0.03678000  0.32710000  0.09985000  1.0
  H  H43  1  0.97571000  0.54265000  0.21762000  1.0
  H  H44  1  0.37452000  0.97664000  0.17162000  1.0
  H  H45  1  0.62334000  0.01746000  0.16986000  1.0
  C  C46  1  0.50443000  0.64494000  0.50712000  1.0
  C  C47  1  0.49896000  0.51675000  0.41155000  1.0
  C  C48  1  0.50547000  0.35459000  0.49338000  1.0
  C  C49  1  0.49726000  0.48657000  0.59091000  1.0
  C  C50  1  0.50832000  0.64779000  0.11435000  1.0
  C  C51  1  0.49624000  0.51782000  0.20919000  1.0
  C  C52  1  0.49854000  0.35706000  0.12812000  1.0
  C  C53  1  0.50053000  0.49234000  0.02957000  1.0
  C  C54  1  0.75220000  0.54913000  0.47438000  1.0
  C  C55  1  0.83625000  0.54986000  0.47303000  1.0
  C  C56  1  0.88002000  0.49751000  0.50003000  1.0
  C  C57  1  0.83522000  0.44706000  0.52819000  1.0
  C  C58  1  0.75108000  0.45050000  0.52779000  1.0
  C  C59  1  0.96547000  0.49690000  0.49809000  1.0
  C  C60  1  0.03917000  0.49950000  0.49642000  1.0
  C  C61  1  0.12466000  0.50090000  0.49729000  1.0
  C  C62  1  0.17088000  0.54461000  0.46579000  1.0
  C  C63  1  0.25492000  0.54240000  0.46801000  1.0
  C  C64  1  0.25097000  0.45871000  0.53043000  1.0
  C  C65  1  0.16690000  0.45720000  0.53026000  1.0
  C  C66  1  0.50116000  0.72885000  0.50493000  1.0
  C  C67  1  0.42666000  0.76626000  0.50798000  1.0
  C  C68  1  0.42297000  0.84398000  0.50469000  1.0
  C  C69  1  0.49434000  0.88629000  0.49868000  1.0
  C  C70  1  0.56933000  0.84760000  0.49565000  1.0
  C  C71  1  0.57258000  0.76993000  0.49858000  1.0
  C  C72  1  0.49053000  0.96531000  0.49567000  1.0
  C  C73  1  0.48979000  0.03390000  0.49449000  1.0
  C  C74  1  0.49233000  0.11309000  0.49445000  1.0
  C  C75  1  0.42215000  0.15759000  0.48737000  1.0
  C  C76  1  0.42672000  0.23529000  0.48655000  1.0
  C  C77  1  0.50143000  0.27065000  0.49326000  1.0
  C  C78  1  0.57131000  0.22743000  0.50056000  1.0
  C  C79  1  0.56717000  0.14957000  0.50103000  1.0
  C  C80  1  0.49483000  0.52066000  0.26141000  1.0
  C  C81  1  0.45536000  0.46118000  0.28585000  1.0
  C  C82  1  0.53159000  0.57836000  0.28536000  1.0
  C  C83  1  0.41556000  0.40210000  0.26227000  1.0
  C  C84  1  0.37732000  0.34554000  0.28676000  1.0
  C  C85  1  0.49644000  0.51988000  0.35933000  1.0
  C  C86  1  0.53223000  0.57801000  0.33475000  1.0
  C  C87  1  0.45625000  0.46074000  0.33554000  1.0
  C  C88  1  0.41722000  0.40136000  0.35980000  1.0
  C  C89  1  0.37790000  0.34506000  0.33614000  1.0
  C  C90  1  0.49875000  0.49598000  0.97761000  1.0
  C  C91  1  0.57128000  0.49909000  0.95234000  1.0
  C  C92  1  0.57019000  0.50363000  0.90420000  1.0
  C  C93  1  0.49583000  0.50606000  0.88021000  1.0
  C  C94  1  0.42290000  0.50392000  0.90621000  1.0
  C  C95  1  0.42436000  0.49845000  0.95431000  1.0
  C  C96  1  0.49561000  0.50972000  0.83128000  1.0
  C  C97  1  0.49560000  0.50797000  0.78886000  1.0
  C  C98  1  0.49668000  0.50144000  0.74009000  1.0
  C  C99  1  0.57012000  0.50457000  0.71458000  1.0
  C  C100  1  0.57017000  0.49894000  0.66658000  1.0
  C  C101  1  0.49697000  0.48937000  0.64285000  1.0
  C  C102  1  0.42403000  0.48530000  0.66765000  1.0
  C  C103  1  0.42351000  0.49146000  0.71572000  1.0
  C  C104  1  0.25067000  0.55263000  0.14574000  1.0
  C  C105  1  0.16665000  0.55223000  0.14754000  1.0
  C  C106  1  0.12346000  0.50033000  0.12052000  1.0
  C  C107  1  0.16879000  0.45157000  0.09181000  1.0
  C  C108  1  0.25283000  0.45652000  0.09145000  1.0
  C  C109  1  0.03807000  0.49863000  0.12292000  1.0
  C  C110  1  0.96438000  0.50064000  0.12494000  1.0
  C  C111  1  0.87890000  0.50147000  0.12424000  1.0
  C  C112  1  0.83220000  0.54758000  0.15390000  1.0
  C  C113  1  0.74816000  0.54475000  0.15177000  1.0
  C  C114  1  0.75302000  0.45543000  0.09323000  1.0
  C  C115  1  0.83711000  0.45478000  0.09318000  1.0
  C  C116  1  0.50639000  0.73155000  0.11768000  1.0
  C  C117  1  0.57815000  0.77317000  0.11947000  1.0
  C  C118  1  0.57538000  0.85081000  0.12340000  1.0
  C  C119  1  0.50031000  0.88855000  0.12635000  1.0
  C  C120  1  0.42829000  0.84546000  0.12497000  1.0
  C  C121  1  0.43141000  0.76815000  0.12032000  1.0
  C  C122  1  0.49820000  0.96742000  0.13057000  1.0
  C  C123  1  0.49599000  0.03596000  0.13221000  1.0
  C  C124  1  0.49647000  0.11518000  0.13182000  1.0
  C  C125  1  0.57028000  0.15575000  0.13028000  1.0
  C  C126  1  0.57042000  0.23350000  0.12945000  1.0
  C  C127  1  0.49701000  0.27308000  0.13032000  1.0
  C  C128  1  0.42367000  0.23392000  0.13241000  1.0
  C  C129  1  0.42315000  0.15593000  0.13295000  1.0
  S  S130  1  0.88210000  0.37787000  0.56464000  1.0
  S  S131  1  0.12416000  0.60475000  0.42375000  1.0
  S  S132  1  0.66207000  0.89773000  0.48850000  1.0
  S  S133  1  0.32541000  0.11474000  0.48098000  1.0
  S  S134  1  0.32716000  0.50724000  0.87753000  1.0
  S  S135  1  0.66486000  0.51470000  0.74365000  1.0
  S  S136  1  0.12254000  0.38263000  0.05567000  1.0
  S  S137  1  0.87825000  0.61135000  0.19346000  1.0
  S  S138  1  0.33126000  0.88951000  0.12800000  1.0
  S  S139  1  0.66524000  0.10792000  0.12756000  1.0
  Br  Br140  1  0.58030000  0.65823000  0.36792000  1.0
  Br  Br141  1  0.58006000  0.65836000  0.25151000  1.0
  Br  Br142  1  0.32377000  0.26919000  0.25293000  1.0
  Br  Br143  1  0.32538000  0.26885000  0.37121000  1.0
  N  N144  1  0.71084000  0.50018000  0.50112000  1.0
  N  N145  1  0.29374000  0.50022000  0.49986000  1.0
  N  N146  1  0.29257000  0.50562000  0.11824000  1.0
  N  N147  1  0.70981000  0.49933000  0.12196000  1.0
  O  O148  1  0.43843000  0.61116000  0.51644000  1.0
  O  O149  1  0.57258000  0.61409000  0.49906000  1.0
  O  O150  1  0.56610000  0.49881000  0.42988000  1.0
  O  O151  1  0.43259000  0.52943000  0.43256000  1.0
  O  O152  1  0.57382000  0.38415000  0.50185000  1.0
  O  O153  1  0.43961000  0.38992000  0.48524000  1.0
  O  O154  1  0.42983000  0.47400000  0.57087000  1.0
  O  O155  1  0.56476000  0.49836000  0.57081000  1.0
  O  O156  1  0.57634000  0.61565000  0.12074000  1.0
  O  O157  1  0.44133000  0.61541000  0.10592000  1.0
  O  O158  1  0.42934000  0.53001000  0.18864000  1.0
  O  O159  1  0.56319000  0.50039000  0.19049000  1.0
  O  O160  1  0.43196000  0.39174000  0.13499000  1.0
  O  O161  1  0.56671000  0.38714000  0.11927000  1.0
  O  O162  1  0.56902000  0.50166000  0.04890000  1.0
  O  O163  1  0.43333000  0.48104000  0.05028000  1.0
  O  O164  1  0.91113000  0.31732000  0.52640000  1.0
  O  O165  1  0.81908000  0.34258000  0.59087000  1.0
  O  O166  1  0.95317000  0.40924000  0.58572000  1.0
  O  O167  1  0.07780000  0.54495000  0.39134000  1.0
  O  O168  1  0.18658000  0.63619000  0.39525000  1.0
  O  O169  1  0.06452000  0.64978000  0.44709000  1.0
  O  O170  1  0.64630000  0.94365000  0.44074000  1.0
  O  O171  1  0.72495000  0.84510000  0.47770000  1.0
  O  O172  1  0.66981000  0.95069000  0.52575000  1.0
  O  O173  1  0.33908000  0.06103000  0.43671000  1.0
  O  O174  1  0.26860000  0.17058000  0.46555000  1.0
  O  O175  1  0.30991000  0.06864000  0.52125000  1.0
  O  O176  1  0.33292000  0.58581000  0.84925000  1.0
  O  O177  1  0.26521000  0.51851000  0.91165000  1.0
  O  O178  1  0.32354000  0.44709000  0.84448000  1.0
  O  O179  1  0.65261000  0.59329000  0.77055000  1.0
  O  O180  1  0.72635000  0.52910000  0.70963000  1.0
  O  O181  1  0.67260000  0.45554000  0.77765000  1.0
  O  O182  1  0.09498000  0.32126000  0.09425000  1.0
  O  O183  1  0.18571000  0.34822000  0.02929000  1.0
  O  O184  1  0.05069000  0.41370000  0.03485000  1.0
  O  O185  1  0.92152000  0.55425000  0.22965000  1.0
  O  O186  1  0.81512000  0.64733000  0.21908000  1.0
  O  O187  1  0.94028000  0.65221000  0.16906000  1.0
  O  O188  1  0.33690000  0.93443000  0.17647000  1.0
  O  O189  1  0.27121000  0.83286000  0.13574000  1.0
  O  O190  1  0.32478000  0.94315000  0.09060000  1.0
  O  O191  1  0.66347000  0.05757000  0.17446000  1.0
  O  O192  1  0.72881000  0.16126000  0.13456000  1.0
  O  O193  1  0.66487000  0.05868000  0.08815000  1.0
