# generated using pymatgen
data_ZnH12C10(NO2)2
_symmetry_space_group_name_H-M   'P 1'
_cell_length_a   5.41558000
_cell_length_b   6.99429000
_cell_length_c   13.93450000
_cell_angle_alpha   89.99980000
_cell_angle_beta   81.58630000
_cell_angle_gamma   89.99970000
_symmetry_Int_Tables_number   1
_chemical_formula_structural   ZnH12C10(NO2)2
_chemical_formula_sum   'Zn2 H24 C20 N4 O8'
_cell_volume   522.13224810
_cell_formula_units_Z   2
loop_
 _symmetry_equiv_pos_site_id
 _symmetry_equiv_pos_as_xyz
  1  'x, y, z'
loop_
 _atom_site_type_symbol
 _atom_site_label
 _atom_site_symmetry_multiplicity
 _atom_site_fract_x
 _atom_site_fract_y
 _atom_site_fract_z
 _atom_site_occupancy
  Zn  Zn0  1  0.24998000  0.63747000  0.75000000  1.0
  Zn  Zn1  1  0.75000000  0.36253000  0.25000000  1.0
  H  H2  1  0.15297000  0.11676000  0.67430000  1.0
  H  H3  1  0.65297000  0.88323000  0.17430000  1.0
  H  H4  1  0.84703000  0.88323000  0.32570000  1.0
  H  H5  1  0.34702000  0.11677000  0.82570000  1.0
  H  H6  1  0.96349000  0.23763000  0.76935000  1.0
  H  H7  1  0.46350000  0.76236000  0.26935000  1.0
  H  H8  1  0.03650000  0.76235000  0.23065000  1.0
  H  H9  1  0.53649000  0.23764000  0.73065000  1.0
  H  H10  1  0.38272000  0.65935000  0.98543000  1.0
  H  H11  1  0.88271000  0.34066000  0.48543000  1.0
  H  H12  1  0.61730000  0.34068000  0.01457000  1.0
  H  H13  1  0.11729000  0.65932000  0.51457000  1.0
  H  H14  1  0.90927000  0.11727000  0.91756000  1.0
  H  H15  1  0.40926000  0.88273000  0.41755000  1.0
  H  H16  1  0.09075000  0.88274000  0.08244000  1.0
  H  H17  1  0.59073000  0.11726000  0.58244000  1.0
  H  H18  1  0.27597000  0.41882000  0.60411000  1.0
  H  H19  1  0.77597000  0.58118000  0.10411000  1.0
  H  H20  1  0.72402000  0.58117000  0.39589000  1.0
  H  H21  1  0.22402000  0.41882000  0.89589000  1.0
  H  H22  1  0.97211000  0.44823000  0.64049000  1.0
  H  H23  1  0.47211000  0.55177000  0.14049000  1.0
  H  H24  1  0.02788000  0.55176000  0.35951000  1.0
  H  H25  1  0.52787000  0.44824000  0.85950000  1.0
  C  C26  1  0.66487000  0.87466000  0.94347000  1.0
  C  C27  1  0.16488000  0.12535000  0.44347000  1.0
  C  C28  1  0.33514000  0.12537000  0.05654000  1.0
  C  C29  1  0.83515000  0.87464000  0.55655000  1.0
  C  C30  1  0.84115000  0.73981000  0.88412000  1.0
  C  C31  1  0.34114000  0.26018000  0.38412000  1.0
  C  C32  1  0.15885000  0.26022000  0.11587000  1.0
  C  C33  1  0.65885000  0.73978000  0.61587000  1.0
  C  C34  1  0.14161000  0.24457000  0.72053000  1.0
  C  C35  1  0.64161000  0.75542000  0.22054000  1.0
  C  C36  1  0.85838000  0.75542000  0.27946000  1.0
  C  C37  1  0.35837000  0.24457000  0.77946000  1.0
  C  C38  1  0.43392000  0.80898000  0.99065000  1.0
  C  C39  1  0.93392000  0.19102000  0.49064000  1.0
  C  C40  1  0.56610000  0.19103000  0.00935000  1.0
  C  C41  1  0.06611000  0.80897000  0.50936000  1.0
  C  C42  1  0.72913000  0.06702000  0.95354000  1.0
  C  C43  1  0.22913000  0.93299000  0.45354000  1.0
  C  C44  1  0.27090000  0.93300000  0.04646000  1.0
  C  C45  1  0.77091000  0.06701000  0.54646000  1.0
  N  N46  1  0.14152000  0.42377000  0.66390000  1.0
  N  N47  1  0.64153000  0.57623000  0.16390000  1.0
  N  N48  1  0.85846000  0.57622000  0.33610000  1.0
  N  N49  1  0.35846000  0.42377000  0.83610000  1.0
  O  O50  1  0.01374000  0.81830000  0.82289000  1.0
  O  O51  1  0.51373000  0.18170000  0.32290000  1.0
  O  O52  1  0.98629000  0.18171000  0.17711000  1.0
  O  O53  1  0.48627000  0.81829000  0.67711000  1.0
  O  O54  1  0.81585000  0.56163000  0.89653000  1.0
  O  O55  1  0.31584000  0.43837000  0.39653000  1.0
  O  O56  1  0.18414000  0.43838000  0.10347000  1.0
  O  O57  1  0.68414000  0.56163000  0.60346000  1.0
