# generated using pymatgen
data_ZnH16C12N2O9
_symmetry_space_group_name_H-M   'P 1'
_cell_length_a   4.94279000
_cell_length_b   4.94286000
_cell_length_c   30.62600000
_cell_angle_alpha   89.43580000
_cell_angle_beta   89.43630000
_cell_angle_gamma   86.04750000
_symmetry_Int_Tables_number   1
_chemical_formula_structural   ZnH16C12N2O9
_chemical_formula_sum   'Zn2 H32 C24 N4 O18'
_cell_volume   746.39238549
_cell_formula_units_Z   2
loop_
 _symmetry_equiv_pos_site_id
 _symmetry_equiv_pos_as_xyz
  1  'x, y, z'
loop_
 _atom_site_type_symbol
 _atom_site_label
 _atom_site_symmetry_multiplicity
 _atom_site_fract_x
 _atom_site_fract_y
 _atom_site_fract_z
 _atom_site_occupancy
  Zn  Zn0  1  0.76773000  0.23229000  0.75000000  1.0
  Zn  Zn1  1  0.23227000  0.76773000  0.25000000  1.0
  H  H2  1  0.12146000  0.15195000  0.64426000  1.0
  H  H3  1  0.84803000  0.87854000  0.85574000  1.0
  H  H4  1  0.87854000  0.84804000  0.35574000  1.0
  H  H5  1  0.15199000  0.12148000  0.14426000  1.0
  H  H6  1  0.38952000  0.32280000  0.61964000  1.0
  H  H7  1  0.67716000  0.61048000  0.88036000  1.0
  H  H8  1  0.61048000  0.67717000  0.38036000  1.0
  H  H9  1  0.32283000  0.38955000  0.11964000  1.0
  H  H10  1  0.86548000  0.81907000  0.50077000  1.0
  H  H11  1  0.18094000  0.13452000  0.99923000  1.0
  H  H12  1  0.13452000  0.18091000  0.49923000  1.0
  H  H13  1  0.81908000  0.86548000  0.00077000  1.0
  H  H14  1  0.16329000  0.49404000  0.56067000  1.0
  H  H15  1  0.50594000  0.83670000  0.93933000  1.0
  H  H16  1  0.83671000  0.50595000  0.43933000  1.0
  H  H17  1  0.49406000  0.16330000  0.06067000  1.0
  H  H18  1  0.14402000  0.88649000  0.58661000  1.0
  H  H19  1  0.11348000  0.85596000  0.91339000  1.0
  H  H20  1  0.85598000  0.11348000  0.41339000  1.0
  H  H21  1  0.88652000  0.14403000  0.08661000  1.0
  H  H22  1  0.59289000  0.79652000  0.79820000  1.0
  H  H23  1  0.20350000  0.40712000  0.70179000  1.0
  H  H24  1  0.40712000  0.20351000  0.20179000  1.0
  H  H25  1  0.79650000  0.59289000  0.29821000  1.0
  H  H26  1  0.41519000  0.08522000  0.81317000  1.0
  H  H27  1  0.91480000  0.58483000  0.68683000  1.0
  H  H28  1  0.58482000  0.91481000  0.18683000  1.0
  H  H29  1  0.08520000  0.41520000  0.31317000  1.0
  H  H30  1  0.04540000  0.76009000  0.73650000  1.0
  H  H31  1  0.23993000  0.95462000  0.76350000  1.0
  H  H32  1  0.95460000  0.23994000  0.26350000  1.0
  H  H33  1  0.76007000  0.04541000  0.23650000  1.0
  C  C34  1  0.51657000  0.05258000  0.67067000  1.0
  C  C35  1  0.94740000  0.48343000  0.82933000  1.0
  C  C36  1  0.48343000  0.94740000  0.32933000  1.0
  C  C37  1  0.05258000  0.51658000  0.17067000  1.0
  C  C38  1  0.33106000  0.12450000  0.63198000  1.0
  C  C39  1  0.87547000  0.66893000  0.86802000  1.0
  C  C40  1  0.66893000  0.87548000  0.36802000  1.0
  C  C41  1  0.12452000  0.33108000  0.13198000  1.0
  C  C42  1  0.55333000  0.87169000  0.57177000  1.0
  C  C43  1  0.12828000  0.44665000  0.92824000  1.0
  C  C44  1  0.44665000  0.12829000  0.42824000  1.0
  C  C45  1  0.87172000  0.55335000  0.07176000  1.0
  C  C46  1  0.51936000  0.67908000  0.53511000  1.0
  C  C47  1  0.32092000  0.48063000  0.96488000  1.0
  C  C48  1  0.48065000  0.32093000  0.46489000  1.0
  C  C49  1  0.67910000  0.51938000  0.03511000  1.0
  C  C50  1  0.70584000  0.67809000  0.50038000  1.0
  C  C51  1  0.32190000  0.29414000  0.99962000  1.0
  C  C52  1  0.29414000  0.32190000  0.49962000  1.0
  C  C53  1  0.67808000  0.70582000  0.00038000  1.0
  C  C54  1  0.31232000  0.49887000  0.53429000  1.0
  C  C55  1  0.50110000  0.68767000  0.96572000  1.0
  C  C56  1  0.68768000  0.50110000  0.46571000  1.0
  C  C57  1  0.49891000  0.31230000  0.03429000  1.0
  N  N58  1  0.33275000  0.92738000  0.59753000  1.0
  N  N59  1  0.07259000  0.66724000  0.90247000  1.0
  N  N60  1  0.66725000  0.07258000  0.40247000  1.0
  N  N61  1  0.92743000  0.33276000  0.09753000  1.0
  O  O62  1  0.51331000  0.98323000  0.78956000  1.0
  O  O63  1  0.01679000  0.48670000  0.71044000  1.0
  O  O64  1  0.48669000  0.01680000  0.21044000  1.0
  O  O65  1  0.98321000  0.51331000  0.28956000  1.0
  O  O66  1  0.50211000  0.24307000  0.70026000  1.0
  O  O67  1  0.75692000  0.49791000  0.79973000  1.0
  O  O68  1  0.49789000  0.75694000  0.29974000  1.0
  O  O69  1  0.24307000  0.50212000  0.20027000  1.0
  O  O70  1  0.66278000  0.83935000  0.67257000  1.0
  O  O71  1  0.16062000  0.33721000  0.82743000  1.0
  O  O72  1  0.33719000  0.16066000  0.32743000  1.0
  O  O73  1  0.83933000  0.66281000  0.17257000  1.0
  O  O74  1  0.05784000  0.94218000  0.75000000  1.0
  O  O75  1  0.94216000  0.05785000  0.25000000  1.0
  O  O76  1  0.77366000  0.97499000  0.57785000  1.0
  O  O77  1  0.02498000  0.22631000  0.92215000  1.0
  O  O78  1  0.22632000  0.02498000  0.42215000  1.0
  O  O79  1  0.97504000  0.77366000  0.07785000  1.0
