# generated using pymatgen
data_Zn2H24C29(NO2)4
_symmetry_space_group_name_H-M   'P 1'
_cell_length_a   7.70195000
_cell_length_b   16.15210000
_cell_length_c   24.30930000
_cell_angle_alpha   90.00010000
_cell_angle_beta   90.00000000
_cell_angle_gamma   89.99990000
_symmetry_Int_Tables_number   1
_chemical_formula_structural   Zn2H24C29(NO2)4
_chemical_formula_sum   'Zn8 H96 C116 N16 O32'
_cell_volume   3024.14174305
_cell_formula_units_Z   4
loop_
 _symmetry_equiv_pos_site_id
 _symmetry_equiv_pos_as_xyz
  1  'x, y, z'
loop_
 _atom_site_type_symbol
 _atom_site_label
 _atom_site_symmetry_multiplicity
 _atom_site_fract_x
 _atom_site_fract_y
 _atom_site_fract_z
 _atom_site_occupancy
  Zn  Zn0  1  0.49264000  0.02728000  0.89195000  1.0
  Zn  Zn1  1  0.50736000  0.97272000  0.39195000  1.0
  Zn  Zn2  1  0.00735000  0.52728000  0.89195000  1.0
  Zn  Zn3  1  0.99265000  0.47272000  0.39195000  1.0
  Zn  Zn4  1  0.00727000  0.00745000  0.22601000  1.0
  Zn  Zn5  1  0.99274000  0.99255000  0.72601000  1.0
  Zn  Zn6  1  0.49274000  0.50745000  0.22601000  1.0
  Zn  Zn7  1  0.50726000  0.49255000  0.72601000  1.0
  H  H8  1  0.01817000  0.61738000  0.80404000  1.0
  H  H9  1  0.98183000  0.38262000  0.30403000  1.0
  H  H10  1  0.48183000  0.11738000  0.80404000  1.0
  H  H11  1  0.51817000  0.88262000  0.30404000  1.0
  H  H12  1  0.16441000  0.54234000  0.79671000  1.0
  H  H13  1  0.83559000  0.45766000  0.29671000  1.0
  H  H14  1  0.33559000  0.04234000  0.79671000  1.0
  H  H15  1  0.66441000  0.95766000  0.29671000  1.0
  H  H16  1  0.48334000  0.59756000  0.31390000  1.0
  H  H17  1  0.51666000  0.40244000  0.81390000  1.0
  H  H18  1  0.01666000  0.09756000  0.31390000  1.0
  H  H19  1  0.98334000  0.90244000  0.81390000  1.0
  H  H20  1  0.33647000  0.52274000  0.32146000  1.0
  H  H21  1  0.66353000  0.47726000  0.82146000  1.0
  H  H22  1  0.16353000  0.02274000  0.32146000  1.0
  H  H23  1  0.83647000  0.97726000  0.82146000  1.0
  H  H24  1  0.62796000  0.77981000  0.89587000  1.0
  H  H25  1  0.37204000  0.22019000  0.39587000  1.0
  H  H26  1  0.87204000  0.27981000  0.89587000  1.0
  H  H27  1  0.12796000  0.72019000  0.39587000  1.0
  H  H28  1  0.43127000  0.53874000  0.85250000  1.0
  H  H29  1  0.56873000  0.46126000  0.35250000  1.0
  H  H30  1  0.06873000  0.03874000  0.85250000  1.0
  H  H31  1  0.93127000  0.96126000  0.35250000  1.0
  H  H32  1  0.10396000  0.75333000  0.83761000  1.0
  H  H33  1  0.89603000  0.24667000  0.33761000  1.0
  H  H34  1  0.39604000  0.25333000  0.83761000  1.0
  H  H35  1  0.60396000  0.74667000  0.33761000  1.0
  H  H36  1  0.87304000  0.76084000  0.22333000  1.0
  H  H37  1  0.12696000  0.23916000  0.72333000  1.0
  H  H38  1  0.62696000  0.26084000  0.22333000  1.0
  H  H39  1  0.37304000  0.73916000  0.72333000  1.0
  H  H40  1  0.06946000  0.51942000  0.26592000  1.0
  H  H41  1  0.93055000  0.48058000  0.76592000  1.0
  H  H42  1  0.43055000  0.01942000  0.26592000  1.0
  H  H43  1  0.56946000  0.98057000  0.76592000  1.0
  H  H44  1  0.39839000  0.73353000  0.28016000  1.0
  H  H45  1  0.60161000  0.26647000  0.78016000  1.0
  H  H46  1  0.10161000  0.23353000  0.28016000  1.0
  H  H47  1  0.89839000  0.76647000  0.78016000  1.0
  H  H48  1  0.22691000  0.94833000  0.96179000  1.0
  H  H49  1  0.77310000  0.05167000  0.46179000  1.0
  H  H50  1  0.27310000  0.44833000  0.96179000  1.0
  H  H51  1  0.72690000  0.55167000  0.46179000  1.0
  H  H52  1  0.96445000  0.99694000  0.01204000  1.0
  H  H53  1  0.03556000  0.00306000  0.51204000  1.0
  H  H54  1  0.53555000  0.49694000  0.01204000  1.0
  H  H55  1  0.46444000  0.50306000  0.51204000  1.0
  H  H56  1  0.17377000  0.24444000  0.00255000  1.0
  H  H57  1  0.82622000  0.75556000  0.50255000  1.0
  H  H58  1  0.32623000  0.74444000  0.00255000  1.0
  H  H59  1  0.67377000  0.25556000  0.50255000  1.0
  H  H60  1  0.43214000  0.18436000  0.95395000  1.0
  H  H61  1  0.56786000  0.81565000  0.45395000  1.0
  H  H62  1  0.06785000  0.68436000  0.95395000  1.0
  H  H63  1  0.93214000  0.31564000  0.45395000  1.0
  H  H64  1  0.92963000  0.20477000  0.07039000  1.0
  H  H65  1  0.07037000  0.79523000  0.57038000  1.0
  H  H66  1  0.57038000  0.70478000  0.07038000  1.0
  H  H67  1  0.42962000  0.29523000  0.57038000  1.0
  H  H68  1  0.82860000  0.20444000  0.00557000  1.0
  H  H69  1  0.17140000  0.79556000  0.50557000  1.0
  H  H70  1  0.67140000  0.70444000  0.00557000  1.0
  H  H71  1  0.32859000  0.29556000  0.50557000  1.0
  H  H72  1  0.80372000  0.06131000  0.08841000  1.0
  H  H73  1  0.19628000  0.93869000  0.58841000  1.0
  H  H74  1  0.69628000  0.56131000  0.08841000  1.0
  H  H75  1  0.30372000  0.43869000  0.58841000  1.0
  H  H76  1  0.69136000  0.06868000  0.02466000  1.0
  H  H77  1  0.30864000  0.93132000  0.52466000  1.0
  H  H78  1  0.80864000  0.56868000  0.02466000  1.0
  H  H79  1  0.19135000  0.43132000  0.52466000  1.0
  H  H80  1  0.66686000  0.19093000  0.12106000  1.0
  H  H81  1  0.33314000  0.80907000  0.62106000  1.0
  H  H82  1  0.83314000  0.69093000  0.12106000  1.0
  H  H83  1  0.16687000  0.30907000  0.62106000  1.0
  H  H84  1  0.56394000  0.20594000  0.05735000  1.0
  H  H85  1  0.43606000  0.79406000  0.55735000  1.0
  H  H86  1  0.93606000  0.70594000  0.05735000  1.0
  H  H87  1  0.06394000  0.29405000  0.55735000  1.0
  H  H88  1  0.54253000  0.98758000  0.10712000  1.0
  H  H89  1  0.45747000  0.01242000  0.60712000  1.0
  H  H90  1  0.95748000  0.48759000  0.10712000  1.0
  H  H91  1  0.04252000  0.51241000  0.60712000  1.0
  H  H92  1  0.28261000  0.93275000  0.15592000  1.0
  H  H93  1  0.71739000  0.06725000  0.65592000  1.0
  H  H94  1  0.21739000  0.43275000  0.15592000  1.0
  H  H95  1  0.78261000  0.56724000  0.65592000  1.0
  H  H96  1  0.05638000  0.16435000  0.16460000  1.0
  H  H97  1  0.94361000  0.83565000  0.66459000  1.0
  H  H98  1  0.44362000  0.66435000  0.16459000  1.0
  H  H99  1  0.55638000  0.33565000  0.66459000  1.0
  H  H100  1  0.31014000  0.23022000  0.11717000  1.0
  H  H101  1  0.68985000  0.76978000  0.61717000  1.0
  H  H102  1  0.18986000  0.73022000  0.11717000  1.0
  H  H103  1  0.81015000  0.26978000  0.61717000  1.0
  C  C104  1  0.36290000  0.77575000  0.86758000  1.0
  C  C105  1  0.63709000  0.22425000  0.36757000  1.0
  C  C106  1  0.13710000  0.27575000  0.86758000  1.0
  C  C107  1  0.86290000  0.72425000  0.36758000  1.0
  C  C108  1  0.52282000  0.74076000  0.88119000  1.0
  C  C109  1  0.47718000  0.25924000  0.38119000  1.0
  C  C110  1  0.97718000  0.24076000  0.88119000  1.0
  C  C111  1  0.02282000  0.75924000  0.38119000  1.0
  C  C112  1  0.54976000  0.65560000  0.87486000  1.0
  C  C113  1  0.45024000  0.34440000  0.37485000  1.0
  C  C114  1  0.95024000  0.15560000  0.87486000  1.0
  C  C115  1  0.04976000  0.84440000  0.37485000  1.0
  C  C116  1  0.41564000  0.60560000  0.85510000  1.0
  C  C117  1  0.58436000  0.39440000  0.35510000  1.0
  C  C118  1  0.08436000  0.10560000  0.85510000  1.0
  C  C119  1  0.91564000  0.89440000  0.35510000  1.0
  C  C120  1  0.25552000  0.64062000  0.84097000  1.0
  C  C121  1  0.74448000  0.35937000  0.34097000  1.0
  C  C122  1  0.24448000  0.14062000  0.84097000  1.0
  C  C123  1  0.75552000  0.85938000  0.34097000  1.0
  C  C124  1  0.22898000  0.72554000  0.84742000  1.0
  C  C125  1  0.77102000  0.27446000  0.34742000  1.0
  C  C126  1  0.27102000  0.22553000  0.84742000  1.0
  C  C127  1  0.72898000  0.77447000  0.34742000  1.0
  C  C128  1  0.33652000  0.86752000  0.87324000  1.0
  C  C129  1  0.66347000  0.13248000  0.37323000  1.0
  C  C130  1  0.16348000  0.36752000  0.87324000  1.0
  C  C131  1  0.83652000  0.63248000  0.37324000  1.0
  C  C132  1  0.72419000  0.62081000  0.88876000  1.0
  C  C133  1  0.27581000  0.37919000  0.38876000  1.0
  C  C134  1  0.77581000  0.12081000  0.88876000  1.0
  C  C135  1  0.22420000  0.87919000  0.38876000  1.0
  C  C136  1  0.13871000  0.75635000  0.25088000  1.0
  C  C137  1  0.86129000  0.24365000  0.75088000  1.0
  C  C138  1  0.36129000  0.25635000  0.25088000  1.0
  C  C139  1  0.63872000  0.74365000  0.75088000  1.0
  C  C140  1  0.97824000  0.72158000  0.23770000  1.0
  C  C141  1  0.02176000  0.27842000  0.73770000  1.0
  C  C142  1  0.52176000  0.22158000  0.23770000  1.0
  C  C143  1  0.47824000  0.77842000  0.73770000  1.0
  C  C144  1  0.95099000  0.63644000  0.24399000  1.0
  C  C145  1  0.04901000  0.36356000  0.74399000  1.0
  C  C146  1  0.54901000  0.13644000  0.24399000  1.0
  C  C147  1  0.45100000  0.86356000  0.74399000  1.0
  C  C148  1  0.08532000  0.58628000  0.26337000  1.0
  C  C149  1  0.91468000  0.41372000  0.76337000  1.0
  C  C150  1  0.41468000  0.08628000  0.26336000  1.0
  C  C151  1  0.58532000  0.91372000  0.76337000  1.0
  C  C152  1  0.24575000  0.62113000  0.27733000  1.0
  C  C153  1  0.75425000  0.37887000  0.77733000  1.0
  C  C154  1  0.25425000  0.12113000  0.27733000  1.0
  C  C155  1  0.74576000  0.87887000  0.77733000  1.0
  C  C156  1  0.27276000  0.70600000  0.27081000  1.0
  C  C157  1  0.72724000  0.29400000  0.77081000  1.0
  C  C158  1  0.22724000  0.20600000  0.27081000  1.0
  C  C159  1  0.77277000  0.79400000  0.77081000  1.0
  C  C160  1  0.16556000  0.84802000  0.24472000  1.0
  C  C161  1  0.83444000  0.15198000  0.74472000  1.0
  C  C162  1  0.33444000  0.34802000  0.24472000  1.0
  C  C163  1  0.66556000  0.65198000  0.74472000  1.0
  C  C164  1  0.77618000  0.60198000  0.23020000  1.0
  C  C165  1  0.22382000  0.39802000  0.73020000  1.0
  C  C166  1  0.72382000  0.10198000  0.23020000  1.0
  C  C167  1  0.27618000  0.89802000  0.73020000  1.0
  C  C168  1  0.21191000  0.01315000  0.97319000  1.0
  C  C169  1  0.78809000  0.98685000  0.47319000  1.0
  C  C170  1  0.28809000  0.51315000  0.97319000  1.0
  C  C171  1  0.71191000  0.48685000  0.47319000  1.0
  C  C172  1  0.06514000  0.04116000  0.00084000  1.0
  C  C173  1  0.93486000  0.95884000  0.50084000  1.0
  C  C174  1  0.43486000  0.54116000  0.00084000  1.0
  C  C175  1  0.56513000  0.45884000  0.50084000  1.0
  C  C176  1  0.04582000  0.12575000  0.01136000  1.0
  C  C177  1  0.95418000  0.87425000  0.51136000  1.0
  C  C178  1  0.45418000  0.62576000  0.01136000  1.0
  C  C179  1  0.54582000  0.37425000  0.51136000  1.0
  C  C180  1  0.18221000  0.17791000  0.99531000  1.0
  C  C181  1  0.81779000  0.82209000  0.49531000  1.0
  C  C182  1  0.31778000  0.67791000  0.99531000  1.0
  C  C183  1  0.68221000  0.32209000  0.49531000  1.0
  C  C184  1  0.32541000  0.14590000  0.96839000  1.0
  C  C185  1  0.67459000  0.85410000  0.46839000  1.0
  C  C186  1  0.17458000  0.64590000  0.96839000  1.0
  C  C187  1  0.82541000  0.35410000  0.46839000  1.0
  C  C188  1  0.88714000  0.16339000  0.03684000  1.0
  C  C189  1  0.11287000  0.83661000  0.53684000  1.0
  C  C190  1  0.61286000  0.66339000  0.03684000  1.0
  C  C191  1  0.38713000  0.33661000  0.53684000  1.0
  C  C192  1  0.74736000  0.10514000  0.05861000  1.0
  C  C193  1  0.25264000  0.89486000  0.55861000  1.0
  C  C194  1  0.75264000  0.60514000  0.05861000  1.0
  C  C195  1  0.24736000  0.39486000  0.55861000  1.0
  C  C196  1  0.60747000  0.15741000  0.08614000  1.0
  C  C197  1  0.39254000  0.84259000  0.58614000  1.0
  C  C198  1  0.89254000  0.65741000  0.08614000  1.0
  C  C199  1  0.10747000  0.34258000  0.58614000  1.0
  C  C200  1  0.44980000  0.11472000  0.10851000  1.0
  C  C201  1  0.55020000  0.88528000  0.60850000  1.0
  C  C202  1  0.05020000  0.61472000  0.10850000  1.0
  C  C203  1  0.94979000  0.38527000  0.60850000  1.0
  C  C204  1  0.43728000  0.02949000  0.11808000  1.0
  C  C205  1  0.56271000  0.97051000  0.61808000  1.0
  C  C206  1  0.06272000  0.52949000  0.11808000  1.0
  C  C207  1  0.93728000  0.47050000  0.61808000  1.0
  C  C208  1  0.29194000  0.99800000  0.14490000  1.0
  C  C209  1  0.70806000  0.00200000  0.64490000  1.0
  C  C210  1  0.20806000  0.49800000  0.14490000  1.0
  C  C211  1  0.79194000  0.50200000  0.64490000  1.0
  C  C212  1  0.16652000  0.12820000  0.15011000  1.0
  C  C213  1  0.83348000  0.87180000  0.65011000  1.0
  C  C214  1  0.33348000  0.62820000  0.15011000  1.0
  C  C215  1  0.66652000  0.37179000  0.65011000  1.0
  C  C216  1  0.30753000  0.16347000  0.12393000  1.0
  C  C217  1  0.69247000  0.83653000  0.62393000  1.0
  C  C218  1  0.19248000  0.66347000  0.12392000  1.0
  C  C219  1  0.80752000  0.33653000  0.62392000  1.0
  N  N220  1  0.11816000  0.58683000  0.82379000  1.0
  N  N221  1  0.88184000  0.41317000  0.32379000  1.0
  N  N222  1  0.38184000  0.08683000  0.82379000  1.0
  N  N223  1  0.61816000  0.91317000  0.32379000  1.0
  N  N224  1  0.38291000  0.56711000  0.29431000  1.0
  N  N225  1  0.61709000  0.43288000  0.79431000  1.0
  N  N226  1  0.11709000  0.06711000  0.29431000  1.0
  N  N227  1  0.88291000  0.93288000  0.79431000  1.0
  N  N228  1  0.33960000  0.06435000  0.95660000  1.0
  N  N229  1  0.66040000  0.93566000  0.45660000  1.0
  N  N230  1  0.16039000  0.56435000  0.95660000  1.0
  N  N231  1  0.83960000  0.43565000  0.45660000  1.0
  N  N232  1  0.15916000  0.04633000  0.16145000  1.0
  N  N233  1  0.84084000  0.95367000  0.66145000  1.0
  N  N234  1  0.34084000  0.54633000  0.16145000  1.0
  N  N235  1  0.65916000  0.45367000  0.66145000  1.0
  O  O236  1  0.46752000  0.90658000  0.89462000  1.0
  O  O237  1  0.53247000  0.09342000  0.39462000  1.0
  O  O238  1  0.03248000  0.40658000  0.89462000  1.0
  O  O239  1  0.96751000  0.59342000  0.39462000  1.0
  O  O240  1  0.19733000  0.90095000  0.85813000  1.0
  O  O241  1  0.80266000  0.09905000  0.35813000  1.0
  O  O242  1  0.30267000  0.40095000  0.85813000  1.0
  O  O243  1  0.69733000  0.59905000  0.35813000  1.0
  O  O244  1  0.84078000  0.66734000  0.90731000  1.0
  O  O245  1  0.15922000  0.33266000  0.40731000  1.0
  O  O246  1  0.65922000  0.16735000  0.90731000  1.0
  O  O247  1  0.34078000  0.83266000  0.40731000  1.0
  O  O248  1  0.75048000  0.54186000  0.88056000  1.0
  O  O249  1  0.24953000  0.45814000  0.38056000  1.0
  O  O250  1  0.74952000  0.04187000  0.88056000  1.0
  O  O251  1  0.25048000  0.95814000  0.38056000  1.0
  O  O252  1  0.30533000  0.88140000  0.25931000  1.0
  O  O253  1  0.69467000  0.11860000  0.75931000  1.0
  O  O254  1  0.19467000  0.38140000  0.25931000  1.0
  O  O255  1  0.80533000  0.61860000  0.75931000  1.0
  O  O256  1  0.03422000  0.88700000  0.22343000  1.0
  O  O257  1  0.96578000  0.11300000  0.72343000  1.0
  O  O258  1  0.46578000  0.38700000  0.22343000  1.0
  O  O259  1  0.53423000  0.61300000  0.72343000  1.0
  O  O260  1  0.65942000  0.64940000  0.21281000  1.0
  O  O261  1  0.34058000  0.35060000  0.71281000  1.0
  O  O262  1  0.84058000  0.14940000  0.21281000  1.0
  O  O263  1  0.15943000  0.85060000  0.71281000  1.0
  O  O264  1  0.74989000  0.52277000  0.23709000  1.0
  O  O265  1  0.25011000  0.47724000  0.73709000  1.0
  O  O266  1  0.75011000  0.02276000  0.23709000  1.0
  O  O267  1  0.24989000  0.97723000  0.73710000  1.0
