# generated using pymatgen
data_PrH2C7O6
_symmetry_space_group_name_H-M   'P 1'
_cell_length_a   7.40637000
_cell_length_b   8.91112000
_cell_length_c   9.86106000
_cell_angle_alpha   90.00000000
_cell_angle_beta   90.00000000
_cell_angle_gamma   89.85420000
_symmetry_Int_Tables_number   1
_chemical_formula_structural   PrH2C7O6
_chemical_formula_sum   'Pr4 H8 C28 O24'
_cell_volume   650.81850291
_cell_formula_units_Z   4
loop_
 _symmetry_equiv_pos_site_id
 _symmetry_equiv_pos_as_xyz
  1  'x, y, z'
loop_
 _atom_site_type_symbol
 _atom_site_label
 _atom_site_symmetry_multiplicity
 _atom_site_fract_x
 _atom_site_fract_y
 _atom_site_fract_z
 _atom_site_occupancy
  Pr  Pr0  1  0.85119000  0.17577000  0.25000000  1.0
  Pr  Pr1  1  0.64914000  0.67573000  0.75000000  1.0
  Pr  Pr2  1  0.35085000  0.32436000  0.25000000  1.0
  Pr  Pr3  1  0.14882000  0.82416000  0.75000000  1.0
  H  H4  1  0.95781000  0.59282000  0.46965000  1.0
  H  H5  1  0.53971000  0.09368000  0.53016000  1.0
  H  H6  1  0.46055000  0.90645000  0.03015000  1.0
  H  H7  1  0.04206000  0.40698000  0.96966000  1.0
  H  H8  1  0.04206000  0.40698000  0.53034000  1.0
  H  H9  1  0.46055000  0.90645000  0.46985000  1.0
  H  H10  1  0.53971000  0.09368000  0.96984000  1.0
  H  H11  1  0.95781000  0.59282000  0.03035000  1.0
  C  C12  1  0.85904000  0.88916000  0.48530000  1.0
  C  C13  1  0.64118000  0.38888000  0.51452000  1.0
  C  C14  1  0.35870000  0.61126000  0.01451000  1.0
  C  C15  1  0.14111000  0.11075000  0.98528000  1.0
  C  C16  1  0.14111000  0.11075000  0.51472000  1.0
  C  C17  1  0.35871000  0.61126000  0.48548000  1.0
  C  C18  1  0.64118000  0.38888000  0.98549000  1.0
  C  C19  1  0.85904000  0.88916000  0.01470000  1.0
  C  C20  1  0.91379000  0.79695000  0.37083000  1.0
  C  C21  1  0.58766000  0.29682000  0.62912000  1.0
  C  C22  1  0.41216000  0.70337000  0.12912000  1.0
  C  C23  1  0.08632000  0.20289000  0.87087000  1.0
  C  C24  1  0.08633000  0.20289000  0.62912000  1.0
  C  C25  1  0.41217000  0.70337000  0.37087000  1.0
  C  C26  1  0.58767000  0.29682000  0.87088000  1.0
  C  C27  1  0.91379000  0.79695000  0.12916000  1.0
  C  C28  1  0.95601000  0.64742000  0.37161000  1.0
  C  C29  1  0.54374000  0.14782000  0.62837000  1.0
  C  C30  1  0.45629000  0.85233000  0.12837000  1.0
  C  C31  1  0.04391000  0.35239000  0.87160000  1.0
  C  C32  1  0.04392000  0.35239000  0.62840000  1.0
  C  C33  1  0.45629000  0.85233000  0.37163000  1.0
  C  C34  1  0.54374000  0.14782000  0.87163000  1.0
  C  C35  1  0.95601000  0.64742000  0.12839000  1.0
  C  C36  1  0.98223000  0.56491000  0.25000000  1.0
  C  C37  1  0.51770000  0.06535000  0.75000000  1.0
  C  C38  1  0.48235000  0.93479000  0.25000000  1.0
  C  C39  1  0.01765000  0.43487000  0.75000000  1.0
  O  O40  1  0.81501000  0.02479000  0.46072000  1.0
  O  O41  1  0.68527000  0.52439000  0.53896000  1.0
  O  O42  1  0.31456000  0.47579000  0.03900000  1.0
  O  O43  1  0.18513000  0.97508000  0.96072000  1.0
  O  O44  1  0.18513000  0.97508000  0.53928000  1.0
  O  O45  1  0.31456000  0.47579000  0.46100000  1.0
  O  O46  1  0.68527000  0.52439000  0.96104000  1.0
  O  O47  1  0.81501000  0.02479000  0.03928000  1.0
  O  O48  1  0.85499000  0.83069000  0.60659000  1.0
  O  O49  1  0.64421000  0.33050000  0.39311000  1.0
  O  O50  1  0.35576000  0.66959000  0.89309000  1.0
  O  O51  1  0.14519000  0.16921000  0.10658000  1.0
  O  O52  1  0.14519000  0.16921000  0.39342000  1.0
  O  O53  1  0.35577000  0.66959000  0.60691000  1.0
  O  O54  1  0.64421000  0.33050000  0.10690000  1.0
  O  O55  1  0.85499000  0.83069000  0.89342000  1.0
  O  O56  1  0.02142000  0.42032000  0.25000000  1.0
  O  O57  1  0.47790000  0.92099000  0.75000000  1.0
  O  O58  1  0.52224000  0.07913000  0.25000000  1.0
  O  O59  1  0.97841000  0.57949000  0.75000000  1.0
  O  O60  1  0.90550000  0.87635000  0.25000000  1.0
  O  O61  1  0.59829000  0.37593000  0.75000000  1.0
  O  O62  1  0.40127000  0.62431000  0.25000000  1.0
  O  O63  1  0.09465000  0.12349000  0.75000000  1.0
