# generated using pymatgen
data_CdH20C20(NO2)2
_symmetry_space_group_name_H-M   'P 1'
_cell_length_a   7.65250000
_cell_length_b   9.62615000
_cell_length_c   12.72330000
_cell_angle_alpha   77.03720000
_cell_angle_beta   76.32640000
_cell_angle_gamma   89.10160000
_symmetry_Int_Tables_number   1
_chemical_formula_structural   CdH20C20(NO2)2
_chemical_formula_sum   'Cd2 H40 C40 N4 O8'
_cell_volume   886.78857700
_cell_formula_units_Z   2
loop_
 _symmetry_equiv_pos_site_id
 _symmetry_equiv_pos_as_xyz
  1  'x, y, z'
loop_
 _atom_site_type_symbol
 _atom_site_label
 _atom_site_symmetry_multiplicity
 _atom_site_fract_x
 _atom_site_fract_y
 _atom_site_fract_z
 _atom_site_occupancy
  Cd  Cd0  1  0.67105000  0.64725000  0.99137000  1.0
  Cd  Cd1  1  0.32895000  0.35275000  0.00863000  1.0
  H  H2  1  0.12946000  0.90950000  0.06965000  1.0
  H  H3  1  0.87054000  0.09050000  0.93035000  1.0
  H  H4  1  0.24396000  0.76965000  0.21521000  1.0
  H  H5  1  0.75604000  0.23036000  0.78479000  1.0
  H  H6  1  0.11217000  0.53094000  0.32668000  1.0
  H  H7  1  0.88784000  0.46906000  0.67332000  1.0
  H  H8  1  0.92335000  0.55826000  0.26902000  1.0
  H  H9  1  0.07665000  0.44174000  0.73098000  1.0
  H  H10  1  0.85548000  0.62481000  0.45276000  1.0
  H  H11  1  0.14451000  0.37518000  0.54724000  1.0
  H  H12  1  0.04635000  0.74307000  0.40856000  1.0
  H  H13  1  0.95365000  0.25693000  0.59144000  1.0
  H  H14  1  0.76309000  0.87577000  0.39068000  1.0
  H  H15  1  0.23691000  0.12423000  0.60932000  1.0
  H  H16  1  0.72122000  0.76608000  0.30435000  1.0
  H  H17  1  0.27878000  0.23392000  0.69565000  1.0
  H  H18  1  0.04688000  0.97245000  0.24819000  1.0
  H  H19  1  0.95312000  0.02755000  0.75182000  1.0
  H  H20  1  0.85720000  0.99865000  0.18951000  1.0
  H  H21  1  0.14280000  0.00135000  0.81049000  1.0
  H  H22  1  0.82090000  0.34890000  0.10241000  1.0
  H  H23  1  0.17910000  0.65109000  0.89759000  1.0
  H  H24  1  0.81836000  0.18977000  0.28341000  1.0
  H  H25  1  0.18164000  0.81023000  0.71659000  1.0
  H  H26  1  0.43178000  0.46176000  0.43731000  1.0
  H  H27  1  0.56821000  0.53825000  0.56269000  1.0
  H  H28  1  0.45533000  0.61441000  0.24769000  1.0
  H  H29  1  0.54467000  0.38558000  0.75230000  1.0
  H  H30  1  0.52297000  0.25991000  0.55701000  1.0
  H  H31  1  0.47702000  0.74009000  0.44299000  1.0
  H  H32  1  0.78950000  0.06571000  0.44292000  1.0
  H  H33  1  0.21050000  0.93429000  0.55708000  1.0
  H  H34  1  0.87515000  0.85966000  0.55165000  1.0
  H  H35  1  0.12485000  0.14034000  0.44834000  1.0
  H  H36  1  0.85757000  0.69437000  0.73706000  1.0
  H  H37  1  0.14244000  0.30563000  0.26294000  1.0
  H  H38  1  0.49650000  0.94795000  0.89819000  1.0
  H  H39  1  0.50350000  0.05205000  0.10181000  1.0
  H  H40  1  0.49740000  0.12202000  0.72488000  1.0
  H  H41  1  0.50259000  0.87798000  0.27512000  1.0
  C  C42  1  0.89777000  0.78489000  0.08044000  1.0
  C  C43  1  0.10223000  0.21511000  0.91956000  1.0
  C  C44  1  0.03266000  0.83676000  0.13680000  1.0
  C  C45  1  0.96734000  0.16324000  0.86320000  1.0
  C  C46  1  0.14177000  0.71431000  0.18899000  1.0
  C  C47  1  0.85823000  0.28569000  0.81101000  1.0
  C  C48  1  0.02737000  0.61411000  0.29253000  1.0
  C  C49  1  0.97263000  0.38589000  0.70747000  1.0
  C  C50  1  0.94019000  0.69723000  0.37930000  1.0
  C  C51  1  0.05981000  0.30277000  0.62070000  1.0
  C  C52  1  0.82915000  0.81586000  0.32900000  1.0
  C  C53  1  0.17085000  0.18414000  0.67100000  1.0
  C  C54  1  0.94179000  0.91698000  0.22530000  1.0
  C  C55  1  0.05821000  0.08302000  0.77471000  1.0
  C  C56  1  0.25175000  0.63566000  0.10509000  1.0
  C  C57  1  0.74825000  0.36434000  0.89491000  1.0
  C  C58  1  0.73581000  0.37087000  0.17829000  1.0
  C  C59  1  0.26419000  0.62913000  0.82171000  1.0
  C  C60  1  0.73373000  0.28184000  0.28098000  1.0
  C  C61  1  0.26627000  0.71816000  0.71902000  1.0
  C  C62  1  0.62431000  0.31143000  0.37834000  1.0
  C  C63  1  0.37569000  0.68857000  0.62166000  1.0
  C  C64  1  0.52114000  0.43376000  0.36522000  1.0
  C  C65  1  0.47886000  0.56624000  0.63478000  1.0
  C  C66  1  0.53181000  0.51807000  0.25977000  1.0
  C  C67  1  0.46819000  0.48193000  0.74022000  1.0
  C  C68  1  0.61283000  0.22322000  0.48913000  1.0
  C  C69  1  0.38717000  0.77679000  0.51087000  1.0
  C  C70  1  0.70068000  0.10138000  0.51182000  1.0
  C  C71  1  0.29932000  0.89862000  0.48818000  1.0
  C  C72  1  0.68919000  0.00754000  0.62035000  1.0
  C  C73  1  0.31081000  0.99246000  0.37965000  1.0
  C  C74  1  0.79073000  0.88404000  0.62673000  1.0
  C  C75  1  0.20928000  0.11597000  0.37327000  1.0
  C  C76  1  0.78245000  0.79182000  0.72896000  1.0
  C  C77  1  0.21756000  0.20818000  0.27104000  1.0
  C  C78  1  0.58070000  0.93294000  0.81976000  1.0
  C  C79  1  0.41930000  0.06705000  0.18024000  1.0
  C  C80  1  0.58217000  0.03061000  0.72090000  1.0
  C  C81  1  0.41783000  0.96939000  0.27910000  1.0
  N  N82  1  0.63573000  0.48737000  0.16758000  1.0
  N  N83  1  0.36428000  0.51263000  0.83242000  1.0
  N  N84  1  0.67938000  0.81553000  0.82415000  1.0
  N  N85  1  0.32062000  0.18447000  0.17585000  1.0
  O  O86  1  0.95689000  0.70576000  0.01227000  1.0
  O  O87  1  0.04312000  0.29424000  0.98773000  1.0
  O  O88  1  0.73490000  0.82102000  0.10189000  1.0
  O  O89  1  0.26509000  0.17898000  0.89811000  1.0
  O  O90  1  0.21908000  0.50238000  0.12107000  1.0
  O  O91  1  0.78092000  0.49762000  0.87893000  1.0
  O  O92  1  0.37647000  0.70840000  0.02905000  1.0
  O  O93  1  0.62353000  0.29160000  0.97095000  1.0
