# generated using pymatgen
data_Zn4H18C44N8O13
_symmetry_space_group_name_H-M   'P 1'
_cell_length_a   15.11660000
_cell_length_b   26.11400000
_cell_length_c   28.22480000
_cell_angle_alpha   89.94740000
_cell_angle_beta   82.30840000
_cell_angle_gamma   89.32380000
_symmetry_Int_Tables_number   1
_chemical_formula_structural   Zn4H18C44N8O13
_chemical_formula_sum   'Zn8 H36 C88 N16 O26'
_cell_volume   11040.86112573
_cell_formula_units_Z   2
loop_
 _symmetry_equiv_pos_site_id
 _symmetry_equiv_pos_as_xyz
  1  'x, y, z'
loop_
 _atom_site_type_symbol
 _atom_site_label
 _atom_site_symmetry_multiplicity
 _atom_site_fract_x
 _atom_site_fract_y
 _atom_site_fract_z
 _atom_site_occupancy
  Zn  Zn0  1  0.57239000  0.93682000  0.49472000  1.0
  Zn  Zn1  1  0.57632000  0.06092000  0.49621000  1.0
  Zn  Zn2  1  0.57363000  0.43669000  0.99602000  1.0
  Zn  Zn3  1  0.57658000  0.56085000  0.99623000  1.0
  Zn  Zn4  1  0.42002000  0.00051000  0.56161000  1.0
  Zn  Zn5  1  0.41900000  0.50079000  0.06087000  1.0
  Zn  Zn6  1  0.43426000  0.00008000  0.44511000  1.0
  Zn  Zn7  1  0.43499000  0.49974000  0.94520000  1.0
  H  H8  1  0.57721000  0.80541000  0.41071000  1.0
  H  H9  1  0.51016000  0.72991000  0.63906000  1.0
  H  H10  1  0.50387000  0.76890000  0.13888000  1.0
  H  H11  1  0.33480000  0.29673000  0.20693000  1.0
  H  H12  1  0.42479000  0.90426000  0.32951000  1.0
  H  H13  1  0.40812000  0.10431000  0.33954000  1.0
  H  H14  1  0.42273000  0.40291000  0.83213000  1.0
  H  H15  1  0.43349000  0.59470000  0.82956000  1.0
  H  H16  1  0.01042000  0.91759000  0.43714000  1.0
  H  H17  1  0.01132000  0.41729000  0.93685000  1.0
  H  H18  1  0.98821000  0.08346000  0.56275000  1.0
  H  H19  1  0.63099000  0.17549000  0.39187000  1.0
  H  H20  1  0.98796000  0.58309000  0.06255000  1.0
  H  H21  1  0.84674000  0.05802000  0.53361000  1.0
  H  H22  1  0.84686000  0.55769000  0.03304000  1.0
  H  H23  1  0.46418000  0.15444000  0.74818000  1.0
  H  H24  1  0.46204000  0.84516000  0.74849000  1.0
  H  H25  1  0.46329000  0.65414000  0.24861000  1.0
  H  H26  1  0.62117000  0.28458000  0.18622000  1.0
  H  H27  1  0.57652000  0.73657000  0.34803000  1.0
  H  H28  1  0.63824000  0.24020000  0.32505000  1.0
  H  H29  1  0.58323000  0.23717000  0.84618000  1.0
  H  H30  1  0.58491000  0.30565000  0.90920000  1.0
  H  H31  1  0.57384000  0.76329000  0.84990000  1.0
  H  H32  1  0.84575000  0.92714000  0.44139000  1.0
  H  H33  1  0.84680000  0.42706000  0.94036000  1.0
  H  H34  1  0.45881000  0.08740000  0.68471000  1.0
  H  H35  1  0.45768000  0.91248000  0.68516000  1.0
  H  H36  1  0.45857000  0.58659000  0.18553000  1.0
  H  H37  1  0.62700000  0.34799000  0.11885000  1.0
  H  H38  1  0.57859000  0.69426000  0.91208000  1.0
  H  H39  1  0.42588000  0.83608000  0.26646000  1.0
  H  H40  1  0.41283000  0.16998000  0.27415000  1.0
  H  H41  1  0.42351000  0.33544000  0.76852000  1.0
  H  H42  1  0.43201000  0.66265000  0.76662000  1.0
  H  H43  1  0.50339000  0.27002000  0.63923000  1.0
  C  C44  1  0.48751000  0.09858000  0.59016000  1.0
  C  C45  1  0.11823000  0.47673000  0.98389000  1.0
  C  C46  1  0.11490000  0.04658000  0.54178000  1.0
  C  C47  1  0.11498000  0.54681000  0.04115000  1.0
  C  C48  1  0.02371000  0.05313000  0.54122000  1.0
  C  C49  1  0.02366000  0.55291000  0.04087000  1.0
  C  C50  1  0.50278000  0.85895000  0.37283000  1.0
  C  C51  1  0.51947000  0.13620000  0.36920000  1.0
  C  C52  1  0.50475000  0.35820000  0.87379000  1.0
  C  C53  1  0.50810000  0.64026000  0.87359000  1.0
  C  C54  1  0.45892000  0.86770000  0.33262000  1.0
  C  C55  1  0.49140000  0.90177000  0.59063000  1.0
  C  C56  1  0.45758000  0.13453000  0.33616000  1.0
  C  C57  1  0.45862000  0.36678000  0.83435000  1.0
  C  C58  1  0.46527000  0.63147000  0.83308000  1.0
  C  C59  1  0.45929000  0.83023000  0.29793000  1.0
  C  C60  1  0.46006000  0.17068000  0.30009000  1.0
  C  C61  1  0.45881000  0.32965000  0.79933000  1.0
  C  C62  1  0.46415000  0.66890000  0.79840000  1.0
  C  C63  1  0.50302000  0.78317000  0.30359000  1.0
  C  C64  1  0.52563000  0.20884000  0.29642000  1.0
  C  C65  1  0.50477000  0.28310000  0.80378000  1.0
  C  C66  1  0.48870000  0.59718000  0.09092000  1.0
  C  C67  1  0.50481000  0.71626000  0.80447000  1.0
  C  C68  1  0.54456000  0.77376000  0.34442000  1.0
  C  C69  1  0.58808000  0.21029000  0.32900000  1.0
  C  C70  1  0.54915000  0.27390000  0.84365000  1.0
  C  C71  1  0.54464000  0.72584000  0.84576000  1.0
  C  C72  1  0.50390000  0.90011000  0.40916000  1.0
  C  C73  1  0.51616000  0.09656000  0.40747000  1.0
  C  C74  1  0.50511000  0.39894000  0.91070000  1.0
  C  C75  1  0.51011000  0.59869000  0.90969000  1.0
  C  C76  1  0.54526000  0.81177000  0.37881000  1.0
  C  C77  1  0.49258000  0.40124000  0.08966000  1.0
  C  C78  1  0.58427000  0.17448000  0.36570000  1.0
  C  C79  1  0.54998000  0.31162000  0.87829000  1.0
  C  C80  1  0.54757000  0.68766000  0.87995000  1.0
  C  C81  1  0.47321000  0.16430000  0.71033000  1.0
  C  C82  1  0.47322000  0.83537000  0.71062000  1.0
  C  C83  1  0.47263000  0.66372000  0.21070000  1.0
  C  C84  1  0.56056000  0.30206000  0.17621000  1.0
  C  C85  1  0.47072000  0.12741000  0.67521000  1.0
  C  C86  1  0.47129000  0.87248000  0.67553000  1.0
  C  C87  1  0.47043000  0.62655000  0.17580000  1.0
  C  C88  1  0.97620000  0.02108000  0.51341000  1.0
  C  C89  1  0.56352000  0.33722000  0.13913000  1.0
  C  C90  1  0.48671000  0.21576000  0.69693000  1.0
  C  C91  1  0.48910000  0.78390000  0.69717000  1.0
  C  C92  1  0.48648000  0.71507000  0.19697000  1.0
  C  C93  1  0.47753000  0.28829000  0.20126000  1.0
  C  C94  1  0.48451000  0.14030000  0.62654000  1.0
  C  C95  1  0.48811000  0.85981000  0.62687000  1.0
  C  C96  1  0.48471000  0.63908000  0.12707000  1.0
  C  C97  1  0.48545000  0.36062000  0.12725000  1.0
  C  C98  1  0.49725000  0.19220000  0.61309000  1.0
  C  C99  1  0.97637000  0.52080000  0.01300000  1.0
  C  C100  1  0.50307000  0.80795000  0.61330000  1.0
  C  C101  1  0.49756000  0.69088000  0.11326000  1.0
  C  C102  1  0.40182000  0.34610000  0.15198000  1.0
  C  C103  1  0.49598000  0.22970000  0.64867000  1.0
  C  C104  1  0.50117000  0.77020000  0.64876000  1.0
  C  C105  1  0.49615000  0.72865000  0.14859000  1.0
  C  C106  1  0.39863000  0.30910000  0.18814000  1.0
  C  C107  1  0.26270000  0.00360000  0.51028000  1.0
  C  C108  1  0.26303000  0.50455000  0.00934000  1.0
  C  C109  1  0.73786000  0.99726000  0.49048000  1.0
  C  C110  1  0.02305000  0.98114000  0.48517000  1.0
  C  C111  1  0.73864000  0.49743000  0.98877000  1.0
  C  C112  1  0.16314000  0.00839000  0.51242000  1.0
  C  C113  1  0.16355000  0.50891000  0.01154000  1.0
  C  C114  1  0.83718000  0.99333000  0.48794000  1.0
  C  C115  1  0.83776000  0.49326000  0.98691000  1.0
  C  C116  1  0.97474000  0.94784000  0.45874000  1.0
  C  C117  1  0.97542000  0.44761000  0.95827000  1.0
  C  C118  1  0.88364000  0.95328000  0.46077000  1.0
  C  C119  1  0.88442000  0.45312000  0.95998000  1.0
  C  C120  1  0.88293000  0.02711000  0.51318000  1.0
  C  C121  1  0.02352000  0.48100000  0.98470000  1.0
  C  C122  1  0.88316000  0.52683000  0.01257000  1.0
  C  C123  1  0.16383000  0.93730000  0.45541000  1.0
  C  C124  1  0.16436000  0.43752000  0.95469000  1.0
  C  C125  1  0.50846000  0.20901000  0.56441000  1.0
  C  C126  1  0.51672000  0.79196000  0.56434000  1.0
  C  C127  1  0.50926000  0.70739000  0.06446000  1.0
  C  C128  1  0.31864000  0.36597000  0.14057000  1.0
  C  C129  1  0.15962000  0.08012000  0.57053000  1.0
  C  C130  1  0.15908000  0.58092000  0.06969000  1.0
  C  C131  1  0.11768000  0.97651000  0.48457000  1.0
  N  N132  1  0.50640000  0.74270000  0.27028000  1.0
  N  N133  1  0.19659000  0.40401000  0.93067000  1.0
  N  N134  1  0.51683000  0.22641000  0.52595000  1.0
  N  N135  1  0.52676000  0.77610000  0.52528000  1.0
  N  N136  1  0.51811000  0.72453000  0.02588000  1.0
  N  N137  1  0.24765000  0.37896000  0.13302000  1.0
  N  N138  1  0.19357000  0.10876000  0.59405000  1.0
  N  N139  1  0.19171000  0.61050000  0.09288000  1.0
  N  N140  1  0.53466000  0.24666000  0.26036000  1.0
  N  N141  1  0.50802000  0.24289000  0.77018000  1.0
  N  N142  1  0.50717000  0.75662000  0.77102000  1.0
  N  N143  1  0.48880000  0.25643000  0.72965000  1.0
  N  N144  1  0.49120000  0.74312000  0.72992000  1.0
  N  N145  1  0.48856000  0.75600000  0.22941000  1.0
  N  N146  1  0.46658000  0.25253000  0.23909000  1.0
  N  N147  1  0.19680000  0.90393000  0.43146000  1.0
  O  O148  1  0.49964000  0.00002000  0.50077000  1.0
  O  O149  1  0.56534000  0.60303000  0.93992000  1.0
  O  O150  1  0.43718000  0.93923000  0.60042000  1.0
  O  O151  1  0.44316000  0.05836000  0.60254000  1.0
  O  O152  1  0.43148000  0.43547000  0.09422000  1.0
  O  O153  1  0.44529000  0.55656000  0.10324000  1.0
  O  O154  1  0.45582000  0.06271000  0.40766000  1.0
  O  O155  1  0.46013000  0.94127000  0.40302000  1.0
  O  O156  1  0.45649000  0.56168000  0.90691000  1.0
  O  O157  1  0.46452000  0.44080000  0.90350000  1.0
  O  O158  1  0.29358000  0.00256000  0.55001000  1.0
  O  O159  1  0.50081000  0.49966000  0.00057000  1.0
  O  O160  1  0.29383000  0.50675000  0.04898000  1.0
  O  O161  1  0.70107000  0.04053000  0.50194000  1.0
  O  O162  1  0.69873000  0.95621000  0.48112000  1.0
  O  O163  1  0.70195000  0.54076000  0.00009000  1.0
  O  O164  1  0.69932000  0.45656000  0.97893000  1.0
  O  O165  1  0.30532000  0.00140000  0.46847000  1.0
  O  O166  1  0.30585000  0.49953000  0.96772000  1.0
  O  O167  1  0.53561000  0.10660000  0.55034000  1.0
  O  O168  1  0.54936000  0.89646000  0.55383000  1.0
  O  O169  1  0.53684000  0.60545000  0.05119000  1.0
  O  O170  1  0.55967000  0.39855000  0.05697000  1.0
  O  O171  1  0.54935000  0.89137000  0.44336000  1.0
  O  O172  1  0.57353000  0.09929000  0.43677000  1.0
  O  O173  1  0.54646000  0.38912000  0.94641000  1.0
