# generated using pymatgen
data_CdH9C10I2N5
_symmetry_space_group_name_H-M   'P 1'
_cell_length_a   8.54280000
_cell_length_b   10.02930000
_cell_length_c   10.55090000
_cell_angle_alpha   108.35800000
_cell_angle_beta   92.75120000
_cell_angle_gamma   105.44500000
_symmetry_Int_Tables_number   1
_chemical_formula_structural   CdH9C10I2N5
_chemical_formula_sum   'Cd2 H18 C20 I4 N10'
_cell_volume   818.35486984
_cell_formula_units_Z   2
loop_
 _symmetry_equiv_pos_site_id
 _symmetry_equiv_pos_as_xyz
  1  'x, y, z'
loop_
 _atom_site_type_symbol
 _atom_site_label
 _atom_site_symmetry_multiplicity
 _atom_site_fract_x
 _atom_site_fract_y
 _atom_site_fract_z
 _atom_site_occupancy
  Cd  Cd0  1  0.42441000  0.97519000  0.18734000  1.0
  Cd  Cd1  1  0.57558000  0.02481000  0.81265000  1.0
  H  H2  1  0.71698000  0.61313000  0.31105000  1.0
  H  H3  1  0.28304000  0.38689000  0.68897000  1.0
  H  H4  1  0.48226000  0.32033000  0.17237000  1.0
  H  H5  1  0.51775000  0.67967000  0.82764000  1.0
  H  H6  1  0.20982000  0.20867000  0.02668000  1.0
  H  H7  1  0.79021000  0.79133000  0.97332000  1.0
  H  H8  1  0.06628000  0.36238000  0.95450000  1.0
  H  H9  1  0.93373000  0.63760000  0.04551000  1.0
  H  H10  1  0.19047000  0.63520000  0.02476000  1.0
  H  H11  1  0.80953000  0.36479000  0.97525000  1.0
  H  H12  1  0.76152000  0.00374000  0.32623000  1.0
  H  H13  1  0.23847000  0.99626000  0.67378000  1.0
  H  H14  1  0.75453000  0.93052000  0.46024000  1.0
  H  H15  1  0.24546000  0.06948000  0.53976000  1.0
  H  H16  1  0.02838000  0.01930000  0.21529000  1.0
  H  H17  1  0.97161000  0.98070000  0.78470000  1.0
  H  H18  1  0.19634000  0.72957000  0.36232000  1.0
  H  H19  1  0.80365000  0.27045000  0.63769000  1.0
  C  C20  1  0.48317000  0.54052000  0.18321000  1.0
  C  C21  1  0.51683000  0.45948000  0.81680000  1.0
  C  C22  1  0.41799000  0.38794000  0.14160000  1.0
  C  C23  1  0.58202000  0.61206000  0.85841000  1.0
  C  C24  1  0.26587000  0.32745000  0.06041000  1.0
  C  C25  1  0.73414000  0.67254000  0.93960000  1.0
  C  C26  1  0.18423000  0.41537000  0.01961000  1.0
  C  C27  1  0.81578000  0.58462000  0.98040000  1.0
  C  C28  1  0.25080000  0.56744000  0.05943000  1.0
  C  C29  1  0.74921000  0.43256000  0.94058000  1.0
  C  C30  1  0.40177000  0.63025000  0.14382000  1.0
  C  C31  1  0.59823000  0.36975000  0.85618000  1.0
  C  C32  1  0.63134000  0.77546000  0.27034000  1.0
  C  C33  1  0.36867000  0.22454000  0.72967000  1.0
  C  C34  1  0.76736000  0.90785000  0.35284000  1.0
  C  C35  1  0.23263000  0.09216000  0.64717000  1.0
  C  C36  1  0.04075000  0.94173000  0.26459000  1.0
  C  C37  1  0.95924000  0.05828000  0.73540000  1.0
  C  C38  1  0.12039000  0.79220000  0.33861000  1.0
  C  C39  1  0.87961000  0.20782000  0.66139000  1.0
  I  I40  1  0.53075000  0.22624000  0.41371000  1.0
  I  I41  1  0.46924000  0.77375000  0.58628000  1.0
  I  I42  1  0.24493000  0.90707000  0.93213000  1.0
  I  I43  1  0.75507000  0.09291000  0.06785000  1.0
  N  N44  1  0.49837000  0.77648000  0.20010000  1.0
  N  N45  1  0.50163000  0.22351000  0.79991000  1.0
  N  N46  1  0.62751000  0.63692000  0.26277000  1.0
  N  N47  1  0.37249000  0.36309000  0.73723000  1.0
  N  N48  1  0.92699000  0.88515000  0.33257000  1.0
  N  N49  1  0.07300000  0.11487000  0.66743000  1.0
  N  N50  1  0.97534000  0.78847000  0.38038000  1.0
  N  N51  1  0.02466000  0.21154000  0.61963000  1.0
  N  N52  1  0.16556000  0.88540000  0.26732000  1.0
  N  N53  1  0.83444000  0.11460000  0.73267000  1.0
