# generated using pymatgen
data_CdH12C12Br2(N2O3)2
_symmetry_space_group_name_H-M   'P 1'
_cell_length_a   3.92936000
_cell_length_b   8.06725000
_cell_length_c   28.53869178
_cell_angle_alpha   89.09869046
_cell_angle_beta   86.07598896
_cell_angle_gamma   76.66290000
_symmetry_Int_Tables_number   1
_chemical_formula_structural   CdH12C12Br2(N2O3)2
_chemical_formula_sum   'Cd2 H24 C24 Br4 N8 O12'
_cell_volume   878.18937595
_cell_formula_units_Z   2
loop_
 _symmetry_equiv_pos_site_id
 _symmetry_equiv_pos_as_xyz
  1  'x, y, z'
loop_
 _atom_site_type_symbol
 _atom_site_label
 _atom_site_symmetry_multiplicity
 _atom_site_fract_x
 _atom_site_fract_y
 _atom_site_fract_z
 _atom_site_occupancy
  Cd  Cd0  1  0.75097000  0.99226000  0.00177000  1.0
  Cd  Cd1  1  0.50482000  0.49236000  0.49832000  1.0
  H  H2  1  0.09981000  0.53891000  0.03166000  1.0
  H  H3  1  0.38275000  0.93693000  0.53414000  1.0
  H  H4  1  0.88408000  0.03889000  0.46844000  1.0
  H  H5  1  0.66517000  0.43721000  0.96582000  1.0
  H  H6  1  0.77683000  0.66434000  0.10704000  1.0
  H  H7  1  0.19379000  0.82487000  0.61256000  1.0
  H  H8  1  0.63617000  0.16467000  0.39311000  1.0
  H  H9  1  0.55299000  0.32523000  0.88742000  1.0
  H  H10  1  0.70562000  0.14009000  0.10428000  1.0
  H  H11  1  0.59910000  0.35579000  0.59850000  1.0
  H  H12  1  0.56135000  0.64016000  0.39569000  1.0
  H  H13  1  0.94583000  0.85585000  0.90140000  1.0
  H  H14  1  0.21126000  0.16379000  0.21107000  1.0
  H  H15  1  0.14159000  0.35396000  0.70657000  1.0
  H  H16  1  0.17240000  0.66421000  0.28896000  1.0
  H  H17  1  0.59616000  0.85364000  0.79329000  1.0
  H  H18  1  0.63560000  0.09072000  0.18271000  1.0
  H  H19  1  0.49425000  0.42122000  0.67557000  1.0
  H  H20  1  0.56881000  0.59102000  0.31725000  1.0
  H  H21  1  0.91768000  0.92110000  0.82430000  1.0
  H  H22  1  0.53307000  0.27501000  0.21962000  1.0
  H  H23  1  0.56969000  0.24703000  0.71608000  1.0
  H  H24  1  0.50297000  0.77523000  0.28035000  1.0
  H  H25  1  0.03390000  0.74682000  0.78382000  1.0
  C  C26  1  0.15287000  0.48171000  0.06598000  1.0
  C  C27  1  0.38154000  0.00177000  0.56738000  1.0
  C  C28  1  0.97133000  0.98183000  0.43409000  1.0
  C  C29  1  0.69699000  0.50202000  0.93257000  1.0
  C  C30  1  0.98052000  0.54743000  0.10757000  1.0
  C  C31  1  0.27969000  0.94382000  0.61051000  1.0
  C  C32  1  0.84023000  0.04773000  0.39253000  1.0
  C  C33  1  0.63753000  0.44407000  0.88946000  1.0
  C  C34  1  0.06768000  0.46558000  0.15003000  1.0
  C  C35  1  0.28708000  0.03641000  0.65124000  1.0
  C  C36  1  0.96904000  0.96591000  0.35006000  1.0
  C  C37  1  0.68584000  0.53645000  0.84869000  1.0
  C  C38  1  0.32502000  0.31139000  0.15098000  1.0
  C  C39  1  0.39379000  0.19203000  0.64896000  1.0
  C  C40  1  0.22728000  0.81172000  0.34904000  1.0
  C  C41  1  0.79079000  0.69195000  0.85095000  1.0
  C  C42  1  0.49292000  0.25341000  0.10775000  1.0
  C  C43  1  0.49897000  0.24167000  0.60438000  1.0
  C  C44  1  0.35244000  0.75367000  0.39227000  1.0
  C  C45  1  0.85158000  0.74168000  0.89553000  1.0
  C  C46  1  0.43431000  0.20466000  0.19312000  1.0
  C  C47  1  0.40285000  0.30952000  0.68870000  1.0
  C  C48  1  0.37786000  0.70498000  0.30688000  1.0
  C  C49  1  0.83957000  0.80931000  0.81119000  1.0
  Br  Br50  1  0.23852000  0.08292000  0.93813000  1.0
  Br  Br51  1  0.07738000  0.40770000  0.43479000  1.0
  Br  Br52  1  0.93107000  0.58256000  0.56202000  1.0
  Br  Br53  1  0.26190000  0.90701000  0.06532000  1.0
  N  N54  1  0.41442000  0.33746000  0.06666000  1.0
  N  N55  1  0.49643000  0.14928000  0.56492000  1.0
  N  N56  1  0.23345000  0.83759000  0.43338000  1.0
  N  N57  1  0.80967000  0.64941000  0.93501000  1.0
  N  N58  1  0.88202000  0.54851000  0.19274000  1.0
  N  N59  1  0.18169000  0.96318000  0.69570000  1.0
  N  N60  1  0.82528000  0.04885000  0.30738000  1.0
  N  N61  1  0.62383000  0.46347000  0.80424000  1.0
  O  O62  1  0.59448000  0.28321000  0.02737000  1.0
  O  O63  1  0.60997000  0.19956000  0.52416000  1.0
  O  O64  1  0.37445000  0.78324000  0.47266000  1.0
  O  O65  1  0.88278000  0.69969000  0.97577000  1.0
  O  O66  1  0.64402000  0.67813000  0.18809000  1.0
  O  O67  1  0.06086000  0.83408000  0.69369000  1.0
  O  O68  1  0.58327000  0.17871000  0.31207000  1.0
  O  O69  1  0.49703000  0.33558000  0.80624000  1.0
  O  O70  1  0.97260000  0.48579000  0.23126000  1.0
  O  O71  1  0.21894000  0.03345000  0.73281000  1.0
  O  O72  1  0.95304000  0.98581000  0.26885000  1.0
  O  O73  1  0.70116000  0.53279000  0.76712000  1.0
