# generated using pymatgen
data_AlC12S3(NO4)3
_symmetry_space_group_name_H-M   'P 1'
_cell_length_a   4.05668000
_cell_length_b   20.15070000
_cell_length_c   20.15070000
_cell_angle_alpha   60.00000000
_cell_angle_beta   89.99910000
_cell_angle_gamma   89.99900000
_symmetry_Int_Tables_number   1
_chemical_formula_structural   AlC12S3(NO4)3
_chemical_formula_sum   'Al2 C24 S6 N6 O24'
_cell_volume   1426.53245684
_cell_formula_units_Z   2
loop_
 _symmetry_equiv_pos_site_id
 _symmetry_equiv_pos_as_xyz
  1  'x, y, z'
loop_
 _atom_site_type_symbol
 _atom_site_label
 _atom_site_symmetry_multiplicity
 _atom_site_fract_x
 _atom_site_fract_y
 _atom_site_fract_z
 _atom_site_occupancy
  Al  Al0  1  0.01833000  0.50000000  0.00000000  1.0
  Al  Al1  1  0.01829000  0.16667000  0.66666000  1.0
  C  C2  1  0.51454000  0.61654000  0.94103000  1.0
  C  C3  1  0.51454000  0.44243000  0.11655000  1.0
  C  C4  1  0.51456000  0.44102000  0.94243000  1.0
  C  C5  1  0.51448000  0.22427000  0.55011000  1.0
  C  C6  1  0.51448000  0.22562000  0.72427000  1.0
  C  C7  1  0.51449000  0.05011000  0.72562000  1.0
  C  C8  1  0.50338000  0.32069000  0.25109000  1.0
  C  C9  1  0.50336000  0.34604000  0.41556000  1.0
  C  C10  1  0.50223000  0.39934000  0.20195000  1.0
  C  C11  1  0.50214000  0.26739000  0.46470000  1.0
  C  C12  1  0.50709000  0.36577000  0.33743000  1.0
  C  C13  1  0.50701000  0.30096000  0.32923000  1.0
  C  C14  1  0.50339000  0.42822000  0.82069000  1.0
  C  C15  1  0.50336000  0.23840000  0.84604000  1.0
  C  C16  1  0.50224000  0.39871000  0.89933000  1.0
  C  C17  1  0.50216000  0.26791000  0.76739000  1.0
  C  C18  1  0.50710000  0.29680000  0.86577000  1.0
  C  C19  1  0.50704000  0.36982000  0.80096000  1.0
  C  C20  1  0.50337000  0.75110000  0.92821000  1.0
  C  C21  1  0.50336000  0.91556000  0.73840000  1.0
  C  C22  1  0.50222000  0.70196000  0.89870000  1.0
  C  C23  1  0.50217000  0.96470000  0.76790000  1.0
  C  C24  1  0.50709000  0.83743000  0.79679000  1.0
  C  C25  1  0.50701000  0.82922000  0.86981000  1.0
  S  S26  1  0.50031000  0.44976000  0.25073000  1.0
  S  S27  1  0.50020000  0.21697000  0.41592000  1.0
  S  S28  1  0.50034000  0.29951000  0.94976000  1.0
  S  S29  1  0.50022000  0.36711000  0.71697000  1.0
  S  S30  1  0.50032000  0.75073000  0.79951000  1.0
  S  S31  1  0.50021000  0.91592000  0.86710000  1.0
  N  N32  1  0.48170000  0.26313000  0.22852000  1.0
  N  N33  1  0.48174000  0.40360000  0.43815000  1.0
  N  N34  1  0.48173000  0.50835000  0.76313000  1.0
  N  N35  1  0.48173000  0.15826000  0.90359000  1.0
  N  N36  1  0.48170000  0.72852000  0.00835000  1.0
  N  N37  1  0.48174000  0.93815000  0.65825000  1.0
  O  O38  1  0.28456000  0.42668000  0.99060000  1.0
  O  O39  1  0.28455000  0.58272000  0.92669000  1.0
  O  O40  1  0.28454000  0.49059000  0.08273000  1.0
  O  O41  1  0.75800000  0.48526000  0.92951000  1.0
  O  O42  1  0.75799000  0.42952000  0.08522000  1.0
  O  O43  1  0.75798000  0.58522000  0.98526000  1.0
  O  O44  1  0.28453000  0.08393000  0.73998000  1.0
  O  O45  1  0.28453000  0.17609000  0.58393000  1.0
  O  O46  1  0.28452000  0.23998000  0.67609000  1.0
  O  O47  1  0.75797000  0.08144000  0.68139000  1.0
  O  O48  1  0.75797000  0.18139000  0.73716000  1.0
  O  O49  1  0.75796000  0.23717000  0.58144000  1.0
  O  O50  1  0.52446000  0.19580000  0.28103000  1.0
  O  O51  1  0.41766000  0.28364000  0.16086000  1.0
  O  O52  1  0.52470000  0.47092000  0.38566000  1.0
  O  O53  1  0.41757000  0.38307000  0.50582000  1.0
  O  O54  1  0.52452000  0.52318000  0.69580000  1.0
  O  O55  1  0.41768000  0.55551000  0.78364000  1.0
  O  O56  1  0.52469000  0.14343000  0.97091000  1.0
  O  O57  1  0.41755000  0.11112000  0.88307000  1.0
  O  O58  1  0.52448000  0.78103000  0.02317000  1.0
  O  O59  1  0.41763000  0.66085000  0.05550000  1.0
  O  O60  1  0.52471000  0.88566000  0.64342000  1.0
  O  O61  1  0.41756000  0.00581000  0.61112000  1.0
