# generated using pymatgen
data_CuH14C10I3N4
_symmetry_space_group_name_H-M   'P 1'
_cell_length_a   7.09947000
_cell_length_b   11.29720000
_cell_length_c   11.30073355
_cell_angle_alpha   93.52815597
_cell_angle_beta   107.41155558
_cell_angle_gamma   107.43470000
_symmetry_Int_Tables_number   1
_chemical_formula_structural   CuH14C10I3N4
_chemical_formula_sum   'Cu2 H28 C20 I6 N8'
_cell_volume   813.64490181
_cell_formula_units_Z   2
loop_
 _symmetry_equiv_pos_site_id
 _symmetry_equiv_pos_as_xyz
  1  'x, y, z'
loop_
 _atom_site_type_symbol
 _atom_site_label
 _atom_site_symmetry_multiplicity
 _atom_site_fract_x
 _atom_site_fract_y
 _atom_site_fract_z
 _atom_site_occupancy
  Cu  Cu0  1  0.02127000  0.59038000  0.09053000  1.0
  Cu  Cu1  1  0.34749000  0.41370000  0.91340000  1.0
  H  H2  1  0.34437000  0.85208000  0.20783000  1.0
  H  H3  1  0.27497000  0.15095000  0.78139000  1.0
  H  H4  1  0.34374000  0.70767000  0.35193000  1.0
  H  H5  1  0.27419000  0.28094000  0.65045000  1.0
  H  H6  1  0.36509000  0.00429000  0.16978000  1.0
  H  H7  1  0.18171000  0.99740000  0.81563000  1.0
  H  H8  1  0.36449000  0.66965000  0.50412000  1.0
  H  H9  1  0.18097000  0.31533000  0.49704000  1.0
  H  H10  1  0.42199000  0.89522000  0.07740000  1.0
  H  H11  1  0.43766000  0.10080000  0.90449000  1.0
  H  H12  1  0.42156000  0.57730000  0.39513000  1.0
  H  H13  1  0.43693000  0.40427000  0.60040000  1.0
  H  H14  1  0.50946000  0.80132000  0.75193000  1.0
  H  H15  1  0.94991000  0.20812000  0.24786000  1.0
  H  H16  1  0.50839000  0.25155000  0.30094000  1.0
  H  H17  1  0.95001000  0.74805000  0.70772000  1.0
  H  H18  1  0.62177000  0.96344000  0.81848000  1.0
  H  H19  1  0.84762000  0.04457000  0.18634000  1.0
  H  H20  1  0.62094000  0.31774000  0.46310000  1.0
  H  H21  1  0.84713000  0.68610000  0.54432000  1.0
  H  H22  1  0.46459000  0.85570000  0.88811000  1.0
  H  H23  1  0.72254000  0.14864000  0.11243000  1.0
  H  H24  1  0.46412000  0.38782000  0.35583000  1.0
  H  H25  1  0.72242000  0.61256000  0.64869000  1.0
  H  H26  1  0.66803000  0.64737000  0.90948000  1.0
  H  H27  1  0.12166000  0.35830000  0.09840000  1.0
  H  H28  1  0.66764000  0.40903000  0.14730000  1.0
  H  H29  1  0.12197000  0.59863000  0.85802000  1.0
  C  C30  1  0.31797000  0.90479000  0.12976000  1.0
  C  C31  1  0.27482000  0.09563000  0.85779000  1.0
  C  C32  1  0.31738000  0.62959000  0.40465000  1.0
  C  C33  1  0.27407000  0.35747000  0.59525000  1.0
  C  C34  1  0.09467000  0.85941000  0.04764000  1.0
  C  C35  1  0.18579000  0.14234000  0.94702000  1.0
  C  C36  1  0.09415000  0.54733000  0.35935000  1.0
  C  C37  1  0.18502000  0.44667000  0.64201000  1.0
  C  C38  1  0.97350000  0.93311000  0.99120000  1.0
  C  C39  1  0.04803000  0.07010000  0.00422000  1.0
  C  C40  1  0.97279000  0.49084000  0.43297000  1.0
  C  C41  1  0.04718000  0.50386000  0.56989000  1.0
  C  C42  1  0.77473000  0.84785000  0.92198000  1.0
  C  C43  1  0.00779000  0.15702000  0.07863000  1.0
  C  C44  1  0.77414000  0.42157000  0.34774000  1.0
  C  C45  1  0.00737000  0.57851000  0.65684000  1.0
  C  C46  1  0.58259000  0.86788000  0.84099000  1.0
  C  C47  1  0.87549000  0.13889000  0.16065000  1.0
  C  C48  1  0.58185000  0.34052000  0.36769000  1.0
  C  C49  1  0.87527000  0.66067000  0.63871000  1.0
  I  I50  1  0.71903000  0.40779000  0.90779000  1.0
  I  I51  1  0.40351000  0.59618000  0.09590000  1.0
  I  I52  1  0.73655000  0.21249000  0.71232000  1.0
  I  I53  1  0.81400000  0.80026000  0.30022000  1.0
  I  I54  1  0.77212000  0.03588000  0.53547000  1.0
  I  I55  1  0.22966000  0.94519000  0.44548000  1.0
  N  N56  1  0.97669000  0.73658000  0.01649000  1.0
  N  N57  1  0.22667000  0.26583000  0.98349000  1.0
  N  N58  1  0.97628000  0.51614000  0.23655000  1.0
  N  N59  1  0.22634000  0.48339000  0.76547000  1.0
  N  N60  1  0.78515000  0.73238000  0.94001000  1.0
  N  N61  1  0.11851000  0.27197000  0.06336000  1.0
  N  N62  1  0.78470000  0.43960000  0.23229000  1.0
  N  N63  1  0.11834000  0.56336000  0.77168000  1.0
