# generated using pymatgen
data_AgH25C27(NO)2
_symmetry_space_group_name_H-M   'P 1'
_cell_length_a   9.59787000
_cell_length_b   9.91272000
_cell_length_c   12.86000000
_cell_angle_alpha   81.48290000
_cell_angle_beta   77.07820000
_cell_angle_gamma   87.96900000
_symmetry_Int_Tables_number   1
_chemical_formula_structural   AgH25C27(NO)2
_chemical_formula_sum   'Ag2 H50 C54 N4 O4'
_cell_volume   1179.37422340
_cell_formula_units_Z   2
loop_
 _symmetry_equiv_pos_site_id
 _symmetry_equiv_pos_as_xyz
  1  'x, y, z'
loop_
 _atom_site_type_symbol
 _atom_site_label
 _atom_site_symmetry_multiplicity
 _atom_site_fract_x
 _atom_site_fract_y
 _atom_site_fract_z
 _atom_site_occupancy
  Ag  Ag0  1  0.54453000  0.79539000  0.37732000  1.0
  Ag  Ag1  1  0.45547000  0.20462000  0.62268000  1.0
  H  H2  1  0.83660000  0.83022000  0.01858000  1.0
  H  H3  1  0.16341000  0.16978000  0.98142000  1.0
  H  H4  1  0.66492000  0.83437000  0.99214000  1.0
  H  H5  1  0.33509000  0.16563000  0.00786000  1.0
  H  H6  1  0.96024000  0.33369000  0.50410000  1.0
  H  H7  1  0.03976000  0.66631000  0.49590000  1.0
  H  H8  1  0.08575000  0.19911000  0.50398000  1.0
  H  H9  1  0.91425000  0.80089000  0.49602000  1.0
  H  H10  1  0.93793000  0.08774000  0.68260000  1.0
  H  H11  1  0.06207000  0.91227000  0.31740000  1.0
  H  H12  1  0.81254000  0.21878000  0.67924000  1.0
  H  H13  1  0.18746000  0.78121000  0.32076000  1.0
  H  H14  1  0.39755000  0.67905000  0.61204000  1.0
  H  H15  1  0.60245000  0.32095000  0.38796000  1.0
  H  H16  1  0.92558000  0.16048000  0.40368000  1.0
  H  H17  1  0.07442000  0.83951000  0.59632000  1.0
  H  H18  1  0.66790000  0.98851000  0.71204000  1.0
  H  H19  1  0.33209000  0.01149000  0.28797000  1.0
  H  H20  1  0.54577000  0.84940000  0.61454000  1.0
  H  H21  1  0.45423000  0.15060000  0.38546000  1.0
  H  H22  1  0.38097000  0.56397000  0.31824000  1.0
  H  H23  1  0.61903000  0.43603000  0.68176000  1.0
  H  H24  1  0.22813000  0.49581000  0.71248000  1.0
  H  H25  1  0.77187000  0.50419000  0.28752000  1.0
  H  H26  1  0.06542000  0.70403000  0.79132000  1.0
  H  H27  1  0.93457000  0.29598000  0.20868000  1.0
  H  H28  1  0.78257000  0.02116000  0.31763000  1.0
  H  H29  1  0.21743000  0.97884000  0.68237000  1.0
  H  H30  1  0.94746000  0.30688000  0.00484000  1.0
  H  H31  1  0.05254000  0.69312000  0.99517000  1.0
  H  H32  1  0.20044000  0.38622000  0.40473000  1.0
  H  H33  1  0.79955000  0.61379000  0.59527000  1.0
  H  H34  1  0.02920000  0.45903000  0.86219000  1.0
  H  H35  1  0.97080000  0.54098000  0.13781000  1.0
  H  H36  1  0.00142000  0.37946000  0.68318000  1.0
  H  H37  1  0.99858000  0.62055000  0.31682000  1.0
  H  H38  1  0.13101000  0.25096000  0.68012000  1.0
  H  H39  1  0.86899000  0.74905000  0.31988000  1.0
  H  H40  1  0.57744000  0.50594000  0.87485000  1.0
  H  H41  1  0.42256000  0.49406000  0.12515000  1.0
  H  H42  1  0.58251000  0.04164000  0.90312000  1.0
  H  H43  1  0.41750000  0.95835000  0.09687000  1.0
  H  H44  1  0.60685000  0.28652000  0.83781000  1.0
  H  H45  1  0.39316000  0.71347000  0.16218000  1.0
  H  H46  1  0.91853000  0.06140000  0.07279000  1.0
  H  H47  1  0.08148000  0.93860000  0.92721000  1.0
  H  H48  1  0.85818000  0.85183000  0.76103000  1.0
  H  H49  1  0.14181000  0.14818000  0.23896000  1.0
  H  H50  1  0.61405000  0.75043000  0.80273000  1.0
  H  H51  1  0.38594000  0.24956000  0.19727000  1.0
  C  C52  1  0.66777000  0.84640000  0.15558000  1.0
  C  C53  1  0.33223000  0.15360000  0.84441000  1.0
  C  C54  1  0.73287000  0.88287000  0.03435000  1.0
  C  C55  1  0.26714000  0.11713000  0.96565000  1.0
  C  C56  1  0.00744000  0.25655000  0.55710000  1.0
  C  C57  1  0.99256000  0.74345000  0.44290000  1.0
  C  C58  1  0.89141000  0.16129000  0.62631000  1.0
  C  C59  1  0.10859000  0.83871000  0.37369000  1.0
  C  C60  1  0.35164000  0.61151000  0.56902000  1.0
  C  C61  1  0.64836000  0.38849000  0.43098000  1.0
  C  C62  1  0.19367000  0.42864000  0.56743000  1.0
  C  C63  1  0.80633000  0.57137000  0.43257000  1.0
  C  C64  1  0.81259000  0.08281000  0.56648000  1.0
  C  C65  1  0.18741000  0.91719000  0.43353000  1.0
  C  C66  1  0.84262000  0.09229000  0.45393000  1.0
  C  C67  1  0.15738000  0.90771000  0.54607000  1.0
  C  C68  1  0.70104000  0.99581000  0.62461000  1.0
  C  C69  1  0.29896000  0.00419000  0.37540000  1.0
  C  C70  1  0.63134000  0.91881000  0.57011000  1.0
  C  C71  1  0.36866000  0.08119000  0.42989000  1.0
  C  C72  1  0.34134000  0.54835000  0.40545000  1.0
  C  C73  1  0.65866000  0.45165000  0.59455000  1.0
  C  C74  1  0.80080000  0.46361000  0.87307000  1.0
  C  C75  1  0.19920000  0.53639000  0.12693000  1.0
  C  C76  1  0.25480000  0.51145000  0.62472000  1.0
  C  C77  1  0.74520000  0.48856000  0.37528000  1.0
  C  C78  1  0.95827000  0.66078000  0.80876000  1.0
  C  C79  1  0.04173000  0.33923000  0.19124000  1.0
  C  C80  1  0.78060000  0.31666000  0.91519000  1.0
  C  C81  1  0.21940000  0.68334000  0.08481000  1.0
  C  C82  1  0.76471000  0.01439000  0.40523000  1.0
  C  C83  1  0.23529000  0.98561000  0.59477000  1.0
  C  C84  1  0.86745000  0.24916000  0.98169000  1.0
  C  C85  1  0.13255000  0.75083000  0.01831000  1.0
  C  C86  1  0.24071000  0.44793000  0.45500000  1.0
  C  C87  1  0.75928000  0.55207000  0.54500000  1.0
  C  C88  1  0.93767000  0.52271000  0.84950000  1.0
  C  C89  1  0.06233000  0.47730000  0.15050000  1.0
  C  C90  1  0.08151000  0.32673000  0.62727000  1.0
  C  C91  1  0.91849000  0.67327000  0.37273000  1.0
  C  C92  1  0.68518000  0.54832000  0.85467000  1.0
  C  C93  1  0.31482000  0.45168000  0.14533000  1.0
  C  C94  1  0.66256000  0.09935000  0.92652000  1.0
  C  C95  1  0.33745000  0.90064000  0.07348000  1.0
  C  C96  1  0.74898000  0.03252000  0.99280000  1.0
  C  C97  1  0.25103000  0.96747000  0.00720000  1.0
  C  C98  1  0.67681000  0.23898000  0.88917000  1.0
  C  C99  1  0.32320000  0.76102000  0.11083000  1.0
  C  C100  1  0.85092000  0.11066000  0.02028000  1.0
  C  C101  1  0.14909000  0.88934000  0.97972000  1.0
  C  C102  1  0.84258000  0.74333000  0.79083000  1.0
  C  C103  1  0.15741000  0.25667000  0.20917000  1.0
  C  C104  1  0.70588000  0.68641000  0.81409000  1.0
  C  C105  1  0.29412000  0.31358000  0.18591000  1.0
  N  N106  1  0.39469000  0.63159000  0.46056000  1.0
  N  N107  1  0.60531000  0.36841000  0.53944000  1.0
  N  N108  1  0.66252000  0.92624000  0.46203000  1.0
  N  N109  1  0.33748000  0.07376000  0.53797000  1.0
  O  O110  1  0.61362000  0.94206000  0.20863000  1.0
  O  O111  1  0.38639000  0.05793000  0.79137000  1.0
  O  O112  1  0.67003000  0.72151000  0.19534000  1.0
  O  O113  1  0.32997000  0.27848000  0.80466000  1.0
