# generated using pymatgen
data_Zn8H46C78Cl2O31
_symmetry_space_group_name_H-M   'P 1'
_cell_length_a   18.35390000
_cell_length_b   18.48180000
_cell_length_c   18.43630000
_cell_angle_alpha   60.61380000
_cell_angle_beta   60.37750000
_cell_angle_gamma   60.42810000
_symmetry_Int_Tables_number   1
_chemical_formula_structural   Zn8H46C78Cl2O31
_chemical_formula_sum   'Zn8 H46 C78 Cl2 O31'
_cell_volume   4469.38034026
_cell_formula_units_Z   1
loop_
 _symmetry_equiv_pos_site_id
 _symmetry_equiv_pos_as_xyz
  1  'x, y, z'
loop_
 _atom_site_type_symbol
 _atom_site_label
 _atom_site_symmetry_multiplicity
 _atom_site_fract_x
 _atom_site_fract_y
 _atom_site_fract_z
 _atom_site_occupancy
  Zn  Zn0  1  0.54206000  0.04092000  0.87354000  1.0
  Zn  Zn1  1  0.54217000  0.86607000  0.04472000  1.0
  Zn  Zn2  1  0.36871000  0.04165000  0.04480000  1.0
  Zn  Zn3  1  0.54419000  0.03777000  0.04639000  1.0
  Zn  Zn4  1  0.95442000  0.46662000  0.62696000  1.0
  Zn  Zn5  1  0.12679000  0.46359000  0.45809000  1.0
  Zn  Zn6  1  0.95195000  0.63901000  0.45658000  1.0
  Zn  Zn7  1  0.95529000  0.46389000  0.45322000  1.0
  H  H8  1  0.80249000  0.28906000  0.59742000  1.0
  H  H9  1  0.69141000  0.89207000  0.37817000  1.0
  H  H10  1  0.90805000  0.96468000  0.32250000  1.0
  H  H11  1  0.00673000  0.87901000  0.21711000  1.0
  H  H12  1  0.94782000  0.79933000  0.19377000  1.0
  H  H13  1  0.06560000  0.14718000  0.31575000  1.0
  H  H14  1  0.20628000  0.03862000  0.34557000  1.0
  H  H15  1  0.27458000  0.89715000  0.31678000  1.0
  H  H16  1  0.06363000  0.97275000  0.22580000  1.0
  H  H17  1  0.99462000  0.11404000  0.25535000  1.0
  H  H18  1  0.70986000  0.19422000  0.69169000  1.0
  H  H19  1  0.26875000  0.29915000  0.28576000  1.0
  H  H20  1  0.09071000  0.80928000  0.34071000  1.0
  H  H21  1  0.40444000  0.69534000  0.16280000  1.0
  H  H22  1  0.41359000  0.52396000  0.30745000  1.0
  H  H23  1  0.42707000  0.34582000  0.21123000  1.0
  H  H24  1  0.30436000  0.46205000  0.15203000  1.0
  H  H25  1  0.23739000  0.60931000  0.16949000  1.0
  H  H26  1  0.46142000  0.14197000  0.57967000  1.0
  H  H27  1  0.40655000  0.01839000  0.69930000  1.0
  H  H28  1  0.69942000  0.21710000  0.85165000  1.0
  H  H29  1  0.62085000  0.12686000  0.52795000  1.0
  H  H30  1  0.18859000  0.22505000  0.18397000  1.0
  H  H31  1  0.75607000  0.80774000  0.59677000  1.0
  H  H32  1  0.74449000  0.69791000  0.90569000  1.0
  H  H33  1  0.77255000  0.53319000  0.93285000  1.0
  H  H34  1  0.87875000  0.39585000  0.99900000  1.0
  H  H35  1  0.04172000  0.36834000  0.92462000  1.0
  H  H36  1  0.09743000  0.47908000  0.78375000  1.0
  H  H37  1  0.99110000  0.61695000  0.71853000  1.0
  H  H38  1  0.08932000  0.27698000  0.81361000  1.0
  H  H39  1  0.25863000  0.30976000  0.66030000  1.0
  H  H40  1  0.18362000  0.19776000  0.90884000  1.0
  H  H41  1  0.34619000  0.19163000  0.22834000  1.0
  H  H42  1  0.34305000  0.19082000  0.73668000  1.0
  H  H43  1  0.09470000  0.30921000  0.28860000  1.0
  H  H44  1  0.55938000  0.51720000  0.18125000  1.0
  H  H45  1  0.79594000  0.35011000  0.77765000  1.0
  H  H46  1  0.68354000  0.97959000  0.44094000  1.0
  H  H47  1  0.44633000  0.87856000  0.79433000  1.0
  H  H48  1  0.77401000  0.93224000  0.61937000  1.0
  H  H49  1  0.52119000  0.58771000  0.27758000  1.0
  H  H50  1  0.57072000  0.66598000  0.31252000  1.0
  H  H51  1  0.76327000  0.55929000  0.05504000  1.0
  H  H52  1  0.79130000  0.58804000  0.30664000  1.0
  H  H53  1  0.71016000  0.91190000  0.19063000  1.0
  C  C54  1  0.64289000  0.85938000  0.13483000  1.0
  C  C55  1  0.30896000  0.18884000  0.19902000  1.0
  C  C56  1  0.58514000  0.59832000  0.23650000  1.0
  C  C57  1  0.35954000  0.12924000  0.86537000  1.0
  C  C58  1  0.61325000  0.64237000  0.25604000  1.0
  C  C59  1  0.69381000  0.65918000  0.20405000  1.0
  C  C60  1  0.74677000  0.62766000  0.13201000  1.0
  C  C61  1  0.72068000  0.58297000  0.11131000  1.0
  C  C62  1  0.63889000  0.56889000  0.16341000  1.0
  C  C63  1  0.77312000  0.65948000  0.28053000  1.0
  C  C64  1  0.80290000  0.69949000  0.30367000  1.0
  C  C65  1  0.68848000  0.19547000  0.81382000  1.0
  C  C66  1  0.78136000  0.79201000  0.27046000  1.0
  C  C67  1  0.72806000  0.84045000  0.21708000  1.0
  C  C68  1  0.69833000  0.80042000  0.19394000  1.0
  C  C69  1  0.62952000  0.85772000  0.86656000  1.0
  C  C70  1  0.72167000  0.70779000  0.22537000  1.0
  C  C71  1  0.76053000  0.88975000  0.34213000  1.0
  C  C72  1  0.79414000  0.93414000  0.35540000  1.0
  C  C73  1  0.88310000  0.93023000  0.31058000  1.0
  C  C74  1  0.93741000  0.88226000  0.25228000  1.0
  C  C75  1  0.90473000  0.83724000  0.23904000  1.0
  C  C76  1  0.16012000  0.26873000  0.78222000  1.0
  C  C77  1  0.81615000  0.83992000  0.28496000  1.0
  C  C78  1  0.17489000  0.02430000  0.31926000  1.0
  C  C79  1  0.21345000  0.94502000  0.30275000  1.0
  C  C80  1  0.17377000  0.92535000  0.26920000  1.0
  C  C81  1  0.36211000  0.13386000  0.14119000  1.0
  C  C82  1  0.09449000  0.98693000  0.25277000  1.0
  C  C83  1  0.05609000  0.06658000  0.26881000  1.0
  C  C84  1  0.09607000  0.08533000  0.30233000  1.0
  C  C85  1  0.15952000  0.78548000  0.30014000  1.0
  C  C86  1  0.19320000  0.70005000  0.29755000  1.0
  C  C87  1  0.18951000  0.31240000  0.69513000  1.0
  C  C88  1  0.28279000  0.66554000  0.24803000  1.0
  C  C89  1  0.33554000  0.71911000  0.20328000  1.0
  C  C90  1  0.30175000  0.80470000  0.20579000  1.0
  C  C91  1  0.21241000  0.83897000  0.25608000  1.0
  C  C92  1  0.39104000  0.51187000  0.27097000  1.0
  C  C93  1  0.36133000  0.85971000  0.14721000  1.0
  C  C94  1  0.42761000  0.42932000  0.26121000  1.0
  C  C95  1  0.39724000  0.41054000  0.21844000  1.0
  C  C96  1  0.32863000  0.47603000  0.18557000  1.0
  C  C97  1  0.29098000  0.55861000  0.19537000  1.0
  C  C98  1  0.21596000  0.21393000  0.83730000  1.0
  C  C99  1  0.32167000  0.57724000  0.23843000  1.0
  C  C100  1  0.47651000  0.01152000  0.67530000  1.0
  C  C101  1  0.53617000  0.93319000  0.71180000  1.0
  C  C102  1  0.62666000  0.92229000  0.68192000  1.0
  C  C103  1  0.65525000  0.99400000  0.61601000  1.0
  C  C104  1  0.59626000  0.07285000  0.57867000  1.0
  C  C105  1  0.63509000  0.13684000  0.86595000  1.0
  C  C106  1  0.50747000  0.08064000  0.60856000  1.0
  C  C107  1  0.75387000  0.78489000  0.66454000  1.0
  C  C108  1  0.81256000  0.70171000  0.69607000  1.0
  C  C109  1  0.30544000  0.18076000  0.80671000  1.0
  C  C110  1  0.81061000  0.66853000  0.78408000  1.0
  C  C111  1  0.74709000  0.72084000  0.83781000  1.0
  C  C112  1  0.68874000  0.80366000  0.80628000  1.0
  C  C113  1  0.69065000  0.83722000  0.71825000  1.0
  C  C114  1  0.84380000  0.52168000  0.90044000  1.0
  C  C115  1  0.90364000  0.44411000  0.93729000  1.0
  C  C116  1  0.99494000  0.42850000  0.89547000  1.0
  C  C117  1  0.77594000  0.27702000  0.66829000  1.0
  C  C118  1  0.02617000  0.49073000  0.81648000  1.0
  C  C119  1  0.96644000  0.56802000  0.77959000  1.0
  C  C120  1  0.16680000  0.28778000  0.27051000  1.0
  C  C121  1  0.87444000  0.58445000  0.82099000  1.0
  C  C122  1  0.13868000  0.36840000  0.36137000  1.0
  C  C123  1  0.86905000  0.64699000  0.63639000  1.0
  C  C124  1  0.13183000  0.36737000  0.64020000  1.0
  C  C125  1  0.85592000  0.64109000  0.36494000  1.0
  C  C126  1  0.13394000  0.64481000  0.35570000  1.0
  C  C127  1  0.85459000  0.37556000  0.63200000  1.0
  C  C128  1  0.79736000  0.31909000  0.69468000  1.0
  C  C129  1  0.72301000  0.22033000  0.72427000  1.0
  C  C130  1  0.19797000  0.31499000  0.30218000  1.0
  C  C131  1  0.22116000  0.23290000  0.21449000  1.0
  Cl  Cl132  1  0.84715000  0.64667000  0.06396000  1.0
  Cl  Cl133  1  0.51220000  0.34858000  0.30370000  1.0
  O  O134  1  0.49860000  0.99535000  0.00335000  1.0
  O  O135  1  0.86318000  0.67647000  0.40440000  1.0
  O  O136  1  0.17194000  0.56281000  0.38814000  1.0
  O  O137  1  0.61274000  0.94148000  0.12395000  1.0
  O  O138  1  0.88337000  0.38828000  0.54982000  1.0
  O  O139  1  0.05068000  0.68477000  0.37008000  1.0
  O  O140  1  0.86914000  0.40657000  0.67072000  1.0
  O  O141  1  0.04831000  0.37997000  0.67780000  1.0
  O  O142  1  0.88885000  0.55906000  0.37417000  1.0
  O  O143  1  0.17784000  0.38837000  0.38693000  1.0
  O  O144  1  0.89520000  0.68727000  0.55347000  1.0
  O  O145  1  0.61582000  0.94005000  0.83021000  1.0
  O  O146  1  0.44351000  0.10851000  0.82618000  1.0
  O  O147  1  0.60093000  0.81659000  0.94885000  1.0
  O  O148  1  0.32117000  0.11869000  0.11341000  1.0
  O  O149  1  0.44445000  0.81921000  0.13382000  1.0
  O  O150  1  0.61309000  0.11346000  0.95007000  1.0
  O  O151  1  0.32409000  0.94152000  0.11336000  1.0
  O  O152  1  0.61422000  0.11379000  0.82543000  1.0
  O  O153  1  0.61586000  0.52603000  0.13897000  1.0
  O  O154  1  0.76981000  0.31310000  0.77980000  1.0
  O  O155  1  0.74358000  0.98235000  0.41190000  1.0
  O  O156  1  0.44592000  0.10610000  0.12442000  1.0
  O  O157  1  0.51001000  0.86288000  0.77851000  1.0
  O  O158  1  0.74090000  0.99017000  0.58746000  1.0
  O  O159  1  0.63017000  0.82383000  0.09981000  1.0
  O  O160  1  0.31890000  0.11064000  0.94861000  1.0
  O  O161  1  0.99640000  0.50887000  0.49794000  1.0
  O  O162  1  0.05494000  0.38988000  0.38236000  1.0
  O  O163  1  0.88361000  0.56437000  0.67351000  1.0
  O  O164  1  0.17177000  0.39851000  0.55767000  1.0
