# generated using pymatgen
data_ZnH6C5N8
_symmetry_space_group_name_H-M   'P 1'
_cell_length_a   9.57592026
_cell_length_b   9.57606000
_cell_length_c   20.38820000
_cell_angle_alpha   90.00320000
_cell_angle_beta   90.00010000
_cell_angle_gamma   119.99944818
_symmetry_Int_Tables_number   1
_chemical_formula_structural   ZnH6C5N8
_chemical_formula_sum   'Zn6 H36 C30 N48'
_cell_volume   1619.12101712
_cell_formula_units_Z   6
loop_
 _symmetry_equiv_pos_site_id
 _symmetry_equiv_pos_as_xyz
  1  'x, y, z'
loop_
 _atom_site_type_symbol
 _atom_site_label
 _atom_site_symmetry_multiplicity
 _atom_site_fract_x
 _atom_site_fract_y
 _atom_site_fract_z
 _atom_site_occupancy
  Zn  Zn0  1  0.06534000  0.57521000  0.58281000  1.0
  Zn  Zn1  1  0.50991000  0.93466000  0.24948000  1.0
  Zn  Zn2  1  0.42478000  0.49012000  0.91615000  1.0
  Zn  Zn3  1  0.49013000  0.42479000  0.41719000  1.0
  Zn  Zn4  1  0.93467000  0.50989000  0.08385000  1.0
  Zn  Zn5  1  0.57524000  0.06533000  0.75052000  1.0
  H  H6  1  0.01325000  0.65368000  0.43966000  1.0
  H  H7  1  0.64044000  0.98676000  0.10630000  1.0
  H  H8  1  0.34631000  0.35958000  0.77296000  1.0
  H  H9  1  0.35957000  0.34631000  0.56034000  1.0
  H  H10  1  0.98673000  0.64042000  0.22704000  1.0
  H  H11  1  0.65369000  0.01326000  0.89369000  1.0
  H  H12  1  0.85717000  0.66324000  0.40060000  1.0
  H  H13  1  0.80605000  0.14282000  0.06722000  1.0
  H  H14  1  0.33675000  0.19395000  0.73388000  1.0
  H  H15  1  0.19393000  0.33676000  0.59940000  1.0
  H  H16  1  0.14280000  0.80605000  0.26612000  1.0
  H  H17  1  0.66324000  0.85719000  0.93277000  1.0
  H  H18  1  0.06451000  0.12235000  0.75817000  1.0
  H  H19  1  0.05784000  0.93551000  0.42485000  1.0
  H  H20  1  0.87767000  0.94217000  0.09151000  1.0
  H  H21  1  0.94215000  0.87763000  0.24183000  1.0
  H  H22  1  0.93550000  0.05783000  0.90849000  1.0
  H  H23  1  0.12233000  0.06449000  0.57515000  1.0
  H  H24  1  0.86908000  0.03625000  0.78483000  1.0
  H  H25  1  0.16718000  0.13095000  0.45152000  1.0
  H  H26  1  0.96380000  0.83287000  0.11819000  1.0
  H  H27  1  0.83283000  0.96374000  0.21517000  1.0
  H  H28  1  0.13093000  0.16713000  0.88181000  1.0
  H  H29  1  0.03623000  0.86905000  0.54848000  1.0
  H  H30  1  0.72691000  0.49076000  0.68910000  1.0
  H  H31  1  0.76389000  0.27306000  0.35577000  1.0
  H  H32  1  0.50921000  0.23611000  0.02241000  1.0
  H  H33  1  0.23615000  0.50924000  0.31090000  1.0
  H  H34  1  0.27310000  0.76390000  0.97759000  1.0
  H  H35  1  0.49083000  0.72694000  0.64423000  1.0
  H  H36  1  0.58223000  0.29454000  0.66290000  1.0
  H  H37  1  0.71234000  0.41772000  0.32955000  1.0
  H  H38  1  0.70543000  0.28771000  0.99620000  1.0
  H  H39  1  0.28770000  0.70547000  0.33710000  1.0
  H  H40  1  0.41773000  0.71231000  0.00379000  1.0
  H  H41  1  0.29462000  0.58229000  0.67045000  1.0
  C  C42  1  0.80709000  0.56748000  0.49274000  1.0
  C  C43  1  0.76040000  0.19292000  0.15937000  1.0
  C  C44  1  0.43250000  0.23961000  0.82603000  1.0
  C  C45  1  0.23961000  0.43252000  0.50726000  1.0
  C  C46  1  0.19289000  0.76039000  0.17397000  1.0
  C  C47  1  0.56748000  0.80709000  0.84063000  1.0
  C  C48  1  0.71540000  0.44871000  0.58573000  1.0
  C  C49  1  0.73333000  0.28456000  0.25239000  1.0
  C  C50  1  0.55125000  0.26670000  0.91904000  1.0
  C  C51  1  0.26669000  0.55129000  0.41427000  1.0
  C  C52  1  0.28455000  0.73329000  0.08096000  1.0
  C  C53  1  0.44877000  0.71545000  0.74761000  1.0
  C  C54  1  0.70663000  0.39261000  0.65499000  1.0
  C  C55  1  0.68598000  0.29331000  0.32166000  1.0
  C  C56  1  0.60734000  0.31401000  0.98831000  1.0
  C  C57  1  0.31402000  0.60740000  0.34501000  1.0
  C  C58  1  0.29333000  0.68599000  0.01169000  1.0
  C  C59  1  0.39267000  0.70669000  0.67834000  1.0
  C  C60  1  0.82275000  0.33538000  0.67135000  1.0
  C  C61  1  0.51264000  0.17722000  0.33802000  1.0
  C  C62  1  0.66457000  0.48735000  0.00470000  1.0
  C  C63  1  0.48737000  0.66462000  0.32866000  1.0
  C  C64  1  0.17722000  0.51265000  0.99530000  1.0
  C  C65  1  0.33542000  0.82278000  0.66198000  1.0
  C  C66  1  0.93090000  0.20567000  0.71374000  1.0
  C  C67  1  0.27481000  0.06911000  0.38043000  1.0
  C  C68  1  0.79430000  0.72520000  0.04712000  1.0
  C  C69  1  0.72523000  0.79432000  0.28626000  1.0
  C  C70  1  0.06910000  0.27480000  0.95288000  1.0
  C  C71  1  0.20569000  0.93088000  0.61957000  1.0
  N  N72  1  0.64550000  0.48507000  0.48956000  1.0
  N  N73  1  0.83956000  0.35451000  0.15621000  1.0
  N  N74  1  0.51494000  0.16045000  0.82286000  1.0
  N  N75  1  0.16043000  0.51493000  0.51044000  1.0
  N  N76  1  0.35449000  0.83955000  0.17714000  1.0
  N  N77  1  0.48505000  0.64550000  0.84379000  1.0
  N  N78  1  0.58653000  0.40955000  0.54949000  1.0
  N  N79  1  0.82303000  0.41345000  0.21616000  1.0
  N  N80  1  0.59042000  0.17699000  0.88280000  1.0
  N  N81  1  0.17698000  0.59045000  0.45051000  1.0
  N  N82  1  0.41343000  0.82301000  0.11720000  1.0
  N  N83  1  0.40958000  0.58655000  0.78384000  1.0
  N  N84  1  0.85583000  0.54808000  0.55297000  1.0
  N  N85  1  0.69226000  0.14414000  0.21960000  1.0
  N  N86  1  0.45188000  0.30776000  0.88627000  1.0
  N  N87  1  0.30775000  0.45192000  0.44703000  1.0
  N  N88  1  0.14413000  0.69225000  0.11373000  1.0
  N  N89  1  0.54811000  0.85586000  0.78040000  1.0
  N  N90  1  0.91098000  0.66431000  0.44458000  1.0
  N  N91  1  0.75332000  0.08903000  0.11120000  1.0
  N  N92  1  0.33570000  0.24668000  0.77787000  1.0
  N  N93  1  0.24667000  0.33568000  0.55542000  1.0
  N  N94  1  0.08902000  0.75332000  0.22213000  1.0
  N  N95  1  0.66429000  0.91097000  0.88879000  1.0
  N  N96  1  0.79012000  0.21096000  0.71254000  1.0
  N  N97  1  0.42090000  0.20988000  0.37923000  1.0
  N  N98  1  0.78896000  0.57910000  0.04592000  1.0
  N  N99  1  0.57916000  0.78904000  0.28746000  1.0
  N  N100  1  0.20986000  0.42090000  0.95408000  1.0
  N  N101  1  0.21101000  0.79012000  0.62077000  1.0
  N  N102  1  0.97295000  0.40135000  0.64941000  1.0
  N  N103  1  0.42841000  0.02703000  0.31609000  1.0
  N  N104  1  0.59861000  0.57159000  0.98277000  1.0
  N  N105  1  0.57160000  0.59865000  0.35059000  1.0
  N  N106  1  0.02702000  0.42841000  0.01723000  1.0
  N  N107  1  0.40138000  0.97297000  0.68391000  1.0
  N  N108  1  0.04476000  0.31910000  0.67558000  1.0
  N  N109  1  0.27436000  0.95523000  0.34228000  1.0
  N  N110  1  0.68087000  0.72564000  0.00895000  1.0
  N  N111  1  0.72566000  0.68090000  0.32442000  1.0
  N  N112  1  0.95523000  0.27436000  0.99105000  1.0
  N  N113  1  0.31913000  0.04477000  0.65772000  1.0
  N  N114  1  0.94856000  0.09227000  0.74774000  1.0
  N  N115  1  0.14374000  0.05146000  0.41443000  1.0
  N  N116  1  0.90772000  0.85627000  0.08110000  1.0
  N  N117  1  0.85629000  0.90773000  0.25226000  1.0
  N  N118  1  0.05145000  0.14372000  0.91890000  1.0
  N  N119  1  0.09227000  0.94853000  0.58557000  1.0
