# generated using pymatgen
data_K2H14RuC16(N2O)3
_symmetry_space_group_name_H-M   'P 1'
_cell_length_a   6.89521000
_cell_length_b   10.20470000
_cell_length_c   15.48313453
_cell_angle_alpha   70.78198247
_cell_angle_beta   85.28188255
_cell_angle_gamma   75.53640000
_symmetry_Int_Tables_number   1
_chemical_formula_structural   K2H14RuC16(N2O)3
_chemical_formula_sum   'K4 H28 Ru2 C32 N12 O6'
_cell_volume   996.13226515
_cell_formula_units_Z   2
loop_
 _symmetry_equiv_pos_site_id
 _symmetry_equiv_pos_as_xyz
  1  'x, y, z'
loop_
 _atom_site_type_symbol
 _atom_site_label
 _atom_site_symmetry_multiplicity
 _atom_site_fract_x
 _atom_site_fract_y
 _atom_site_fract_z
 _atom_site_occupancy
  K  K0  1  0.15914000  0.95041000  0.92587000  1.0
  K  K1  1  0.65860000  0.87674000  0.07439000  1.0
  K  K2  1  0.60283000  0.58137000  0.93329000  1.0
  K  K3  1  0.10283000  0.51442000  0.06655000  1.0
  H  H4  1  0.42490000  0.01538000  0.69215000  1.0
  H  H5  1  0.92483000  0.70754000  0.30783000  1.0
  H  H6  1  0.22947000  0.14371000  0.55058000  1.0
  H  H7  1  0.72939000  0.69446000  0.44941000  1.0
  H  H8  1  0.39561000  0.15327000  0.39666000  1.0
  H  H9  1  0.89540000  0.55001000  0.60332000  1.0
  H  H10  1  0.71134000  0.07908000  0.31219000  1.0
  H  H11  1  0.21101000  0.39137000  0.68777000  1.0
  H  H12  1  0.07759000  0.96826000  0.31575000  1.0
  H  H13  1  0.57729000  0.28417000  0.68422000  1.0
  H  H14  1  0.39070000  0.82717000  0.40824000  1.0
  H  H15  1  0.89044000  0.23567000  0.59179000  1.0
  H  H16  1  0.54526000  0.69758000  0.56633000  1.0
  H  H17  1  0.04526000  0.26416000  0.43374000  1.0
  H  H18  1  0.33657000  0.70212000  0.70330000  1.0
  H  H19  1  0.83673000  0.40572000  0.29672000  1.0
  H  H20  1  0.38714000  0.42317000  0.80171000  1.0
  H  H21  1  0.88725000  0.22518000  0.19835000  1.0
  H  H22  1  0.61118000  0.43303000  0.80071000  1.0
  H  H23  1  0.11133000  0.23406000  0.19934000  1.0
  H  H24  1  0.03350000  0.31316000  0.95264000  1.0
  H  H25  1  0.53378000  0.26618000  0.04741000  1.0
  H  H26  1  0.95642000  0.28299000  0.05401000  1.0
  H  H27  1  0.45674000  0.33680000  0.94599000  1.0
  H  H28  1  0.20561000  0.05464000  0.10047000  1.0
  H  H29  1  0.70626000  0.15442000  0.89950000  1.0
  H  H30  1  0.32448000  0.15834000  0.03414000  1.0
  H  H31  1  0.82460000  0.19224000  0.96583000  1.0
  Ru  Ru32  1  0.88080000  0.83714000  0.74126000  1.0
  Ru  Ru33  1  0.38083000  0.57857000  0.25871000  1.0
  C  C34  1  0.49568000  0.02019000  0.62599000  1.0
  C  C35  1  0.99561000  0.64622000  0.37399000  1.0
  C  C36  1  0.38627000  0.09270000  0.54470000  1.0
  C  C37  1  0.88616000  0.63753000  0.45527000  1.0
  C  C38  1  0.47728000  0.09771000  0.46101000  1.0
  C  C39  1  0.97705000  0.55882000  0.53896000  1.0
  C  C40  1  0.68225000  0.02957000  0.45924000  1.0
  C  C41  1  0.18207000  0.48896000  0.54072000  1.0
  C  C42  1  0.78287000  0.95939000  0.54426000  1.0
  C  C43  1  0.28276000  0.50379000  0.45571000  1.0
  C  C44  1  0.99093000  0.89040000  0.54660000  1.0
  C  C45  1  0.49085000  0.43724000  0.45338000  1.0
  C  C46  1  0.79329000  0.02960000  0.37674000  1.0
  C  C47  1  0.29305000  0.40650000  0.62324000  1.0
  C  C48  1  0.99390000  0.96702000  0.37882000  1.0
  C  C49  1  0.49365000  0.34604000  0.62116000  1.0
  C  C50  1  0.09869000  0.89514000  0.46407000  1.0
  C  C51  1  0.59849000  0.35946000  0.53591000  1.0
  C  C52  1  0.30382000  0.82441000  0.47081000  1.0
  C  C53  1  0.80366000  0.29554000  0.52921000  1.0
  C  C54  1  0.38834000  0.75401000  0.55677000  1.0
  C  C55  1  0.88834000  0.31110000  0.44326000  1.0
  C  C56  1  0.27193000  0.75480000  0.63512000  1.0
  C  C57  1  0.77202000  0.39021000  0.36489000  1.0
  C  C58  1  0.79856000  0.65754000  0.74785000  1.0
  C  C59  1  0.29888000  0.40554000  0.25202000  1.0
  C  C60  1  0.96922000  0.01453000  0.73818000  1.0
  C  C61  1  0.46908000  0.75293000  0.26188000  1.0
  C  C62  1  0.68482000  0.87031000  0.83558000  1.0
  C  C63  1  0.18457000  0.70579000  0.16446000  1.0
  C  C64  1  0.07972000  0.72435000  0.83594000  1.0
  C  C65  1  0.57983000  0.56055000  0.16403000  1.0
  N  N66  1  0.68966000  0.95467000  0.62640000  1.0
  N  N67  1  0.18959000  0.58113000  0.37358000  1.0
  N  N68  1  0.02785000  0.11357000  0.73879000  1.0
  N  N69  1  0.52771000  0.85254000  0.26133000  1.0
  N  N70  1  0.74956000  0.55116000  0.75525000  1.0
  N  N71  1  0.24988000  0.30653000  0.24469000  1.0
  N  N72  1  0.07762000  0.82091000  0.63081000  1.0
  N  N73  1  0.57768000  0.45198000  0.36918000  1.0
  N  N74  1  0.56974000  0.88632000  0.89461000  1.0
  N  N75  1  0.06932000  0.78070000  0.10549000  1.0
  N  N76  1  0.20387000  0.65811000  0.89276000  1.0
  N  N77  1  0.70402000  0.55106000  0.10721000  1.0
  O  O78  1  0.51323000  0.37264000  0.83383000  1.0
  O  O79  1  0.01332000  0.20685000  0.16617000  1.0
  O  O80  1  0.91232000  0.32998000  0.98833000  1.0
  O  O81  1  0.41257000  0.31821000  0.01167000  1.0
  O  O82  1  0.28147000  0.06906000  0.04330000  1.0
  O  O83  1  0.78219000  0.11193000  0.95665000  1.0
