# generated using pymatgen
data_AlC12S3(BrO2)3
_symmetry_space_group_name_H-M   'P 1'
_cell_length_a   3.99191000
_cell_length_b   20.14030000
_cell_length_c   20.14030000
_cell_angle_alpha   60.00000000
_cell_angle_beta   90.00010000
_cell_angle_gamma   89.99990000
_symmetry_Int_Tables_number   1
_chemical_formula_structural   AlC12S3(BrO2)3
_chemical_formula_sum   'Al2 C24 S6 Br6 O12'
_cell_volume   1402.30745739
_cell_formula_units_Z   2
loop_
 _symmetry_equiv_pos_site_id
 _symmetry_equiv_pos_as_xyz
  1  'x, y, z'
loop_
 _atom_site_type_symbol
 _atom_site_label
 _atom_site_symmetry_multiplicity
 _atom_site_fract_x
 _atom_site_fract_y
 _atom_site_fract_z
 _atom_site_occupancy
  Al  Al0  1  0.00003000  0.50000000  1.00000000  1.0
  Al  Al1  1  0.00003000  0.16667000  0.66666000  1.0
  C  C2  1  0.49972000  0.61727000  0.94198000  1.0
  C  C3  1  0.49971000  0.44075000  0.11727000  1.0
  C  C4  1  0.49971000  0.44197000  0.94076000  1.0
  C  C5  1  0.49971000  0.22593000  0.54939000  1.0
  C  C6  1  0.49971000  0.22468000  0.72593000  1.0
  C  C7  1  0.49971000  0.04939000  0.72469000  1.0
  C  C8  1  0.50982000  0.32005000  0.25107000  1.0
  C  C9  1  0.50984000  0.34663000  0.41560000  1.0
  C  C10  1  0.50125000  0.39847000  0.20214000  1.0
  C  C11  1  0.50125000  0.26821000  0.46452000  1.0
  C  C12  1  0.49676000  0.36578000  0.33767000  1.0
  C  C13  1  0.49675000  0.30090000  0.32899000  1.0
  C  C14  1  0.50982000  0.42888000  0.82006000  1.0
  C  C15  1  0.50983000  0.23777000  0.84663000  1.0
  C  C16  1  0.50126000  0.39939000  0.89847000  1.0
  C  C17  1  0.50124000  0.26727000  0.76821000  1.0
  C  C18  1  0.49676000  0.29654000  0.86578000  1.0
  C  C19  1  0.49675000  0.37011000  0.80090000  1.0
  C  C20  1  0.50982000  0.75106000  0.92889000  1.0
  C  C21  1  0.50983000  0.91560000  0.73777000  1.0
  C  C22  1  0.50126000  0.70214000  0.89938000  1.0
  C  C23  1  0.50124000  0.96452000  0.76727000  1.0
  C  C24  1  0.49676000  0.83768000  0.79654000  1.0
  C  C25  1  0.49675000  0.82899000  0.87011000  1.0
  S  S26  1  0.48262000  0.44950000  0.25083000  1.0
  S  S27  1  0.48260000  0.21719000  0.41583000  1.0
  S  S28  1  0.48262000  0.29967000  0.94950000  1.0
  S  S29  1  0.48260000  0.36698000  0.71719000  1.0
  S  S30  1  0.48261000  0.75083000  0.79967000  1.0
  S  S31  1  0.48260000  0.91583000  0.86698000  1.0
  Br  Br32  1  0.51103000  0.24596000  0.22032000  1.0
  Br  Br33  1  0.51107000  0.42073000  0.44633000  1.0
  Br  Br34  1  0.51104000  0.53372000  0.74595000  1.0
  Br  Br35  1  0.51105000  0.13294000  0.92072000  1.0
  Br  Br36  1  0.51104000  0.72033000  0.03371000  1.0
  Br  Br37  1  0.51105000  0.94634000  0.63294000  1.0
  O  O38  1  0.26489000  0.42651000  0.98929000  1.0
  O  O39  1  0.26489000  0.58420000  0.92650000  1.0
  O  O40  1  0.26489000  0.48930000  0.08419000  1.0
  O  O41  1  0.73386000  0.49030000  0.92606000  1.0
  O  O42  1  0.73386000  0.42606000  0.08364000  1.0
  O  O43  1  0.73386000  0.58364000  0.99030000  1.0
  O  O44  1  0.26489000  0.08247000  0.74015000  1.0
  O  O45  1  0.26489000  0.17738000  0.58246000  1.0
  O  O46  1  0.26489000  0.24016000  0.67738000  1.0
  O  O47  1  0.73386000  0.08303000  0.67636000  1.0
  O  O48  1  0.73386000  0.17636000  0.74061000  1.0
  O  O49  1  0.73386000  0.24061000  0.58303000  1.0
