# generated using pymatgen
data_Zr3H14C31(Cl3O8)2
_symmetry_space_group_name_H-M   'P 1'
_cell_length_a   14.86390000
_cell_length_b   14.88177963
_cell_length_c   14.88832922
_cell_angle_alpha   119.88929892
_cell_angle_beta   90.33824909
_cell_angle_gamma   119.62040544
_symmetry_Int_Tables_number   1
_chemical_formula_structural   Zr3H14C31(Cl3O8)2
_chemical_formula_sum   'Zr6 H28 C62 Cl12 O32'
_cell_volume   2339.05296054
_cell_formula_units_Z   2
loop_
 _symmetry_equiv_pos_site_id
 _symmetry_equiv_pos_as_xyz
  1  'x, y, z'
loop_
 _atom_site_type_symbol
 _atom_site_label
 _atom_site_symmetry_multiplicity
 _atom_site_fract_x
 _atom_site_fract_y
 _atom_site_fract_z
 _atom_site_occupancy
  Zr  Zr0  1  0.12516000  0.50646000  0.38688000  1.0
  Zr  Zr1  1  0.88512000  0.50640000  0.62186000  1.0
  Zr  Zr2  1  0.88271000  0.26688000  0.38252000  1.0
  Zr  Zr3  1  0.12326000  0.74067000  0.62469000  1.0
  Zr  Zr4  1  0.88733000  0.50405000  0.38154000  1.0
  Zr  Zr5  1  0.11916000  0.49591000  0.61740000  1.0
  H  H6  1  0.91080000  0.31869000  0.22176000  1.0
  H  H7  1  0.91112000  0.69262000  0.59764000  1.0
  H  H8  1  0.90597000  0.31311000  0.59170000  1.0
  H  H9  1  0.28371000  0.68545000  0.59755000  1.0
  H  H10  1  0.85285000  0.59648000  0.13570000  1.0
  H  H11  1  0.76560000  0.42828000  0.05202000  1.0
  H  H12  1  0.76156000  0.42701000  0.88205000  1.0
  H  H13  1  0.84996000  0.59559000  0.96548000  1.0
  H  H14  1  0.40093000  0.45520000  0.69195000  1.0
  H  H15  1  0.48276000  0.61814000  0.74471000  1.0
  H  H16  1  0.65121000  0.61689000  0.74412000  1.0
  H  H17  1  0.56860000  0.45107000  0.68252000  1.0
  H  H18  1  0.25731000  0.11848000  0.64201000  1.0
  H  H19  1  0.17921000  0.12580000  0.73246000  1.0
  H  H20  1  0.17395000  0.28927000  0.72641000  1.0
  H  H21  1  0.25297000  0.28331000  0.63662000  1.0
  H  H22  1  0.34718000  0.09243000  0.97158000  1.0
  H  H23  1  0.42734000  0.10653000  0.88474000  1.0
  H  H24  1  0.59812000  0.28564000  0.05339000  1.0
  H  H25  1  0.51684000  0.26470000  0.13751000  1.0
  H  H26  1  0.96580000  0.23769000  0.06273000  1.0
  H  H27  1  0.92876000  0.20920000  0.88595000  1.0
  H  H28  1  0.98139000  0.91431000  0.73487000  1.0
  H  H29  1  0.93841000  0.04777000  0.72144000  1.0
  H  H30  1  0.37176000  0.72148000  0.26105000  1.0
  H  H31  1  0.46027000  0.72308000  0.34360000  1.0
  H  H32  1  0.62533000  0.89181000  0.33985000  1.0
  H  H33  1  0.53696000  0.88960000  0.25653000  1.0
  C  C34  1  0.01245000  0.51028000  0.20401000  1.0
  C  C35  1  0.70019000  0.49944000  0.49285000  1.0
  C  C36  1  0.00410000  0.50190000  0.80319000  1.0
  C  C37  1  0.29600000  0.48340000  0.49256000  1.0
  C  C38  1  0.01050000  0.20451000  0.20398000  1.0
  C  C39  1  0.30625000  0.81182000  0.50952000  1.0
  C  C40  1  0.01238000  0.81013000  0.81357000  1.0
  C  C41  1  0.69555000  0.20774000  0.50149000  1.0
  C  C42  1  0.70198000  0.20035000  0.19723000  1.0
  C  C43  1  0.00021000  0.19273000  0.48779000  1.0
  C  C44  1  0.30008000  0.79208000  0.80747000  1.0
  C  C45  1  0.00716000  0.80364000  0.49621000  1.0
  C  C46  1  0.01389000  0.50340000  0.10056000  1.0
  C  C47  1  0.00879000  0.49887000  0.90214000  1.0
  C  C48  1  0.93589000  0.50567000  0.05098000  1.0
  C  C49  1  0.08682000  0.49102000  0.94840000  1.0
  C  C50  1  0.93371000  0.50432000  0.95663000  1.0
  C  C51  1  0.08997000  0.49417000  0.04535000  1.0
  C  C52  1  0.83717000  0.51110000  0.06098000  1.0
  C  C53  1  0.83480000  0.51008000  0.95446000  1.0
  C  C54  1  0.39044000  0.47218000  0.48210000  1.0
  C  C55  1  0.59534000  0.49039000  0.48483000  1.0
  C  C56  1  0.45476000  0.49430000  0.56886000  1.0
  C  C57  1  0.53247000  0.47086000  0.39638000  1.0
  C  C58  1  0.55102000  0.49944000  0.56870000  1.0
  C  C59  1  0.42918000  0.45312000  0.39141000  1.0
  C  C60  1  0.46742000  0.52616000  0.68383000  1.0
  C  C61  1  0.57376000  0.52677000  0.68178000  1.0
  C  C62  1  0.00111000  0.89655000  0.48717000  1.0
  C  C63  1  0.99935000  0.08815000  0.47958000  1.0
  C  C64  1  0.08224000  0.02583000  0.56000000  1.0
  C  C65  1  0.91756000  0.95671000  0.40106000  1.0
  C  C66  1  0.08057000  0.11703000  0.55678000  1.0
  C  C67  1  0.91675000  0.86395000  0.40698000  1.0
  C  C68  1  0.18727000  0.12306000  0.65802000  1.0
  C  C69  1  0.18468000  0.22606000  0.65464000  1.0
  C  C70  1  0.40243000  0.88877000  0.90575000  1.0
  C  C71  1  0.60565000  0.09293000  0.09375000  1.0
  C  C72  1  0.44602000  0.01626000  0.95737000  1.0
  C  C73  1  0.56660000  0.96355000  0.03880000  1.0
  C  C74  1  0.54206000  0.11369000  0.04808000  1.0
  C  C75  1  0.46496000  0.86431000  0.95122000  1.0
  C  C76  1  0.42382000  0.10512000  0.95756000  1.0
  C  C77  1  0.53104000  0.21500000  0.06152000  1.0
  C  C78  1  0.01445000  0.10540000  0.10393000  1.0
  C  C79  1  0.99055000  0.08821000  0.00134000  1.0
  C  C80  1  0.04226000  0.03272000  0.11160000  1.0
  C  C81  1  0.96556000  0.16367000  0.99045000  1.0
  C  C82  1  0.94602000  0.14865000  0.89166000  1.0
  C  C83  1  0.01585000  0.91474000  0.91525000  1.0
  C  C84  1  0.04138000  0.93557000  0.01639000  1.0
  C  C85  1  0.99329000  0.99333000  0.90620000  1.0
  C  C86  1  0.97392000  0.98135000  0.80594000  1.0
  C  C87  1  0.95115000  0.05735000  0.79882000  1.0
  C  C88  1  0.40592000  0.91754000  0.51445000  1.0
  C  C89  1  0.59677000  0.11334000  0.50884000  1.0
  C  C90  1  0.45453000  0.89070000  0.43356000  1.0
  C  C91  1  0.54939000  0.14379000  0.59300000  1.0
  C  C92  1  0.54564000  0.98392000  0.43110000  1.0
  C  C93  1  0.45803000  0.04904000  0.59658000  1.0
  C  C94  1  0.44730000  0.78315000  0.33108000  1.0
  C  C95  1  0.55042000  0.88843000  0.32845000  1.0
  Cl  Cl96  1  0.18166000  0.47557000  0.88905000  1.0
  Cl  Cl97  1  0.18812000  0.48320000  0.09147000  1.0
  Cl  Cl98  1  0.58039000  0.47355000  0.29263000  1.0
  Cl  Cl99  1  0.35086000  0.40377000  0.27010000  1.0
  Cl  Cl100  1  0.81577000  0.90310000  0.29448000  1.0
  Cl  Cl101  1  0.80539000  0.71035000  0.31548000  1.0
  Cl  Cl102  1  0.64308000  0.92098000  0.07268000  1.0
  Cl  Cl103  1  0.41887000  0.71257000  0.90437000  1.0
  Cl  Cl104  1  0.60122000  0.29858000  0.69680000  1.0
  Cl  Cl105  1  0.41442000  0.10097000  0.70724000  1.0
  Cl  Cl106  1  0.07561000  0.84599000  0.02839000  1.0
  Cl  Cl107  1  0.08152000  0.06208000  0.23764000  1.0
  O  O108  1  0.09000000  0.51865000  0.25256000  1.0
  O  O109  1  0.73958000  0.50722000  0.57501000  1.0
  O  O110  1  0.92751000  0.50574000  0.76959000  1.0
  O  O111  1  0.26179000  0.49938000  0.42660000  1.0
  O  O112  1  0.93101000  0.16493000  0.23796000  1.0
  O  O113  1  0.26089000  0.84056000  0.58184000  1.0
  O  O114  1  0.08796000  0.84560000  0.77367000  1.0
  O  O115  1  0.73128000  0.16396000  0.42447000  1.0
  O  O116  1  0.73837000  0.31304000  0.23009000  1.0
  O  O117  1  0.07671000  0.30532000  0.56783000  1.0
  O  O118  1  0.25810000  0.67536000  0.76301000  1.0
  O  O119  1  0.93739000  0.68669000  0.42038000  1.0
  O  O120  1  0.92371000  0.16379000  0.41766000  1.0
  O  O121  1  0.26358000  0.83512000  0.77300000  1.0
  O  O122  1  0.08132000  0.84748000  0.57904000  1.0
  O  O123  1  0.74030000  0.17161000  0.24779000  1.0
  O  O124  1  0.08563000  0.31946000  0.24307000  1.0
  O  O125  1  0.73861000  0.32508000  0.57344000  1.0
  O  O126  1  0.93330000  0.69655000  0.77370000  1.0
  O  O127  1  0.27302000  0.69921000  0.43262000  1.0
  O  O128  1  0.26016000  0.48360000  0.57030000  1.0
  O  O129  1  0.93214000  0.50634000  0.23654000  1.0
  O  O130  1  0.74325000  0.49871000  0.41886000  1.0
  O  O131  1  0.07654000  0.49972000  0.75880000  1.0
  O  O132  1  0.20410000  0.63474000  0.57149000  1.0
  O  O133  1  0.93319000  0.36758000  0.56659000  1.0
  O  O134  1  0.93926000  0.64091000  0.57193000  1.0
  O  O135  1  0.93827000  0.37158000  0.30145000  1.0
  O  O136  1  0.85678000  0.40851000  0.45350000  1.0
  O  O137  1  0.05463000  0.60342000  0.45627000  1.0
  O  O138  1  0.05183000  0.59946000  0.65015000  1.0
  O  O139  1  0.05151000  0.40259000  0.45113000  1.0
