# generated using pymatgen
data_ErH18C20N4Cl3
_symmetry_space_group_name_H-M   'P 1'
_cell_length_a   12.67050000
_cell_length_b   14.20530000
_cell_length_c   14.73900000
_cell_angle_alpha   90.00010000
_cell_angle_beta   89.99980000
_cell_angle_gamma   89.99990000
_symmetry_Int_Tables_number   1
_chemical_formula_structural   ErH18C20N4Cl3
_chemical_formula_sum   'Er4 H72 C80 N16 Cl12'
_cell_volume   2652.84687052
_cell_formula_units_Z   4
loop_
 _symmetry_equiv_pos_site_id
 _symmetry_equiv_pos_as_xyz
  1  'x, y, z'
loop_
 _atom_site_type_symbol
 _atom_site_label
 _atom_site_symmetry_multiplicity
 _atom_site_fract_x
 _atom_site_fract_y
 _atom_site_fract_z
 _atom_site_occupancy
  Er  Er0  1  0.33413000  0.16696000  0.63518000  1.0
  Er  Er1  1  0.16587000  0.83304000  0.13518000  1.0
  Er  Er2  1  0.83413000  0.33304000  0.36482000  1.0
  Er  Er3  1  0.66587000  0.66696000  0.86482000  1.0
  H  H4  1  0.41556000  0.60066000  0.35771000  1.0
  H  H5  1  0.08444000  0.39934000  0.85771000  1.0
  H  H6  1  0.91556000  0.89934000  0.64229000  1.0
  H  H7  1  0.58444000  0.10066000  0.14230000  1.0
  H  H8  1  0.17606000  0.13667000  0.28264000  1.0
  H  H9  1  0.32394000  0.86333000  0.78264000  1.0
  H  H10  1  0.67606000  0.36333000  0.71736000  1.0
  H  H11  1  0.82394000  0.63667000  0.21736000  1.0
  H  H12  1  0.46612000  0.31183000  0.49311000  1.0
  H  H13  1  0.03388000  0.68817000  0.99311000  1.0
  H  H14  1  0.96612000  0.18817000  0.50689000  1.0
  H  H15  1  0.53388000  0.81183000  0.00689000  1.0
  H  H16  1  0.09228000  0.50496000  0.32842000  1.0
  H  H17  1  0.40772000  0.49504000  0.82842000  1.0
  H  H18  1  0.59228000  0.99504000  0.67158000  1.0
  H  H19  1  0.90772000  0.00496000  0.17158000  1.0
  H  H20  1  0.37219000  0.72961000  0.24963000  1.0
  H  H21  1  0.12781000  0.27039000  0.74963000  1.0
  H  H22  1  0.87219000  0.77039000  0.75037000  1.0
  H  H23  1  0.62781000  0.22962000  0.25037000  1.0
  H  H24  1  0.17921000  0.17543000  0.44734000  1.0
  H  H25  1  0.32079000  0.82457000  0.94734000  1.0
  H  H26  1  0.67921000  0.32457000  0.55266000  1.0
  H  H27  1  0.82079000  0.67543000  0.05266000  1.0
  H  H28  1  0.19017000  0.13651000  0.82491000  1.0
  H  H29  1  0.30984000  0.86349000  0.32491000  1.0
  H  H30  1  0.69017000  0.36349000  0.17510000  1.0
  H  H31  1  0.80983000  0.63651000  0.67510000  1.0
  H  H32  1  0.15446000  0.32923000  0.57705000  1.0
  H  H33  1  0.34554000  0.67077000  0.07705000  1.0
  H  H34  1  0.65446000  0.17077000  0.42295000  1.0
  H  H35  1  0.84554000  0.82923000  0.92295000  1.0
  H  H36  1  0.33649000  0.06508000  0.21147000  1.0
  H  H37  1  0.16351000  0.93492000  0.71147000  1.0
  H  H38  1  0.83649000  0.43492000  0.78853000  1.0
  H  H39  1  0.66351000  0.56508000  0.28853000  1.0
  H  H40  1  0.11897000  0.46302000  0.47135000  1.0
  H  H41  1  0.38103000  0.53698000  0.97135000  1.0
  H  H42  1  0.61897000  0.03698000  0.52865000  1.0
  H  H43  1  0.88103000  0.96302000  0.02865000  1.0
  H  H44  1  0.51203000  0.10702000  0.78782000  1.0
  H  H45  1  0.98798000  0.89298000  0.28782000  1.0
  H  H46  1  0.01203000  0.39298000  0.21218000  1.0
  H  H47  1  0.48797000  0.60702000  0.71218000  1.0
  H  H48  1  0.44313000  0.43957000  0.38213000  1.0
  H  H49  1  0.05687000  0.56043000  0.88214000  1.0
  H  H50  1  0.94313000  0.06043000  0.61787000  1.0
  H  H51  1  0.55687000  0.93957000  0.11787000  1.0
  H  H52  1  0.48643000  0.08135000  0.47446000  1.0
  H  H53  1  0.01357000  0.91865000  0.97446000  1.0
  H  H54  1  0.98643000  0.41864000  0.52554000  1.0
  H  H55  1  0.51357000  0.58136000  0.02554000  1.0
  H  H56  1  0.49809000  0.04014000  0.30964000  1.0
  H  H57  1  0.00191000  0.95986000  0.80964000  1.0
  H  H58  1  0.99809000  0.45986000  0.69036000  1.0
  H  H59  1  0.50191000  0.54014000  0.19036000  1.0
  H  H60  1  0.06271000  0.63953000  0.22494000  1.0
  H  H61  1  0.43729000  0.36047000  0.72494000  1.0
  H  H62  1  0.56271000  0.86047000  0.77506000  1.0
  H  H63  1  0.93729000  0.13953000  0.27506000  1.0
  H  H64  1  0.53764000  0.05184000  0.94743000  1.0
  H  H65  1  0.96236000  0.94816000  0.44742000  1.0
  H  H66  1  0.03764000  0.44816000  0.05257000  1.0
  H  H67  1  0.46236000  0.55184000  0.55257000  1.0
  H  H68  1  0.20235000  0.08622000  0.98799000  1.0
  H  H69  1  0.29766000  0.91378000  0.48799000  1.0
  H  H70  1  0.70235000  0.41378000  0.01201000  1.0
  H  H71  1  0.79765000  0.58622000  0.51201000  1.0
  H  H72  1  0.37783000  0.03955000  0.04972000  1.0
  H  H73  1  0.12217000  0.96045000  0.54972000  1.0
  H  H74  1  0.87783000  0.46045000  0.95028000  1.0
  H  H75  1  0.62217000  0.53955000  0.45028000  1.0
  C  C76  1  0.33648000  0.60521000  0.32887000  1.0
  C  C77  1  0.16352000  0.39479000  0.82887000  1.0
  C  C78  1  0.83648000  0.89479000  0.67113000  1.0
  C  C79  1  0.66352000  0.10522000  0.17113000  1.0
  C  C80  1  0.25756000  0.54067000  0.35290000  1.0
  C  C81  1  0.24244000  0.45933000  0.85290000  1.0
  C  C82  1  0.75756000  0.95933000  0.64710000  1.0
  C  C83  1  0.74244000  0.04067000  0.14710000  1.0
  C  C84  1  0.27776000  0.46381000  0.41775000  1.0
  C  C85  1  0.22224000  0.53619000  0.91775000  1.0
  C  C86  1  0.77776000  0.03619000  0.58225000  1.0
  C  C87  1  0.72224000  0.96381000  0.08225000  1.0
  C  C88  1  0.24727000  0.12450000  0.32222000  1.0
  C  C89  1  0.25273000  0.87550000  0.82222000  1.0
  C  C90  1  0.74727000  0.37550000  0.67778000  1.0
  C  C91  1  0.75273000  0.62450000  0.17778000  1.0
  C  C92  1  0.39003000  0.34696000  0.48654000  1.0
  C  C93  1  0.10997000  0.65304000  0.98654000  1.0
  C  C94  1  0.89003000  0.15304000  0.51346000  1.0
  C  C95  1  0.60997000  0.84696000  0.01346000  1.0
  C  C96  1  0.15751000  0.55273000  0.31371000  1.0
  C  C97  1  0.34249000  0.44727000  0.81371000  1.0
  C  C98  1  0.65750000  0.94726000  0.68628000  1.0
  C  C99  1  0.84249000  0.05273000  0.18629000  1.0
  C  C100  1  0.31250000  0.67831000  0.26974000  1.0
  C  C101  1  0.18750000  0.32169000  0.76974000  1.0
  C  C102  1  0.81250000  0.82169000  0.73026000  1.0
  C  C103  1  0.68751000  0.17831000  0.23026000  1.0
  C  C104  1  0.24864000  0.14559000  0.41450000  1.0
  C  C105  1  0.25136000  0.85441000  0.91450000  1.0
  C  C106  1  0.74864000  0.35441000  0.58550000  1.0
  C  C107  1  0.75136000  0.64559000  0.08550000  1.0
  C  C108  1  0.26609000  0.11922000  0.85553000  1.0
  C  C109  1  0.23391000  0.88078000  0.35553000  1.0
  C  C110  1  0.76609000  0.38078000  0.14447000  1.0
  C  C111  1  0.73391000  0.61922000  0.64447000  1.0
  C  C112  1  0.21685000  0.35742000  0.53383000  1.0
  C  C113  1  0.28315000  0.64258000  0.03383000  1.0
  C  C114  1  0.71685000  0.14258000  0.46617000  1.0
  C  C115  1  0.78315000  0.85742000  0.96617000  1.0
  C  C116  1  0.33722000  0.08563000  0.28273000  1.0
  C  C117  1  0.16278000  0.91437000  0.78274000  1.0
  C  C118  1  0.83721000  0.41437000  0.71726000  1.0
  C  C119  1  0.66279000  0.58563000  0.21726000  1.0
  C  C120  1  0.19702000  0.43122000  0.47454000  1.0
  C  C121  1  0.30298000  0.56878000  0.97454000  1.0
  C  C122  1  0.69702000  0.06878000  0.52546000  1.0
  C  C123  1  0.80298000  0.93122000  0.02546000  1.0
  C  C124  1  0.44560000  0.10120000  0.83448000  1.0
  C  C125  1  0.05440000  0.89880000  0.33448000  1.0
  C  C126  1  0.94560000  0.39880000  0.16552000  1.0
  C  C127  1  0.55440000  0.60120000  0.66552000  1.0
  C  C128  1  0.37657000  0.42013000  0.42507000  1.0
  C  C129  1  0.12343000  0.57987000  0.92508000  1.0
  C  C130  1  0.87657000  0.07987000  0.57493000  1.0
  C  C131  1  0.62343000  0.92013000  0.07493000  1.0
  C  C132  1  0.42036000  0.09352000  0.42880000  1.0
  C  C133  1  0.07964000  0.90648000  0.92880000  1.0
  C  C134  1  0.92036000  0.40648000  0.57120000  1.0
  C  C135  1  0.57964000  0.59352000  0.07120000  1.0
  C  C136  1  0.42592000  0.07066000  0.33711000  1.0
  C  C137  1  0.07408000  0.92934000  0.83711000  1.0
  C  C138  1  0.92592000  0.42934000  0.66289000  1.0
  C  C139  1  0.57408000  0.57066000  0.16289000  1.0
  C  C140  1  0.14016000  0.62808000  0.25543000  1.0
  C  C141  1  0.35984000  0.37192000  0.75544000  1.0
  C  C142  1  0.64016000  0.87192000  0.74456000  1.0
  C  C143  1  0.85984000  0.12808000  0.24457000  1.0
  C  C144  1  0.45917000  0.07138000  0.92371000  1.0
  C  C145  1  0.04084000  0.92862000  0.42371000  1.0
  C  C146  1  0.95917000  0.42862000  0.07629000  1.0
  C  C147  1  0.54083000  0.57138000  0.57629000  1.0
  C  C148  1  0.27280000  0.09115000  0.94580000  1.0
  C  C149  1  0.22720000  0.90885000  0.44580000  1.0
  C  C150  1  0.77280000  0.40885000  0.05420000  1.0
  C  C151  1  0.72720000  0.59115000  0.55420000  1.0
  C  C152  1  0.37121000  0.06585000  0.98043000  1.0
  C  C153  1  0.12880000  0.93415000  0.48043000  1.0
  C  C154  1  0.87121000  0.43415000  0.01957000  1.0
  C  C155  1  0.62879000  0.56585000  0.51957000  1.0
  N  N156  1  0.31163000  0.31499000  0.54020000  1.0
  N  N157  1  0.18837000  0.68501000  0.04020000  1.0
  N  N158  1  0.81164000  0.18501000  0.45980000  1.0
  N  N159  1  0.68837000  0.81499000  0.95980000  1.0
  N  N160  1  0.33333333  0.12998000  0.46774000  1.0
  N  N161  1  0.16669000  0.87003000  0.96774000  1.0
  N  N162  1  0.83331000  0.37003000  0.53226000  1.0
  N  N163  1  0.66666667  0.62998000  0.03226000  1.0
  N  N164  1  0.35052000  0.12453000  0.80013000  1.0
  N  N165  1  0.14948000  0.87546000  0.30013000  1.0
  N  N166  1  0.85052000  0.37547000  0.19988000  1.0
  N  N167  1  0.64948000  0.62453000  0.69988000  1.0
  N  N168  1  0.21569000  0.69118000  0.23382000  1.0
  N  N169  1  0.28431000  0.30882000  0.73382000  1.0
  N  N170  1  0.71569000  0.80882000  0.76618000  1.0
  N  N171  1  0.78431000  0.19118000  0.26618000  1.0
  Cl  Cl172  1  0.13241000  0.13691000  0.63791000  1.0
  Cl  Cl173  1  0.36759000  0.86309000  0.13790000  1.0
  Cl  Cl174  1  0.63241000  0.36309000  0.36210000  1.0
  Cl  Cl175  1  0.86759000  0.63691000  0.86209000  1.0
  Cl  Cl176  1  0.52891000  0.21707000  0.63926000  1.0
  Cl  Cl177  1  0.97109000  0.78293000  0.13926000  1.0
  Cl  Cl178  1  0.02890000  0.28294000  0.36075000  1.0
  Cl  Cl179  1  0.47110000  0.71707000  0.86075000  1.0
  Cl  Cl180  1  0.38675000  0.98955000  0.63126000  1.0
  Cl  Cl181  1  0.11324000  0.01045000  0.13125000  1.0
  Cl  Cl182  1  0.88676000  0.51045000  0.36874000  1.0
  Cl  Cl183  1  0.61325000  0.48955000  0.86875000  1.0
