# generated using pymatgen
data_NiH8C6(N2O)4
_symmetry_space_group_name_H-M   'P 1'
_cell_length_a   5.41161000
_cell_length_b   7.69771182
_cell_length_c   7.72859000
_cell_angle_alpha   62.86671941
_cell_angle_beta   84.30150000
_cell_angle_gamma   72.22915928
_symmetry_Int_Tables_number   1
_chemical_formula_structural   NiH8C6(N2O)4
_chemical_formula_sum   'Ni1 H8 C6 N8 O4'
_cell_volume   272.54489224
_cell_formula_units_Z   1
loop_
 _symmetry_equiv_pos_site_id
 _symmetry_equiv_pos_as_xyz
  1  'x, y, z'
loop_
 _atom_site_type_symbol
 _atom_site_label
 _atom_site_symmetry_multiplicity
 _atom_site_fract_x
 _atom_site_fract_y
 _atom_site_fract_z
 _atom_site_occupancy
  Ni  Ni0  1  0.00000000  0.00001000  0.99999000  1.0
  H  H1  1  0.41825000  0.72535000  0.58295000  1.0
  H  H2  1  0.58170000  0.27466000  0.41706000  1.0
  H  H3  1  0.20456000  0.41096000  0.78631000  1.0
  H  H4  1  0.79541000  0.58905000  0.21368000  1.0
  H  H5  1  0.82410000  0.89252000  0.42588000  1.0
  H  H6  1  0.17585000  0.10749000  0.57412000  1.0
  H  H7  1  0.84373000  0.88679000  0.64547000  1.0
  H  H8  1  0.15624000  0.11321000  0.35455000  1.0
  C  C9  1  0.52055000  0.98310000  0.90782000  1.0
  C  C10  1  0.47948000  0.01690000  0.09219000  1.0
  C  C11  1  0.59354000  0.60391000  0.65761000  1.0
  C  C12  1  0.40647000  0.39609000  0.34240000  1.0
  C  C13  1  0.99723000  0.44127000  0.76338000  1.0
  C  C14  1  0.00277000  0.55872000  0.23662000  1.0
  N  N15  1  0.86296000  0.30763000  0.83064000  1.0
  N  N16  1  0.13708000  0.69234000  0.16937000  1.0
  N  N17  1  0.60799000  0.40933000  0.76339000  1.0
  N  N18  1  0.39207000  0.59066000  0.23662000  1.0
  N  N19  1  0.83402000  0.62976000  0.65383000  1.0
  N  N20  1  0.16599000  0.37022000  0.34619000  1.0
  N  N21  1  0.91153000  0.80820000  0.56353000  1.0
  N  N22  1  0.08842000  0.19181000  0.43645000  1.0
  O  O23  1  0.74917000  0.95552000  0.84760000  1.0
  O  O24  1  0.25084000  0.04449000  0.15235000  1.0
  O  O25  1  0.67616000  0.01546000  0.16990000  1.0
  O  O26  1  0.32386000  0.98453000  0.83010000  1.0
