# generated using pymatgen
data_ZnNi2H30(C3O4)6
_symmetry_space_group_name_H-M   'P 1'
_cell_length_a   6.29328000
_cell_length_b   10.76776479
_cell_length_c   10.76770283
_cell_angle_alpha   73.56070790
_cell_angle_beta   73.70929906
_cell_angle_gamma   73.70976275
_symmetry_Int_Tables_number   1
_chemical_formula_structural   ZnNi2H30(C3O4)6
_chemical_formula_sum   'Zn1 Ni2 H30 C18 O24'
_cell_volume   655.51626510
_cell_formula_units_Z   1
loop_
 _symmetry_equiv_pos_site_id
 _symmetry_equiv_pos_as_xyz
  1  'x, y, z'
loop_
 _atom_site_type_symbol
 _atom_site_label
 _atom_site_symmetry_multiplicity
 _atom_site_fract_x
 _atom_site_fract_y
 _atom_site_fract_z
 _atom_site_occupancy
  Zn  Zn0  1  1.00000000  0.98210000  0.01790000  1.0
  Ni  Ni1  1  0.70701000  0.52149000  0.99709000  1.0
  Ni  Ni2  1  0.29299000  0.00291000  0.47851000  1.0
  H  H3  1  0.04483000  0.38549000  0.12974000  1.0
  H  H4  1  0.95516000  0.87027000  0.61451000  1.0
  H  H5  1  0.15262000  0.48716000  0.00283000  1.0
  H  H6  1  0.84739000  0.99717000  0.51284000  1.0
  H  H7  1  0.81994000  0.73045000  0.86900000  1.0
  H  H8  1  0.18006000  0.13100000  0.26955000  1.0
  H  H9  1  0.83134000  0.72934000  0.01913000  1.0
  H  H10  1  0.16865000  0.98087000  0.27066000  1.0
  H  H11  1  0.26679000  0.66104000  0.00872000  1.0
  H  H12  1  0.73321000  0.99128000  0.33896000  1.0
  H  H13  1  0.38471000  0.64660000  0.85912000  1.0
  H  H14  1  0.61529000  0.14088000  0.35340000  1.0
  H  H15  1  0.56874000  0.31860000  0.96969000  1.0
  H  H16  1  0.43126000  0.03031000  0.68140000  1.0
  H  H17  1  0.60454000  0.30790000  0.12141000  1.0
  H  H18  1  0.39546000  0.87859000  0.69210000  1.0
  H  H19  1  0.47798000  0.84187000  0.97641000  1.0
  H  H20  1  0.52202000  0.02359000  0.15813000  1.0
  H  H21  1  0.43549000  0.99017000  0.89319000  1.0
  H  H22  1  0.56451000  0.10681000  0.00983000  1.0
  H  H23  1  0.91055000  0.23554000  0.00879000  1.0
  H  H24  1  0.08945000  0.99121000  0.76446000  1.0
  H  H25  1  0.18534000  0.19538000  0.97531000  1.0
  H  H26  1  0.81466000  0.02469000  0.80462000  1.0
  H  H27  1  0.56479000  0.21844000  0.52045000  1.0
  H  H28  1  0.43520000  0.47955000  0.78156000  1.0
  H  H29  1  0.50000000  0.63806000  0.36194000  1.0
  H  H30  1  0.94256000  0.78502000  0.47464000  1.0
  H  H31  1  0.05743000  0.52536000  0.21498000  1.0
  H  H32  1  1.00000000  0.36572000  0.63428000  1.0
  C  C33  1  0.53549000  0.42648000  0.42574000  1.0
  C  C34  1  0.46451000  0.57426000  0.57352000  1.0
  C  C35  1  0.53721000  0.31821000  0.53412000  1.0
  C  C36  1  0.46279000  0.46588000  0.68179000  1.0
  C  C37  1  0.50000000  0.33766000  0.66234000  1.0
  C  C38  1  0.50000000  0.55382000  0.44618000  1.0
  C  C39  1  0.56890000  0.41004000  0.28770000  1.0
  C  C40  1  0.43110000  0.71230000  0.58996000  1.0
  C  C41  1  0.50000000  0.22212000  0.77788000  1.0
  C  C42  1  0.96089000  0.57854000  0.57027000  1.0
  C  C43  1  0.03911000  0.42973000  0.42146000  1.0
  C  C44  1  0.96630000  0.68562000  0.46108000  1.0
  C  C45  1  0.03368000  0.53893000  0.31439000  1.0
  C  C46  1  0.00000000  0.66651000  0.33349000  1.0
  C  C47  1  1.00000000  0.45009000  0.54991000  1.0
  C  C48  1  0.90507000  0.60540000  0.70693000  1.0
  C  C49  1  0.09492000  0.29307000  0.39461000  1.0
  C  C50  1  0.00001000  0.78086000  0.21913000  1.0
  O  O51  1  0.58367000  0.51362000  0.19499000  1.0
  O  O52  1  0.41633000  0.80501000  0.48638000  1.0
  O  O53  1  0.57634000  0.29603000  0.26996000  1.0
  O  O54  1  0.42367000  0.73004000  0.70397000  1.0
  O  O55  1  0.45280000  0.24235000  0.89524000  1.0
  O  O56  1  0.54722000  0.10475000  0.75764000  1.0
  O  O57  1  0.84289000  0.51333000  0.80320000  1.0
  O  O58  1  0.15712000  0.19680000  0.48667000  1.0
  O  O59  1  0.91794000  0.71786000  0.71888000  1.0
  O  O60  1  0.08206000  0.28112000  0.28214000  1.0
  O  O61  1  0.97848000  0.89794000  0.23531000  1.0
  O  O62  1  0.02151000  0.76469000  0.10206000  1.0
  O  O63  1  0.03339000  0.43534000  0.03746000  1.0
  O  O64  1  0.96661000  0.96254000  0.56466000  1.0
  O  O65  1  0.73541000  0.71732000  0.96671000  1.0
  O  O66  1  0.26459000  0.03329000  0.28268000  1.0
  O  O67  1  0.36743000  0.59728000  0.95516000  1.0
  O  O68  1  0.63257000  0.04484000  0.40272000  1.0
  O  O69  1  0.66463000  0.33405000  0.02070000  1.0
  O  O70  1  0.33537000  0.97930000  0.66595000  1.0
  O  O71  1  0.35774000  0.92302000  0.96002000  1.0
  O  O72  1  0.64226000  0.03998000  0.07698000  1.0
  O  O73  1  0.04679000  0.16035000  0.01702000  1.0
  O  O74  1  0.95321000  0.98298000  0.83965000  1.0
