# generated using pymatgen
data_Na2H72PtC48S4(NO3)4
_symmetry_space_group_name_H-M   'P 1'
_cell_length_a   10.02080000
_cell_length_b   11.81330000
_cell_length_c   12.63800000
_cell_angle_alpha   103.09100000
_cell_angle_beta   109.60300000
_cell_angle_gamma   98.86430000
_symmetry_Int_Tables_number   1
_chemical_formula_structural   Na2H72PtC48S4(NO3)4
_chemical_formula_sum   'Na2 H72 Pt1 C48 S4 N4 O12'
_cell_volume   1328.87170602
_cell_formula_units_Z   1
loop_
 _symmetry_equiv_pos_site_id
 _symmetry_equiv_pos_as_xyz
  1  'x, y, z'
loop_
 _atom_site_type_symbol
 _atom_site_label
 _atom_site_symmetry_multiplicity
 _atom_site_fract_x
 _atom_site_fract_y
 _atom_site_fract_z
 _atom_site_occupancy
  Na  Na0  1  0.45784000  0.71428000  0.26671000  1.0
  Na  Na1  1  0.54216000  0.28572000  0.73329000  1.0
  H  H2  1  0.70338000  0.87649000  0.61925000  1.0
  H  H3  1  0.29661000  0.12352000  0.38074000  1.0
  H  H4  1  0.95893000  0.94986000  0.63574000  1.0
  H  H5  1  0.04108000  0.05014000  0.36426000  1.0
  H  H6  1  0.93912000  0.83642000  0.70184000  1.0
  H  H7  1  0.06088000  0.16359000  0.29815000  1.0
  H  H8  1  0.09654000  0.79849000  0.58950000  1.0
  H  H9  1  0.90346000  0.20151000  0.41050000  1.0
  H  H10  1  0.95717000  0.79957000  0.45884000  1.0
  H  H11  1  0.04283000  0.20044000  0.54116000  1.0
  H  H12  1  0.95395000  0.58840000  0.45828000  1.0
  H  H13  1  0.04605000  0.41160000  0.54172000  1.0
  H  H14  1  0.93881000  0.61851000  0.59667000  1.0
  H  H15  1  0.06119000  0.38149000  0.40333000  1.0
  H  H16  1  0.69126000  0.51973000  0.43229000  1.0
  H  H17  1  0.30873000  0.48027000  0.56771000  1.0
  H  H18  1  0.71516000  0.63504000  0.36793000  1.0
  H  H19  1  0.28484000  0.36496000  0.63207000  1.0
  H  H20  1  0.69770000  0.66820000  0.61057000  1.0
  H  H21  1  0.30230000  0.33181000  0.38943000  1.0
  H  H22  1  0.46735000  0.80370000  0.54878000  1.0
  H  H23  1  0.53265000  0.19630000  0.45121000  1.0
  H  H24  1  0.45594000  0.67449000  0.60051000  1.0
  H  H25  1  0.54407000  0.32551000  0.39949000  1.0
  H  H26  1  0.25382000  0.55902000  0.40185000  1.0
  H  H27  1  0.74618000  0.44098000  0.59815000  1.0
  H  H28  1  0.20780000  0.68002000  0.48529000  1.0
  H  H29  1  0.79220000  0.31998000  0.51471000  1.0
  H  H30  1  0.03027000  0.68800000  0.28665000  1.0
  H  H31  1  0.96973000  0.31200000  0.71335000  1.0
  H  H32  1  0.09068000  0.56143000  0.22837000  1.0
  H  H33  1  0.90933000  0.43857000  0.77163000  1.0
  H  H34  1  0.99186000  0.67064000  0.08313000  1.0
  H  H35  1  0.00814000  0.32937000  0.91687000  1.0
  H  H36  1  0.13405000  0.80183000  0.17404000  1.0
  H  H37  1  0.86596000  0.19817000  0.82596000  1.0
  H  H38  1  0.05670000  0.63238000  0.93135000  1.0
  H  H39  1  0.94330000  0.36762000  0.06865000  1.0
  H  H40  1  0.36455000  0.59219000  0.98644000  1.0
  H  H41  1  0.63545000  0.40781000  0.01356000  1.0
  H  H42  1  0.19930000  0.47960000  0.92972000  1.0
  H  H43  1  0.80070000  0.52040000  0.07028000  1.0
  H  H44  1  0.11419000  0.53478000  0.74534000  1.0
  H  H45  1  0.88581000  0.46522000  0.25466000  1.0
  H  H46  1  0.28989000  0.50822000  0.77265000  1.0
  H  H47  1  0.71011000  0.49179000  0.22735000  1.0
  H  H48  1  0.26438000  0.69400000  0.70761000  1.0
  H  H49  1  0.73563000  0.30600000  0.29239000  1.0
  H  H50  1  0.40422000  0.72747000  0.84860000  1.0
  H  H51  1  0.59578000  0.27253000  0.15140000  1.0
  H  H52  1  0.09093000  0.75513000  0.79997000  1.0
  H  H53  1  0.90907000  0.24487000  0.20003000  1.0
  H  H54  1  0.24761000  0.87443000  0.85024000  1.0
  H  H55  1  0.75239000  0.12558000  0.14976000  1.0
  H  H56  1  0.17232000  0.84598000  0.01145000  1.0
  H  H57  1  0.82768000  0.15402000  0.98855000  1.0
  H  H58  1  0.37806000  0.99786000  0.03821000  1.0
  H  H59  1  0.62194000  0.00214000  0.96179000  1.0
  H  H60  1  0.55177000  0.97571000  0.11533000  1.0
  H  H61  1  0.44823000  0.02429000  0.88467000  1.0
  H  H62  1  0.44515000  0.09730000  0.24374000  1.0
  H  H63  1  0.55486000  0.90270000  0.75626000  1.0
  H  H64  1  0.29776000  0.96927000  0.20093000  1.0
  H  H65  1  0.70224000  0.03073000  0.79908000  1.0
  H  H66  1  0.67316000  0.09802000  0.35894000  1.0
  H  H67  1  0.32684000  0.90198000  0.64106000  1.0
  H  H68  1  0.69306000  0.95637000  0.28696000  1.0
  H  H69  1  0.30694000  0.04363000  0.71304000  1.0
  H  H70  1  0.83664000  0.02682000  0.50385000  1.0
  H  H71  1  0.16336000  0.97318000  0.49614000  1.0
  H  H72  1  0.67055000  0.02191000  0.52906000  1.0
  H  H73  1  0.32946000  0.97809000  0.47093000  1.0
  Pt  Pt74  1  0.00000000  0.99999000  0.00000000  1.0
  C  C75  1  0.74455000  0.82503000  0.55766000  1.0
  C  C76  1  0.25545000  0.17498000  0.44234000  1.0
  C  C77  1  0.91152000  0.85344000  0.61587000  1.0
  C  C78  1  0.08848000  0.14656000  0.38413000  1.0
  C  C79  1  0.97729000  0.77703000  0.54198000  1.0
  C  C80  1  0.02271000  0.22297000  0.45802000  1.0
  C  C81  1  0.90945000  0.64327000  0.51411000  1.0
  C  C82  1  0.09055000  0.35672000  0.48589000  1.0
  C  C83  1  0.74313000  0.61510000  0.45245000  1.0
  C  C84  1  0.25687000  0.38490000  0.54755000  1.0
  C  C85  1  0.67722000  0.69007000  0.52664000  1.0
  C  C86  1  0.32278000  0.30993000  0.47336000  1.0
  C  C87  1  0.43813000  0.70454000  0.52116000  1.0
  C  C88  1  0.56187000  0.29547000  0.47884000  1.0
  C  C89  1  0.27974000  0.65770000  0.43802000  1.0
  C  C90  1  0.72026000  0.34230000  0.56198000  1.0
  C  C91  1  0.11351000  0.66046000  0.25412000  1.0
  C  C92  1  0.88649000  0.33955000  0.74588000  1.0
  C  C93  1  0.10558000  0.70280000  0.14869000  1.0
  C  C94  1  0.89442000  0.29721000  0.85131000  1.0
  C  C95  1  0.17646000  0.65881000  0.98273000  1.0
  C  C96  1  0.82354000  0.34119000  0.01727000  1.0
  C  C97  1  0.24786000  0.56937000  0.92948000  1.0
  C  C98  1  0.75214000  0.43063000  0.07052000  1.0
  C  C99  1  0.23071000  0.56965000  0.80455000  1.0
  C  C100  1  0.76929000  0.43035000  0.19545000  1.0
  C  C101  1  0.28500000  0.69572000  0.79934000  1.0
  C  C102  1  0.71500000  0.30428000  0.20066000  1.0
  C  C103  1  0.20978000  0.78267000  0.85206000  1.0
  C  C104  1  0.79022000  0.21733000  0.14794000  1.0
  C  C105  1  0.23295000  0.78504000  0.97874000  1.0
  C  C106  1  0.76705000  0.21497000  0.02126000  1.0
  C  C107  1  0.43513000  0.95276000  0.10085000  1.0
  C  C108  1  0.56487000  0.04724000  0.89916000  1.0
  C  C109  1  0.41362000  0.99796000  0.21490000  1.0
  C  C110  1  0.58638000  0.00204000  0.78511000  1.0
  C  C111  1  0.64816000  0.00083000  0.34917000  1.0
  C  C112  1  0.35184000  0.99917000  0.65083000  1.0
  C  C113  1  0.71869000  0.98178000  0.46723000  1.0
  C  C114  1  0.28131000  0.01822000  0.53277000  1.0
  C  C115  1  0.79106000  0.80033000  0.99063000  1.0
  C  C116  1  0.20893000  0.19966000  0.00937000  1.0
  C  C117  1  0.69318000  0.69991000  0.98841000  1.0
  C  C118  1  0.30681000  0.30007000  0.01159000  1.0
  C  C119  1  0.66062000  0.69994000  0.08844000  1.0
  C  C120  1  0.33938000  0.30004000  0.91156000  1.0
  C  C121  1  0.63074000  0.59813000  0.88840000  1.0
  C  C122  1  0.36926000  0.40186000  0.11161000  1.0
  S  S123  1  0.88019000  0.92646000  0.10961000  1.0
  S  S124  1  0.11980000  0.07353000  0.89039000  1.0
  S  S125  1  0.84303000  0.81425000  0.87684000  1.0
  S  S126  1  0.15696000  0.18574000  0.12316000  1.0
  N  N127  1  0.63595000  0.70280000  0.17318000  1.0
  N  N128  1  0.36405000  0.29719000  0.82683000  1.0
  N  N129  1  0.58124000  0.51316000  0.80549000  1.0
  N  N130  1  0.41875000  0.48682000  0.19452000  1.0
  O  O131  1  0.69546000  0.85567000  0.44980000  1.0
  O  O132  1  0.30454000  0.14433000  0.55020000  1.0
  O  O133  1  0.52279000  0.65828000  0.45931000  1.0
  O  O134  1  0.47721000  0.34173000  0.54069000  1.0
  O  O135  1  0.25697000  0.71060000  0.34428000  1.0
  O  O136  1  0.74303000  0.28940000  0.65572000  1.0
  O  O137  1  0.20203000  0.65422000  0.10057000  1.0
  O  O138  1  0.79797000  0.34578000  0.89943000  1.0
  O  O139  1  0.38586000  0.82536000  0.05346000  1.0
  O  O140  1  0.61415000  0.17464000  0.94654000  1.0
  O  O141  1  0.49319000  0.95352000  0.30720000  1.0
  O  O142  1  0.50681000  0.04649000  0.69279000  1.0
