# generated using pymatgen
data_SnH14C11Cl2O3
_symmetry_space_group_name_H-M   'P 1'
_cell_length_a   10.36610000
_cell_length_b   10.54490000
_cell_length_c   13.53970000
_cell_angle_alpha   90.00000000
_cell_angle_beta   104.40100000
_cell_angle_gamma   90.00000000
_symmetry_Int_Tables_number   1
_chemical_formula_structural   SnH14C11Cl2O3
_chemical_formula_sum   'Sn4 H56 C44 Cl8 O12'
_cell_volume   1433.51377225
_cell_formula_units_Z   4
loop_
 _symmetry_equiv_pos_site_id
 _symmetry_equiv_pos_as_xyz
  1  'x, y, z'
loop_
 _atom_site_type_symbol
 _atom_site_label
 _atom_site_symmetry_multiplicity
 _atom_site_fract_x
 _atom_site_fract_y
 _atom_site_fract_z
 _atom_site_occupancy
  Sn  Sn0  1  0.06547000  0.08215000  0.25537000  1.0
  Sn  Sn1  1  0.93453000  0.58216000  0.24464000  1.0
  Sn  Sn2  1  0.93453000  0.91785000  0.74464000  1.0
  Sn  Sn3  1  0.06547000  0.41784000  0.75536000  1.0
  H  H4  1  0.32994000  0.40237000  0.46061000  1.0
  H  H5  1  0.67007000  0.90237000  0.03939000  1.0
  H  H6  1  0.67007000  0.59763000  0.53939000  1.0
  H  H7  1  0.32993000  0.09763000  0.96061000  1.0
  H  H8  1  0.38551000  0.41223000  0.34682000  1.0
  H  H9  1  0.61450000  0.91223000  0.15318000  1.0
  H  H10  1  0.61450000  0.58777000  0.65319000  1.0
  H  H11  1  0.38550000  0.08776000  0.84682000  1.0
  H  H12  1  0.42548000  0.58648000  0.24780000  1.0
  H  H13  1  0.57452000  0.08648000  0.25220000  1.0
  H  H14  1  0.57452000  0.41352000  0.75220000  1.0
  H  H15  1  0.42548000  0.91352000  0.74780000  1.0
  H  H16  1  0.61608000  0.73711000  0.26943000  1.0
  H  H17  1  0.38392000  0.23710000  0.23057000  1.0
  H  H18  1  0.38391000  0.26290000  0.73056000  1.0
  H  H19  1  0.61609000  0.76289000  0.76944000  1.0
  H  H20  1  0.53600000  0.87270000  0.54937000  1.0
  H  H21  1  0.46401000  0.37270000  0.95063000  1.0
  H  H22  1  0.46400000  0.12730000  0.45062000  1.0
  H  H23  1  0.53599000  0.62730000  0.04937000  1.0
  H  H24  1  0.22205000  0.90116000  0.36727000  1.0
  H  H25  1  0.77795000  0.40116000  0.13273000  1.0
  H  H26  1  0.77794000  0.09884000  0.63273000  1.0
  H  H27  1  0.22205000  0.59884000  0.86727000  1.0
  H  H28  1  0.31877000  0.98963000  0.29904000  1.0
  H  H29  1  0.68123000  0.48964000  0.20096000  1.0
  H  H30  1  0.68123000  0.01036000  0.70096000  1.0
  H  H31  1  0.31877000  0.51036000  0.79904000  1.0
  H  H32  1  0.20479000  0.87034000  0.23517000  1.0
  H  H33  1  0.79520000  0.37034000  0.26483000  1.0
  H  H34  1  0.79520000  0.12966000  0.76483000  1.0
  H  H35  1  0.20479000  0.62966000  0.73517000  1.0
  H  H36  1  0.97823000  0.08350000  0.04893000  1.0
  H  H37  1  0.02177000  0.58350000  0.45107000  1.0
  H  H38  1  0.02177000  0.91650000  0.95107000  1.0
  H  H39  1  0.97823000  0.41650000  0.54893000  1.0
  H  H40  1  0.11705000  0.19004000  0.08848000  1.0
  H  H41  1  0.88295000  0.69004000  0.41152000  1.0
  H  H42  1  0.88295000  0.80996000  0.91152000  1.0
  H  H43  1  0.11705000  0.30996000  0.58848000  1.0
  H  H44  1  0.95442000  0.23716000  0.09698000  1.0
  H  H45  1  0.04557000  0.73716000  0.40302000  1.0
  H  H46  1  0.04557000  0.76284000  0.90302000  1.0
  H  H47  1  0.95443000  0.26284000  0.59698000  1.0
  H  H48  1  0.99361000  0.19667000  0.41352000  1.0
  H  H49  1  0.00639000  0.69667000  0.08648000  1.0
  H  H50  1  0.00639000  0.80333000  0.58648000  1.0
  H  H51  1  0.99361000  0.30333000  0.91352000  1.0
  H  H52  1  0.95156000  0.03144000  0.40931000  1.0
  H  H53  1  0.04844000  0.53145000  0.09069000  1.0
  H  H54  1  0.04844000  0.96856000  0.59069000  1.0
  H  H55  1  0.95156000  0.46855000  0.90931000  1.0
  H  H56  1  0.84816000  0.13996000  0.32295000  1.0
  H  H57  1  0.15184000  0.63997000  0.17705000  1.0
  H  H58  1  0.15184000  0.86004000  0.67705000  1.0
  H  H59  1  0.84816000  0.36003000  0.82295000  1.0
  C  C60  1  0.18417000  0.34954000  0.32535000  1.0
  C  C61  1  0.81586000  0.84955000  0.17466000  1.0
  C  C62  1  0.81584000  0.65045000  0.67466000  1.0
  C  C63  1  0.18415000  0.15045000  0.82534000  1.0
  C  C64  1  0.30062000  0.43150000  0.37983000  1.0
  C  C65  1  0.69938000  0.93149000  0.12017000  1.0
  C  C66  1  0.69938000  0.56851000  0.62017000  1.0
  C  C67  1  0.30061000  0.06850000  0.87983000  1.0
  C  C68  1  0.37573000  0.64254000  0.38638000  1.0
  C  C69  1  0.62428000  0.14254000  0.11362000  1.0
  C  C70  1  0.62427000  0.35746000  0.61362000  1.0
  C  C71  1  0.37573000  0.85746000  0.88638000  1.0
  C  C72  1  0.45150000  0.64842000  0.31433000  1.0
  C  C73  1  0.54850000  0.14842000  0.18567000  1.0
  C  C74  1  0.54849000  0.35159000  0.68567000  1.0
  C  C75  1  0.45150000  0.85158000  0.81433000  1.0
  C  C76  1  0.55651000  0.73387000  0.32536000  1.0
  C  C77  1  0.44349000  0.23387000  0.17464000  1.0
  C  C78  1  0.44348000  0.26613000  0.67464000  1.0
  C  C79  1  0.55652000  0.76613000  0.82536000  1.0
  C  C80  1  0.58376000  0.81581000  0.40910000  1.0
  C  C81  1  0.41625000  0.31581000  0.09090000  1.0
  C  C82  1  0.41624000  0.18419000  0.59090000  1.0
  C  C83  1  0.58376000  0.68419000  0.90910000  1.0
  C  C84  1  0.51129000  0.81081000  0.48311000  1.0
  C  C85  1  0.48871000  0.31081000  0.01688000  1.0
  C  C86  1  0.48871000  0.18919000  0.51688000  1.0
  C  C87  1  0.51129000  0.68919000  0.98312000  1.0
  C  C88  1  0.40855000  0.72233000  0.47202000  1.0
  C  C89  1  0.59145000  0.22233000  0.02798000  1.0
  C  C90  1  0.59145000  0.27768000  0.52798000  1.0
  C  C91  1  0.40855000  0.77767000  0.97202000  1.0
  C  C92  1  0.22217000  0.94432000  0.29371000  1.0
  C  C93  1  0.77783000  0.44433000  0.20629000  1.0
  C  C94  1  0.77783000  0.05567000  0.70629000  1.0
  C  C95  1  0.22217000  0.55567000  0.79371000  1.0
  C  C96  1  0.02335000  0.15725000  0.10354000  1.0
  C  C97  1  0.97665000  0.65725000  0.39647000  1.0
  C  C98  1  0.97665000  0.84275000  0.89647000  1.0
  C  C99  1  0.02335000  0.34275000  0.60354000  1.0
  C  C100  1  0.95057000  0.11758000  0.36385000  1.0
  C  C101  1  0.04943000  0.61758000  0.13616000  1.0
  C  C102  1  0.04943000  0.88242000  0.63615000  1.0
  C  C103  1  0.95057000  0.38242000  0.86385000  1.0
  Cl  Cl104  1  0.70989000  0.92714000  0.42113000  1.0
  Cl  Cl105  1  0.29011000  0.42714000  0.07887000  1.0
  Cl  Cl106  1  0.29011000  0.07286000  0.57887000  1.0
  Cl  Cl107  1  0.70989000  0.57286000  0.92113000  1.0
  Cl  Cl108  1  0.32189000  0.70934000  0.56503000  1.0
  Cl  Cl109  1  0.67811000  0.20933000  0.93496000  1.0
  Cl  Cl110  1  0.67811000  0.29067000  0.43497000  1.0
  Cl  Cl111  1  0.32189000  0.79066000  0.06503000  1.0
  O  O112  1  0.21787000  0.23283000  0.32010000  1.0
  O  O113  1  0.78212000  0.73282000  0.17990000  1.0
  O  O114  1  0.78213000  0.76717000  0.67990000  1.0
  O  O115  1  0.21788000  0.26717000  0.82010000  1.0
  O  O116  1  0.06860000  0.39221000  0.29163000  1.0
  O  O117  1  0.93138000  0.89220000  0.20836000  1.0
  O  O118  1  0.93139000  0.60779000  0.70837000  1.0
  O  O119  1  0.06861000  0.10780000  0.79163000  1.0
  O  O120  1  0.26722000  0.56345000  0.37286000  1.0
  O  O121  1  0.73278000  0.06345000  0.12714000  1.0
  O  O122  1  0.73278000  0.43655000  0.62714000  1.0
  O  O123  1  0.26722000  0.93654000  0.87286000  1.0
