# generated using pymatgen
data_CuH26C24N4O5
_symmetry_space_group_name_H-M   'P 1'
_cell_length_a   6.84411000
_cell_length_b   10.08000000
_cell_length_c   16.63010000
_cell_angle_alpha   86.67900000
_cell_angle_beta   83.51830000
_cell_angle_gamma   80.52930000
_symmetry_Int_Tables_number   1
_chemical_formula_structural   CuH26C24N4O5
_chemical_formula_sum   'Cu2 H52 C48 N8 O10'
_cell_volume   1123.50964673
_cell_formula_units_Z   2
loop_
 _symmetry_equiv_pos_site_id
 _symmetry_equiv_pos_as_xyz
  1  'x, y, z'
loop_
 _atom_site_type_symbol
 _atom_site_label
 _atom_site_symmetry_multiplicity
 _atom_site_fract_x
 _atom_site_fract_y
 _atom_site_fract_z
 _atom_site_occupancy
  Cu  Cu0  1  0.07104000  0.16333000  0.24670000  1.0
  Cu  Cu1  1  0.92897000  0.83666000  0.75330000  1.0
  H  H2  1  0.51584000  0.16763000  0.24368000  1.0
  H  H3  1  0.48417000  0.83237000  0.75632000  1.0
  H  H4  1  0.35563000  0.30340000  0.23788000  1.0
  H  H5  1  0.64437000  0.69660000  0.76212000  1.0
  H  H6  1  0.78863000  0.29359000  0.60694000  1.0
  H  H7  1  0.21137000  0.70641000  0.39306000  1.0
  H  H8  1  0.94480000  0.41270000  0.57306000  1.0
  H  H9  1  0.05520000  0.58730000  0.42693000  1.0
  H  H10  1  0.97851000  0.42506000  0.92092000  1.0
  H  H11  1  0.02149000  0.57494000  0.07908000  1.0
  H  H12  1  0.83401000  0.30943000  0.89199000  1.0
  H  H13  1  0.16599000  0.69057000  0.10802000  1.0
  H  H14  1  0.14953000  0.14521000  0.89255000  1.0
  H  H15  1  0.85046000  0.85479000  0.10745000  1.0
  H  H16  1  0.45586000  0.32635000  0.55637000  1.0
  H  H17  1  0.54414000  0.67365000  0.44363000  1.0
  H  H18  1  0.59431000  0.26596000  0.46452000  1.0
  H  H19  1  0.40570000  0.73404000  0.53548000  1.0
  H  H20  1  0.34748000  0.97032000  0.97734000  1.0
  H  H21  1  0.65251000  0.02968000  0.02266000  1.0
  H  H22  1  0.59208000  0.26958000  0.05031000  1.0
  H  H23  1  0.40792000  0.73042000  0.94969000  1.0
  H  H24  1  0.49006000  0.32157000  0.95684000  1.0
  H  H25  1  0.50994000  0.67843000  0.04316000  1.0
  H  H26  1  0.73900000  0.60723000  0.55984000  1.0
  H  H27  1  0.26100000  0.39277000  0.44016000  1.0
  H  H28  1  0.54183000  0.53328000  0.61328000  1.0
  H  H29  1  0.45818000  0.46672000  0.38672000  1.0
  H  H30  1  0.58403000  0.52961000  0.88347000  1.0
  H  H31  1  0.41597000  0.47039000  0.11653000  1.0
  H  H32  1  0.75411000  0.61373000  0.92566000  1.0
  H  H33  1  0.24589000  0.38627000  0.07434000  1.0
  H  H34  1  0.12817000  0.13719000  0.59660000  1.0
  H  H35  1  0.87183000  0.86281000  0.40340000  1.0
  H  H36  1  0.48904000  0.92004000  0.24666000  1.0
  H  H37  1  0.51096000  0.07996000  0.75333000  1.0
  H  H38  1  0.29208000  0.98398000  0.12883000  1.0
  H  H39  1  0.70792000  0.01602000  0.87117000  1.0
  H  H40  1  0.62190000  0.48760000  0.23607000  1.0
  H  H41  1  0.37810000  0.51240000  0.76393000  1.0
  H  H42  1  0.34795000  0.97229000  0.50587000  1.0
  H  H43  1  0.65206000  0.02771000  0.49413000  1.0
  H  H44  1  0.37832000  0.69826000  0.23224000  1.0
  H  H45  1  0.62168000  0.30174000  0.76775000  1.0
  H  H46  1  0.86909000  0.32285000  0.38554000  1.0
  H  H47  1  0.13092000  0.67715000  0.61446000  1.0
  H  H48  1  0.31805000  0.99372000  0.35652000  1.0
  H  H49  1  0.68195000  0.00628000  0.64348000  1.0
  H  H50  1  0.86137000  0.32245000  0.11373000  1.0
  H  H51  1  0.13863000  0.67755000  0.88627000  1.0
  H  H52  1  0.08532000  0.71488000  0.26635000  1.0
  H  H53  1  0.91468000  0.28512000  0.73365000  1.0
  C  C54  1  0.84994000  0.34654000  0.55156000  1.0
  C  C55  1  0.15007000  0.65346000  0.44844000  1.0
  C  C56  1  0.87483000  0.35611000  0.94556000  1.0
  C  C57  1  0.12517000  0.64389000  0.05444000  1.0
  C  C58  1  0.12837000  0.14715000  0.95843000  1.0
  C  C59  1  0.87162000  0.85285000  0.04157000  1.0
  C  C60  1  0.53307000  0.35757000  0.49754000  1.0
  C  C61  1  0.46693000  0.64243000  0.50246000  1.0
  C  C62  1  0.23938000  0.05055000  0.00524000  1.0
  C  C63  1  0.76062000  0.94945000  0.99475000  1.0
  C  C64  1  0.54100000  0.35782000  0.01169000  1.0
  C  C65  1  0.45899000  0.64218000  0.98831000  1.0
  C  C66  1  0.98848000  0.24763000  0.99615000  1.0
  C  C67  1  0.01152000  0.75237000  0.00385000  1.0
  C  C68  1  0.61525000  0.55409000  0.55195000  1.0
  C  C69  1  0.38475000  0.44591000  0.44805000  1.0
  C  C70  1  0.63182000  0.55587000  0.94129000  1.0
  C  C71  1  0.36818000  0.44414000  0.05872000  1.0
  C  C72  1  0.11848000  0.14362000  0.53159000  1.0
  C  C73  1  0.88152000  0.85638000  0.46841000  1.0
  C  C74  1  0.98086000  0.24397000  0.49837000  1.0
  C  C75  1  0.01915000  0.75603000  0.50163000  1.0
  C  C76  1  0.59368000  0.82623000  0.24881000  1.0
  C  C77  1  0.40632000  0.17376000  0.75119000  1.0
  C  C78  1  0.20945000  0.05686000  0.08916000  1.0
  C  C79  1  0.79055000  0.94314000  0.91084000  1.0
  C  C80  1  0.86932000  0.58763000  0.25202000  1.0
  C  C81  1  0.13068000  0.41237000  0.74798000  1.0
  C  C82  1  0.66929000  0.58409000  0.24224000  1.0
  C  C83  1  0.33071000  0.41591000  0.75776000  1.0
  C  C84  1  0.24186000  0.05249000  0.48122000  1.0
  C  C85  1  0.75814000  0.94751000  0.51878000  1.0
  C  C86  1  0.53265000  0.70301000  0.24038000  1.0
  C  C87  1  0.46735000  0.29699000  0.75962000  1.0
  C  C88  1  0.97319000  0.24710000  0.41477000  1.0
  C  C89  1  0.02681000  0.75290000  0.58523000  1.0
  C  C90  1  0.86015000  0.96433000  0.26422000  1.0
  C  C91  1  0.13985000  0.03567000  0.73578000  1.0
  C  C92  1  0.79353000  0.83110000  0.25829000  1.0
  C  C93  1  0.20647000  0.16890000  0.74171000  1.0
  C  C94  1  0.22552000  0.06300000  0.39839000  1.0
  C  C95  1  0.77448000  0.93700000  0.60161000  1.0
  C  C96  1  0.96629000  0.24620000  0.08073000  1.0
  C  C97  1  0.03371000  0.75380000  0.91927000  1.0
  C  C98  1  0.93006000  0.71155000  0.25959000  1.0
  C  C99  1  0.06994000  0.28845000  0.74041000  1.0
  C  C100  1  0.01886000  0.45975000  0.25250000  1.0
  C  C101  1  0.98114000  0.54025000  0.74750000  1.0
  N  N102  1  0.70381000  0.43496000  0.98930000  1.0
  N  N103  1  0.29619000  0.56504000  0.01070000  1.0
  N  N104  1  0.69517000  0.42975000  0.51024000  1.0
  N  N105  1  0.30483000  0.57025000  0.48976000  1.0
  N  N106  1  0.07555000  0.15343000  0.12583000  1.0
  N  N107  1  0.92445000  0.84657000  0.87417000  1.0
  N  N108  1  0.09280000  0.15884000  0.36611000  1.0
  N  N109  1  0.90720000  0.84115000  0.63389000  1.0
  O  O110  1  0.73363000  0.06865000  0.27708000  1.0
  O  O111  1  0.26637000  0.93135000  0.72292000  1.0
  O  O112  1  0.94349000  0.35329000  0.24254000  1.0
  O  O113  1  0.05650000  0.64671000  0.75747000  1.0
  O  O114  1  0.19761000  0.46343000  0.26171000  1.0
  O  O115  1  0.80238000  0.53657000  0.73830000  1.0
  O  O116  1  0.05078000  0.96404000  0.25497000  1.0
  O  O117  1  0.94921000  0.03596000  0.74503000  1.0
  O  O118  1  0.39983000  0.21208000  0.21655000  1.0
  O  O119  1  0.60017000  0.78792000  0.78345000  1.0
