# generated using pymatgen
data_CdH19C29(NO)4
_symmetry_space_group_name_H-M   'P 1'
_cell_length_a   8.63712000
_cell_length_b   10.23740000
_cell_length_c   14.42880000
_cell_angle_alpha   84.96310000
_cell_angle_beta   77.15210000
_cell_angle_gamma   71.33970000
_symmetry_Int_Tables_number   1
_chemical_formula_structural   CdH19C29(NO)4
_chemical_formula_sum   'Cd2 H38 C58 N8 O8'
_cell_volume   1178.29735291
_cell_formula_units_Z   2
loop_
 _symmetry_equiv_pos_site_id
 _symmetry_equiv_pos_as_xyz
  1  'x, y, z'
loop_
 _atom_site_type_symbol
 _atom_site_label
 _atom_site_symmetry_multiplicity
 _atom_site_fract_x
 _atom_site_fract_y
 _atom_site_fract_z
 _atom_site_occupancy
  Cd  Cd0  1  0.15553000  0.83379000  0.44558000  1.0
  Cd  Cd1  1  0.84446000  0.16621000  0.55442000  1.0
  H  H2  1  0.16157000  0.30376000  0.44246000  1.0
  H  H3  1  0.83843000  0.69624000  0.55754000  1.0
  H  H4  1  0.08587000  0.61084000  0.22073000  1.0
  H  H5  1  0.91412000  0.38916000  0.77927000  1.0
  H  H6  1  0.40841000  0.89154000  0.23082000  1.0
  H  H7  1  0.59159000  0.10846000  0.76918000  1.0
  H  H8  1  0.15720000  0.61550000  0.07033000  1.0
  H  H9  1  0.84280000  0.38450000  0.92967000  1.0
  H  H10  1  0.84031000  0.68440000  0.34344000  1.0
  H  H11  1  0.15969000  0.31561000  0.65656000  1.0
  H  H12  1  0.26200000  0.63026000  0.64801000  1.0
  H  H13  1  0.73800000  0.36974000  0.35199000  1.0
  H  H14  1  0.06768000  0.20306000  0.18157000  1.0
  H  H15  1  0.93232000  0.79694000  0.81843000  1.0
  H  H16  1  0.56267000  0.63788000  0.46123000  1.0
  H  H17  1  0.43733000  0.36213000  0.53877000  1.0
  H  H18  1  0.92367000  0.86753000  0.27218000  1.0
  H  H19  1  0.07633000  0.13247000  0.72782000  1.0
  H  H20  1  0.08847000  0.96799000  0.14777000  1.0
  H  H21  1  0.91153000  0.03201000  0.85223000  1.0
  H  H22  1  0.77893000  0.94939000  0.95342000  1.0
  H  H23  1  0.22107000  0.05061000  0.04658000  1.0
  H  H24  1  0.51805000  0.35298000  0.87712000  1.0
  H  H25  1  0.48196000  0.64702000  0.12287000  1.0
  H  H26  1  0.61517000  0.84450000  0.08007000  1.0
  H  H27  1  0.38483000  0.15550000  0.91993000  1.0
  H  H28  1  0.90148000  0.31221000  0.08697000  1.0
  H  H29  1  0.09852000  0.68779000  0.91303000  1.0
  H  H30  1  0.40596000  0.85896000  0.85240000  1.0
  H  H31  1  0.59404000  0.14104000  0.14760000  1.0
  H  H32  1  0.35022000  0.00259000  0.54101000  1.0
  H  H33  1  0.64978000  0.99741000  0.45899000  1.0
  H  H34  1  0.45618000  0.73986000  0.00181000  1.0
  H  H35  1  0.54381000  0.26014000  0.99819000  1.0
  H  H36  1  0.47666000  0.47206000  0.72647000  1.0
  H  H37  1  0.52334000  0.52794000  0.27352000  1.0
  H  H38  1  0.50883000  0.90942000  0.69365000  1.0
  H  H39  1  0.49117000  0.09058000  0.30635000  1.0
  C  C40  1  0.13802000  0.33370000  0.37138000  1.0
  C  C41  1  0.86198000  0.66630000  0.62861000  1.0
  C  C42  1  0.09576000  0.50534000  0.24528000  1.0
  C  C43  1  0.90423000  0.49466000  0.75472000  1.0
  C  C44  1  0.12780000  0.46706000  0.33631000  1.0
  C  C45  1  0.87220000  0.53294000  0.66369000  1.0
  C  C46  1  0.48728000  0.82429000  0.27570000  1.0
  C  C47  1  0.51272000  0.17571000  0.72430000  1.0
  C  C48  1  0.08629000  0.56494000  0.04064000  1.0
  C  C49  1  0.91371000  0.43506000  0.95936000  1.0
  C  C50  1  0.71078000  0.71608000  0.33677000  1.0
  C  C51  1  0.28922000  0.28392000  0.66323000  1.0
  C  C52  1  0.30667000  0.71916000  0.63848000  1.0
  C  C53  1  0.69332000  0.28084000  0.36152000  1.0
  C  C54  1  0.08409000  0.27929000  0.22350000  1.0
  C  C55  1  0.91591000  0.72071000  0.77650000  1.0
  C  C56  1  0.07296000  0.41298000  0.18705000  1.0
  C  C57  1  0.92704000  0.58702000  0.81295000  1.0
  C  C58  1  0.57076000  0.69676000  0.39504000  1.0
  C  C59  1  0.42924000  0.30324000  0.60496000  1.0
  C  C60  1  0.03572000  0.45703000  0.09182000  1.0
  C  C61  1  0.96428000  0.54297000  0.90818000  1.0
  C  C62  1  0.11508000  0.23987000  0.31481000  1.0
  C  C63  1  0.88492000  0.76013000  0.68519000  1.0
  C  C64  1  0.89190000  0.88458000  0.20223000  1.0
  C  C65  1  0.10810000  0.11542000  0.79777000  1.0
  C  C66  1  0.98648000  0.94184000  0.12947000  1.0
  C  C67  1  0.01352000  0.05816000  0.87053000  1.0
  C  C68  1  0.81230000  0.93326000  0.02297000  1.0
  C  C69  1  0.18770000  0.06674000  0.97703000  1.0
  C  C70  1  0.75633000  0.85076000  0.18519000  1.0
  C  C71  1  0.24367000  0.14924000  0.81481000  1.0
  C  C72  1  0.49378000  0.46419000  0.87371000  1.0
  C  C73  1  0.50622000  0.53581000  0.12629000  1.0
  C  C74  1  0.71741000  0.87452000  0.09488000  1.0
  C  C75  1  0.28259000  0.12547000  0.90512000  1.0
  C  C76  1  0.94788000  0.39345000  0.04894000  1.0
  C  C77  1  0.05212000  0.60656000  0.95106000  1.0
  C  C78  1  0.94939000  0.96876000  0.03819000  1.0
  C  C79  1  0.05061000  0.03124000  0.96181000  1.0
  C  C80  1  0.43415000  0.74736000  0.85753000  1.0
  C  C81  1  0.56585000  0.25264000  0.14247000  1.0
  C  C82  1  0.14608000  0.57206000  0.39625000  1.0
  C  C83  1  0.85392000  0.42794000  0.60375000  1.0
  C  C84  1  0.12219000  0.09708000  0.35117000  1.0
  C  C85  1  0.87781000  0.90292000  0.64883000  1.0
  C  C86  1  0.35592000  0.91155000  0.58628000  1.0
  C  C87  1  0.64407000  0.08845000  0.41373000  1.0
  C  C88  1  0.48908000  0.53564000  0.95390000  1.0
  C  C89  1  0.51091000  0.46436000  0.04610000  1.0
  C  C90  1  0.46110000  0.67867000  0.94262000  1.0
  C  C91  1  0.53890000  0.32133000  0.05738000  1.0
  C  C92  1  0.46876000  0.53095000  0.78764000  1.0
  C  C93  1  0.53124000  0.46905000  0.21236000  1.0
  C  C94  1  0.43655000  0.67369000  0.77992000  1.0
  C  C95  1  0.56345000  0.32631000  0.22008000  1.0
  C  C96  1  0.43232000  0.86823000  0.66201000  1.0
  C  C97  1  0.56768000  0.13177000  0.33799000  1.0
  N  N98  1  0.27783000  0.81799000  0.57291000  1.0
  N  N99  1  0.72217000  0.18201000  0.42709000  1.0
  N  N100  1  0.65690000  0.79642000  0.26041000  1.0
  N  N101  1  0.34310000  0.20358000  0.73959000  1.0
  N  N102  1  0.43250000  0.76580000  0.35663000  1.0
  N  N103  1  0.56750000  0.23420000  0.64337000  1.0
  N  N104  1  0.39989000  0.74626000  0.69514000  1.0
  N  N105  1  0.60011000  0.25375000  0.30486000  1.0
  O  O106  1  0.13570000  0.00514000  0.29453000  1.0
  O  O107  1  0.86431000  0.99486000  0.70547000  1.0
  O  O108  1  0.06343000  0.69855000  0.37755000  1.0
  O  O109  1  0.93657000  0.30145000  0.62245000  1.0
  O  O110  1  0.23501000  0.53685000  0.45741000  1.0
  O  O111  1  0.76499000  0.46315000  0.54260000  1.0
  O  O112  1  0.11603000  0.07248000  0.44146000  1.0
  O  O113  1  0.88397000  0.92752000  0.55854000  1.0
