# generated using pymatgen
data_NiH10C17N3O4
_symmetry_space_group_name_H-M   'P 1'
_cell_length_a   11.65100000
_cell_length_b   14.77790000
_cell_length_c   14.77800000
_cell_angle_alpha   96.54030000
_cell_angle_beta   107.62200000
_cell_angle_gamma   107.62200000
_symmetry_Int_Tables_number   1
_chemical_formula_structural   NiH10C17N3O4
_chemical_formula_sum   'Ni4 H40 C68 N12 O16'
_cell_volume   2251.28744396
_cell_formula_units_Z   4
loop_
 _symmetry_equiv_pos_site_id
 _symmetry_equiv_pos_as_xyz
  1  'x, y, z'
loop_
 _atom_site_type_symbol
 _atom_site_label
 _atom_site_symmetry_multiplicity
 _atom_site_fract_x
 _atom_site_fract_y
 _atom_site_fract_z
 _atom_site_occupancy
  Ni  Ni0  1  0.61027000  0.69067000  0.93156000  1.0
  Ni  Ni1  1  0.38973000  0.06844000  0.30933000  1.0
  Ni  Ni2  1  0.38973000  0.30933000  0.06844000  1.0
  Ni  Ni3  1  0.61027000  0.93156000  0.69067000  1.0
  H  H4  1  0.43233000  0.77600000  0.99085000  1.0
  H  H5  1  0.56767000  0.00915000  0.22400000  1.0
  H  H6  1  0.56767000  0.22400000  0.00915000  1.0
  H  H7  1  0.43233000  0.99085000  0.77600000  1.0
  H  H8  1  0.20236000  0.71533000  0.97682000  1.0
  H  H9  1  0.79764000  0.02318000  0.28467000  1.0
  H  H10  1  0.79764000  0.28467000  0.02318000  1.0
  H  H11  1  0.20236000  0.97682000  0.71533000  1.0
  H  H12  1  0.16696000  0.43481000  0.82500000  1.0
  H  H13  1  0.83304000  0.17500000  0.56519000  1.0
  H  H14  1  0.83304000  0.56519000  0.17500000  1.0
  H  H15  1  0.16696000  0.82500000  0.43481000  1.0
  H  H16  1  0.40150000  0.50856000  0.84632000  1.0
  H  H17  1  0.59850000  0.15368000  0.49144000  1.0
  H  H18  1  0.59850000  0.49144000  0.15368000  1.0
  H  H19  1  0.40150000  0.84632000  0.50856000  1.0
  H  H20  1  0.00009000  0.66339000  0.93100000  1.0
  H  H21  1  0.99991000  0.06900000  0.33662000  1.0
  H  H22  1  0.99991000  0.33661000  0.06900000  1.0
  H  H23  1  0.00009000  0.93100000  0.66338000  1.0
  H  H24  1  0.66525000  0.40364000  0.83680000  1.0
  H  H25  1  0.33474000  0.16320000  0.59636000  1.0
  H  H26  1  0.33475000  0.59636000  0.16320000  1.0
  H  H27  1  0.66526000  0.83680000  0.40364000  1.0
  H  H28  1  0.52364000  0.09776000  0.62813000  1.0
  H  H29  1  0.47636000  0.37187000  0.90224000  1.0
  H  H30  1  0.47636000  0.90224000  0.37187000  1.0
  H  H31  1  0.52364000  0.62813000  0.09776000  1.0
  H  H32  1  0.60789000  0.27843000  0.68861000  1.0
  H  H33  1  0.39211000  0.31139000  0.72157000  1.0
  H  H34  1  0.39211000  0.72157000  0.31139000  1.0
  H  H35  1  0.60789000  0.68861000  0.27843000  1.0
  H  H36  1  0.95411000  0.25504000  0.88209000  1.0
  H  H37  1  0.04589000  0.11791000  0.74496000  1.0
  H  H38  1  0.04589000  0.74496000  0.11791000  1.0
  H  H39  1  0.95411000  0.88209000  0.25504000  1.0
  H  H40  1  0.85055000  0.07274000  0.81801000  1.0
  H  H41  1  0.14945000  0.18199000  0.92726000  1.0
  H  H42  1  0.14945000  0.92726000  0.18199000  1.0
  H  H43  1  0.85055000  0.81801000  0.07274000  1.0
  C  C44  1  0.36970000  0.70079000  0.95487000  1.0
  C  C45  1  0.63030000  0.04513000  0.29921000  1.0
  C  C46  1  0.63030000  0.29921000  0.04513000  1.0
  C  C47  1  0.36970000  0.95487000  0.70079000  1.0
  C  C48  1  0.24091000  0.66615000  0.94578000  1.0
  C  C49  1  0.75909000  0.05422000  0.33385000  1.0
  C  C50  1  0.75909000  0.33385000  0.05422000  1.0
  C  C51  1  0.24091000  0.94578000  0.66615000  1.0
  C  C52  1  0.16400000  0.56888000  0.89814000  1.0
  C  C53  1  0.83600000  0.10186000  0.43112000  1.0
  C  C54  1  0.83600000  0.43112000  0.10186000  1.0
  C  C55  1  0.16400000  0.89814000  0.56887000  1.0
  C  C56  1  0.22295000  0.51077000  0.86194000  1.0
  C  C57  1  0.77705000  0.13806000  0.48923000  1.0
  C  C58  1  0.77705000  0.48923000  0.13806000  1.0
  C  C59  1  0.22295000  0.86194000  0.51077000  1.0
  C  C60  1  0.35199000  0.55075000  0.87365000  1.0
  C  C61  1  0.64801000  0.12635000  0.44925000  1.0
  C  C62  1  0.64801000  0.44925000  0.12635000  1.0
  C  C63  1  0.35199000  0.87365000  0.55075000  1.0
  C  C64  1  0.02565000  0.52703000  0.88442000  1.0
  C  C65  1  0.97435000  0.11559000  0.47297000  1.0
  C  C66  1  0.97435000  0.47297000  0.11558000  1.0
  C  C67  1  0.02565000  0.88442000  0.52703000  1.0
  C  C68  1  0.95617000  0.58464000  0.90411000  1.0
  C  C69  1  0.04383000  0.09589000  0.41536000  1.0
  C  C70  1  0.04383000  0.41536000  0.09589000  1.0
  C  C71  1  0.95617000  0.90411000  0.58464000  1.0
  C  C72  1  0.82544000  0.53986000  0.88793000  1.0
  C  C73  1  0.17456000  0.11207000  0.46014000  1.0
  C  C74  1  0.17456000  0.46014000  0.11207000  1.0
  C  C75  1  0.82544000  0.88793000  0.53986000  1.0
  C  C76  1  0.76706000  0.43964000  0.84957000  1.0
  C  C77  1  0.23294000  0.15043000  0.56036000  1.0
  C  C78  1  0.23294000  0.56036000  0.15043000  1.0
  C  C79  1  0.76706000  0.84957000  0.43964000  1.0
  C  C80  1  0.84309000  0.38756000  0.83130000  1.0
  C  C81  1  0.15691000  0.16870000  0.61244000  1.0
  C  C82  1  0.15692000  0.61244000  0.16870000  1.0
  C  C83  1  0.84309000  0.83130000  0.38756000  1.0
  C  C84  1  0.61712000  0.13506000  0.68627000  1.0
  C  C85  1  0.38288000  0.31373000  0.86494000  1.0
  C  C86  1  0.38288000  0.86494000  0.31372000  1.0
  C  C87  1  0.61712000  0.68628000  0.13506000  1.0
  C  C88  1  0.66459000  0.23562000  0.72031000  1.0
  C  C89  1  0.33541000  0.27969000  0.76438000  1.0
  C  C90  1  0.33541000  0.76438000  0.27969000  1.0
  C  C91  1  0.66459000  0.72031000  0.23562000  1.0
  C  C92  1  0.78737000  0.28098000  0.79240000  1.0
  C  C93  1  0.21263000  0.20760000  0.71902000  1.0
  C  C94  1  0.21263000  0.71902000  0.20760000  1.0
  C  C95  1  0.78737000  0.79240000  0.28098000  1.0
  C  C96  1  0.85746000  0.22214000  0.82717000  1.0
  C  C97  1  0.14254000  0.17283000  0.77786000  1.0
  C  C98  1  0.14254000  0.77786000  0.17283000  1.0
  C  C99  1  0.85746000  0.82717000  0.22214000  1.0
  C  C100  1  0.80165000  0.12195000  0.79158000  1.0
  C  C101  1  0.19835000  0.20842000  0.87805000  1.0
  C  C102  1  0.19835000  0.87805000  0.20842000  1.0
  C  C103  1  0.80165000  0.79158000  0.12195000  1.0
  C  C104  1  0.74881000  0.59834000  0.91093000  1.0
  C  C105  1  0.25118000  0.08907000  0.40167000  1.0
  C  C106  1  0.25119000  0.40167000  0.08907000  1.0
  C  C107  1  0.74882000  0.91093000  0.59834000  1.0
  C  C108  1  0.57538000  0.76530000  0.76530000  1.0
  C  C109  1  0.42463000  0.23471000  0.23470000  1.0
  C  C110  1  0.61690000  0.85239000  0.85239000  1.0
  C  C111  1  0.38310000  0.14761000  0.14761000  1.0
  N  N112  1  0.42489000  0.64409000  0.91965000  1.0
  N  N113  1  0.57511000  0.08035000  0.35591000  1.0
  N  N114  1  0.57511000  0.35591000  0.08035000  1.0
  N  N115  1  0.42489000  0.91965000  0.64410000  1.0
  N  N116  1  0.96965000  0.42987000  0.84996000  1.0
  N  N117  1  0.03035000  0.15004000  0.57013000  1.0
  N  N118  1  0.03035000  0.57013000  0.15004000  1.0
  N  N119  1  0.96965000  0.84996000  0.42987000  1.0
  N  N120  1  0.68347000  0.07879000  0.72210000  1.0
  N  N121  1  0.31653000  0.27790000  0.92121000  1.0
  N  N122  1  0.31653000  0.92121000  0.27790000  1.0
  N  N123  1  0.68347000  0.72210000  0.07879000  1.0
  O  O124  1  0.63464000  0.55346000  0.90814000  1.0
  O  O125  1  0.36536000  0.09186000  0.44654000  1.0
  O  O126  1  0.36536000  0.44654000  0.09186000  1.0
  O  O127  1  0.63464000  0.90813000  0.55346000  1.0
  O  O128  1  0.79862000  0.69089000  0.93198000  1.0
  O  O129  1  0.20138000  0.06802000  0.30911000  1.0
  O  O130  1  0.20138000  0.30911000  0.06802000  1.0
  O  O131  1  0.79862000  0.93198000  0.69089000  1.0
  O  O132  1  0.55897000  0.68174000  0.78405000  1.0
  O  O133  1  0.44103000  0.21595000  0.31826000  1.0
  O  O134  1  0.44103000  0.31826000  0.21595000  1.0
  O  O135  1  0.55897000  0.78405000  0.68174000  1.0
  O  O136  1  0.63161000  0.83414000  0.93620000  1.0
  O  O137  1  0.36839000  0.06379000  0.16586000  1.0
  O  O138  1  0.36839000  0.16586000  0.06380000  1.0
  O  O139  1  0.63161000  0.93621000  0.83414000  1.0
