# generated using pymatgen
data_Al2H18C29O10
_symmetry_space_group_name_H-M   'P 1'
_cell_length_a   6.91193000
_cell_length_b   16.71680000
_cell_length_c   19.65150000
_cell_angle_alpha   71.09190000
_cell_angle_beta   89.76600000
_cell_angle_gamma   89.80460000
_symmetry_Int_Tables_number   1
_chemical_formula_structural   Al2H18C29O10
_chemical_formula_sum   'Al4 H36 C58 O20'
_cell_volume   2148.09161924
_cell_formula_units_Z   2
loop_
 _symmetry_equiv_pos_site_id
 _symmetry_equiv_pos_as_xyz
  1  'x, y, z'
loop_
 _atom_site_type_symbol
 _atom_site_label
 _atom_site_symmetry_multiplicity
 _atom_site_fract_x
 _atom_site_fract_y
 _atom_site_fract_z
 _atom_site_occupancy
  Al  Al0  1  0.09657000  0.50070000  0.50022000  1.0
  Al  Al1  1  0.59650000  0.49904000  0.50084000  1.0
  Al  Al2  1  0.62969000  0.99883000  0.00063000  1.0
  Al  Al3  1  0.12960000  0.00091000  0.00004000  1.0
  H  H4  1  0.55288000  0.30157000  0.69555000  1.0
  H  H5  1  0.04753000  0.69672000  0.30515000  1.0
  H  H6  1  0.57192000  0.18523000  0.81418000  1.0
  H  H7  1  0.06582000  0.81380000  0.18704000  1.0
  H  H8  1  0.32341000  0.15956000  0.77787000  1.0
  H  H9  1  0.81571000  0.83894000  0.22001000  1.0
  H  H10  1  0.32349000  0.23536000  0.82455000  1.0
  H  H11  1  0.81813000  0.76216000  0.17424000  1.0
  H  H12  1  0.30433000  0.27891000  0.65884000  1.0
  H  H13  1  0.79772000  0.72103000  0.33975000  1.0
  H  H14  1  0.30246000  0.35427000  0.70551000  1.0
  H  H15  1  0.79878000  0.64447000  0.29431000  1.0
  H  H16  1  0.11561000  0.41229000  0.33006000  1.0
  H  H17  1  0.08587000  0.59216000  0.67170000  1.0
  H  H18  1  0.42175000  0.19079000  0.36339000  1.0
  H  H19  1  0.79627000  0.80501000  0.63284000  1.0
  H  H20  1  0.42733000  0.11486000  0.27630000  1.0
  H  H21  1  0.80737000  0.87967000  0.72073000  1.0
  H  H22  1  0.59030000  0.08093000  0.17511000  1.0
  H  H23  1  0.65922000  0.91433000  0.82405000  1.0
  H  H24  1  0.14809000  0.18655000  0.09994000  1.0
  H  H25  1  0.09920000  0.81576000  0.90369000  1.0
  H  H26  1  0.29488000  0.29324000  0.14754000  1.0
  H  H27  1  0.93729000  0.71145000  0.85698000  1.0
  H  H28  1  0.28318000  0.37575000  0.23176000  1.0
  H  H29  1  0.93135000  0.63043000  0.77164000  1.0
  H  H30  1  0.49117000  0.21726000  0.45338000  1.0
  H  H31  1  0.58419000  0.29764000  0.48455000  1.0
  H  H32  1  0.40742000  0.32283000  0.41584000  1.0
  H  H33  1  0.71566000  0.77967000  0.54353000  1.0
  H  H34  1  0.79415000  0.67321000  0.58060000  1.0
  H  H35  1  0.61340000  0.70036000  0.51320000  1.0
  H  H36  1  0.34319000  0.39421000  0.50125000  1.0
  H  H37  1  0.84570000  0.60773000  0.49456000  1.0
  H  H38  1  0.38157000  0.10992000  0.98786000  1.0
  H  H39  1  0.88325000  0.88971000  0.01310000  1.0
  C  C40  1  0.34960000  0.58654000  0.57654000  1.0
  C  C41  1  0.84665000  0.41356000  0.42406000  1.0
  C  C42  1  0.34413000  0.61436000  0.38920000  1.0
  C  C43  1  0.85004000  0.38519000  0.61149000  1.0
  C  C44  1  0.03069000  0.28419000  0.71427000  1.0
  C  C45  1  0.52516000  0.71422000  0.28522000  1.0
  C  C46  1  0.85715000  0.31619000  0.68160000  1.0
  C  C47  1  0.35203000  0.68244000  0.31856000  1.0
  C  C48  1  0.69076000  0.27823000  0.71954000  1.0
  C  C49  1  0.18527000  0.72007000  0.28086000  1.0
  C  C50  1  0.70122000  0.21366000  0.78545000  1.0
  C  C51  1  0.19524000  0.78489000  0.21515000  1.0
  C  C52  1  0.87813000  0.18179000  0.81817000  1.0
  C  C53  1  0.37176000  0.81661000  0.18173000  1.0
  C  C54  1  0.04145000  0.21906000  0.77994000  1.0
  C  C55  1  0.53532000  0.77878000  0.21914000  1.0
  C  C56  1  0.25834000  0.21857000  0.78020000  1.0
  C  C57  1  0.75215000  0.77952000  0.21839000  1.0
  C  C58  1  0.24578000  0.29287000  0.70581000  1.0
  C  C59  1  0.74030000  0.70601000  0.29330000  1.0
  C  C60  1  0.00083000  0.36787000  0.32952000  1.0
  C  C61  1  0.20458000  0.63514000  0.67135000  1.0
  C  C62  1  0.84596000  0.35826000  0.37762000  1.0
  C  C63  1  0.35591000  0.64281000  0.62213000  1.0
  C  C64  1  0.69455000  0.30053000  0.38064000  1.0
  C  C65  1  0.51214000  0.69867000  0.61792000  1.0
  C  C66  1  0.69794000  0.25524000  0.33074000  1.0
  C  C67  1  0.51789000  0.74367000  0.66797000  1.0
  C  C68  1  0.85512000  0.26616000  0.28076000  1.0
  C  C69  1  0.36508000  0.73424000  0.71948000  1.0
  C  C70  1  0.00935000  0.32293000  0.28067000  1.0
  C  C71  1  0.20532000  0.67975000  0.72055000  1.0
  C  C72  1  0.54543000  0.19843000  0.32740000  1.0
  C  C73  1  0.67590000  0.79843000  0.67013000  1.0
  C  C74  1  0.54772000  0.15598000  0.27861000  1.0
  C  C75  1  0.68308000  0.84013000  0.71939000  1.0
  C  C76  1  0.70476000  0.16486000  0.22900000  1.0
  C  C77  1  0.53104000  0.83252000  0.77075000  1.0
  C  C78  1  0.86009000  0.22030000  0.23107000  1.0
  C  C79  1  0.37015000  0.77935000  0.76971000  1.0
  C  C80  1  0.02077000  0.22938000  0.18291000  1.0
  C  C81  1  0.21392000  0.77177000  0.81946000  1.0
  C  C82  1  0.17293000  0.28691000  0.18435000  1.0
  C  C83  1  0.05589000  0.71658000  0.81900000  1.0
  C  C84  1  0.16666000  0.33219000  0.23092000  1.0
  C  C85  1  0.05247000  0.67207000  0.77182000  1.0
  C  C86  1  0.71010000  0.12175000  0.17851000  1.0
  C  C87  1  0.53539000  0.87505000  0.82168000  1.0
  C  C88  1  0.86971000  0.12945000  0.13276000  1.0
  C  C89  1  0.37970000  0.86913000  0.86878000  1.0
  C  C90  1  0.02461000  0.18187000  0.13573000  1.0
  C  C91  1  0.21970000  0.81878000  0.86697000  1.0
  C  C92  1  0.37471000  0.88567000  0.11145000  1.0
  C  C93  1  0.88304000  0.11366000  0.88895000  1.0
  C  C94  1  0.38319000  0.91706000  0.92103000  1.0
  C  C95  1  0.87270000  0.08201000  0.08012000  1.0
  C  C96  1  0.53631000  0.28367000  0.43659000  1.0
  C  C97  1  0.66666667  0.71378000  0.56076000  1.0
  O  O98  1  0.50729000  0.59033000  0.41937000  1.0
  O  O99  1  0.01421000  0.41521000  0.58563000  1.0
  O  O100  1  0.18412000  0.56965000  0.55598000  1.0
  O  O101  1  0.68262000  0.43908000  0.43882000  1.0
  O  O102  1  0.17747000  0.58667000  0.41389000  1.0
  O  O103  1  0.68463000  0.40771000  0.58289000  1.0
  O  O104  1  0.01125000  0.43198000  0.44415000  1.0
  O  O105  1  0.51201000  0.55848000  0.56313000  1.0
  O  O106  1  0.34621000  0.44895000  0.50828000  1.0
  O  O107  1  0.84579000  0.55071000  0.49228000  1.0
  O  O108  1  0.22010000  0.93109000  0.94567000  1.0
  O  O109  1  0.70880000  0.05786000  0.06446000  1.0
  O  O110  1  0.53996000  0.90752000  0.08211000  1.0
  O  O111  1  0.04991000  0.08571000  0.91310000  1.0
  O  O112  1  0.54883000  0.93942000  0.93691000  1.0
  O  O113  1  0.03693000  0.07025000  0.05490000  1.0
  O  O114  1  0.72044000  0.08980000  0.91972000  1.0
  O  O115  1  0.21074000  0.91643000  0.08640000  1.0
  O  O116  1  0.37997000  0.05065000  0.99187000  1.0
  O  O117  1  0.88072000  0.94907000  0.00874000  1.0
