# generated using pymatgen
data_TiCuH20C20(N2F3)2
_symmetry_space_group_name_H-M   'P 1'
_cell_length_a   8.58764000
_cell_length_b   8.58825000
_cell_length_c   17.55063549
_cell_angle_alpha   104.11194555
_cell_angle_beta   102.23366063
_cell_angle_gamma   93.91540000
_symmetry_Int_Tables_number   1
_chemical_formula_structural   TiCuH20C20(N2F3)2
_chemical_formula_sum   'Ti2 Cu2 H40 C40 N8 F12'
_cell_volume   1216.97370989
_cell_formula_units_Z   2
loop_
 _symmetry_equiv_pos_site_id
 _symmetry_equiv_pos_as_xyz
  1  'x, y, z'
loop_
 _atom_site_type_symbol
 _atom_site_label
 _atom_site_symmetry_multiplicity
 _atom_site_fract_x
 _atom_site_fract_y
 _atom_site_fract_z
 _atom_site_occupancy
  Ti  Ti0  1  0.00001000  0.00001000  0.50000000  1.0
  Ti  Ti1  1  0.00000000  0.50000000  0.00000000  1.0
  Cu  Cu2  1  0.50000000  0.00000000  0.50000000  1.0
  Cu  Cu3  1  0.00000000  0.00000000  0.00000000  1.0
  H  H4  1  0.27470000  0.81191000  0.56377000  1.0
  H  H5  1  0.74774000  0.71122000  0.93627000  1.0
  H  H6  1  0.72531000  0.18809000  0.43623000  1.0
  H  H7  1  0.25228000  0.28880000  0.06374000  1.0
  H  H8  1  0.28725000  0.59414000  0.63548000  1.0
  H  H9  1  0.45826000  0.65226000  0.86453000  1.0
  H  H10  1  0.71275000  0.40586000  0.36452000  1.0
  H  H11  1  0.54175000  0.34774000  0.13548000  1.0
  H  H12  1  0.54046000  0.46267000  0.65674000  1.0
  H  H13  1  0.30579000  0.88431000  0.84318000  1.0
  H  H14  1  0.45953000  0.53732000  0.34326000  1.0
  H  H15  1  0.69420000  0.11568000  0.15682000  1.0
  H  H16  1  0.76653000  0.54951000  0.59907000  1.0
  H  H17  1  0.45041000  0.16798000  0.90089000  1.0
  H  H18  1  0.23348000  0.45049000  0.40094000  1.0
  H  H19  1  0.54959000  0.83202000  0.09911000  1.0
  H  H20  1  0.73758000  0.77232000  0.53131000  1.0
  H  H21  1  0.74099000  0.20655000  0.96863000  1.0
  H  H22  1  0.26242000  0.22767000  0.46869000  1.0
  H  H23  1  0.25901000  0.79344000  0.03136000  1.0
  H  H24  1  0.19957000  0.81995000  0.38625000  1.0
  H  H25  1  0.93345000  0.81322000  0.11387000  1.0
  H  H26  1  0.80043000  0.18005000  0.61375000  1.0
  H  H27  1  0.06656000  0.18678000  0.88613000  1.0
  H  H28  1  0.11350000  0.66159000  0.24015000  1.0
  H  H29  1  0.92121000  0.87331000  0.25999000  1.0
  H  H30  1  0.88648000  0.33841000  0.75985000  1.0
  H  H31  1  0.07880000  0.12669000  0.74001000  1.0
  H  H32  1  0.31746000  0.62081000  0.15781000  1.0
  H  H33  1  0.96308000  0.15961000  0.34232000  1.0
  H  H34  1  0.68251000  0.37919000  0.84218000  1.0
  H  H35  1  0.03692000  0.84038000  0.65767000  1.0
  H  H36  1  0.60812000  0.73433000  0.22685000  1.0
  H  H37  1  0.00768000  0.38108000  0.27325000  1.0
  H  H38  1  0.39185000  0.26566000  0.77314000  1.0
  H  H39  1  0.99231000  0.61892000  0.72675000  1.0
  H  H40  1  0.67570000  0.88589000  0.37205000  1.0
  H  H41  1  0.01399000  0.30354000  0.12805000  1.0
  H  H42  1  0.32430000  0.11410000  0.62795000  1.0
  H  H43  1  0.98600000  0.69647000  0.87195000  1.0
  C  C44  1  0.38258000  0.75295000  0.57447000  1.0
  C  C45  1  0.67815000  0.80843000  0.92554000  1.0
  C  C46  1  0.61742000  0.24705000  0.42553000  1.0
  C  C47  1  0.32186000  0.19157000  0.07446000  1.0
  C  C48  1  0.39074000  0.63105000  0.61431000  1.0
  C  C49  1  0.51643000  0.77687000  0.88568000  1.0
  C  C50  1  0.60926000  0.36895000  0.38569000  1.0
  C  C51  1  0.48358000  0.22314000  0.11433000  1.0
  C  C52  1  0.53046000  0.55715000  0.62509000  1.0
  C  C53  1  0.43191000  0.90591000  0.87487000  1.0
  C  C54  1  0.46953000  0.44285000  0.37491000  1.0
  C  C55  1  0.56808000  0.09409000  0.12513000  1.0
  C  C56  1  0.65633000  0.60592000  0.59407000  1.0
  C  C57  1  0.51178000  0.06275000  0.90589000  1.0
  C  C58  1  0.34367000  0.39407000  0.40593000  1.0
  C  C59  1  0.48822000  0.93725000  0.09411000  1.0
  C  C60  1  0.64065000  0.72917000  0.55513000  1.0
  C  C61  1  0.67394000  0.08585000  0.94484000  1.0
  C  C62  1  0.35935000  0.27082000  0.44487000  1.0
  C  C63  1  0.32606000  0.91415000  0.05516000  1.0
  C  C64  1  0.28598000  0.79653000  0.34876000  1.0
  C  C65  1  0.94760000  0.93712000  0.15134000  1.0
  C  C66  1  0.71402000  0.20347000  0.65124000  1.0
  C  C67  1  0.05241000  0.06288000  0.84866000  1.0
  C  C68  1  0.23895000  0.70931000  0.26782000  1.0
  C  C69  1  0.94133000  0.97101000  0.23229000  1.0
  C  C70  1  0.76104000  0.29069000  0.73218000  1.0
  C  C71  1  0.05868000  0.02899000  0.76771000  1.0
  C  C72  1  0.35357000  0.68607000  0.22178000  1.0
  C  C73  1  0.96435000  0.13166000  0.27835000  1.0
  C  C74  1  0.64642000  0.31394000  0.77822000  1.0
  C  C75  1  0.03565000  0.86834000  0.72165000  1.0
  C  C76  1  0.51298000  0.74986000  0.25941000  1.0
  C  C77  1  0.99056000  0.25337000  0.24070000  1.0
  C  C78  1  0.48702000  0.25014000  0.74059000  1.0
  C  C79  1  0.00943000  0.74663000  0.75930000  1.0
  C  C80  1  0.55230000  0.83596000  0.34057000  1.0
  C  C81  1  0.99548000  0.21158000  0.15952000  1.0
  C  C82  1  0.44769000  0.16403000  0.65942000  1.0
  C  C83  1  0.00451000  0.78843000  0.84048000  1.0
  N  N84  1  0.50649000  0.80227000  0.54626000  1.0
  N  N85  1  0.75580000  0.96049000  0.95372000  1.0
  N  N86  1  0.49352000  0.19773000  0.45374000  1.0
  N  N87  1  0.24421000  0.03951000  0.04628000  1.0
  N  N88  1  0.44014000  0.85928000  0.38425000  1.0
  N  N89  1  0.97502000  0.05577000  0.11584000  1.0
  N  N90  1  0.55986000  0.14071000  0.61575000  1.0
  N  N91  1  0.02498000  0.94424000  0.88416000  1.0
  F  F92  1  0.99491000  0.19091000  0.46484000  1.0
  F  F93  1  0.22608000  0.53015000  0.03507000  1.0
  F  F94  1  0.00510000  0.80909000  0.53516000  1.0
  F  F95  1  0.77391000  0.46985000  0.96493000  1.0
  F  F96  1  0.22184000  0.00034000  0.49919000  1.0
  F  F97  1  0.00092000  0.72259000  0.00069000  1.0
  F  F98  1  0.77817000  0.99967000  0.50081000  1.0
  F  F99  1  0.99908000  0.27741000  0.99931000  1.0
  F  F100  1  0.94178000  0.87379000  0.39178000  1.0
  F  F101  1  0.98220000  0.55011000  0.10825000  1.0
  F  F102  1  0.05823000  0.12622000  0.60822000  1.0
  F  F103  1  0.01778000  0.44987000  0.89174000  1.0
