# generated using pymatgen
data_SrH14C10(N2O3)2
_symmetry_space_group_name_H-M   'P 1'
_cell_length_a   8.07220000
_cell_length_b   8.42487000
_cell_length_c   11.37960000
_cell_angle_alpha   82.94920000
_cell_angle_beta   78.85620000
_cell_angle_gamma   66.74550000
_symmetry_Int_Tables_number   1
_chemical_formula_structural   SrH14C10(N2O3)2
_chemical_formula_sum   'Sr2 H28 C20 N8 O12'
_cell_volume   696.69136430
_cell_formula_units_Z   2
loop_
 _symmetry_equiv_pos_site_id
 _symmetry_equiv_pos_as_xyz
  1  'x, y, z'
loop_
 _atom_site_type_symbol
 _atom_site_label
 _atom_site_symmetry_multiplicity
 _atom_site_fract_x
 _atom_site_fract_y
 _atom_site_fract_z
 _atom_site_occupancy
  Sr  Sr0  1  0.21942000  0.55609000  0.04650000  1.0
  Sr  Sr1  1  0.78058000  0.44392000  0.95350000  1.0
  H  H2  1  0.40540000  0.02602000  0.26627000  1.0
  H  H3  1  0.59459000  0.97400000  0.73372000  1.0
  H  H4  1  0.42529000  0.21927000  0.29459000  1.0
  H  H5  1  0.57470000  0.78075000  0.70540000  1.0
  H  H6  1  0.48139000  0.03984000  0.39997000  1.0
  H  H7  1  0.51862000  0.96017000  0.60002000  1.0
  H  H8  1  0.80578000  0.19007000  0.27877000  1.0
  H  H9  1  0.19422000  0.80995000  0.72122000  1.0
  H  H10  1  0.83317000  0.90051000  0.51624000  1.0
  H  H11  1  0.16684000  0.09947000  0.48376000  1.0
  H  H12  1  0.00199000  0.86797000  0.60504000  1.0
  H  H13  1  0.99800000  0.13202000  0.39496000  1.0
  H  H14  1  0.89807000  0.71575000  0.61655000  1.0
  H  H15  1  0.10192000  0.28425000  0.38346000  1.0
  H  H16  1  0.36129000  0.70662000  0.47699000  1.0
  H  H17  1  0.63871000  0.29334000  0.52303000  1.0
  H  H18  1  0.68669000  0.81338000  0.13773000  1.0
  H  H19  1  0.31331000  0.18664000  0.86226000  1.0
  H  H20  1  0.93049000  0.63846000  0.35923000  1.0
  H  H21  1  0.06951000  0.36153000  0.64077000  1.0
  H  H22  1  0.03411000  0.29586000  0.14962000  1.0
  H  H23  1  0.96589000  0.70415000  0.85038000  1.0
  H  H24  1  0.85045000  0.46189000  0.19307000  1.0
  H  H25  1  0.14955000  0.53811000  0.80693000  1.0
  H  H26  1  0.33640000  0.15841000  0.05329000  1.0
  H  H27  1  0.66360000  0.84159000  0.94671000  1.0
  H  H28  1  0.51539000  0.19334000  0.97706000  1.0
  H  H29  1  0.48461000  0.80666000  0.02294000  1.0
  C  C30  1  0.48820000  0.07762000  0.30365000  1.0
  C  C31  1  0.51180000  0.92240000  0.69634000  1.0
  C  C32  1  0.68004000  0.01532000  0.24110000  1.0
  C  C33  1  0.31996000  0.98469000  0.75889000  1.0
  C  C34  1  0.81818000  0.07633000  0.23688000  1.0
  C  C35  1  0.18182000  0.92368000  0.76311000  1.0
  C  C36  1  0.97011000  0.96425000  0.16278000  1.0
  C  C37  1  0.02989000  0.03576000  0.83721000  1.0
  C  C38  1  0.15588000  0.96431000  0.12320000  1.0
  C  C39  1  0.84412000  0.03569000  0.87680000  1.0
  C  C40  1  0.94974000  0.80166000  0.55358000  1.0
  C  C41  1  0.05026000  0.19833000  0.44642000  1.0
  C  C42  1  0.09361000  0.70612000  0.45616000  1.0
  C  C43  1  0.90640000  0.29386000  0.54384000  1.0
  C  C44  1  0.27954000  0.67209000  0.42745000  1.0
  C  C45  1  0.72047000  0.32788000  0.57256000  1.0
  C  C46  1  0.52223000  0.52342000  0.24219000  1.0
  C  C47  1  0.47778000  0.47656000  0.75781000  1.0
  C  C48  1  0.33963000  0.58237000  0.32048000  1.0
  C  C49  1  0.66037000  0.41762000  0.67952000  1.0
  N  N50  1  0.92854000  0.84200000  0.12331000  1.0
  N  N51  1  0.07146000  0.15801000  0.87669000  1.0
  N  N52  1  0.75408000  0.87461000  0.17282000  1.0
  N  N53  1  0.24591000  0.12541000  0.82717000  1.0
  N  N54  1  0.20010000  0.55990000  0.28562000  1.0
  N  N55  1  0.79991000  0.44009000  0.71438000  1.0
  N  N56  1  0.05477000  0.63426000  0.36917000  1.0
  N  N57  1  0.94523000  0.36573000  0.63083000  1.0
  O  O58  1  0.27172000  0.83741000  0.06330000  1.0
  O  O59  1  0.72829000  0.16259000  0.93670000  1.0
  O  O60  1  0.18898000  0.08974000  0.15090000  1.0
  O  O61  1  0.81102000  0.91026000  0.84910000  1.0
  O  O62  1  0.52991000  0.46951000  0.13994000  1.0
  O  O63  1  0.47009000  0.53049000  0.86006000  1.0
  O  O64  1  0.65512000  0.53221000  0.28154000  1.0
  O  O65  1  0.34489000  0.46778000  0.71847000  1.0
  O  O66  1  0.96440000  0.42113000  0.13011000  1.0
  O  O67  1  0.03560000  0.57888000  0.86990000  1.0
  O  O68  1  0.37773000  0.23746000  0.99321000  1.0
  O  O69  1  0.62227000  0.76255000  0.00680000  1.0
