# generated using pymatgen
data_CrH5C8O5
_symmetry_space_group_name_H-M   'P 1'
_cell_length_a   6.89196000
_cell_length_b   11.24790000
_cell_length_c   11.24753313
_cell_angle_alpha   84.39021177
_cell_angle_beta   72.16220652
_cell_angle_gamma   72.15610000
_symmetry_Int_Tables_number   1
_chemical_formula_structural   CrH5C8O5
_chemical_formula_sum   'Cr2 H10 C16 O10'
_cell_volume   790.06053100
_cell_formula_units_Z   2
loop_
 _symmetry_equiv_pos_site_id
 _symmetry_equiv_pos_as_xyz
  1  'x, y, z'
loop_
 _atom_site_type_symbol
 _atom_site_label
 _atom_site_symmetry_multiplicity
 _atom_site_fract_x
 _atom_site_fract_y
 _atom_site_fract_z
 _atom_site_occupancy
  Cr  Cr0  1  0.50000000  0.50000000  0.50000000  1.0
  Cr  Cr1  1  0.99999000  0.50000000  0.50000000  1.0
  H  H2  1  0.24436000  0.88285000  0.50513000  1.0
  H  H3  1  0.24997000  0.62382000  0.37617000  1.0
  H  H4  1  0.25544000  0.49479000  0.11736000  1.0
  H  H5  1  0.13242000  0.11736000  0.49478000  1.0
  H  H6  1  0.75003000  0.37618000  0.62383000  1.0
  H  H7  1  0.36767000  0.50513000  0.88284000  1.0
  H  H8  1  0.75564000  0.11716000  0.49487000  1.0
  H  H9  1  0.74456000  0.50522000  0.88264000  1.0
  H  H10  1  0.86758000  0.88264000  0.50522000  1.0
  H  H11  1  0.63234000  0.49487000  0.11715000  1.0
  C  C12  1  0.35500000  0.93518000  0.50263000  1.0
  C  C13  1  0.14492000  0.49731000  0.06493000  1.0
  C  C14  1  0.29284000  0.06493000  0.49731000  1.0
  C  C15  1  0.20719000  0.50263000  0.93518000  1.0
  C  C16  1  0.64501000  0.06482000  0.49737000  1.0
  C  C17  1  0.85507000  0.50269000  0.93507000  1.0
  C  C18  1  0.70716000  0.93507000  0.50269000  1.0
  C  C19  1  0.79280000  0.49737000  0.06482000  1.0
  C  C20  1  0.56259000  0.86938000  0.50531000  1.0
  C  C21  1  0.63121000  0.72993000  0.50757000  1.0
  C  C22  1  0.93728000  0.49469000  0.13062000  1.0
  C  C23  1  0.86871000  0.49243000  0.27008000  1.0
  C  C24  1  0.43742000  0.13062000  0.49469000  1.0
  C  C25  1  0.36879000  0.27008000  0.49243000  1.0
  C  C26  1  0.06272000  0.50531000  0.86938000  1.0
  C  C27  1  0.13129000  0.50757000  0.72992000  1.0
  O  O28  1  0.49242000  0.67657000  0.50731000  1.0
  O  O29  1  0.00741000  0.49272000  0.32346000  1.0
  O  O30  1  0.17642000  0.32346000  0.49272000  1.0
  O  O31  1  0.32370000  0.50730000  0.67657000  1.0
  O  O32  1  0.50757000  0.32343000  0.49270000  1.0
  O  O33  1  0.99260000  0.50728000  0.67654000  1.0
  O  O34  1  0.82358000  0.67654000  0.50728000  1.0
  O  O35  1  0.67631000  0.49269000  0.32343000  1.0
  O  O36  1  0.75008000  0.44038000  0.55962000  1.0
  O  O37  1  0.24992000  0.55962000  0.44038000  1.0
