# generated using pymatgen
data_LaCoH18C36(NO2)6
_symmetry_space_group_name_H-M   'P 1'
_cell_length_a   18.33560000
_cell_length_b   18.33560000
_cell_length_c   21.68980000
_cell_angle_alpha   110.35700000
_cell_angle_beta   110.35700000
_cell_angle_gamma   100.11900000
_symmetry_Int_Tables_number   1
_chemical_formula_structural   LaCoH18C36(NO2)6
_chemical_formula_sum   'La4 Co4 H72 C144 N24 O48'
_cell_volume   6033.36227575
_cell_formula_units_Z   4
loop_
 _symmetry_equiv_pos_site_id
 _symmetry_equiv_pos_as_xyz
  1  'x, y, z'
loop_
 _atom_site_type_symbol
 _atom_site_label
 _atom_site_symmetry_multiplicity
 _atom_site_fract_x
 _atom_site_fract_y
 _atom_site_fract_z
 _atom_site_occupancy
  La  La0  1  0.60370000  0.35367000  0.74992000  1.0
  La  La1  1  0.14633000  0.89630000  0.75008000  1.0
  La  La2  1  0.39630000  0.64634000  0.25008000  1.0
  La  La3  1  0.85366000  0.10370000  0.24992000  1.0
  Co  Co4  1  0.10949000  0.39051000  0.75000000  1.0
  Co  Co5  1  0.64059000  0.85941000  0.75000000  1.0
  Co  Co6  1  0.89051000  0.60949000  0.25000000  1.0
  Co  Co7  1  0.35941000  0.14059000  0.25000000  1.0
  H  H8  1  0.05421000  0.45992000  0.86951000  1.0
  H  H9  1  0.91444000  0.45800000  0.86490000  1.0
  H  H10  1  0.80443000  0.30588000  0.63362000  1.0
  H  H11  1  0.82932000  0.24033000  0.54309000  1.0
  H  H12  1  0.02112000  0.21431000  0.47711000  1.0
  H  H13  1  0.12599000  0.30310000  0.60881000  1.0
  H  H14  1  0.76897000  0.00802000  0.77297000  1.0
  H  H15  1  0.76534000  0.14668000  0.77800000  1.0
  H  H16  1  0.51559000  0.07714000  0.74751000  1.0
  H  H17  1  0.81517000  0.90937000  0.86953000  1.0
  H  H18  1  0.95039000  0.90689000  0.86498000  1.0
  H  H19  1  0.82949000  0.82809000  0.63368000  1.0
  H  H20  1  0.71412000  0.80325000  0.54311000  1.0
  H  H21  1  0.45645000  0.76327000  0.47729000  1.0
  H  H22  1  0.48313000  0.80598000  0.60895000  1.0
  H  H23  1  0.00406000  0.26474000  0.77290000  1.0
  H  H24  1  0.01282000  0.13122000  0.77805000  1.0
  H  H25  1  0.23214000  0.17032000  0.74757000  1.0
  H  H26  1  0.04007000  0.44579000  0.63049000  1.0
  H  H27  1  0.04200000  0.58556000  0.63510000  1.0
  H  H28  1  0.19412000  0.69557000  0.86638000  1.0
  H  H29  1  0.25966000  0.67068000  0.95690000  1.0
  H  H30  1  0.28569000  0.47889000  0.02289000  1.0
  H  H31  1  0.19690000  0.37401000  0.89120000  1.0
  H  H32  1  0.49198000  0.73103000  0.72703000  1.0
  H  H33  1  0.35332000  0.73466000  0.72199000  1.0
  H  H34  1  0.42286000  0.98442000  0.75249000  1.0
  H  H35  1  0.59062000  0.68483000  0.63047000  1.0
  H  H36  1  0.59311000  0.54961000  0.63502000  1.0
  H  H37  1  0.67191000  0.67051000  0.86632000  1.0
  H  H38  1  0.69674000  0.78588000  0.95689000  1.0
  H  H39  1  0.73673000  0.04355000  0.02271000  1.0
  H  H40  1  0.69402000  0.01687000  0.89105000  1.0
  H  H41  1  0.23526000  0.49594000  0.72710000  1.0
  H  H42  1  0.36878000  0.48718000  0.72195000  1.0
  H  H43  1  0.32968000  0.26786000  0.75243000  1.0
  H  H44  1  0.94578000  0.54007000  0.13049000  1.0
  H  H45  1  0.08556000  0.54200000  0.13510000  1.0
  H  H46  1  0.19557000  0.69412000  0.36638000  1.0
  H  H47  1  0.17068000  0.75966000  0.45691000  1.0
  H  H48  1  0.97888000  0.78569000  0.52289000  1.0
  H  H49  1  0.87401000  0.69690000  0.39120000  1.0
  H  H50  1  0.23103000  0.99198000  0.22703000  1.0
  H  H51  1  0.23467000  0.85332000  0.22200000  1.0
  H  H52  1  0.48442000  0.92286000  0.25249000  1.0
  H  H53  1  0.18484000  0.09063000  0.13047000  1.0
  H  H54  1  0.04961000  0.09311000  0.13502000  1.0
  H  H55  1  0.17051000  0.17191000  0.36631000  1.0
  H  H56  1  0.28588000  0.19675000  0.45689000  1.0
  H  H57  1  0.54355000  0.23673000  0.52271000  1.0
  H  H58  1  0.51687000  0.19402000  0.39105000  1.0
  H  H59  1  0.99594000  0.73526000  0.22710000  1.0
  H  H60  1  0.98718000  0.86878000  0.22195000  1.0
  H  H61  1  0.76786000  0.82968000  0.25243000  1.0
  H  H62  1  0.95993000  0.55422000  0.36951000  1.0
  H  H63  1  0.95800000  0.41445000  0.36490000  1.0
  H  H64  1  0.80589000  0.30443000  0.13362000  1.0
  H  H65  1  0.74034000  0.32932000  0.04310000  1.0
  H  H66  1  0.71431000  0.52112000  0.97712000  1.0
  H  H67  1  0.80310000  0.62599000  0.10881000  1.0
  H  H68  1  0.50802000  0.26897000  0.27297000  1.0
  H  H69  1  0.64668000  0.26534000  0.27801000  1.0
  H  H70  1  0.57714000  0.01558000  0.24751000  1.0
  H  H71  1  0.40937000  0.31517000  0.36953000  1.0
  H  H72  1  0.40688000  0.45039000  0.36498000  1.0
  H  H73  1  0.32809000  0.32949000  0.13368000  1.0
  H  H74  1  0.30325000  0.21412000  0.04311000  1.0
  H  H75  1  0.26327000  0.95645000  0.97729000  1.0
  H  H76  1  0.30598000  0.98313000  0.10895000  1.0
  H  H77  1  0.76474000  0.50406000  0.27290000  1.0
  H  H78  1  0.63122000  0.51282000  0.27805000  1.0
  H  H79  1  0.67032000  0.73214000  0.24757000  1.0
  C  C80  1  0.99806000  0.42707000  0.81809000  1.0
  C  C81  1  0.92112000  0.42568000  0.81557000  1.0
  C  C82  1  0.85042000  0.38215000  0.74832000  1.0
  C  C83  1  0.85971000  0.34059000  0.68576000  1.0
  C  C84  1  0.93844000  0.34479000  0.69123000  1.0
  C  C85  1  0.95564000  0.30526000  0.62937000  1.0
  C  C86  1  0.89517000  0.25508000  0.55790000  1.0
  C  C87  1  0.91787000  0.22167000  0.50205000  1.0
  C  C88  1  0.00210000  0.23931000  0.52019000  1.0
  C  C89  1  0.06009000  0.28879000  0.59281000  1.0
  C  C90  1  0.76541000  0.37935000  0.74339000  1.0
  C  C91  1  0.85027000  0.16843000  0.42355000  1.0
  C  C92  1  0.71417000  0.02525000  0.76818000  1.0
  C  C93  1  0.71191000  0.10135000  0.77051000  1.0
  C  C94  1  0.63944000  0.12002000  0.76203000  1.0
  C  C95  1  0.57205000  0.06233000  0.75426000  1.0
  C  C96  1  0.57813000  0.98751000  0.75387000  1.0
  C  C97  1  0.63278000  0.19956000  0.75805000  1.0
  C  C98  1  0.81999000  0.89090000  0.81813000  1.0
  C  C99  1  0.89446000  0.88990000  0.81563000  1.0
  C  C100  1  0.89800000  0.86633000  0.74838000  1.0
  C  C101  1  0.82625000  0.84542000  0.68582000  1.0
  C  C102  1  0.75298000  0.84661000  0.69128000  1.0
  C  C103  1  0.67402000  0.82442000  0.62942000  1.0
  C  C104  1  0.66307000  0.80329000  0.55794000  1.0
  C  C105  1  0.58456000  0.78081000  0.50213000  1.0
  C  C106  1  0.51850000  0.78137000  0.52034000  1.0
  C  C107  1  0.53306000  0.80437000  0.59295000  1.0
  C  C108  1  0.97804000  0.86410000  0.74337000  1.0
  C  C109  1  0.57354000  0.75523000  0.42352000  1.0
  C  C110  1  0.05413000  0.24279000  0.76819000  1.0
  C  C111  1  0.05878000  0.16905000  0.77057000  1.0
  C  C112  1  0.12280000  0.14194000  0.76212000  1.0
  C  C113  1  0.18240000  0.19184000  0.75430000  1.0
  C  C114  1  0.17588000  0.26626000  0.75390000  1.0
  C  C115  1  0.12548000  0.05845000  0.75816000  1.0
  C  C116  1  0.07293000  0.50194000  0.68191000  1.0
  C  C117  1  0.07432000  0.57888000  0.68443000  1.0
  C  C118  1  0.11785000  0.64958000  0.75168000  1.0
  C  C119  1  0.15941000  0.64028000  0.81423000  1.0
  C  C120  1  0.15521000  0.56156000  0.80876000  1.0
  C  C121  1  0.19474000  0.54436000  0.87062000  1.0
  C  C122  1  0.24492000  0.60483000  0.94210000  1.0
  C  C123  1  0.27833000  0.58214000  0.99794000  1.0
  C  C124  1  0.26069000  0.49790000  0.97981000  1.0
  C  C125  1  0.21121000  0.43991000  0.90719000  1.0
  C  C126  1  0.12066000  0.73460000  0.75662000  1.0
  C  C127  1  0.33158000  0.64974000  0.07645000  1.0
  C  C128  1  0.47475000  0.78583000  0.73182000  1.0
  C  C129  1  0.39865000  0.78809000  0.72948000  1.0
  C  C130  1  0.37998000  0.86056000  0.73797000  1.0
  C  C131  1  0.43767000  0.92796000  0.74574000  1.0
  C  C132  1  0.51250000  0.92187000  0.74613000  1.0
  C  C133  1  0.30044000  0.86722000  0.74195000  1.0
  C  C134  1  0.60910000  0.68001000  0.68187000  1.0
  C  C135  1  0.61010000  0.60554000  0.68437000  1.0
  C  C136  1  0.63367000  0.60199000  0.75162000  1.0
  C  C137  1  0.65457000  0.67375000  0.81418000  1.0
  C  C138  1  0.65338000  0.74702000  0.80871000  1.0
  C  C139  1  0.67558000  0.82597000  0.87057000  1.0
  C  C140  1  0.69671000  0.83692000  0.94206000  1.0
  C  C141  1  0.71919000  0.91543000  0.99787000  1.0
  C  C142  1  0.71863000  0.98150000  0.97966000  1.0
  C  C143  1  0.69563000  0.96694000  0.90705000  1.0
  C  C144  1  0.63589000  0.52196000  0.75663000  1.0
  C  C145  1  0.74477000  0.92646000  0.07648000  1.0
  C  C146  1  0.25722000  0.44587000  0.73181000  1.0
  C  C147  1  0.33095000  0.44122000  0.72943000  1.0
  C  C148  1  0.35807000  0.37720000  0.73788000  1.0
  C  C149  1  0.30816000  0.31760000  0.74570000  1.0
  C  C150  1  0.23374000  0.32412000  0.74610000  1.0
  C  C151  1  0.44155000  0.37452000  0.74184000  1.0
  C  C152  1  0.00194000  0.57293000  0.18191000  1.0
  C  C153  1  0.07888000  0.57432000  0.18443000  1.0
  C  C154  1  0.14958000  0.61785000  0.25168000  1.0
  C  C155  1  0.14029000  0.65941000  0.31423000  1.0
  C  C156  1  0.06156000  0.65521000  0.30876000  1.0
  C  C157  1  0.04436000  0.69474000  0.37063000  1.0
  C  C158  1  0.10483000  0.74492000  0.44210000  1.0
  C  C159  1  0.08214000  0.77833000  0.49794000  1.0
  C  C160  1  0.99790000  0.76069000  0.47981000  1.0
  C  C161  1  0.93991000  0.71121000  0.40719000  1.0
  C  C162  1  0.23459000  0.62065000  0.25661000  1.0
  C  C163  1  0.14974000  0.83158000  0.57645000  1.0
  C  C164  1  0.28583000  0.97475000  0.23182000  1.0
  C  C165  1  0.28809000  0.89865000  0.22948000  1.0
  C  C166  1  0.36056000  0.87998000  0.23797000  1.0
  C  C167  1  0.42796000  0.93767000  0.24574000  1.0
  C  C168  1  0.42187000  0.01249000  0.24613000  1.0
  C  C169  1  0.36722000  0.80044000  0.24194000  1.0
  C  C170  1  0.18001000  0.10910000  0.18187000  1.0
  C  C171  1  0.10555000  0.11010000  0.18437000  1.0
  C  C172  1  0.10199000  0.13367000  0.25162000  1.0
  C  C173  1  0.17375000  0.15457000  0.31418000  1.0
  C  C174  1  0.24702000  0.15339000  0.30871000  1.0
  C  C175  1  0.32597000  0.17558000  0.37057000  1.0
  C  C176  1  0.33692000  0.19671000  0.44206000  1.0
  C  C177  1  0.41543000  0.21919000  0.49787000  1.0
  C  C178  1  0.48149000  0.21863000  0.47966000  1.0
  C  C179  1  0.46694000  0.19563000  0.40705000  1.0
  C  C180  1  0.02196000  0.13590000  0.25663000  1.0
  C  C181  1  0.42646000  0.24477000  0.57648000  1.0
  C  C182  1  0.94586000  0.75721000  0.23181000  1.0
  C  C183  1  0.94122000  0.83094000  0.22943000  1.0
  C  C184  1  0.87720000  0.85807000  0.23788000  1.0
  C  C185  1  0.81760000  0.80815000  0.24570000  1.0
  C  C186  1  0.82412000  0.73374000  0.24610000  1.0
  C  C187  1  0.87452000  0.94155000  0.24184000  1.0
  C  C188  1  0.92707000  0.49806000  0.31809000  1.0
  C  C189  1  0.92568000  0.42112000  0.31557000  1.0
  C  C190  1  0.88215000  0.35042000  0.24832000  1.0
  C  C191  1  0.84060000  0.35972000  0.18577000  1.0
  C  C192  1  0.84479000  0.43844000  0.19124000  1.0
  C  C193  1  0.80526000  0.45564000  0.12938000  1.0
  C  C194  1  0.75508000  0.39517000  0.05790000  1.0
  C  C195  1  0.72166000  0.41786000  0.00206000  1.0
  C  C196  1  0.73932000  0.50210000  0.02019000  1.0
  C  C197  1  0.78879000  0.56009000  0.09281000  1.0
  C  C198  1  0.87935000  0.26541000  0.24339000  1.0
  C  C199  1  0.66842000  0.35027000  0.92355000  1.0
  C  C200  1  0.52525000  0.21417000  0.26818000  1.0
  C  C201  1  0.60135000  0.21191000  0.27052000  1.0
  C  C202  1  0.62002000  0.13944000  0.26203000  1.0
  C  C203  1  0.56233000  0.07204000  0.25426000  1.0
  C  C204  1  0.48751000  0.07813000  0.25387000  1.0
  C  C205  1  0.69956000  0.13278000  0.25806000  1.0
  C  C206  1  0.39090000  0.31999000  0.31813000  1.0
  C  C207  1  0.38990000  0.39446000  0.31563000  1.0
  C  C208  1  0.36633000  0.39800000  0.24838000  1.0
  C  C209  1  0.34542000  0.32625000  0.18582000  1.0
  C  C210  1  0.34661000  0.25298000  0.19129000  1.0
  C  C211  1  0.32442000  0.17403000  0.12942000  1.0
  C  C212  1  0.30329000  0.16307000  0.05794000  1.0
  C  C213  1  0.28082000  0.08457000  0.00213000  1.0
  C  C214  1  0.28137000  0.01850000  0.02034000  1.0
  C  C215  1  0.30437000  0.03306000  0.09295000  1.0
  C  C216  1  0.36410000  0.47804000  0.24337000  1.0
  C  C217  1  0.25523000  0.07354000  0.92352000  1.0
  C  C218  1  0.74279000  0.55413000  0.26819000  1.0
  C  C219  1  0.66905000  0.55878000  0.27057000  1.0
  C  C220  1  0.64193000  0.62280000  0.26212000  1.0
  C  C221  1  0.69184000  0.68240000  0.25430000  1.0
  C  C222  1  0.76626000  0.67588000  0.25390000  1.0
  C  C223  1  0.55845000  0.62548000  0.25816000  1.0
  N  N224  1  0.00687000  0.38789000  0.75709000  1.0
  N  N225  1  0.03764000  0.32179000  0.64652000  1.0
  N  N226  1  0.64865000  0.96927000  0.75986000  1.0
  N  N227  1  0.75028000  0.86914000  0.75712000  1.0
  N  N228  1  0.60916000  0.82495000  0.64660000  1.0
  N  N229  1  0.11134000  0.29048000  0.75987000  1.0
  N  N230  1  0.11211000  0.49313000  0.74291000  1.0
  N  N231  1  0.17822000  0.46236000  0.85348000  1.0
  N  N232  1  0.53073000  0.85135000  0.74014000  1.0
  N  N233  1  0.63086000  0.74972000  0.74288000  1.0
  N  N234  1  0.67505000  0.89083000  0.85340000  1.0
  N  N235  1  0.20952000  0.38866000  0.74013000  1.0
  N  N236  1  0.99313000  0.61211000  0.24291000  1.0
  N  N237  1  0.96236000  0.67821000  0.35348000  1.0
  N  N238  1  0.35135000  0.03073000  0.24014000  1.0
  N  N239  1  0.24972000  0.13086000  0.24288000  1.0
  N  N240  1  0.39083000  0.17505000  0.35341000  1.0
  N  N241  1  0.88866000  0.70952000  0.24013000  1.0
  N  N242  1  0.88789000  0.50687000  0.25709000  1.0
  N  N243  1  0.82179000  0.53764000  0.14653000  1.0
  N  N244  1  0.46927000  0.14865000  0.25986000  1.0
  N  N245  1  0.36914000  0.25028000  0.25712000  1.0
  N  N246  1  0.32495000  0.10917000  0.14659000  1.0
  N  N247  1  0.79048000  0.61134000  0.25987000  1.0
  O  O248  1  0.76353000  0.42635000  0.80122000  1.0
  O  O249  1  0.70384000  0.32966000  0.68287000  1.0
  O  O250  1  0.77744000  0.15387000  0.41491000  1.0
  O  O251  1  0.87870000  0.14646000  0.37667000  1.0
  O  O252  1  0.69917000  0.25643000  0.78036000  1.0
  O  O253  1  0.56017000  0.20129000  0.73032000  1.0
  O  O254  1  0.03768000  0.87479000  0.80117000  1.0
  O  O255  1  0.97913000  0.85329000  0.68283000  1.0
  O  O256  1  0.63763000  0.76098000  0.41470000  1.0
  O  O257  1  0.49823000  0.73014000  0.37674000  1.0
  O  O258  1  0.08121000  0.02379000  0.78032000  1.0
  O  O259  1  0.17049000  0.02906000  0.73053000  1.0
  O  O260  1  0.07367000  0.73648000  0.69878000  1.0
  O  O261  1  0.17033000  0.79616000  0.81714000  1.0
  O  O262  1  0.34613000  0.72258000  0.08509000  1.0
  O  O263  1  0.35354000  0.62131000  0.12333000  1.0
  O  O264  1  0.24357000  0.80084000  0.71965000  1.0
  O  O265  1  0.29871000  0.93983000  0.76969000  1.0
  O  O266  1  0.62521000  0.46232000  0.69882000  1.0
  O  O267  1  0.64671000  0.52086000  0.81717000  1.0
  O  O268  1  0.73901000  0.86236000  0.08529000  1.0
  O  O269  1  0.76986000  0.00177000  0.12326000  1.0
  O  O270  1  0.47621000  0.41878000  0.71968000  1.0
  O  O271  1  0.47094000  0.32951000  0.76947000  1.0
  O  O272  1  0.23647000  0.57366000  0.19878000  1.0
  O  O273  1  0.29616000  0.67034000  0.31713000  1.0
  O  O274  1  0.22257000  0.84613000  0.58508000  1.0
  O  O275  1  0.12131000  0.85354000  0.62333000  1.0
  O  O276  1  0.30084000  0.74357000  0.21965000  1.0
  O  O277  1  0.43983000  0.79872000  0.26968000  1.0
  O  O278  1  0.96232000  0.12521000  0.19882000  1.0
  O  O279  1  0.02086000  0.14671000  0.31716000  1.0
  O  O280  1  0.36236000  0.23902000  0.58530000  1.0
  O  O281  1  0.50177000  0.26986000  0.62326000  1.0
  O  O282  1  0.91878000  0.97621000  0.21967000  1.0
  O  O283  1  0.82951000  0.97094000  0.26947000  1.0
  O  O284  1  0.92635000  0.26353000  0.30122000  1.0
  O  O285  1  0.82967000  0.20385000  0.18287000  1.0
  O  O286  1  0.65386000  0.27743000  0.91491000  1.0
  O  O287  1  0.64646000  0.37869000  0.87667000  1.0
  O  O288  1  0.75643000  0.19917000  0.28035000  1.0
  O  O289  1  0.70128000  0.06017000  0.23031000  1.0
  O  O290  1  0.37479000  0.53768000  0.30118000  1.0
  O  O291  1  0.35329000  0.47914000  0.18284000  1.0
  O  O292  1  0.26098000  0.13763000  0.91470000  1.0
  O  O293  1  0.23014000  0.99823000  0.87674000  1.0
  O  O294  1  0.52379000  0.58122000  0.28033000  1.0
  O  O295  1  0.52906000  0.67049000  0.23053000  1.0
