# generated using pymatgen
data_Zn4H44C81I6N20O
_symmetry_space_group_name_H-M   'P 1'
_cell_length_a   19.00040000
_cell_length_b   19.55340000
_cell_length_c   20.18700000
_cell_angle_alpha   109.11700000
_cell_angle_beta   104.68200000
_cell_angle_gamma   112.21000000
_symmetry_Int_Tables_number   1
_chemical_formula_structural   Zn4H44C81I6N20O
_chemical_formula_sum   'Zn4 H44 C81 I6 N20 O1'
_cell_volume   5919.08542265
_cell_formula_units_Z   1
loop_
 _symmetry_equiv_pos_site_id
 _symmetry_equiv_pos_as_xyz
  1  'x, y, z'
loop_
 _atom_site_type_symbol
 _atom_site_label
 _atom_site_symmetry_multiplicity
 _atom_site_fract_x
 _atom_site_fract_y
 _atom_site_fract_z
 _atom_site_occupancy
  Zn  Zn0  1  0.10823000  0.10273000  0.49038000  1.0
  Zn  Zn1  1  0.87621000  0.88604000  0.49203000  1.0
  Zn  Zn2  1  0.00119000  0.89674000  0.40708000  1.0
  Zn  Zn3  1  0.99141000  0.09035000  0.58826000  1.0
  H  H4  1  0.18291000  0.12419000  0.35728000  1.0
  H  H5  1  0.80968000  0.68995000  0.46959000  1.0
  H  H6  1  0.13145000  0.86501000  0.51463000  1.0
  H  H7  1  0.14193000  0.11315000  0.72839000  1.0
  H  H8  1  0.98516000  0.84186000  0.60735000  1.0
  H  H9  1  0.27796000  0.13553000  0.61585000  1.0
  H  H10  1  0.10707000  0.28104000  0.73496000  1.0
  H  H11  1  0.99816000  0.71893000  0.38110000  1.0
  H  H12  1  0.03898000  0.65907000  0.47800000  1.0
  H  H13  1  0.76823000  0.52261000  0.38422000  1.0
  H  H14  1  0.69386000  0.37535000  0.36186000  1.0
  H  H15  1  0.71212000  0.85864000  0.53173000  1.0
  H  H16  1  0.69769000  0.25060000  0.35919000  1.0
  H  H17  1  0.05245000  0.32289000  0.48473000  1.0
  H  H18  1  0.12605000  0.46929000  0.51243000  1.0
  H  H19  1  0.12146000  0.59377000  0.51077000  1.0
  H  H20  1  0.25636000  0.86271000  0.55197000  1.0
  H  H21  1  0.39633000  0.13300000  0.68101000  1.0
  H  H22  1  0.55174000  0.20910000  0.74123000  1.0
  H  H23  1  0.75137000  0.13029000  0.69300000  1.0
  H  H24  1  0.89493000  0.89813000  0.25534000  1.0
  H  H25  1  0.61075000  0.85996000  0.56996000  1.0
  H  H26  1  0.46323000  0.78314000  0.54664000  1.0
  H  H27  1  0.33183000  0.78333000  0.54050000  1.0
  H  H28  1  0.47492000  0.57783000  0.84917000  1.0
  H  H29  1  0.37425000  0.43812000  0.73353000  1.0
  H  H30  1  0.62793000  0.76129000  0.23236000  1.0
  H  H31  1  0.28088000  0.56172000  0.92632000  1.0
  H  H32  1  0.50662000  0.67914000  0.10166000  1.0
  H  H33  1  0.85529000  0.12430000  0.49847000  1.0
  H  H34  1  0.17813000  0.42377000  0.80894000  1.0
  H  H35  1  0.23141000  0.10210000  0.82311000  1.0
  H  H36  1  0.27866000  0.11335000  0.95493000  1.0
  H  H37  1  0.14403000  0.05501000  0.08395000  1.0
  H  H38  1  0.11754000  0.06896000  0.20163000  1.0
  H  H39  1  0.03403000  0.84722000  0.73196000  1.0
  H  H40  1  0.08565000  0.85800000  0.86309000  1.0
  H  H41  1  0.72272000  0.87966000  0.36328000  1.0
  H  H42  1  0.86421000  0.12886000  0.66739000  1.0
  H  H43  1  0.04802000  0.85382000  0.25594000  1.0
  H  H44  1  0.26642000  0.30903000  0.61437000  1.0
  H  H45  1  0.96756000  0.19932000  0.31719000  1.0
  H  H46  1  0.99065000  0.11711000  0.28036000  1.0
  H  H47  1  0.06935000  0.22489000  0.31873000  1.0
  C  C48  1  0.14549000  0.05895000  0.34261000  1.0
  C  C49  1  0.75899000  0.99448000  0.61032000  1.0
  C  C50  1  0.78018000  0.88059000  0.27796000  1.0
  C  C51  1  0.93159000  0.17491000  0.43931000  1.0
  C  C52  1  0.21858000  0.28852000  0.63481000  1.0
  C  C53  1  0.85595000  0.70888000  0.44715000  1.0
  C  C54  1  0.15623000  0.93144000  0.53316000  1.0
  C  C55  1  0.09650000  0.04730000  0.68863000  1.0
  C  C56  1  0.01584000  0.90898000  0.62742000  1.0
  C  C57  1  0.23065000  0.06937000  0.58519000  1.0
  C  C58  1  0.13677000  0.27453000  0.69564000  1.0
  C  C59  1  0.75996000  0.92458000  0.56205000  1.0
  C  C60  1  0.95344000  0.72494000  0.40374000  1.0
  C  C61  1  0.21183000  0.33388000  0.70103000  1.0
  C  C62  1  0.90305000  0.67221000  0.42642000  1.0
  C  C63  1  0.23845000  0.99983000  0.58276000  1.0
  C  C64  1  0.08553000  0.97577000  0.69731000  1.0
  C  C65  1  0.98046000  0.60127000  0.45726000  1.0
  C  C66  1  0.90330000  0.59861000  0.42978000  1.0
  C  C67  1  0.82855000  0.52539000  0.40616000  1.0
  C  C68  1  0.82950000  0.45427000  0.40735000  1.0
  C  C69  1  0.90805000  0.45680000  0.43395000  1.0
  C  C70  1  0.86285000  0.89651000  0.29274000  1.0
  C  C71  1  0.98459000  0.53229000  0.46031000  1.0
  C  C72  1  0.75421000  0.37764000  0.38133000  1.0
  C  C73  1  0.75630000  0.30803000  0.37984000  1.0
  C  C74  1  0.83400000  0.30800000  0.40515000  1.0
  C  C75  1  0.91050000  0.38488000  0.43372000  1.0
  C  C76  1  0.99000000  0.38961000  0.46159000  1.0
  C  C77  1  0.06595000  0.46678000  0.49011000  1.0
  C  C78  1  0.06341000  0.53527000  0.48924000  1.0
  C  C79  1  0.83979000  0.23730000  0.40353000  1.0
  C  C80  1  0.91819000  0.24200000  0.43250000  1.0
  C  C81  1  0.90260000  0.12851000  0.47659000  1.0
  C  C82  1  0.99173000  0.31880000  0.46125000  1.0
  C  C83  1  0.31611000  0.92194000  0.58670000  1.0
  C  C84  1  0.31630000  0.99818000  0.61203000  1.0
  C  C85  1  0.39433000  0.07308000  0.65832000  1.0
  C  C86  1  0.47071000  0.07365000  0.67197000  1.0
  C  C87  1  0.46958000  0.99635000  0.63956000  1.0
  C  C88  1  0.39092000  0.91940000  0.59946000  1.0
  C  C89  1  0.55039000  0.15023000  0.71336000  1.0
  C  C90  1  0.62283000  0.15000000  0.71573000  1.0
  C  C91  1  0.62335000  0.07376000  0.67755000  1.0
  C  C92  1  0.77461000  0.88570000  0.34762000  1.0
  C  C93  1  0.54506000  0.99658000  0.64258000  1.0
  C  C94  1  0.54248000  0.91892000  0.60589000  1.0
  C  C95  1  0.46401000  0.84217000  0.57202000  1.0
  C  C96  1  0.39140000  0.84229000  0.56870000  1.0
  C  C97  1  0.69332000  0.07111000  0.66913000  1.0
  C  C98  1  0.68925000  0.99522000  0.62806000  1.0
  C  C99  1  0.61461000  0.91983000  0.59997000  1.0
  C  C100  1  0.26901000  0.41948000  0.76345000  1.0
  C  C101  1  0.24316000  0.45683000  0.81757000  1.0
  C  C102  1  0.29974000  0.53405000  0.88273000  1.0
  C  C103  1  0.99445000  0.15753000  0.42726000  1.0
  C  C104  1  0.38396000  0.57768000  0.89512000  1.0
  C  C105  1  0.40949000  0.54355000  0.83904000  1.0
  C  C106  1  0.35282000  0.46569000  0.77469000  1.0
  C  C107  1  0.64611000  0.82031000  0.06951000  1.0
  C  C108  1  0.71318000  0.86893000  0.14409000  1.0
  C  C109  1  0.57212000  0.74993000  0.05363000  1.0
  C  C110  1  0.70927000  0.84636000  0.20364000  1.0
  C  C111  1  0.63196000  0.77956000  0.18732000  1.0
  C  C112  1  0.56464000  0.73305000  0.11479000  1.0
  C  C113  1  0.15143000  0.97965000  0.21559000  1.0
  C  C114  1  0.83741000  0.06219000  0.63091000  1.0
  C  C115  1  0.18099000  0.92531000  0.18538000  1.0
  C  C116  1  0.19152000  0.91435000  0.11710000  1.0
  C  C117  1  0.17707000  0.96078000  0.08006000  1.0
  C  C118  1  0.15465000  0.01971000  0.11351000  1.0
  C  C119  1  0.14088000  0.02759000  0.17905000  1.0
  C  C120  1  0.22616000  0.05505000  0.90492000  1.0
  C  C121  1  0.19895000  0.04845000  0.83143000  1.0
  C  C122  1  0.18395000  0.98711000  0.91712000  1.0
  C  C123  1  0.12679000  0.97509000  0.76837000  1.0
  C  C124  1  0.08937000  0.90501000  0.78007000  1.0
  C  C125  1  0.07765000  0.92103000  0.29147000  1.0
  C  C126  1  0.11746000  0.91043000  0.85300000  1.0
  C  C127  1  0.12809000  0.98625000  0.28020000  1.0
  C  C128  1  0.01669000  0.18210000  0.32432000  1.0
  I  I129  1  0.72835000  0.12006000  0.35287000  1.0
  I  I130  1  0.73622000  0.26683000  0.77560000  1.0
  I  I131  1  0.81990000  0.97882000  0.16978000  1.0
  I  I132  1  0.64640000  0.84742000  0.97710000  1.0
  I  I133  1  0.23480000  0.83581000  0.06712000  1.0
  I  I134  1  0.21527000  0.86552000  0.24712000  1.0
  N  N135  1  0.10952000  0.03841000  0.38789000  1.0
  N  N136  1  0.87705000  0.77807000  0.43795000  1.0
  N  N137  1  0.10502000  0.95865000  0.50756000  1.0
  N  N138  1  0.03717000  0.02418000  0.62010000  1.0
  N  N139  1  0.98789000  0.93931000  0.58237000  1.0
  N  N140  1  0.15078000  0.04344000  0.53963000  1.0
  N  N141  1  0.10222000  0.20080000  0.63206000  1.0
  N  N142  1  0.93742000  0.78776000  0.41040000  1.0
  N  N143  1  0.43868000  0.64894000  0.96780000  1.0
  N  N144  1  0.51289000  0.69244000  0.97639000  1.0
  N  N145  1  0.17608000  0.94167000  0.00634000  1.0
  N  N146  1  0.83259000  0.94873000  0.55484000  1.0
  N  N147  1  0.20411000  0.00470000  0.99479000  1.0
  N  N148  1  0.90159000  0.90832000  0.36466000  1.0
  N  N149  1  0.94518000  0.08808000  0.48637000  1.0
  N  N150  1  0.84755000  0.90209000  0.39841000  1.0
  N  N151  1  0.00072000  0.10461000  0.45413000  1.0
  N  N152  1  0.88111000  0.03452000  0.59767000  1.0
  N  N153  1  0.06693000  0.95242000  0.35554000  1.0
  N  N154  1  0.15309000  0.20947000  0.59389000  1.0
  O  O155  1  0.05111000  0.19051000  0.40081000  1.0
