# generated using pymatgen
data_CdH5C5N3(ClO)2
_symmetry_space_group_name_H-M   'P 1'
_cell_length_a   6.98449000
_cell_length_b   7.59331000
_cell_length_c   9.79087000
_cell_angle_alpha   100.66800000
_cell_angle_beta   97.85620000
_cell_angle_gamma   114.58200000
_symmetry_Int_Tables_number   1
_chemical_formula_structural   CdH5C5N3(ClO)2
_chemical_formula_sum   'Cd2 H10 C10 N6 Cl4 O4'
_cell_volume   450.57640619
_cell_formula_units_Z   2
loop_
 _symmetry_equiv_pos_site_id
 _symmetry_equiv_pos_as_xyz
  1  'x, y, z'
loop_
 _atom_site_type_symbol
 _atom_site_label
 _atom_site_symmetry_multiplicity
 _atom_site_fract_x
 _atom_site_fract_y
 _atom_site_fract_z
 _atom_site_occupancy
  Cd  Cd0  1  0.73840000  0.51504000  0.92622000  1.0
  Cd  Cd1  1  0.26162000  0.48497000  0.07379000  1.0
  H  H2  1  0.92939000  0.65813000  0.30678000  1.0
  H  H3  1  0.07061000  0.34186000  0.69322000  1.0
  H  H4  1  0.71393000  0.46774000  0.35566000  1.0
  H  H5  1  0.28607000  0.53225000  0.64434000  1.0
  H  H6  1  0.35634000  0.09531000  0.74102000  1.0
  H  H7  1  0.64365000  0.90470000  0.25897000  1.0
  H  H8  1  0.20220000  0.92799000  0.50337000  1.0
  H  H9  1  0.79779000  0.07200000  0.49662000  1.0
  H  H10  1  0.17136000  0.93601000  0.92711000  1.0
  H  H11  1  0.82864000  0.06400000  0.07289000  1.0
  C  C12  1  0.20684000  0.95603000  0.71529000  1.0
  C  C13  1  0.79315000  0.04397000  0.28471000  1.0
  C  C14  1  0.10452000  0.86894000  0.81260000  1.0
  C  C15  1  0.89548000  0.13107000  0.18739000  1.0
  C  C16  1  0.93191000  0.68686000  0.52261000  1.0
  C  C17  1  0.06808000  0.31314000  0.47738000  1.0
  C  C18  1  0.83148000  0.60200000  0.62986000  1.0
  C  C19  1  0.16852000  0.39801000  0.37014000  1.0
  C  C20  1  0.62929000  0.39997000  0.58911000  1.0
  C  C21  1  0.37071000  0.60004000  0.41090000  1.0
  N  N22  1  0.91985000  0.69406000  0.76717000  1.0
  N  N23  1  0.08015000  0.30594000  0.23283000  1.0
  N  N24  1  0.85695000  0.59919000  0.38399000  1.0
  N  N25  1  0.14305000  0.40079000  0.61601000  1.0
  N  N26  1  0.11756000  0.86505000  0.57368000  1.0
  N  N27  1  0.88243000  0.13495000  0.42631000  1.0
  Cl  Cl28  1  0.07450000  0.74450000  0.13604000  1.0
  Cl  Cl29  1  0.92552000  0.25551000  0.86396000  1.0
  Cl  Cl30  1  0.50315000  0.29238000  0.06546000  1.0
  Cl  Cl31  1  0.49685000  0.70762000  0.93454000  1.0
  O  O32  1  0.55103000  0.33967000  0.69117000  1.0
  O  O33  1  0.44897000  0.66033000  0.30885000  1.0
  O  O34  1  0.55460000  0.30452000  0.45840000  1.0
  O  O35  1  0.44540000  0.69548000  0.54161000  1.0
