# generated using pymatgen
data_KH17C22(NO4)2
_symmetry_space_group_name_H-M   'P 1'
_cell_length_a   4.61970000
_cell_length_b   12.58520000
_cell_length_c   16.89340000
_cell_angle_alpha   93.41810000
_cell_angle_beta   92.57300000
_cell_angle_gamma   91.61490000
_symmetry_Int_Tables_number   1
_chemical_formula_structural   KH17C22(NO4)2
_chemical_formula_sum   'K2 H34 C44 N4 O16'
_cell_volume   978.97497663
_cell_formula_units_Z   2
loop_
 _symmetry_equiv_pos_site_id
 _symmetry_equiv_pos_as_xyz
  1  'x, y, z'
loop_
 _atom_site_type_symbol
 _atom_site_label
 _atom_site_symmetry_multiplicity
 _atom_site_fract_x
 _atom_site_fract_y
 _atom_site_fract_z
 _atom_site_occupancy
  K  K0  1  0.23635000  0.94639000  0.41235000  1.0
  K  K1  1  0.76365000  0.05361000  0.58765000  1.0
  H  H2  1  0.40468000  0.83783000  0.59482000  1.0
  H  H3  1  0.59532000  0.16217000  0.40518000  1.0
  H  H4  1  0.53784000  0.95174000  0.07500000  1.0
  H  H5  1  0.46216000  0.04826000  0.92500000  1.0
  H  H6  1  0.39171000  0.89757000  0.20764000  1.0
  H  H7  1  0.60829000  0.10242000  0.79236000  1.0
  H  H8  1  0.22225000  0.46630000  0.17044000  1.0
  H  H9  1  0.77775000  0.53370000  0.82956000  1.0
  H  H10  1  0.38339000  0.52388000  0.04196000  1.0
  H  H11  1  0.61662000  0.47612000  0.95804000  1.0
  H  H12  1  0.46297000  0.50249000  0.36643000  1.0
  H  H13  1  0.53703000  0.49751000  0.63357000  1.0
  H  H14  1  0.35727000  0.63372000  0.39526000  1.0
  H  H15  1  0.64273000  0.36628000  0.60474000  1.0
  H  H16  1  0.65642000  0.56513000  0.50206000  1.0
  H  H17  1  0.34358000  0.43487000  0.49794000  1.0
  H  H18  1  0.93215000  0.53072000  0.43681000  1.0
  H  H19  1  0.06785000  0.46928000  0.56320000  1.0
  H  H20  1  0.99987000  0.73004000  0.41498000  1.0
  H  H21  1  0.00012000  0.26996000  0.58502000  1.0
  H  H22  1  0.09819000  0.69158000  0.51064000  1.0
  H  H23  1  0.90181000  0.30842000  0.48936000  1.0
  H  H24  1  0.42941000  0.80786000  0.85805000  1.0
  H  H25  1  0.57059000  0.19214000  0.14195000  1.0
  H  H26  1  0.16418000  0.90842000  0.85857000  1.0
  H  H27  1  0.83581000  0.09158000  0.14143000  1.0
  H  H28  1  0.02494000  0.67631000  0.80175000  1.0
  H  H29  1  0.97506000  0.32369000  0.19825000  1.0
  H  H30  1  0.80319000  0.78784000  0.78973000  1.0
  H  H31  1  0.19681000  0.21216000  0.21027000  1.0
  H  H32  1  0.38650000  0.75092000  0.71218000  1.0
  H  H33  1  0.61350000  0.24909000  0.28782000  1.0
  H  H34  1  0.04480000  0.72248000  0.66630000  1.0
  H  H35  1  0.95520000  0.27752000  0.33370000  1.0
  C  C36  1  0.89984000  0.85186000  0.97674000  1.0
  C  C37  1  0.10017000  0.14814000  0.02326000  1.0
  C  C38  1  0.81853000  0.82035000  0.05605000  1.0
  C  C39  1  0.18147000  0.17965000  0.94395000  1.0
  C  C40  1  0.62712000  0.88084000  0.09960000  1.0
  C  C41  1  0.37289000  0.11916000  0.90040000  1.0
  C  C42  1  0.54256000  0.84967000  0.17401000  1.0
  C  C43  1  0.45744000  0.15033000  0.82599000  1.0
  C  C44  1  0.64553000  0.75684000  0.20440000  1.0
  C  C45  1  0.35448000  0.24316000  0.79560000  1.0
  C  C46  1  0.54432000  0.72123000  0.28061000  1.0
  C  C47  1  0.45568000  0.27877000  0.71939000  1.0
  C  C48  1  0.84642000  0.56193000  0.26606000  1.0
  C  C49  1  0.15358000  0.43807000  0.73394000  1.0
  C  C50  1  0.94618000  0.59892000  0.19027000  1.0
  C  C51  1  0.05382000  0.40108000  0.80973000  1.0
  C  C52  1  0.13988000  0.53905000  0.14717000  1.0
  C  C53  1  0.86012000  0.46095000  0.85283000  1.0
  C  C54  1  0.23061000  0.57200000  0.07417000  1.0
  C  C55  1  0.76939000  0.42800000  0.92583000  1.0
  C  C56  1  0.12729000  0.66436000  0.04341000  1.0
  C  C57  1  0.87272000  0.33564000  0.95660000  1.0
  C  C58  1  0.22649000  0.69867000  0.96656000  1.0
  C  C59  1  0.77351000  0.30133000  0.03344000  1.0
  C  C60  1  0.93041000  0.72673000  0.08642000  1.0
  C  C61  1  0.06959000  0.27327000  0.91358000  1.0
  C  C62  1  0.84082000  0.69414000  0.16098000  1.0
  C  C63  1  0.15918000  0.30586000  0.83902000  1.0
  C  C64  1  0.54106000  0.58489000  0.38049000  1.0
  C  C65  1  0.45894000  0.41511000  0.61951000  1.0
  C  C66  1  0.76720000  0.58944000  0.44959000  1.0
  C  C67  1  0.23280000  0.41056000  0.55041000  1.0
  C  C68  1  0.91137000  0.69896000  0.46856000  1.0
  C  C69  1  0.08863000  0.30104000  0.53144000  1.0
  C  C70  1  0.72134000  0.78286000  0.50612000  1.0
  C  C71  1  0.27866000  0.21714000  0.49388000  1.0
  C  C72  1  0.19766000  0.82291000  0.86038000  1.0
  C  C73  1  0.80234000  0.17709000  0.13962000  1.0
  C  C74  1  0.02799000  0.76164000  0.79179000  1.0
  C  C75  1  0.97201000  0.23836000  0.20821000  1.0
  C  C76  1  0.16005000  0.77592000  0.71201000  1.0
  C  C77  1  0.83995000  0.22408000  0.28799000  1.0
  C  C78  1  0.14519000  0.88744000  0.68345000  1.0
  C  C79  1  0.85480000  0.11256000  0.31655000  1.0
  N  N80  1  0.10720000  0.79075000  0.93821000  1.0
  N  N81  1  0.89281000  0.20925000  0.06179000  1.0
  N  N82  1  0.64942000  0.62537000  0.30665000  1.0
  N  N83  1  0.35058000  0.37463000  0.69335000  1.0
  O  O84  1  0.79215000  0.92780000  0.94460000  1.0
  O  O85  1  0.20785000  0.07220000  0.05540000  1.0
  O  O86  1  0.36881000  0.77240000  0.31958000  1.0
  O  O87  1  0.63119000  0.22759000  0.68042000  1.0
  O  O88  1  0.92734000  0.47845000  0.29335000  1.0
  O  O89  1  0.07266000  0.52155000  0.70665000  1.0
  O  O90  1  0.40715000  0.64908000  0.92840000  1.0
  O  O91  1  0.59286000  0.35092000  0.07160000  1.0
  O  O92  1  0.74223000  0.87716000  0.48419000  1.0
  O  O93  1  0.25776000  0.12284000  0.51581000  1.0
  O  O94  1  0.55516000  0.75321000  0.56028000  1.0
  O  O95  1  0.44484000  0.24680000  0.43973000  1.0
  O  O96  1  0.29097000  0.90629000  0.61938000  1.0
  O  O97  1  0.70903000  0.09371000  0.38062000  1.0
  O  O98  1  0.99982000  0.95768000  0.71536000  1.0
  O  O99  1  0.00017000  0.04232000  0.28464000  1.0
