# generated using pymatgen
data_MnH13C16N3O4
_symmetry_space_group_name_H-M   'P 1'
_cell_length_a   11.63690000
_cell_length_b   11.63690000
_cell_length_c   16.18950000
_cell_angle_alpha   71.10030000
_cell_angle_beta   71.10040000
_cell_angle_gamma   82.32340000
_symmetry_Int_Tables_number   1
_chemical_formula_structural   MnH13C16N3O4
_chemical_formula_sum   'Mn4 H52 C64 N12 O16'
_cell_volume   1961.31665055
_cell_formula_units_Z   4
loop_
 _symmetry_equiv_pos_site_id
 _symmetry_equiv_pos_as_xyz
  1  'x, y, z'
loop_
 _atom_site_type_symbol
 _atom_site_label
 _atom_site_symmetry_multiplicity
 _atom_site_fract_x
 _atom_site_fract_y
 _atom_site_fract_z
 _atom_site_occupancy
  Mn  Mn0  1  0.15793000  0.37569000  0.95445000  1.0
  Mn  Mn1  1  0.62431000  0.84206000  0.54555000  1.0
  Mn  Mn2  1  0.84206000  0.62431000  0.04555000  1.0
  Mn  Mn3  1  0.37570000  0.15793000  0.45445000  1.0
  H  H4  1  0.59345000  0.84421000  0.95605000  1.0
  H  H5  1  0.15579000  0.40655000  0.54395000  1.0
  H  H6  1  0.40655000  0.15579000  0.04395000  1.0
  H  H7  1  0.84421000  0.59345000  0.45605000  1.0
  H  H8  1  0.31554000  0.18146000  0.72597000  1.0
  H  H9  1  0.81855000  0.68445000  0.77403000  1.0
  H  H10  1  0.68446000  0.81854000  0.27403000  1.0
  H  H11  1  0.18145000  0.31554000  0.22597000  1.0
  H  H12  1  0.52765000  0.84860000  0.74738000  1.0
  H  H13  1  0.15141000  0.47235000  0.75261000  1.0
  H  H14  1  0.47235000  0.15140000  0.25262000  1.0
  H  H15  1  0.84860000  0.52766000  0.24738000  1.0
  H  H16  1  0.44050000  0.02004000  0.96215000  1.0
  H  H17  1  0.97996000  0.55949000  0.53785000  1.0
  H  H18  1  0.55950000  0.97996000  0.03785000  1.0
  H  H19  1  0.02004000  0.44050000  0.46215000  1.0
  H  H20  1  0.65257000  0.74492000  0.80826000  1.0
  H  H21  1  0.25509000  0.34743000  0.69174000  1.0
  H  H22  1  0.34743000  0.25508000  0.19174000  1.0
  H  H23  1  0.74492000  0.65257000  0.30826000  1.0
  H  H24  1  0.66777000  0.67492000  0.91851000  1.0
  H  H25  1  0.32509000  0.33223000  0.58149000  1.0
  H  H26  1  0.33223000  0.32509000  0.08149000  1.0
  H  H27  1  0.67492000  0.66777000  0.41851000  1.0
  H  H28  1  0.36819000  0.71678000  0.99738000  1.0
  H  H29  1  0.28322000  0.63181000  0.50262000  1.0
  H  H30  1  0.63181000  0.28322000  0.00262000  1.0
  H  H31  1  0.71678000  0.36819000  0.49738000  1.0
  H  H32  1  0.61029000  0.53856000  0.80926000  1.0
  H  H33  1  0.46145000  0.38972000  0.69073000  1.0
  H  H34  1  0.38971000  0.46144000  0.19074000  1.0
  H  H35  1  0.53856000  0.61029000  0.30926000  1.0
  H  H36  1  0.43890000  0.40460000  0.84143000  1.0
  H  H37  1  0.59540000  0.56111000  0.65856000  1.0
  H  H38  1  0.56110000  0.59539000  0.15857000  1.0
  H  H39  1  0.40460000  0.43890000  0.34143000  1.0
  H  H40  1  0.20530000  0.57797000  0.02033000  1.0
  H  H41  1  0.42202000  0.79471000  0.47967000  1.0
  H  H42  1  0.79471000  0.42203000  0.97967000  1.0
  H  H43  1  0.57797000  0.20530000  0.52033000  1.0
  H  H44  1  0.87059000  0.01139000  0.03215000  1.0
  H  H45  1  0.98861000  0.12941000  0.46784000  1.0
  H  H46  1  0.12941000  0.98860000  0.96785000  1.0
  H  H47  1  0.01139000  0.87059000  0.53216000  1.0
  H  H48  1  0.84466000  0.04432000  0.13728000  1.0
  H  H49  1  0.95568000  0.15534000  0.36272000  1.0
  H  H50  1  0.15533000  0.95569000  0.86272000  1.0
  H  H51  1  0.04430000  0.84467000  0.63728000  1.0
  H  H52  1  0.75648000  0.12083000  0.06314000  1.0
  H  H53  1  0.87917000  0.24352000  0.43686000  1.0
  H  H54  1  0.24351000  0.87917000  0.93685000  1.0
  H  H55  1  0.12082000  0.75648000  0.56316000  1.0
  C  C56  1  0.36718000  0.11107000  0.76305000  1.0
  C  C57  1  0.88893000  0.63282000  0.73695000  1.0
  C  C58  1  0.63282000  0.88893000  0.23695000  1.0
  C  C59  1  0.11107000  0.36718000  0.26305000  1.0
  C  C60  1  0.42332000  0.01545000  0.72809000  1.0
  C  C61  1  0.98455000  0.57668000  0.77191000  1.0
  C  C62  1  0.57668000  0.98454000  0.27191000  1.0
  C  C63  1  0.01546000  0.42332000  0.22808000  1.0
  C  C64  1  0.30589000  0.20737000  0.88993000  1.0
  C  C65  1  0.79263000  0.69410000  0.61007000  1.0
  C  C66  1  0.69410000  0.79263000  0.11007000  1.0
  C  C67  1  0.20737000  0.30590000  0.38993000  1.0
  C  C68  1  0.49785000  0.92303000  0.86059000  1.0
  C  C69  1  0.07698000  0.50215000  0.63941000  1.0
  C  C70  1  0.50215000  0.07697000  0.13941000  1.0
  C  C71  1  0.92303000  0.49785000  0.36058000  1.0
  C  C72  1  0.37473000  0.11204000  0.84747000  1.0
  C  C73  1  0.88797000  0.62527000  0.65253000  1.0
  C  C74  1  0.62527000  0.88797000  0.15253000  1.0
  C  C75  1  0.11203000  0.37473000  0.34747000  1.0
  C  C76  1  0.48616000  0.92156000  0.77672000  1.0
  C  C77  1  0.07845000  0.51384000  0.72328000  1.0
  C  C78  1  0.51384000  0.07844000  0.22328000  1.0
  C  C79  1  0.92156000  0.48616000  0.27671000  1.0
  C  C80  1  0.43972000  0.01952000  0.89523000  1.0
  C  C81  1  0.98048000  0.56027000  0.60477000  1.0
  C  C82  1  0.56028000  0.98048000  0.10477000  1.0
  C  C83  1  0.01952000  0.43973000  0.39522000  1.0
  C  C84  1  0.41767000  0.01392000  0.63698000  1.0
  C  C85  1  0.98608000  0.58233000  0.86302000  1.0
  C  C86  1  0.58233000  0.98608000  0.36302000  1.0
  C  C87  1  0.01392000  0.41767000  0.13698000  1.0
  C  C88  1  0.50222000  0.63933000  0.90076000  1.0
  C  C89  1  0.36067000  0.49778000  0.59924000  1.0
  C  C90  1  0.49778000  0.36067000  0.09924000  1.0
  C  C91  1  0.63933000  0.50222000  0.40076000  1.0
  C  C92  1  0.60254000  0.72318000  0.88182000  1.0
  C  C93  1  0.27682000  0.39746000  0.61818000  1.0
  C  C94  1  0.39747000  0.27682000  0.11818000  1.0
  C  C95  1  0.72318000  0.60254000  0.38182000  1.0
  C  C96  1  0.38663000  0.64900000  0.96105000  1.0
  C  C97  1  0.35100000  0.61337000  0.53895000  1.0
  C  C98  1  0.61337000  0.35100000  0.03895000  1.0
  C  C99  1  0.64900000  0.38663000  0.46105000  1.0
  C  C100  1  0.52185000  0.54923000  0.85728000  1.0
  C  C101  1  0.45078000  0.47816000  0.64271000  1.0
  C  C102  1  0.47815000  0.45077000  0.14272000  1.0
  C  C103  1  0.54923000  0.52185000  0.35728000  1.0
  C  C104  1  0.93575000  0.17835000  0.01894000  1.0
  C  C105  1  0.82166000  0.06425000  0.48106000  1.0
  C  C106  1  0.06425000  0.82166000  0.98105000  1.0
  C  C107  1  0.17834000  0.93574000  0.51895000  1.0
  C  C108  1  0.42719000  0.47519000  0.87455000  1.0
  C  C109  1  0.52481000  0.57282000  0.62545000  1.0
  C  C110  1  0.57281000  0.52481000  0.12546000  1.0
  C  C111  1  0.47519000  0.42719000  0.37454000  1.0
  C  C112  1  0.29652000  0.57205000  0.97420000  1.0
  C  C113  1  0.42795000  0.70349000  0.52580000  1.0
  C  C114  1  0.70349000  0.42795000  0.02581000  1.0
  C  C115  1  0.57204000  0.29652000  0.47419000  1.0
  C  C116  1  0.84784000  0.08388000  0.06512000  1.0
  C  C117  1  0.91612000  0.15216000  0.43488000  1.0
  C  C118  1  0.15215000  0.91612000  0.93488000  1.0
  C  C119  1  0.08388000  0.84785000  0.56512000  1.0
  N  N120  1  0.55924000  0.83111000  0.90912000  1.0
  N  N121  1  0.16889000  0.44076000  0.59089000  1.0
  N  N122  1  0.44077000  0.16889000  0.09089000  1.0
  N  N123  1  0.83111000  0.55924000  0.40911000  1.0
  N  N124  1  0.31554000  0.48627000  0.93151000  1.0
  N  N125  1  0.51373000  0.68447000  0.56849000  1.0
  N  N126  1  0.68447000  0.51373000  0.06849000  1.0
  N  N127  1  0.48627000  0.31553000  0.43151000  1.0
  N  N128  1  0.00654000  0.25443000  0.98150000  1.0
  N  N129  1  0.74557000  0.99346000  0.51850000  1.0
  N  N130  1  0.99347000  0.74556000  0.01850000  1.0
  N  N131  1  0.25442000  0.00654000  0.48151000  1.0
  O  O132  1  0.25702000  0.29863000  0.84177000  1.0
  O  O133  1  0.70137000  0.74297000  0.65824000  1.0
  O  O134  1  0.74297000  0.70137000  0.15824000  1.0
  O  O135  1  0.29863000  0.25702000  0.34176000  1.0
  O  O136  1  0.29382000  0.19589000  0.97336000  1.0
  O  O137  1  0.80411000  0.70617000  0.52664000  1.0
  O  O138  1  0.70618000  0.80411000  0.02664000  1.0
  O  O139  1  0.19589000  0.29382000  0.47336000  1.0
  O  O140  1  0.46559000  0.92395000  0.60802000  1.0
  O  O141  1  0.07605000  0.53442000  0.89198000  1.0
  O  O142  1  0.53441000  0.07604000  0.39199000  1.0
  O  O143  1  0.92395000  0.46558000  0.10802000  1.0
  O  O144  1  0.36433000  0.10496000  0.59308000  1.0
  O  O145  1  0.89504000  0.63567000  0.90692000  1.0
  O  O146  1  0.63568000  0.89503000  0.40692000  1.0
  O  O147  1  0.10496000  0.36433000  0.09308000  1.0
