# generated using pymatgen
data_MgH7C11SN2O3
_symmetry_space_group_name_H-M   'P 1'
_cell_length_a   6.90415000
_cell_length_b   31.38230000
_cell_length_c   31.38830000
_cell_angle_alpha   119.46400000
_cell_angle_beta   94.21850000
_cell_angle_gamma   94.18690000
_symmetry_Int_Tables_number   1
_chemical_formula_structural   MgH7C11SN2O3
_chemical_formula_sum   'Mg6 H42 C66 S6 N12 O18'
_cell_volume   5858.33531751
_cell_formula_units_Z   6
loop_
 _symmetry_equiv_pos_site_id
 _symmetry_equiv_pos_as_xyz
  1  'x, y, z'
loop_
 _atom_site_type_symbol
 _atom_site_label
 _atom_site_symmetry_multiplicity
 _atom_site_fract_x
 _atom_site_fract_y
 _atom_site_fract_z
 _atom_site_occupancy
  Mg  Mg0  1  0.42640000  0.34190000  0.70338000  1.0
  Mg  Mg1  1  0.08439000  0.36164000  0.65812000  1.0
  Mg  Mg2  1  0.72293000  0.29661000  0.63838000  1.0
  Mg  Mg3  1  0.79469000  0.68309000  0.37208000  1.0
  Mg  Mg4  1  0.11173000  0.68893000  0.31702000  1.0
  Mg  Mg5  1  0.42277000  0.62804000  0.31121000  1.0
  H  H6  1  0.61221000  0.11595000  0.57979000  1.0
  H  H7  1  0.49593000  0.46381000  0.88408000  1.0
  H  H8  1  0.03231000  0.42018000  0.53615000  1.0
  H  H9  1  0.68173000  0.99457000  0.54339000  1.0
  H  H10  1  0.68632000  0.54869000  0.00544000  1.0
  H  H11  1  0.13843000  0.45654000  0.45118000  1.0
  H  H12  1  0.91782000  0.94527000  0.49144000  1.0
  H  H13  1  0.97220000  0.54621000  0.05472000  1.0
  H  H14  1  0.42686000  0.50830000  0.45375000  1.0
  H  H15  1  0.36722000  0.99620000  0.48052000  1.0
  H  H16  1  0.37127000  0.48456000  0.00392000  1.0
  H  H17  1  0.88704000  0.51932000  0.51563000  1.0
  H  H18  1  0.96655000  0.93415000  0.40498000  1.0
  H  H19  1  0.03266000  0.47097000  0.06590000  1.0
  H  H20  1  0.56149000  0.59479000  0.52913000  1.0
  H  H21  1  0.14987000  0.82056000  0.39546000  1.0
  H  H22  1  0.32886000  0.57501000  0.17950000  1.0
  H  H23  1  0.75358000  0.60430000  0.42506000  1.0
  H  H24  1  0.45557000  0.81703000  0.33800000  1.0
  H  H25  1  0.63808000  0.52115000  0.18298000  1.0
  H  H26  1  0.11699000  0.66186000  0.47901000  1.0
  H  H27  1  0.68551000  0.89352000  0.36942000  1.0
  H  H28  1  0.79145000  0.47616000  0.10645000  1.0
  H  H29  1  0.31549000  0.63039000  0.52407000  1.0
  H  H30  1  0.19210000  0.07390000  0.49234000  1.0
  H  H31  1  0.11895000  0.41861000  0.92616000  1.0
  H  H32  1  0.69990000  0.50757000  0.58161000  1.0
  H  H33  1  0.95862000  0.12432000  0.54736000  1.0
  H  H34  1  0.83484000  0.42312000  0.87572000  1.0
  H  H35  1  0.41128000  0.45260000  0.57700000  1.0
  H  H36  1  0.46929000  0.10195000  0.67608000  1.0
  H  H37  1  0.36724000  0.57417000  0.89806000  1.0
  H  H38  1  0.79278000  0.32398000  0.42581000  1.0
  H  H39  1  0.67342000  0.19804000  0.66046000  1.0
  H  H40  1  0.47507000  0.46251000  0.80198000  1.0
  H  H41  1  0.01245000  0.33958000  0.53753000  1.0
  H  H42  1  0.94838000  0.17553000  0.63935000  1.0
  H  H43  1  0.77255000  0.46393000  0.82445000  1.0
  H  H44  1  0.30814000  0.36032000  0.53584000  1.0
  H  H45  1  0.12506000  0.11141000  0.64338000  1.0
  H  H46  1  0.01326000  0.53203000  0.88863000  1.0
  H  H47  1  0.48085000  0.35635000  0.46776000  1.0
  C  C48  1  0.65742000  0.08867000  0.62679000  1.0
  C  C49  1  0.56834000  0.53810000  0.91137000  1.0
  C  C50  1  0.03025000  0.37320000  0.46186000  1.0
  C  C51  1  0.80902000  0.06319000  0.55059000  1.0
  C  C52  1  0.74566000  0.48735000  0.93681000  1.0
  C  C53  1  0.25850000  0.44933000  0.51262000  1.0
  C  C54  1  0.79419000  0.01230000  0.53271000  1.0
  C  C55  1  0.78149000  0.52035000  0.98771000  1.0
  C  C56  1  0.26169000  0.46718000  0.47958000  1.0
  C  C57  1  0.92751000  0.98433000  0.50297000  1.0
  C  C58  1  0.94301000  0.51868000  0.01569000  1.0
  C  C59  1  0.42488000  0.49682000  0.48130000  1.0
  C  C60  1  0.07731000  0.00673000  0.48983000  1.0
  C  C61  1  0.07077000  0.48321000  0.99330000  1.0
  C  C62  1  0.58780000  0.50999000  0.51686000  1.0
  C  C63  1  0.21396000  0.92891000  0.43864000  1.0
  C  C64  1  0.28489000  0.51000000  0.07119000  1.0
  C  C65  1  0.77521000  0.56118000  0.49021000  1.0
  C  C66  1  0.93214000  0.86213000  0.38541000  1.0
  C  C67  1  0.06962000  0.52345000  0.13789000  1.0
  C  C68  1  0.54621000  0.61442000  0.47672000  1.0
  C  C69  1  0.99837000  0.82005000  0.38281000  1.0
  C  C70  1  0.17788000  0.56286000  0.18000000  1.0
  C  C71  1  0.61494000  0.61704000  0.43726000  1.0
  C  C72  1  0.86887000  0.77617000  0.36458000  1.0
  C  C73  1  0.09235000  0.58844000  0.22391000  1.0
  C  C74  1  0.50392000  0.63540000  0.41169000  1.0
  C  C75  1  0.66751000  0.77572000  0.34907000  1.0
  C  C76  1  0.89143000  0.57339000  0.22434000  1.0
  C  C77  1  0.31806000  0.65091000  0.42675000  1.0
  C  C78  1  0.60878000  0.81812000  0.34995000  1.0
  C  C79  1  0.79024000  0.53198000  0.18189000  1.0
  C  C80  1  0.25834000  0.64994000  0.46820000  1.0
  C  C81  1  0.73703000  0.86053000  0.36720000  1.0
  C  C82  1  0.87605000  0.50687000  0.13946000  1.0
  C  C83  1  0.36934000  0.63265000  0.49334000  1.0
  C  C84  1  0.51505000  0.73402000  0.33397000  1.0
  C  C85  1  0.78088000  0.59991000  0.26611000  1.0
  C  C86  1  0.18094000  0.66613000  0.40019000  1.0
  C  C87  1  0.08140000  0.05682000  0.50425000  1.0
  C  C88  1  0.02503000  0.44754000  0.94320000  1.0
  C  C89  1  0.57734000  0.49562000  0.55258000  1.0
  C  C90  1  0.94906000  0.08499000  0.53477000  1.0
  C  C91  1  0.86436000  0.44982000  0.91503000  1.0
  C  C92  1  0.41437000  0.46515000  0.55024000  1.0
  C  C93  1  0.41102000  0.14970000  0.64989000  1.0
  C  C94  1  0.26095000  0.50026000  0.85033000  1.0
  C  C95  1  0.76051000  0.35006000  0.49968000  1.0
  C  C96  1  0.51397000  0.19212000  0.65434000  1.0
  C  C97  1  0.32153000  0.46232000  0.80789000  1.0
  C  C98  1  0.85904000  0.34565000  0.53769000  1.0
  C  C99  1  0.41579000  0.23086000  0.65667000  1.0
  C  C100  1  0.18471000  0.42595000  0.76913000  1.0
  C  C101  1  0.75853000  0.34330000  0.57406000  1.0
  C  C102  1  0.20580000  0.22322000  0.64859000  1.0
  C  C103  1  0.98233000  0.42549000  0.77677000  1.0
  C  C104  1  0.55650000  0.35132000  0.57445000  1.0
  C  C105  1  0.10766000  0.18031000  0.64472000  1.0
  C  C106  1  0.92706000  0.46452000  0.81968000  1.0
  C  C107  1  0.46216000  0.35506000  0.53534000  1.0
  C  C108  1  0.20556000  0.14426000  0.64646000  1.0
  C  C109  1  0.06093000  0.50229000  0.85575000  1.0
  C  C110  1  0.55834000  0.35333000  0.49757000  1.0
  C  C111  1  0.08817000  0.25783000  0.64326000  1.0
  C  C112  1  0.83024000  0.38553000  0.74217000  1.0
  C  C113  1  0.44446000  0.35673000  0.61443000  1.0
  S  S114  1  0.78034000  0.05635000  0.64618000  1.0
  S  S115  1  0.72354000  0.58978000  0.94370000  1.0
  S  S116  1  0.13369000  0.35379000  0.41017000  1.0
  S  S117  1  0.39036000  0.90004000  0.44727000  1.0
  S  S118  1  0.48964000  0.54767000  0.10005000  1.0
  S  S119  1  0.94278000  0.55255000  0.45271000  1.0
  N  N120  1  0.68629000  0.09212000  0.58578000  1.0
  N  N121  1  0.59383000  0.49361000  0.90791000  1.0
  N  N122  1  0.10041000  0.41419000  0.50634000  1.0
  N  N123  1  0.22840000  0.98041000  0.46416000  1.0
  N  N124  1  0.24819000  0.48393000  0.01967000  1.0
  N  N125  1  0.76450000  0.53567000  0.51621000  1.0
  N  N126  1  0.04414000  0.90856000  0.40676000  1.0
  N  N127  1  0.13548000  0.49840000  0.09150000  1.0
  N  N128  1  0.63709000  0.59304000  0.50176000  1.0
  N  N129  1  0.51088000  0.11334000  0.65254000  1.0
  N  N130  1  0.39717000  0.53922000  0.88671000  1.0
  N  N131  1  0.85780000  0.34750000  0.46075000  1.0
  O  O132  1  0.90669000  0.24569000  0.62637000  1.0
  O  O133  1  0.66097000  0.38076000  0.75432000  1.0
  O  O134  1  0.27991000  0.37364000  0.61918000  1.0
  O  O135  1  0.17424000  0.30126000  0.65620000  1.0
  O  O136  1  0.87304000  0.35505000  0.69876000  1.0
  O  O137  1  0.51781000  0.34385000  0.64495000  1.0
  O  O138  1  0.52092000  0.27351000  0.66797000  1.0
  O  O139  1  0.24730000  0.39463000  0.72648000  1.0
  O  O140  1  0.85259000  0.33203000  0.60544000  1.0
  O  O141  1  0.33828000  0.73554000  0.32041000  1.0
  O  O142  1  0.60262000  0.58483000  0.26460000  1.0
  O  O143  1  0.01772000  0.67970000  0.41526000  1.0
  O  O144  1  0.56432000  0.69600000  0.33611000  1.0
  O  O145  1  0.86833000  0.63999000  0.30416000  1.0
  O  O146  1  0.22829000  0.66407000  0.36009000  1.0
  O  O147  1  0.94093000  0.73699000  0.36316000  1.0
  O  O148  1  0.20373000  0.62612000  0.26311000  1.0
  O  O149  1  0.57758000  0.63691000  0.37401000  1.0
