# generated using pymatgen
data_CuH22C22(N2O3)2
_symmetry_space_group_name_H-M   'P 1'
_cell_length_a   7.78027000
_cell_length_b   10.17970000
_cell_length_c   14.82770000
_cell_angle_alpha   89.99980000
_cell_angle_beta   89.99980000
_cell_angle_gamma   111.24600000
_symmetry_Int_Tables_number   1
_chemical_formula_structural   CuH22C22(N2O3)2
_chemical_formula_sum   'Cu2 H44 C44 N8 O12'
_cell_volume   1094.54798871
_cell_formula_units_Z   2
loop_
 _symmetry_equiv_pos_site_id
 _symmetry_equiv_pos_as_xyz
  1  'x, y, z'
loop_
 _atom_site_type_symbol
 _atom_site_label
 _atom_site_symmetry_multiplicity
 _atom_site_fract_x
 _atom_site_fract_y
 _atom_site_fract_z
 _atom_site_occupancy
  Cu  Cu0  1  0.50000000  0.00000000  0.50000000  1.0
  Cu  Cu1  1  0.00000000  0.00000000  0.00000000  1.0
  H  H2  1  0.64552000  0.74217000  0.49486000  1.0
  H  H3  1  0.85448000  0.25782000  0.99486000  1.0
  H  H4  1  0.35448000  0.25782000  0.50514000  1.0
  H  H5  1  0.14552000  0.74218000  0.00514000  1.0
  H  H6  1  0.31928000  0.85269000  0.68530000  1.0
  H  H7  1  0.18072000  0.14731000  0.18530000  1.0
  H  H8  1  0.68072000  0.14731000  0.31470000  1.0
  H  H9  1  0.81928000  0.85269000  0.81470000  1.0
  H  H10  1  0.37706000  0.61468000  0.74690000  1.0
  H  H11  1  0.12294000  0.38532000  0.24690000  1.0
  H  H12  1  0.62293000  0.38532000  0.25310000  1.0
  H  H13  1  0.87706000  0.61468000  0.75310000  1.0
  H  H14  1  0.83304000  0.62668000  0.54309000  1.0
  H  H15  1  0.66695000  0.37331000  0.04309000  1.0
  H  H16  1  0.16696000  0.37332000  0.45691000  1.0
  H  H17  1  0.33305000  0.62669000  0.95691000  1.0
  H  H18  1  0.92316000  0.41567000  0.54279000  1.0
  H  H19  1  0.57684000  0.58433000  0.04279000  1.0
  H  H20  1  0.07684000  0.58433000  0.45721000  1.0
  H  H21  1  0.42317000  0.41567000  0.95721000  1.0
  H  H22  1  0.46101000  0.19538000  0.71330000  1.0
  H  H23  1  0.03899000  0.80462000  0.21330000  1.0
  H  H24  1  0.53899000  0.80461000  0.28670000  1.0
  H  H25  1  0.96101000  0.19538000  0.78670000  1.0
  H  H26  1  0.36328000  0.40051000  0.71000000  1.0
  H  H27  1  0.13672000  0.59949000  0.21000000  1.0
  H  H28  1  0.63672000  0.59949000  0.29000000  1.0
  H  H29  1  0.86328000  0.40051000  0.79000000  1.0
  H  H30  1  0.85939000  0.90456000  0.62688000  1.0
  H  H31  1  0.64061000  0.09543000  0.12688000  1.0
  H  H32  1  0.14061000  0.09544000  0.37312000  1.0
  H  H33  1  0.35939000  0.90456000  0.87312000  1.0
  H  H34  1  0.03674000  0.07208000  0.64882000  1.0
  H  H35  1  0.46326000  0.92791000  0.14882000  1.0
  H  H36  1  0.96326000  0.92791000  0.35118000  1.0
  H  H37  1  0.53674000  0.07209000  0.85117000  1.0
  H  H38  1  0.04352000  0.91972000  0.70318000  1.0
  H  H39  1  0.45648000  0.08028000  0.20318000  1.0
  H  H40  1  0.95648000  0.08028000  0.29682000  1.0
  H  H41  1  0.54352000  0.91972000  0.79682000  1.0
  H  H42  1  0.82653000  0.17533000  0.57359000  1.0
  H  H43  1  0.67347000  0.82467000  0.07359000  1.0
  H  H44  1  0.17347000  0.82467000  0.42641000  1.0
  H  H45  1  0.32653000  0.17533000  0.92641000  1.0
  C  C46  1  0.56509000  0.74074000  0.55464000  1.0
  C  C47  1  0.93491000  0.25926000  0.05465000  1.0
  C  C48  1  0.43491000  0.25926000  0.44536000  1.0
  C  C49  1  0.06509000  0.74074000  0.94536000  1.0
  C  C50  1  0.39384000  0.79302000  0.65452000  1.0
  C  C51  1  0.10616000  0.20698000  0.15452000  1.0
  C  C52  1  0.60616000  0.20698000  0.34548000  1.0
  C  C53  1  0.89384000  0.79302000  0.84548000  1.0
  C  C54  1  0.42065000  0.67498000  0.68541000  1.0
  C  C55  1  0.07935000  0.32502000  0.18541000  1.0
  C  C56  1  0.57935000  0.32502000  0.31459000  1.0
  C  C57  1  0.92065000  0.67498000  0.81459000  1.0
  C  C58  1  0.58915000  0.52573000  0.62459000  1.0
  C  C59  1  0.91085000  0.47427000  0.12459000  1.0
  C  C60  1  0.41085000  0.47427000  0.37541000  1.0
  C  C61  1  0.08916000  0.52573000  0.87541000  1.0
  C  C62  1  0.74818000  0.53077000  0.57826000  1.0
  C  C63  1  0.75182000  0.46923000  0.07826000  1.0
  C  C64  1  0.25182000  0.46923000  0.42174000  1.0
  C  C65  1  0.24818000  0.53077000  0.92174000  1.0
  C  C66  1  0.80068000  0.41365000  0.57921000  1.0
  C  C67  1  0.69931000  0.58635000  0.07921000  1.0
  C  C68  1  0.19932000  0.58635000  0.42079000  1.0
  C  C69  1  0.30069000  0.41365000  0.92079000  1.0
  C  C70  1  0.69701000  0.29103000  0.62690000  1.0
  C  C71  1  0.80299000  0.70897000  0.12690000  1.0
  C  C72  1  0.30299000  0.70897000  0.37310000  1.0
  C  C73  1  0.19701000  0.29103000  0.87310000  1.0
  C  C74  1  0.54271000  0.28994000  0.67658000  1.0
  C  C75  1  0.95729000  0.71006000  0.17658000  1.0
  C  C76  1  0.45730000  0.71006000  0.32342000  1.0
  C  C77  1  0.04271000  0.28994000  0.82342000  1.0
  C  C78  1  0.48794000  0.40565000  0.67434000  1.0
  C  C79  1  0.01206000  0.59435000  0.17434000  1.0
  C  C80  1  0.51206000  0.59434000  0.32566000  1.0
  C  C81  1  0.98794000  0.40566000  0.82566000  1.0
  C  C82  1  0.12340000  0.93503000  0.56525000  1.0
  C  C83  1  0.37660000  0.06496000  0.06525000  1.0
  C  C84  1  0.87660000  0.06497000  0.43475000  1.0
  C  C85  1  0.62340000  0.93503000  0.93475000  1.0
  C  C86  1  0.00648000  0.95916000  0.64000000  1.0
  C  C87  1  0.49352000  0.04083000  0.14000000  1.0
  C  C88  1  0.99352000  0.04083000  0.36000000  1.0
  C  C89  1  0.50648000  0.95917000  0.86000000  1.0
  N  N90  1  0.48464000  0.83307000  0.57337000  1.0
  N  N91  1  0.01536000  0.16693000  0.07337000  1.0
  N  N92  1  0.51536000  0.16693000  0.42663000  1.0
  N  N93  1  0.98464000  0.83307000  0.92663000  1.0
  N  N94  1  0.52961000  0.64264000  0.62150000  1.0
  N  N95  1  0.97040000  0.35736000  0.12150000  1.0
  N  N96  1  0.47040000  0.35736000  0.37850000  1.0
  N  N97  1  0.02960000  0.64265000  0.87850000  1.0
  O  O98  1  0.05496000  0.83618000  0.50908000  1.0
  O  O99  1  0.44505000  0.16383000  0.00908000  1.0
  O  O100  1  0.94504000  0.16383000  0.49092000  1.0
  O  O101  1  0.55495000  0.83617000  0.99092000  1.0
  O  O102  1  0.29275000  0.01960000  0.56742000  1.0
  O  O103  1  0.20725000  0.98040000  0.06742000  1.0
  O  O104  1  0.70726000  0.98040000  0.43258000  1.0
  O  O105  1  0.79275000  0.01960000  0.93258000  1.0
  O  O106  1  0.73941000  0.17331000  0.62618000  1.0
  O  O107  1  0.76059000  0.82670000  0.12618000  1.0
  O  O108  1  0.26059000  0.82669000  0.37382000  1.0
  O  O109  1  0.23942000  0.17331000  0.87382000  1.0
