# generated using pymatgen
data_ZnH16C20(N3O2)2
_symmetry_space_group_name_H-M   'P 1'
_cell_length_a   5.42754000
_cell_length_b   10.51610000
_cell_length_c   16.63870000
_cell_angle_alpha   90.00130000
_cell_angle_beta   89.99820000
_cell_angle_gamma   90.00000000
_symmetry_Int_Tables_number   1
_chemical_formula_structural   ZnH16C20(N3O2)2
_chemical_formula_sum   'Zn2 H32 C40 N12 O8'
_cell_volume   949.67964824
_cell_formula_units_Z   2
loop_
 _symmetry_equiv_pos_site_id
 _symmetry_equiv_pos_as_xyz
  1  'x, y, z'
loop_
 _atom_site_type_symbol
 _atom_site_label
 _atom_site_symmetry_multiplicity
 _atom_site_fract_x
 _atom_site_fract_y
 _atom_site_fract_z
 _atom_site_occupancy
  Zn  Zn0  1  0.12545000  0.00000000  0.50000000  1.0
  Zn  Zn1  1  0.87453000  0.50003000  0.00000000  1.0
  H  H2  1  0.06463000  0.25758000  0.60666000  1.0
  H  H3  1  0.06461000  0.74242000  0.39333000  1.0
  H  H4  1  0.93542000  0.24244000  0.10667000  1.0
  H  H5  1  0.93538000  0.75760000  0.89333000  1.0
  H  H6  1  0.66452000  0.00511000  0.59016000  1.0
  H  H7  1  0.66454000  0.99487000  0.40985000  1.0
  H  H8  1  0.33546000  0.49486000  0.09016000  1.0
  H  H9  1  0.33546000  0.50513000  0.90985000  1.0
  H  H10  1  0.23486000  0.39652000  0.72064000  1.0
  H  H11  1  0.23487000  0.60347000  0.27936000  1.0
  H  H12  1  0.76520000  0.10349000  0.22064000  1.0
  H  H13  1  0.76513000  0.89654000  0.77936000  1.0
  H  H14  1  0.50164000  0.33761000  0.77163000  1.0
  H  H15  1  0.50167000  0.66239000  0.22837000  1.0
  H  H16  1  0.49841000  0.16239000  0.27164000  1.0
  H  H17  1  0.49835000  0.83761000  0.72836000  1.0
  H  H18  1  0.34145000  0.50752000  0.57662000  1.0
  H  H19  1  0.34141000  0.49246000  0.42337000  1.0
  H  H20  1  0.65861000  0.99245000  0.07662000  1.0
  H  H21  1  0.65852000  0.00756000  0.92338000  1.0
  H  H22  1  0.58251000  0.69319000  0.52699000  1.0
  H  H23  1  0.58245000  0.30680000  0.47302000  1.0
  H  H24  1  0.41754000  0.80678000  0.02700000  1.0
  H  H25  1  0.41742000  0.19323000  0.97300000  1.0
  H  H26  1  0.08914000  0.65262000  0.72376000  1.0
  H  H27  1  0.08915000  0.34735000  0.27624000  1.0
  H  H28  1  0.91089000  0.84738000  0.22378000  1.0
  H  H29  1  0.91083000  0.15263000  0.77622000  1.0
  H  H30  1  0.84261000  0.46736000  0.77525000  1.0
  H  H31  1  0.84263000  0.53262000  0.22474000  1.0
  H  H32  1  0.15743000  0.03265000  0.27526000  1.0
  H  H33  1  0.15738000  0.96736000  0.72473000  1.0
  C  C34  1  0.24449000  0.21364000  0.61324000  1.0
  C  C35  1  0.24448000  0.78636000  0.38675000  1.0
  C  C36  1  0.75554000  0.28637000  0.11325000  1.0
  C  C37  1  0.75552000  0.71364000  0.88675000  1.0
  C  C38  1  0.55212000  0.08634000  0.60705000  1.0
  C  C39  1  0.55211000  0.91364000  0.39295000  1.0
  C  C40  1  0.44787000  0.41363000  0.10705000  1.0
  C  C41  1  0.44787000  0.58637000  0.89295000  1.0
  C  C42  1  0.42811000  0.36765000  0.71323000  1.0
  C  C43  1  0.42811000  0.63234000  0.28677000  1.0
  C  C44  1  0.57193000  0.13236000  0.21323000  1.0
  C  C45  1  0.57189000  0.86766000  0.78677000  1.0
  C  C46  1  0.57966000  0.47509000  0.67887000  1.0
  C  C47  1  0.57962000  0.52488000  0.32113000  1.0
  C  C48  1  0.42041000  0.02491000  0.17888000  1.0
  C  C49  1  0.42034000  0.97512000  0.82112000  1.0
  C  C50  1  0.50735000  0.53779000  0.60849000  1.0
  C  C51  1  0.50732000  0.46219000  0.39152000  1.0
  C  C52  1  0.49272000  0.96218000  0.10850000  1.0
  C  C53  1  0.49262000  0.03782000  0.89151000  1.0
  C  C54  1  0.64134000  0.64152000  0.58031000  1.0
  C  C55  1  0.64130000  0.35846000  0.41970000  1.0
  C  C56  1  0.35871000  0.85846000  0.08032000  1.0
  C  C57  1  0.35858000  0.14155000  0.91968000  1.0
  C  C58  1  0.85127000  0.68335000  0.62177000  1.0
  C  C59  1  0.85124000  0.31664000  0.37823000  1.0
  C  C60  1  0.14880000  0.81664000  0.12179000  1.0
  C  C61  1  0.14868000  0.18337000  0.87821000  1.0
  C  C62  1  0.92644000  0.61928000  0.69148000  1.0
  C  C63  1  0.92643000  0.38071000  0.30852000  1.0
  C  C64  1  0.07362000  0.88073000  0.19150000  1.0
  C  C65  1  0.07353000  0.11929000  0.80850000  1.0
  C  C66  1  0.79084000  0.51603000  0.71981000  1.0
  C  C67  1  0.79082000  0.48396000  0.28019000  1.0
  C  C68  1  0.20924000  0.98398000  0.21982000  1.0
  C  C69  1  0.20916000  0.01603000  0.78018000  1.0
  C  C70  1  0.99415000  0.79726000  0.59410000  1.0
  C  C71  1  0.99412000  0.20275000  0.40592000  1.0
  C  C72  1  0.00587000  0.70275000  0.09411000  1.0
  C  C73  1  0.00579000  0.29726000  0.90590000  1.0
  N  N74  1  0.32016000  0.10608000  0.57777000  1.0
  N  N75  1  0.32016000  0.89391000  0.42223000  1.0
  N  N76  1  0.67985000  0.39392000  0.07777000  1.0
  N  N77  1  0.67984000  0.60610000  0.92223000  1.0
  N  N78  1  0.62353000  0.17615000  0.65785000  1.0
  N  N79  1  0.62355000  0.82383000  0.34216000  1.0
  N  N80  1  0.37648000  0.32384000  0.15785000  1.0
  N  N81  1  0.37647000  0.67616000  0.84215000  1.0
  N  N82  1  0.42520000  0.25561000  0.66129000  1.0
  N  N83  1  0.42520000  0.74438000  0.33871000  1.0
  N  N84  1  0.57482000  0.24439000  0.16129000  1.0
  N  N85  1  0.57479000  0.75563000  0.83871000  1.0
  O  O86  1  0.19729000  0.82436000  0.62525000  1.0
  O  O87  1  0.19728000  0.17564000  0.37475000  1.0
  O  O88  1  0.80274000  0.67565000  0.12526000  1.0
  O  O89  1  0.80261000  0.32435000  0.87474000  1.0
  O  O90  1  0.89219000  0.86475000  0.53713000  1.0
  O  O91  1  0.89218000  0.13524000  0.46288000  1.0
  O  O92  1  0.10782000  0.63525000  0.03714000  1.0
  O  O93  1  0.10776000  0.36476000  0.96285000  1.0
