# generated using pymatgen
data_ZnH12C15(NO2)2
_symmetry_space_group_name_H-M   'P 1'
_cell_length_a   8.49203000
_cell_length_b   9.21217000
_cell_length_c   9.70666000
_cell_angle_alpha   64.81270000
_cell_angle_beta   82.67990000
_cell_angle_gamma   76.09710000
_symmetry_Int_Tables_number   1
_chemical_formula_structural   ZnH12C15(NO2)2
_chemical_formula_sum   'Zn2 H24 C30 N4 O8'
_cell_volume   666.74988015
_cell_formula_units_Z   2
loop_
 _symmetry_equiv_pos_site_id
 _symmetry_equiv_pos_as_xyz
  1  'x, y, z'
loop_
 _atom_site_type_symbol
 _atom_site_label
 _atom_site_symmetry_multiplicity
 _atom_site_fract_x
 _atom_site_fract_y
 _atom_site_fract_z
 _atom_site_occupancy
  Zn  Zn0  1  0.53800000  0.07343000  0.59676000  1.0
  Zn  Zn1  1  0.46199000  0.92657000  0.40323000  1.0
  H  H2  1  0.32284000  0.58496000  0.69735000  1.0
  H  H3  1  0.67716000  0.41504000  0.30266000  1.0
  H  H4  1  0.97727000  0.98031000  0.65541000  1.0
  H  H5  1  0.02274000  0.01969000  0.34459000  1.0
  H  H6  1  0.06187000  0.78041000  0.77817000  1.0
  H  H7  1  0.93813000  0.21959000  0.22182000  1.0
  H  H8  1  0.94868000  0.73770000  0.02068000  1.0
  H  H9  1  0.05133000  0.26229000  0.97932000  1.0
  H  H10  1  0.11878000  0.18484000  0.76187000  1.0
  H  H11  1  0.88122000  0.81516000  0.23813000  1.0
  H  H12  1  0.66608000  0.02957000  0.89472000  1.0
  H  H13  1  0.33392000  0.97044000  0.10527000  1.0
  H  H14  1  0.92351000  0.28240000  0.45125000  1.0
  H  H15  1  0.07649000  0.71761000  0.54874000  1.0
  H  H16  1  0.21082000  0.64694000  0.33903000  1.0
  H  H17  1  0.78918000  0.35306000  0.66097000  1.0
  H  H18  1  0.22241000  0.51126000  0.17089000  1.0
  H  H19  1  0.77759000  0.48873000  0.82911000  1.0
  H  H20  1  0.08500000  0.38515000  0.19430000  1.0
  H  H21  1  0.91500000  0.61485000  0.80569000  1.0
  H  H22  1  0.62568000  0.19175000  0.05252000  1.0
  H  H23  1  0.37433000  0.80824000  0.94748000  1.0
  H  H24  1  0.36833000  0.40074000  0.55861000  1.0
  H  H25  1  0.63166000  0.59926000  0.44140000  1.0
  C  C26  1  0.47401000  0.40340000  0.88344000  1.0
  C  C27  1  0.52600000  0.59660000  0.11657000  1.0
  C  C28  1  0.16686000  0.41141000  0.25553000  1.0
  C  C29  1  0.83313000  0.58860000  0.74446000  1.0
  C  C30  1  0.39772000  0.46200000  0.74492000  1.0
  C  C31  1  0.60228000  0.53800000  0.25509000  1.0
  C  C32  1  0.30214000  0.25909000  0.32072000  1.0
  C  C33  1  0.69785000  0.74091000  0.67927000  1.0
  C  C34  1  0.42479000  0.36220000  0.66666667  1.0
  C  C35  1  0.57520000  0.63781000  0.33333333  1.0
  C  C36  1  0.59091000  0.15291000  0.85581000  1.0
  C  C37  1  0.40910000  0.84709000  0.14419000  1.0
  C  C38  1  0.57064000  0.24458000  0.94174000  1.0
  C  C39  1  0.42937000  0.75542000  0.05827000  1.0
  C  C40  1  0.23426000  0.92690000  0.65590000  1.0
  C  C41  1  0.76575000  0.07309000  0.34411000  1.0
  C  C42  1  0.03835000  0.95566000  0.87437000  1.0
  C  C43  1  0.96164000  0.04434000  0.12563000  1.0
  C  C44  1  0.06648000  0.10321000  0.86577000  1.0
  C  C45  1  0.93352000  0.89679000  0.13423000  1.0
  C  C46  1  0.07161000  0.90858000  0.74124000  1.0
  C  C47  1  0.92839000  0.09142000  0.25877000  1.0
  C  C48  1  0.97174000  0.85347000  0.01084000  1.0
  C  C49  1  0.02826000  0.14652000  0.98916000  1.0
  C  C50  1  0.07806000  0.45993000  0.37905000  1.0
  C  C51  1  0.92194000  0.54008000  0.62094000  1.0
  C  C52  1  0.11885000  0.58115000  0.41024000  1.0
  C  C53  1  0.88115000  0.41886000  0.58975000  1.0
  C  C54  1  0.95789000  0.37881000  0.47091000  1.0
  C  C55  1  0.04211000  0.62120000  0.52909000  1.0
  N  N56  1  0.52056000  0.21099000  0.72015000  1.0
  N  N57  1  0.47944000  0.78902000  0.27985000  1.0
  N  N58  1  0.44353000  0.51067000  0.95812000  1.0
  N  N59  1  0.55648000  0.48932000  0.04189000  1.0
  O  O60  1  0.31750000  0.14829000  0.27174000  1.0
  O  O61  1  0.68250000  0.85171000  0.72825000  1.0
  O  O62  1  0.38877000  0.25400000  0.42104000  1.0
  O  O63  1  0.61122000  0.74599000  0.57896000  1.0
  O  O64  1  0.33257000  0.98222000  0.69877000  1.0
  O  O65  1  0.66743000  0.01778000  0.30124000  1.0
  O  O66  1  0.25863000  0.88455000  0.54417000  1.0
  O  O67  1  0.74138000  0.11545000  0.45584000  1.0
