# generated using pymatgen
data_SmPH19C24NO8
_symmetry_space_group_name_H-M   'P 1'
_cell_length_a   10.66840000
_cell_length_b   11.94900000
_cell_length_c   14.51670000
_cell_angle_alpha   74.08870000
_cell_angle_beta   74.59780000
_cell_angle_gamma   63.84180000
_symmetry_Int_Tables_number   1
_chemical_formula_structural   SmPH19C24NO8
_chemical_formula_sum   'Sm2 P2 H38 C48 N2 O16'
_cell_volume   1574.75672797
_cell_formula_units_Z   2
loop_
 _symmetry_equiv_pos_site_id
 _symmetry_equiv_pos_as_xyz
  1  'x, y, z'
loop_
 _atom_site_type_symbol
 _atom_site_label
 _atom_site_symmetry_multiplicity
 _atom_site_fract_x
 _atom_site_fract_y
 _atom_site_fract_z
 _atom_site_occupancy
  Sm  Sm0  1  0.99536000  0.54752000  0.62710000  1.0
  Sm  Sm1  1  0.00464000  0.45248000  0.37290000  1.0
  P  P2  1  0.14616000  0.71419000  0.73222000  1.0
  P  P3  1  0.85384000  0.28580000  0.26779000  1.0
  H  H4  1  0.49532000  0.63457000  0.43692000  1.0
  H  H5  1  0.50467000  0.36543000  0.56309000  1.0
  H  H6  1  0.95009000  0.89278000  0.61067000  1.0
  H  H7  1  0.04992000  0.10721000  0.38932000  1.0
  H  H8  1  0.25583000  0.67544000  0.54006000  1.0
  H  H9  1  0.74417000  0.32456000  0.45994000  1.0
  H  H10  1  0.96201000  0.83519000  0.89290000  1.0
  H  H11  1  0.03794000  0.16482000  0.10709000  1.0
  H  H12  1  0.66591000  0.60301000  0.68461000  1.0
  H  H13  1  0.33409000  0.39698000  0.31539000  1.0
  H  H14  1  0.42880000  0.64954000  0.78657000  1.0
  H  H15  1  0.57121000  0.35044000  0.21343000  1.0
  H  H16  1  0.19436000  0.90560000  0.79851000  1.0
  H  H17  1  0.80566000  0.09437000  0.20149000  1.0
  H  H18  1  0.27624000  0.40043000  0.03156000  1.0
  H  H19  1  0.72374000  0.59960000  0.96845000  1.0
  H  H20  1  0.92339000  0.75168000  0.07161000  1.0
  H  H21  1  0.07655000  0.24832000  0.92838000  1.0
  H  H22  1  0.87698000  0.12775000  0.55099000  1.0
  H  H23  1  0.12303000  0.87224000  0.44901000  1.0
  H  H24  1  0.10973000  0.14172000  0.74377000  1.0
  H  H25  1  0.89029000  0.85825000  0.25623000  1.0
  H  H26  1  0.30869000  0.47649000  0.85160000  1.0
  H  H27  1  0.69130000  0.52352000  0.14841000  1.0
  H  H28  1  0.66572000  0.80159000  0.73819000  1.0
  H  H29  1  0.33429000  0.19843000  0.26181000  1.0
  H  H30  1  0.70294000  0.08006000  0.52356000  1.0
  H  H31  1  0.29707000  0.91994000  0.47643000  1.0
  H  H32  1  0.55684000  0.07075000  0.49442000  1.0
  H  H33  1  0.44317000  0.92926000  0.50557000  1.0
  H  H34  1  0.72798000  0.94054000  0.48567000  1.0
  H  H35  1  0.27202000  0.05947000  0.51432000  1.0
  H  H36  1  0.39837000  0.06541000  0.65887000  1.0
  H  H37  1  0.60165000  0.93461000  0.34113000  1.0
  H  H38  1  0.50858000  0.11978000  0.69172000  1.0
  H  H39  1  0.49145000  0.88023000  0.30827000  1.0
  H  H40  1  0.48575000  0.97930000  0.76144000  1.0
  H  H41  1  0.51427000  0.02071000  0.23856000  1.0
  C  C42  1  0.13958000  0.66187000  0.86113000  1.0
  C  C43  1  0.86041000  0.33813000  0.13887000  1.0
  C  C44  1  0.47789000  0.64007000  0.51327000  1.0
  C  C45  1  0.52211000  0.35993000  0.48673000  1.0
  C  C46  1  0.07678000  0.88536000  0.70755000  1.0
  C  C47  1  0.92323000  0.11464000  0.29245000  1.0
  C  C48  1  0.32666000  0.66801000  0.66917000  1.0
  C  C49  1  0.67334000  0.33198000  0.33083000  1.0
  C  C50  1  0.98460000  0.94794000  0.63941000  1.0
  C  C51  1  0.01541000  0.05206000  0.36058000  1.0
  C  C52  1  0.34515000  0.66310000  0.57061000  1.0
  C  C53  1  0.65485000  0.33689000  0.42939000  1.0
  C  C54  1  0.59359000  0.62053000  0.55318000  1.0
  C  C55  1  0.40641000  0.37945000  0.44682000  1.0
  C  C56  1  0.03071000  0.73973000  0.92309000  1.0
  C  C57  1  0.96926000  0.26026000  0.07691000  1.0
  C  C58  1  0.57558000  0.62290000  0.65201000  1.0
  C  C59  1  0.42442000  0.37709000  0.34800000  1.0
  C  C60  1  0.44206000  0.64782000  0.70973000  1.0
  C  C61  1  0.55794000  0.35217000  0.29027000  1.0
  C  C62  1  0.12258000  0.95447000  0.74550000  1.0
  C  C63  1  0.87744000  0.04552000  0.25450000  1.0
  C  C64  1  0.09847000  0.57234000  0.06157000  1.0
  C  C65  1  0.90149000  0.42768000  0.93843000  1.0
  C  C66  1  0.06972000  0.52702000  0.16914000  1.0
  C  C67  1  0.93025000  0.47300000  0.83086000  1.0
  C  C68  1  0.20819000  0.49528000  0.00004000  1.0
  C  C69  1  0.79179000  0.50474000  0.99998000  1.0
  C  C70  1  0.00938000  0.69431000  0.02242000  1.0
  C  C71  1  0.99057000  0.30570000  0.97757000  1.0
  C  C72  1  0.98950000  0.14731000  0.64394000  1.0
  C  C73  1  0.01051000  0.85268000  0.35606000  1.0
  C  C74  1  0.94309000  0.07812000  0.60718000  1.0
  C  C75  1  0.05692000  0.92188000  0.39282000  1.0
  C  C76  1  0.07685000  0.08531000  0.71510000  1.0
  C  C77  1  0.92317000  0.91467000  0.28490000  1.0
  C  C78  1  0.95564000  0.28560000  0.60174000  1.0
  C  C79  1  0.04438000  0.71439000  0.39826000  1.0
  C  C80  1  0.73533000  0.59112000  0.48908000  1.0
  C  C81  1  0.26467000  0.40888000  0.51092000  1.0
  C  C82  1  0.22735000  0.53859000  0.89992000  1.0
  C  C83  1  0.77264000  0.46142000  0.10009000  1.0
  C  C84  1  0.70064000  0.83720000  0.66133000  1.0
  C  C85  1  0.29940000  0.16279000  0.33866000  1.0
  C  C86  1  0.65344000  0.01529000  0.52671000  1.0
  C  C87  1  0.34657000  0.98471000  0.47328000  1.0
  C  C88  1  0.49610000  0.03465000  0.68789000  1.0
  C  C89  1  0.50392000  0.96537000  0.31211000  1.0
  N  N90  1  0.61773000  0.95711000  0.62666000  1.0
  N  N91  1  0.38227000  0.04290000  0.37333000  1.0
  O  O92  1  0.94412000  0.57800000  0.21326000  1.0
  O  O93  1  0.05586000  0.42202000  0.78675000  1.0
  O  O94  1  0.74830000  0.57310000  0.40422000  1.0
  O  O95  1  0.25170000  0.42688000  0.59579000  1.0
  O  O96  1  0.92217000  0.32335000  0.51732000  1.0
  O  O97  1  0.07784000  0.67665000  0.48268000  1.0
  O  O98  1  0.16993000  0.43990000  0.21287000  1.0
  O  O99  1  0.83005000  0.56013000  0.78713000  1.0
  O  O100  1  0.96780000  0.35058000  0.65214000  1.0
  O  O101  1  0.03222000  0.64940000  0.34788000  1.0
  O  O102  1  0.84107000  0.58074000  0.52140000  1.0
  O  O103  1  0.15892000  0.41926000  0.47861000  1.0
  O  O104  1  0.06344000  0.67002000  0.69165000  1.0
  O  O105  1  0.93656000  0.32997000  0.30835000  1.0
  O  O106  1  0.80836000  0.77028000  0.61162000  1.0
  O  O107  1  0.19162000  0.22973000  0.38838000  1.0
