# generated using pymatgen
data_Cu3H14C17O12
_symmetry_space_group_name_H-M   'P 1'
_cell_length_a   7.50410000
_cell_length_b   18.15020000
_cell_length_c   20.13620000
_cell_angle_alpha   89.99570000
_cell_angle_beta   90.00380000
_cell_angle_gamma   89.99320000
_symmetry_Int_Tables_number   1
_chemical_formula_structural   Cu3H14C17O12
_chemical_formula_sum   'Cu12 H56 C68 O48'
_cell_volume   2742.56884806
_cell_formula_units_Z   4
loop_
 _symmetry_equiv_pos_site_id
 _symmetry_equiv_pos_as_xyz
  1  'x, y, z'
loop_
 _atom_site_type_symbol
 _atom_site_label
 _atom_site_symmetry_multiplicity
 _atom_site_fract_x
 _atom_site_fract_y
 _atom_site_fract_z
 _atom_site_occupancy
  Cu  Cu0  1  0.16663000  0.94438000  0.56478000  1.0
  Cu  Cu1  1  0.16729000  0.55546000  0.93539000  1.0
  Cu  Cu2  1  0.33299000  0.05543000  0.06457000  1.0
  Cu  Cu3  1  0.33333333  0.44437000  0.43524000  1.0
  Cu  Cu4  1  0.83332000  0.05561000  0.43526000  1.0
  Cu  Cu5  1  0.83262000  0.44460000  0.06462000  1.0
  Cu  Cu6  1  0.66711000  0.94443000  0.93518000  1.0
  Cu  Cu7  1  0.66666667  0.55561000  0.56477000  1.0
  Cu  Cu8  1  0.00003000  0.49998000  0.50001000  1.0
  Cu  Cu9  1  0.99860000  0.99978000  0.99977000  1.0
  Cu  Cu10  1  0.49996000  0.50009000  0.00001000  1.0
  Cu  Cu11  1  0.49997000  0.00001000  0.50003000  1.0
  H  H12  1  0.18528000  0.72677000  0.48331000  1.0
  H  H13  1  0.43846000  0.62673000  0.31431000  1.0
  H  H14  1  0.41330000  0.86322000  0.33090000  1.0
  H  H15  1  0.62875000  0.70175000  0.24776000  1.0
  H  H16  1  0.04855000  0.46823000  0.38657000  1.0
  H  H17  1  0.84863000  0.99338000  0.58093000  1.0
  H  H18  1  0.83231000  0.91533000  0.54829000  1.0
  H  H19  1  0.18509000  0.77310000  0.01677000  1.0
  H  H20  1  0.43831000  0.87326000  0.18569000  1.0
  H  H21  1  0.41319000  0.63674000  0.16930000  1.0
  H  H22  1  0.62862000  0.79832000  0.25231000  1.0
  H  H23  1  0.04813000  0.03135000  0.11305000  1.0
  H  H24  1  0.84921000  0.50643000  0.91925000  1.0
  H  H25  1  0.83328000  0.58456000  0.95188000  1.0
  H  H26  1  0.31485000  0.27320000  0.98328000  1.0
  H  H27  1  0.06168000  0.37335000  0.81430000  1.0
  H  H28  1  0.08686000  0.13684000  0.83080000  1.0
  H  H29  1  0.87136000  0.29838000  0.74771000  1.0
  H  H30  1  0.45189000  0.53160000  0.88657000  1.0
  H  H31  1  0.65131000  0.00661000  0.08085000  1.0
  H  H32  1  0.66729000  0.08471000  0.04822000  1.0
  H  H33  1  0.31467000  0.22677000  0.51673000  1.0
  H  H34  1  0.06149000  0.12676000  0.68574000  1.0
  H  H35  1  0.08674000  0.36326000  0.66914000  1.0
  H  H36  1  0.87129000  0.20180000  0.75230000  1.0
  H  H37  1  0.45141000  0.96821000  0.61347000  1.0
  H  H38  1  0.65137000  0.49339000  0.41909000  1.0
  H  H39  1  0.66773000  0.41534000  0.45174000  1.0
  H  H40  1  0.81474000  0.27320000  0.51672000  1.0
  H  H41  1  0.56154000  0.37326000  0.68571000  1.0
  H  H42  1  0.58664000  0.13676000  0.66914000  1.0
  H  H43  1  0.37126000  0.29827000  0.75226000  1.0
  H  H44  1  0.95147000  0.53177000  0.61345000  1.0
  H  H45  1  0.15133000  0.00659000  0.41910000  1.0
  H  H46  1  0.16764000  0.08464000  0.45175000  1.0
  H  H47  1  0.81482000  0.22680000  0.98326000  1.0
  H  H48  1  0.56157000  0.12672000  0.81428000  1.0
  H  H49  1  0.58687000  0.36322000  0.83077000  1.0
  H  H50  1  0.37130000  0.20169000  0.74771000  1.0
  H  H51  1  0.95161000  0.96802000  0.88620000  1.0
  H  H52  1  0.15076000  0.49355000  0.08076000  1.0
  H  H53  1  0.16662000  0.41543000  0.04811000  1.0
  H  H54  1  0.68510000  0.72693000  0.01679000  1.0
  H  H55  1  0.93828000  0.62677000  0.18575000  1.0
  H  H56  1  0.91335000  0.86328000  0.16926000  1.0
  H  H57  1  0.12866000  0.70169000  0.25232000  1.0
  H  H58  1  0.54809000  0.46857000  0.11343000  1.0
  H  H59  1  0.34923000  0.99364000  0.91921000  1.0
  H  H60  1  0.33315000  0.91554000  0.95187000  1.0
  H  H61  1  0.68527000  0.77321000  0.48331000  1.0
  H  H62  1  0.93844000  0.87328000  0.31432000  1.0
  H  H63  1  0.91331000  0.63678000  0.33087000  1.0
  H  H64  1  0.12876000  0.79827000  0.24777000  1.0
  H  H65  1  0.54852000  0.03177000  0.38660000  1.0
  H  H66  1  0.34870000  0.50660000  0.58092000  1.0
  H  H67  1  0.33231000  0.58465000  0.54828000  1.0
  C  C68  1  0.29405000  0.80184000  0.41053000  1.0
  C  C69  1  0.25472000  0.73209000  0.43613000  1.0
  C  C70  1  0.30475000  0.66944000  0.40024000  1.0
  C  C71  1  0.39616000  0.67655000  0.34009000  1.0
  C  C72  1  0.43598000  0.74566000  0.31386000  1.0
  C  C73  1  0.38309000  0.80815000  0.34941000  1.0
  C  C74  1  0.24397000  0.87005000  0.44818000  1.0
  C  C75  1  0.26518000  0.59399000  0.42478000  1.0
  C  C76  1  0.29383000  0.69808000  0.08965000  1.0
  C  C77  1  0.25453000  0.76781000  0.06396000  1.0
  C  C78  1  0.30457000  0.83047000  0.09980000  1.0
  C  C79  1  0.39601000  0.82342000  0.15997000  1.0
  C  C80  1  0.43592000  0.75434000  0.18624000  1.0
  C  C81  1  0.38296000  0.69181000  0.15075000  1.0
  C  C82  1  0.24373000  0.62985000  0.05207000  1.0
  C  C83  1  0.26504000  0.90589000  0.07517000  1.0
  C  C84  1  0.20601000  0.19819000  0.91046000  1.0
  C  C85  1  0.24536000  0.26791000  0.93610000  1.0
  C  C86  1  0.19539000  0.33057000  0.90022000  1.0
  C  C87  1  0.10393000  0.32351000  0.84006000  1.0
  C  C88  1  0.06408000  0.25443000  0.81381000  1.0
  C  C89  1  0.11697000  0.19191000  0.84935000  1.0
  C  C90  1  0.25619000  0.12994000  0.94807000  1.0
  C  C91  1  0.23526000  0.40601000  0.92471000  1.0
  C  C92  1  0.20595000  0.30185000  0.58951000  1.0
  C  C93  1  0.24525000  0.23209000  0.56391000  1.0
  C  C94  1  0.19520000  0.16945000  0.59980000  1.0
  C  C95  1  0.10381000  0.17658000  0.65997000  1.0
  C  C96  1  0.06403000  0.24569000  0.68618000  1.0
  C  C97  1  0.11694000  0.30817000  0.65063000  1.0
  C  C98  1  0.25603000  0.37005000  0.55183000  1.0
  C  C99  1  0.23475000  0.09401000  0.57525000  1.0
  C  C100  1  0.70594000  0.19814000  0.58951000  1.0
  C  C101  1  0.74530000  0.26789000  0.56391000  1.0
  C  C102  1  0.69528000  0.33054000  0.59979000  1.0
  C  C103  1  0.60384000  0.32343000  0.65994000  1.0
  C  C104  1  0.56404000  0.25433000  0.68617000  1.0
  C  C105  1  0.61689000  0.19184000  0.65063000  1.0
  C  C106  1  0.75600000  0.12993000  0.55185000  1.0
  C  C107  1  0.73487000  0.40598000  0.57524000  1.0
  C  C108  1  0.70606000  0.30184000  0.91042000  1.0
  C  C109  1  0.74533000  0.23210000  0.93608000  1.0
  C  C110  1  0.69532000  0.16945000  0.90020000  1.0
  C  C111  1  0.60385000  0.17654000  0.84004000  1.0
  C  C112  1  0.56401000  0.24563000  0.81378000  1.0
  C  C113  1  0.61698000  0.30814000  0.84931000  1.0
  C  C114  1  0.75612000  0.37009000  0.94803000  1.0
  C  C115  1  0.73514000  0.09398000  0.92464000  1.0
  C  C116  1  0.79392000  0.80194000  0.08962000  1.0
  C  C117  1  0.75456000  0.73222000  0.06397000  1.0
  C  C118  1  0.80456000  0.66956000  0.09984000  1.0
  C  C119  1  0.89601000  0.67662000  0.16000000  1.0
  C  C120  1  0.93596000  0.74569000  0.18624000  1.0
  C  C121  1  0.88305000  0.80822000  0.15072000  1.0
  C  C122  1  0.74403000  0.87017000  0.05195000  1.0
  C  C123  1  0.76478000  0.59413000  0.07531000  1.0
  C  C124  1  0.79405000  0.69816000  0.41051000  1.0
  C  C125  1  0.75471000  0.76791000  0.43612000  1.0
  C  C126  1  0.80472000  0.83055000  0.40025000  1.0
  C  C127  1  0.89614000  0.82345000  0.34009000  1.0
  C  C128  1  0.93598000  0.75435000  0.31386000  1.0
  C  C129  1  0.88309000  0.69185000  0.34940000  1.0
  C  C130  1  0.74398000  0.62993000  0.44817000  1.0
  C  C131  1  0.76513000  0.90600000  0.42480000  1.0
  C  C132  1  0.54112000  0.75002000  0.25006000  1.0
  C  C133  1  0.95889000  0.25008000  0.75001000  1.0
  C  C134  1  0.45884000  0.24998000  0.74997000  1.0
  C  C135  1  0.04114000  0.75000000  0.25006000  1.0
  O  O136  1  0.28421000  0.93263000  0.42400000  1.0
  O  O137  1  0.16379000  0.86041000  0.50403000  1.0
  O  O138  1  0.17253000  0.58697000  0.47780000  1.0
  O  O139  1  0.33002000  0.54050000  0.39089000  1.0
  O  O140  1  0.07701000  0.44002000  0.42654000  1.0
  O  O141  1  0.90609000  0.94323000  0.58011000  1.0
  O  O142  1  0.28366000  0.56729000  0.07637000  1.0
  O  O143  1  0.16390000  0.63944000  0.99614000  1.0
  O  O144  1  0.17261000  0.91290000  0.02210000  1.0
  O  O145  1  0.32991000  0.95941000  0.10905000  1.0
  O  O146  1  0.07652000  0.05962000  0.07311000  1.0
  O  O147  1  0.90702000  0.55654000  0.92015000  1.0
  O  O148  1  0.21653000  0.06740000  0.92372000  1.0
  O  O149  1  0.33591000  0.13955000  0.00403000  1.0
  O  O150  1  0.32784000  0.41300000  0.97775000  1.0
  O  O151  1  0.17080000  0.45951000  0.89072000  1.0
  O  O152  1  0.42381000  0.56016000  0.92635000  1.0
  O  O153  1  0.59358000  0.05671000  0.07997000  1.0
  O  O154  1  0.21580000  0.43264000  0.57600000  1.0
  O  O155  1  0.33623000  0.36039000  0.49599000  1.0
  O  O156  1  0.32740000  0.08699000  0.52223000  1.0
  O  O157  1  0.16989000  0.04051000  0.60914000  1.0
  O  O158  1  0.42299000  0.94003000  0.57349000  1.0
  O  O159  1  0.59392000  0.44324000  0.41992000  1.0
  O  O160  1  0.71574000  0.06735000  0.57601000  1.0
  O  O161  1  0.83619000  0.13958000  0.49600000  1.0
  O  O162  1  0.82751000  0.41300000  0.52222000  1.0
  O  O163  1  0.66999000  0.45947000  0.60913000  1.0
  O  O164  1  0.92303000  0.55996000  0.57347000  1.0
  O  O165  1  0.09386000  0.05674000  0.41993000  1.0
  O  O166  1  0.71639000  0.43263000  0.92368000  1.0
  O  O167  1  0.83575000  0.36049000  0.00399000  1.0
  O  O168  1  0.82782000  0.08698000  0.97767000  1.0
  O  O169  1  0.67072000  0.04052000  0.89064000  1.0
  O  O170  1  0.92346000  0.93953000  0.92601000  1.0
  O  O171  1  0.09286000  0.44346000  0.07983000  1.0
  O  O172  1  0.78453000  0.93274000  0.07610000  1.0
  O  O173  1  0.66388000  0.86055000  0.99611000  1.0
  O  O174  1  0.67210000  0.58715000  0.02229000  1.0
  O  O175  1  0.82932000  0.54061000  0.10924000  1.0
  O  O176  1  0.57612000  0.43999000  0.07365000  1.0
  O  O177  1  0.40693000  0.94350000  0.92008000  1.0
  O  O178  1  0.78425000  0.56735000  0.42399000  1.0
  O  O179  1  0.66380000  0.63958000  0.50402000  1.0
  O  O180  1  0.67249000  0.91301000  0.47782000  1.0
  O  O181  1  0.83000000  0.95949000  0.39091000  1.0
  O  O182  1  0.57695000  0.05998000  0.42657000  1.0
  O  O183  1  0.40612000  0.55675000  0.58009000  1.0
