# generated using pymatgen
data_AlH24C45(NO4)3
_symmetry_space_group_name_H-M   'P 1'
_cell_length_a   3.99493000
_cell_length_b   23.55260000
_cell_length_c   23.58666796
_cell_angle_alpha   60.07003972
_cell_angle_beta   89.73210903
_cell_angle_gamma   87.84710000
_symmetry_Int_Tables_number   1
_chemical_formula_structural   AlH24C45(NO4)3
_chemical_formula_sum   'Al1 H24 C45 N3 O12'
_cell_volume   1921.70785503
_cell_formula_units_Z   1
loop_
 _symmetry_equiv_pos_site_id
 _symmetry_equiv_pos_as_xyz
  1  'x, y, z'
loop_
 _atom_site_type_symbol
 _atom_site_label
 _atom_site_symmetry_multiplicity
 _atom_site_fract_x
 _atom_site_fract_y
 _atom_site_fract_z
 _atom_site_occupancy
  Al  Al0  1  0.04161000  0.99871000  0.50038000  1.0
  H  H1  1  0.58270000  0.99518000  0.67994000  1.0
  H  H2  1  0.55938000  0.04896000  0.74533000  1.0
  H  H3  1  0.74043000  0.17425000  0.84521000  1.0
  H  H4  1  0.48765000  0.00284000  0.31391000  1.0
  H  H5  1  0.53194000  0.06721000  0.19415000  1.0
  H  H6  1  0.27224000  0.12474000  0.11075000  1.0
  H  H7  1  0.23646000  0.17823000  0.99244000  1.0
  H  H8  1  0.46298000  0.21178000  0.89667000  1.0
  H  H9  1  0.57791000  0.17844000  0.32492000  1.0
  H  H10  1  0.55281000  0.24440000  0.20599000  1.0
  H  H11  1  0.73166000  0.34329000  0.98034000  1.0
  H  H12  1  0.56651000  0.81302000  0.68292000  1.0
  H  H13  1  0.61287000  0.69227000  0.73867000  1.0
  H  H14  1  0.30229000  0.61416000  0.76274000  1.0
  H  H15  1  0.24934000  0.49599000  0.82795000  1.0
  H  H16  1  0.48798000  0.39662000  0.89166000  1.0
  H  H17  1  0.58374000  0.82168000  0.49639000  1.0
  H  H18  1  0.57084000  0.70211000  0.55100000  1.0
  H  H19  1  0.78428000  0.47414000  0.68040000  1.0
  H  H20  1  0.47515000  0.18226000  0.50349000  1.0
  H  H21  1  0.51711000  0.23776000  0.56798000  1.0
  H  H22  1  0.25177000  0.26601000  0.62401000  1.0
  H  H23  1  0.21815000  0.33134000  0.67760000  1.0
  H  H24  1  0.48673000  0.39122000  0.71223000  1.0
  C  C25  1  0.52985000  0.04963000  0.55000000  1.0
  C  C26  1  0.56190000  0.89813000  0.55085000  1.0
  C  C27  1  0.53332000  0.04855000  0.40003000  1.0
  C  C28  1  0.56222000  0.04851000  0.65570000  1.0
  C  C29  1  0.55792000  0.07953000  0.69255000  1.0
  C  C30  1  0.65621000  0.15990000  0.76445000  1.0
  C  C31  1  0.63102000  0.19616000  0.79626000  1.0
  C  C32  1  0.51117000  0.05579000  0.28978000  1.0
  C  C33  1  0.53022000  0.09280000  0.22195000  1.0
  C  C34  1  0.38858000  0.17173000  0.08238000  1.0
  C  C35  1  0.36460000  0.20260000  0.01461000  1.0
  C  C36  1  0.52897000  0.08499000  0.58752000  1.0
  C  C37  1  0.54291000  0.14835000  0.66250000  1.0
  C  C38  1  0.53461000  0.18355000  0.69995000  1.0
  C  C39  1  0.48323000  0.25934000  0.76597000  1.0
  C  C40  1  0.47215000  0.29727000  0.80042000  1.0
  C  C41  1  0.46748000  0.26512000  0.86901000  1.0
  C  C42  1  0.56149000  0.15444000  0.29577000  1.0
  C  C43  1  0.55676000  0.19153000  0.22802000  1.0
  C  C44  1  0.65336000  0.26328000  0.07541000  1.0
  C  C45  1  0.62854000  0.29492000  0.00752000  1.0
  C  C46  1  0.57571000  0.78826000  0.65430000  1.0
  C  C47  1  0.59655000  0.72010000  0.68538000  1.0
  C  C48  1  0.42217000  0.58328000  0.74562000  1.0
  C  C49  1  0.38876000  0.51591000  0.78255000  1.0
  C  C50  1  0.53358000  0.08640000  0.32732000  1.0
  C  C51  1  0.54830000  0.16166000  0.18919000  1.0
  C  C52  1  0.54087000  0.19927000  0.11664000  1.0
  C  C53  1  0.48828000  0.26541000  0.97500000  1.0
  C  C54  1  0.47457000  0.30000000  0.90274000  1.0
  C  C55  1  0.48153000  0.36865000  0.86630000  1.0
  C  C56  1  0.58597000  0.79294000  0.54966000  1.0
  C  C57  1  0.58654000  0.72503000  0.58091000  1.0
  C  C58  1  0.71015000  0.57103000  0.66385000  1.0
  C  C59  1  0.67498000  0.50356000  0.70007000  1.0
  C  C60  1  0.50142000  0.15339000  0.55660000  1.0
  C  C61  1  0.51959000  0.18434000  0.59361000  1.0
  C  C62  1  0.37393000  0.24648000  0.67168000  1.0
  C  C63  1  0.35097000  0.28361000  0.70254000  1.0
  C  C64  1  0.57528000  0.82515000  0.58600000  1.0
  C  C65  1  0.59732000  0.68687000  0.64957000  1.0
  C  C66  1  0.58814000  0.61440000  0.68510000  1.0
  C  C67  1  0.51628000  0.47404000  0.76046000  1.0
  C  C68  1  0.48808000  0.40215000  0.79785000  1.0
  C  C69  1  0.48054000  0.36580000  0.76551000  1.0
  N  N70  1  0.89341000  0.59185000  0.60238000  1.0
  N  N71  1  0.82858000  0.09516000  0.80501000  1.0
  N  N72  1  0.81301000  0.30367000  0.09879000  1.0
  O  O73  1  0.30592000  0.00727000  0.42822000  1.0
  O  O74  1  0.29168000  0.06247000  0.50900000  1.0
  O  O75  1  0.32109000  0.92690000  0.56364000  1.0
  O  O76  1  0.76254000  0.06108000  0.42925000  1.0
  O  O77  1  0.79138000  0.92673000  0.50954000  1.0
  O  O78  1  0.77102000  0.00769000  0.56267000  1.0
  O  O79  1  0.08674000  0.63743000  0.58425000  1.0
  O  O80  1  0.84910000  0.56081000  0.57351000  1.0
  O  O81  1  0.05071000  0.07762000  0.77962000  1.0
  O  O82  1  0.74500000  0.06336000  0.86299000  1.0
  O  O83  1  0.03172000  0.27741000  0.14223000  1.0
  O  O84  1  0.72289000  0.36244000  0.07148000  1.0
