# generated using pymatgen
data_CdH5C5N3O5
_symmetry_space_group_name_H-M   'P 1'
_cell_length_a   7.19737000
_cell_length_b   10.01390000
_cell_length_c   11.63050000
_cell_angle_alpha   90.00000000
_cell_angle_beta   90.00020000
_cell_angle_gamma   106.72300000
_symmetry_Int_Tables_number   1
_chemical_formula_structural   CdH5C5N3O5
_chemical_formula_sum   'Cd4 H20 C20 N12 O20'
_cell_volume   802.80146397
_cell_formula_units_Z   4
loop_
 _symmetry_equiv_pos_site_id
 _symmetry_equiv_pos_as_xyz
  1  'x, y, z'
loop_
 _atom_site_type_symbol
 _atom_site_label
 _atom_site_symmetry_multiplicity
 _atom_site_fract_x
 _atom_site_fract_y
 _atom_site_fract_z
 _atom_site_occupancy
  Cd  Cd0  1  0.35002000  0.87331000  0.38177000  1.0
  Cd  Cd1  1  0.14998000  0.62669000  0.88177000  1.0
  Cd  Cd2  1  0.64998000  0.12669000  0.61823000  1.0
  Cd  Cd3  1  0.85002000  0.37331000  0.11823000  1.0
  H  H4  1  0.73781000  0.49277000  0.65186000  1.0
  H  H5  1  0.76219000  0.00723000  0.15186000  1.0
  H  H6  1  0.26219000  0.50723000  0.34814000  1.0
  H  H7  1  0.23781000  0.99277000  0.84814000  1.0
  H  H8  1  0.65417000  0.50672000  0.44235000  1.0
  H  H9  1  0.84583000  0.99328000  0.94235000  1.0
  H  H10  1  0.34583000  0.49328000  0.55765000  1.0
  H  H11  1  0.15417000  0.00672000  0.05765000  1.0
  H  H12  1  0.83909000  0.60824000  0.34730000  1.0
  H  H13  1  0.66091000  0.89176000  0.84730000  1.0
  H  H14  1  0.16091000  0.39176000  0.65270000  1.0
  H  H15  1  0.33909000  0.10824000  0.15269000  1.0
  H  H16  1  0.99914000  0.94074000  0.38441000  1.0
  H  H17  1  0.50086000  0.55927000  0.88441000  1.0
  H  H18  1  0.00086000  0.05926000  0.61559000  1.0
  H  H19  1  0.49914000  0.44074000  0.11559000  1.0
  H  H20  1  0.16758000  0.06586000  0.43366000  1.0
  H  H21  1  0.33242000  0.43414000  0.93366000  1.0
  H  H22  1  0.83242000  0.93414000  0.56634000  1.0
  H  H23  1  0.66758000  0.56586000  0.06634000  1.0
  C  C24  1  0.14853000  0.72113000  0.62125000  1.0
  C  C25  1  0.35147000  0.77886000  0.12125000  1.0
  C  C26  1  0.85147000  0.27886000  0.37875000  1.0
  C  C27  1  0.64852000  0.22114000  0.87875000  1.0
  C  C28  1  0.34168000  0.81191000  0.65797000  1.0
  C  C29  1  0.15832000  0.68808000  0.15796000  1.0
  C  C30  1  0.65832000  0.18808000  0.34203000  1.0
  C  C31  1  0.84168000  0.31192000  0.84204000  1.0
  C  C32  1  0.86940000  0.57355000  0.62886000  1.0
  C  C33  1  0.63061000  0.92645000  0.12886000  1.0
  C  C34  1  0.13060000  0.42645000  0.37114000  1.0
  C  C35  1  0.36939000  0.07355000  0.87114000  1.0
  C  C36  1  0.76010000  0.60836000  0.42826000  1.0
  C  C37  1  0.73990000  0.89164000  0.92826000  1.0
  C  C38  1  0.23990000  0.39164000  0.57174000  1.0
  C  C39  1  0.26010000  0.10836000  0.07174000  1.0
  C  C40  1  0.66045000  0.72477000  0.42145000  1.0
  C  C41  1  0.83955000  0.77523000  0.92145000  1.0
  C  C42  1  0.33955000  0.27523000  0.57855000  1.0
  C  C43  1  0.16045000  0.22477000  0.07855000  1.0
  N  N44  1  0.07577000  0.72564000  0.51675000  1.0
  N  N45  1  0.42423000  0.77436000  0.01675000  1.0
  N  N46  1  0.92423000  0.27436000  0.48325000  1.0
  N  N47  1  0.57577000  0.22564000  0.98325000  1.0
  N  N48  1  0.89854000  0.63107000  0.52250000  1.0
  N  N49  1  0.60146000  0.86893000  0.02250000  1.0
  N  N50  1  0.10146000  0.36893000  0.47750000  1.0
  N  N51  1  0.39854000  0.13107000  0.97750000  1.0
  N  N52  1  0.02668000  0.62807000  0.69255000  1.0
  N  N53  1  0.47333000  0.87193000  0.19255000  1.0
  N  N54  1  0.97333000  0.37193000  0.30745000  1.0
  N  N55  1  0.52668000  0.12807000  0.80745000  1.0
  O  O56  1  0.47786000  0.68478000  0.40579000  1.0
  O  O57  1  0.02214000  0.81522000  0.90579000  1.0
  O  O58  1  0.52214000  0.31522000  0.59421000  1.0
  O  O59  1  0.97786000  0.18478000  0.09420000  1.0
  O  O60  1  0.76309000  0.85024000  0.42970000  1.0
  O  O61  1  0.73691000  0.64976000  0.92970000  1.0
  O  O62  1  0.23691000  0.14976000  0.57030000  1.0
  O  O63  1  0.26309000  0.35024000  0.07030000  1.0
  O  O64  1  0.39630000  0.79484000  0.75818000  1.0
  O  O65  1  0.10370000  0.70516000  0.25819000  1.0
  O  O66  1  0.60371000  0.20516000  0.24182000  1.0
  O  O67  1  0.89630000  0.29484000  0.74181000  1.0
  O  O68  1  0.13082000  0.00308000  0.36643000  1.0
  O  O69  1  0.36918000  0.49692000  0.86643000  1.0
  O  O70  1  0.86918000  0.99692000  0.63357000  1.0
  O  O71  1  0.63082000  0.50308000  0.13357000  1.0
  O  O72  1  0.43314000  0.90131000  0.58405000  1.0
  O  O73  1  0.06686000  0.59869000  0.08406000  1.0
  O  O74  1  0.56686000  0.09869000  0.41595000  1.0
  O  O75  1  0.93314000  0.40131000  0.91594000  1.0
