# generated using pymatgen
data_SmH9C9(NO3)3
_symmetry_space_group_name_H-M   'P 1'
_cell_length_a   6.17760000
_cell_length_b   7.69899000
_cell_length_c   13.43600000
_cell_angle_alpha   81.17770000
_cell_angle_beta   85.88230000
_cell_angle_gamma   77.01040000
_symmetry_Int_Tables_number   1
_chemical_formula_structural   SmH9C9(NO3)3
_chemical_formula_sum   'Sm2 H18 C18 N6 O18'
_cell_volume   614.85133868
_cell_formula_units_Z   2
loop_
 _symmetry_equiv_pos_site_id
 _symmetry_equiv_pos_as_xyz
  1  'x, y, z'
loop_
 _atom_site_type_symbol
 _atom_site_label
 _atom_site_symmetry_multiplicity
 _atom_site_fract_x
 _atom_site_fract_y
 _atom_site_fract_z
 _atom_site_occupancy
  Sm  Sm0  1  0.27578000  0.29152000  0.26841000  1.0
  Sm  Sm1  1  0.72422000  0.70848000  0.73159000  1.0
  H  H2  1  0.40210000  0.40409000  0.00461000  1.0
  H  H3  1  0.59789000  0.59590000  0.99539000  1.0
  H  H4  1  0.61931000  0.61290000  0.33038000  1.0
  H  H5  1  0.38071000  0.38711000  0.66962000  1.0
  H  H6  1  0.65303000  0.20921000  0.95644000  1.0
  H  H7  1  0.34697000  0.79077000  0.04356000  1.0
  H  H8  1  0.00638000  0.66348000  0.30770000  1.0
  H  H9  1  0.99363000  0.33653000  0.69230000  1.0
  H  H10  1  0.06107000  0.70118000  0.19068000  1.0
  H  H11  1  0.93895000  0.29882000  0.80932000  1.0
  H  H12  1  0.34732000  0.89478000  0.26431000  1.0
  H  H13  1  0.65268000  0.10522000  0.73569000  1.0
  H  H14  1  0.13572000  0.91095000  0.34401000  1.0
  H  H15  1  0.86428000  0.08906000  0.65599000  1.0
  H  H16  1  0.68385000  0.99234000  0.36279000  1.0
  H  H17  1  0.31616000  0.00767000  0.63720000  1.0
  H  H18  1  0.73052000  0.18695000  0.33080000  1.0
  H  H19  1  0.26947000  0.81306000  0.66919000  1.0
  C  C20  1  0.75755000  0.40705000  0.18049000  1.0
  C  C21  1  0.24244000  0.59294000  0.81951000  1.0
  C  C22  1  0.88309000  0.46228000  0.08548000  1.0
  C  C23  1  0.11692000  0.53771000  0.91452000  1.0
  C  C24  1  0.22251000  0.44764000  0.00220000  1.0
  C  C25  1  0.77749000  0.55236000  0.99780000  1.0
  C  C26  1  0.17722000  0.28171000  0.51539000  1.0
  C  C27  1  0.82278000  0.71830000  0.48462000  1.0
  C  C28  1  0.34986000  0.39602000  0.50851000  1.0
  C  C29  1  0.65015000  0.60398000  0.49149000  1.0
  C  C30  1  0.56645000  0.56144000  0.40616000  1.0
  C  C31  1  0.43356000  0.43857000  0.59384000  1.0
  C  C32  1  0.61965000  0.97938000  0.13471000  1.0
  C  C33  1  0.38033000  0.02062000  0.86529000  1.0
  C  C34  1  0.82087000  0.98665000  0.06317000  1.0
  C  C35  1  0.17912000  0.01333000  0.93684000  1.0
  C  C36  1  0.80935000  0.11644000  0.97698000  1.0
  C  C37  1  0.19064000  0.88355000  0.02302000  1.0
  N  N38  1  0.10553000  0.41099000  0.08714000  1.0
  N  N39  1  0.89449000  0.58900000  0.91285000  1.0
  N  N40  1  0.41758000  0.45709000  0.41501000  1.0
  N  N41  1  0.58243000  0.54291000  0.58499000  1.0
  N  N42  1  0.98599000  0.13039000  0.91508000  1.0
  N  N43  1  0.01400000  0.86960000  0.08493000  1.0
  O  O44  1  0.87623000  0.31363000  0.25188000  1.0
  O  O45  1  0.12379000  0.68637000  0.74811000  1.0
  O  O46  1  0.54840000  0.44967000  0.18167000  1.0
  O  O47  1  0.45159000  0.55035000  0.81833000  1.0
  O  O48  1  0.10567000  0.26079000  0.43318000  1.0
  O  O49  1  0.89432000  0.73922000  0.56682000  1.0
  O  O50  1  0.11479000  0.21505000  0.60240000  1.0
  O  O51  1  0.88521000  0.78495000  0.39760000  1.0
  O  O52  1  0.48147000  0.13053000  0.13446000  1.0
  O  O53  1  0.51853000  0.86948000  0.86553000  1.0
  O  O54  1  0.60344000  0.83250000  0.18679000  1.0
  O  O55  1  0.39653000  0.16750000  0.81321000  1.0
  O  O56  1  0.10029000  0.61022000  0.25214000  1.0
  O  O57  1  0.89972000  0.38978000  0.74787000  1.0
  O  O58  1  0.23203000  0.97793000  0.30002000  1.0
  O  O59  1  0.76797000  0.02208000  0.69998000  1.0
  O  O60  1  0.61023000  0.12100000  0.35420000  1.0
  O  O61  1  0.38977000  0.87900000  0.64580000  1.0
