# generated using pymatgen
data_MnH10C12S2(NO3)2
_symmetry_space_group_name_H-M   'P 1'
_cell_length_a   4.73041000
_cell_length_b   10.67690000
_cell_length_c   14.61180000
_cell_angle_alpha   82.77330000
_cell_angle_beta   80.68890000
_cell_angle_gamma   77.25060000
_symmetry_Int_Tables_number   1
_chemical_formula_structural   MnH10C12S2(NO3)2
_chemical_formula_sum   'Mn2 H20 C24 S4 N4 O12'
_cell_volume   707.18794510
_cell_formula_units_Z   2
loop_
 _symmetry_equiv_pos_site_id
 _symmetry_equiv_pos_as_xyz
  1  'x, y, z'
loop_
 _atom_site_type_symbol
 _atom_site_label
 _atom_site_symmetry_multiplicity
 _atom_site_fract_x
 _atom_site_fract_y
 _atom_site_fract_z
 _atom_site_occupancy
  Mn  Mn0  1  0.00000000  0.00001000  0.50000000  1.0
  Mn  Mn1  1  0.49998000  0.50000000  0.00001000  1.0
  H  H2  1  0.09497000  0.19838000  0.26731000  1.0
  H  H3  1  0.43753000  0.69933000  0.76749000  1.0
  H  H4  1  0.90507000  0.80162000  0.73267000  1.0
  H  H5  1  0.56246000  0.30067000  0.23254000  1.0
  H  H6  1  0.28622000  0.94058000  0.05023000  1.0
  H  H7  1  0.72216000  0.44217000  0.55023000  1.0
  H  H8  1  0.71382000  0.05940000  0.94977000  1.0
  H  H9  1  0.27776000  0.55787000  0.44976000  1.0
  H  H10  1  0.56980000  0.23409000  0.58866000  1.0
  H  H11  1  0.60782000  0.73319000  0.08939000  1.0
  H  H12  1  0.43021000  0.76591000  0.41132000  1.0
  H  H13  1  0.39219000  0.26681000  0.91062000  1.0
  H  H14  1  0.99584000  0.14671000  0.11259000  1.0
  H  H15  1  0.74382000  0.64811000  0.61286000  1.0
  H  H16  1  0.00421000  0.85328000  0.88739000  1.0
  H  H17  1  0.25614000  0.35191000  0.38715000  1.0
  H  H18  1  0.50072000  0.17224000  0.50363000  1.0
  H  H19  1  0.82319000  0.67213000  0.00383000  1.0
  H  H20  1  0.49929000  0.82776000  0.49636000  1.0
  H  H21  1  0.17681000  0.32786000  0.99618000  1.0
  C  C22  1  0.51389000  0.06344000  0.36775000  1.0
  C  C23  1  0.05373000  0.56382000  0.86777000  1.0
  C  C24  1  0.48612000  0.93656000  0.63224000  1.0
  C  C25  1  0.94625000  0.43617000  0.13225000  1.0
  C  C26  1  0.44985000  0.03559000  0.27687000  1.0
  C  C27  1  0.23648000  0.53620000  0.77692000  1.0
  C  C28  1  0.55017000  0.96441000  0.72312000  1.0
  C  C29  1  0.76352000  0.46380000  0.22310000  1.0
  C  C30  1  0.22399000  0.11490000  0.23333000  1.0
  C  C31  1  0.42621000  0.61580000  0.73344000  1.0
  C  C32  1  0.77603000  0.88510000  0.76666000  1.0
  C  C33  1  0.57375000  0.38420000  0.26658000  1.0
  C  C34  1  0.16675000  0.08521000  0.14899000  1.0
  C  C35  1  0.59816000  0.58629000  0.64918000  1.0
  C  C36  1  0.83331000  0.91479000  0.85099000  1.0
  C  C37  1  0.40178000  0.41373000  0.35083000  1.0
  C  C38  1  0.32998000  0.97166000  0.11409000  1.0
  C  C39  1  0.58342000  0.47284000  0.61412000  1.0
  C  C40  1  0.67005000  0.02833000  0.88590000  1.0
  C  C41  1  0.41655000  0.52718000  0.38588000  1.0
  C  C42  1  0.61152000  0.92531000  0.23365000  1.0
  C  C43  1  0.22895000  0.42590000  0.73355000  1.0
  C  C44  1  0.38850000  0.07468000  0.76634000  1.0
  C  C45  1  0.77105000  0.57410000  0.26645000  1.0
  S  S46  1  0.90527000  0.82688000  0.28824000  1.0
  S  S47  1  0.97939000  0.32706000  0.78801000  1.0
  S  S48  1  0.09475000  0.17312000  0.71176000  1.0
  S  S49  1  0.02063000  0.67293000  0.21199000  1.0
  N  N50  1  0.54515000  0.89231000  0.15536000  1.0
  N  N51  1  0.40637000  0.39327000  0.65520000  1.0
  N  N52  1  0.45488000  0.10768000  0.84463000  1.0
  N  N53  1  0.59361000  0.60674000  0.34480000  1.0
  O  O54  1  0.30586000  0.12059000  0.42532000  1.0
  O  O55  1  0.14678000  0.62086000  0.92551000  1.0
  O  O56  1  0.69415000  0.87941000  0.57467000  1.0
  O  O57  1  0.85321000  0.37913000  0.07451000  1.0
  O  O58  1  0.77812000  0.02628000  0.38317000  1.0
  O  O59  1  0.81126000  0.52652000  0.88302000  1.0
  O  O60  1  0.22187000  0.97372000  0.61682000  1.0
  O  O61  1  0.18871000  0.47346000  0.11699000  1.0
  O  O62  1  0.66152000  0.17820000  0.53803000  1.0
  O  O63  1  0.62231000  0.67773000  0.03845000  1.0
  O  O64  1  0.33849000  0.82181000  0.46196000  1.0
  O  O65  1  0.37769000  0.32227000  0.96156000  1.0
