# generated using pymatgen
data_Zn4H72C89N20O17F18
_symmetry_space_group_name_H-M   'P 1'
_cell_length_a   19.82970000
_cell_length_b   20.42650000
_cell_length_c   21.06930000
_cell_angle_alpha   108.07500000
_cell_angle_beta   105.88900000
_cell_angle_gamma   111.44000000
_symmetry_Int_Tables_number   1
_chemical_formula_structural   Zn4H72C89N20O17F18
_chemical_formula_sum   'Zn4 H72 C89 N20 O17 F18'
_cell_volume   6790.30027193
_cell_formula_units_Z   1
loop_
 _symmetry_equiv_pos_site_id
 _symmetry_equiv_pos_as_xyz
  1  'x, y, z'
loop_
 _atom_site_type_symbol
 _atom_site_label
 _atom_site_symmetry_multiplicity
 _atom_site_fract_x
 _atom_site_fract_y
 _atom_site_fract_z
 _atom_site_occupancy
  Zn  Zn0  1  0.58404000  0.59577000  0.47591000  1.0
  Zn  Zn1  1  0.39904000  0.36629000  0.49579000  1.0
  Zn  Zn2  1  0.48640000  0.57893000  0.58553000  1.0
  Zn  Zn3  1  0.50232000  0.39247000  0.38784000  1.0
  H  H4  1  0.23349000  0.34614000  0.53233000  1.0
  H  H5  1  0.63156000  0.40328000  0.52879000  1.0
  H  H6  1  0.48110000  0.92815000  0.53229000  1.0
  H  H7  1  0.39771000  0.62635000  0.11652000  1.0
  H  H8  1  0.29720000  0.35950000  0.68754000  1.0
  H  H9  1  0.31642000  0.37796000  0.99104000  1.0
  H  H10  1  0.20134000  0.30397000  0.14866000  1.0
  H  H11  1  0.08576000  0.20319000  0.02447000  1.0
  H  H12  1  0.97605000  0.95320000  0.87464000  1.0
  H  H13  1  0.80498000  0.03617000  0.86472000  1.0
  H  H14  1  0.02234000  0.03710000  0.11272000  1.0
  H  H15  1  0.46920000  0.38605000  0.21383000  1.0
  H  H16  1  0.70015000  0.90935000  0.74986000  1.0
  H  H17  1  0.46650000  0.59515000  0.34410000  1.0
  H  H18  1  0.84326000  0.86020000  0.64080000  1.0
  H  H19  1  0.75016000  0.85312000  0.58788000  1.0
  H  H20  1  0.80472000  0.82162000  0.54176000  1.0
  H  H21  1  0.53647000  0.83434000  0.70749000  1.0
  H  H22  1  0.43601000  0.78940000  0.69984000  1.0
  H  H23  1  0.45583000  0.83080000  0.63892000  1.0
  H  H24  1  0.36337000  0.19922000  0.23338000  1.0
  H  H25  1  0.45140000  0.28457000  0.25207000  1.0
  H  H26  1  0.33041000  0.58823000  0.56533000  1.0
  H  H27  1  0.37765000  0.21719000  0.15825000  1.0
  H  H28  1  0.10982000  0.28252000  0.29002000  1.0
  H  H29  1  0.17590000  0.38345000  0.36119000  1.0
  H  H30  1  0.11244000  0.31155000  0.38070000  1.0
  H  H31  1  0.17342000  0.47668000  0.71832000  1.0
  H  H32  1  0.12015000  0.37317000  0.65602000  1.0
  H  H33  1  0.12421000  0.40662000  0.74729000  1.0
  H  H34  1  0.90745000  0.29324000  0.60835000  1.0
  H  H35  1  0.81389000  0.28536000  0.60718000  1.0
  H  H36  1  0.90080000  0.33020000  0.69389000  1.0
  H  H37  1  0.12641000  0.55952000  0.71887000  1.0
  H  H38  1  0.13642000  0.71709000  0.76093000  1.0
  H  H39  1  0.05284000  0.70434000  0.78368000  1.0
  H  H40  1  0.07299000  0.75502000  0.72929000  1.0
  H  H41  1  0.56338000  0.33387000  0.65205000  1.0
  H  H42  1  0.53361000  0.23004000  0.61588000  1.0
  H  H43  1  0.47897000  0.26693000  0.65764000  1.0
  H  H44  1  0.92159000  0.35316000  0.42585000  1.0
  H  H45  1  0.01428000  0.35067000  0.44392000  1.0
  H  H46  1  0.96734000  0.36048000  0.36416000  1.0
  H  H47  1  0.75174000  0.00124000  0.66705000  1.0
  H  H48  1  0.96391000  0.56629000  0.54055000  1.0
  H  H49  1  0.79365000  0.07791000  0.75984000  1.0
  H  H50  1  0.84674000  0.08844000  0.70384000  1.0
  H  H51  1  0.46451000  0.64907000  0.79943000  1.0
  H  H52  1  0.38098000  0.58005000  0.70900000  1.0
  H  H53  1  0.44721000  0.67842000  0.72732000  1.0
  H  H54  1  0.80838000  0.24253000  0.76628000  1.0
  H  H55  1  0.73527000  0.27212000  0.77640000  1.0
  H  H56  1  0.80928000  0.32503000  0.75165000  1.0
  H  H57  1  0.43593000  0.07640000  0.63981000  1.0
  H  H58  1  0.37690000  0.98694000  0.55413000  1.0
  H  H59  1  0.07711000  0.56375000  0.54739000  1.0
  H  H60  1  0.36742000  0.07227000  0.56046000  1.0
  H  H61  1  0.36473000  0.97961000  0.42644000  1.0
  H  H62  1  0.37703000  0.90314000  0.44422000  1.0
  H  H63  1  0.38327000  0.91318000  0.36439000  1.0
  H  H64  1  0.23133000  0.25116000  0.70903000  1.0
  H  H65  1  0.16997000  0.28570000  0.66564000  1.0
  H  H66  1  0.13880000  0.23434000  0.71637000  1.0
  H  H67  1  0.96777000  0.83038000  0.83151000  1.0
  H  H68  1  0.99728000  0.87962000  0.77839000  1.0
  H  H69  1  0.94919000  0.77345000  0.73818000  1.0
  H  H70  1  0.61947000  0.05789000  0.46314000  1.0
  H  H71  1  0.73589000  0.79156000  0.83740000  1.0
  H  H72  1  0.66112000  0.68921000  0.79998000  1.0
  H  H73  1  0.64777000  0.76665000  0.85399000  1.0
  H  H74  1  0.70790000  0.11210000  0.54909000  1.0
  H  H75  1  0.57590000  0.94269000  0.47992000  1.0
  C  C76  1  0.70568000  0.73300000  0.61706000  1.0
  C  C77  1  0.54807000  0.73134000  0.50052000  1.0
  C  C78  1  0.47567000  0.43699000  0.25671000  1.0
  C  C79  1  0.48473000  0.26984000  0.50596000  1.0
  C  C80  1  0.31742000  0.52849000  0.55507000  1.0
  C  C81  1  0.44930000  0.49091000  0.24885000  1.0
  C  C82  1  0.25422000  0.46952000  0.55705000  1.0
  C  C83  1  0.53666000  0.77767000  0.55762000  1.0
  C  C84  1  0.24816000  0.28377000  0.27146000  1.0
  C  C85  1  0.93207000  0.41573000  0.59357000  1.0
  C  C86  1  0.01857000  0.56694000  0.66956000  1.0
  C  C87  1  0.53593000  0.24507000  0.48233000  1.0
  C  C88  1  0.09574000  0.56199000  0.66857000  1.0
  C  C89  1  0.19254000  0.47542000  0.57452000  1.0
  C  C90  1  0.94072000  0.49665000  0.59842000  1.0
  C  C91  1  0.47951000  0.52995000  0.69131000  1.0
  C  C92  1  0.01553000  0.41705000  0.60578000  1.0
  C  C93  1  0.07199000  0.48817000  0.59747000  1.0
  C  C94  1  0.03191000  0.50321000  0.53095000  1.0
  C  C95  1  0.95537000  0.50752000  0.53212000  1.0
  C  C96  1  0.14108000  0.48271000  0.59193000  1.0
  C  C97  1  0.86893000  0.50188000  0.59499000  1.0
  C  C98  1  0.43832000  0.46947000  0.70773000  1.0
  C  C99  1  0.80691000  0.50476000  0.57520000  1.0
  C  C100  1  0.65358000  0.14798000  0.64574000  1.0
  C  C101  1  0.64285000  0.07082000  0.52154000  1.0
  C  C102  1  0.62758000  0.99545000  0.52911000  1.0
  C  C103  1  0.65582000  0.45500000  0.52015000  1.0
  C  C104  1  0.56969000  0.85978000  0.58759000  1.0
  C  C105  1  0.60187000  0.11058000  0.55996000  1.0
  C  C106  1  0.67279000  0.08451000  0.66396000  1.0
  C  C107  1  0.60977000  0.00017000  0.59761000  1.0
  C  C108  1  0.52341000  0.98995000  0.57424000  1.0
  C  C109  1  0.73694000  0.50839000  0.54364000  1.0
  C  C110  1  0.51465000  0.04479000  0.53877000  1.0
  C  C111  1  0.60335000  0.93094000  0.60739000  1.0
  C  C112  1  0.59354000  0.16747000  0.53573000  1.0
  C  C113  1  0.57012000  0.20339000  0.50742000  1.0
  C  C114  1  0.41035000  0.49345000  0.18103000  1.0
  C  C115  1  0.43339000  0.40430000  0.65401000  1.0
  C  C116  1  0.37009000  0.42734000  0.10994000  1.0
  C  C117  1  0.34259000  0.42997000  0.04388000  1.0
  C  C118  1  0.35449000  0.50299000  0.04586000  1.0
  C  C119  1  0.38759000  0.56941000  0.11433000  1.0
  C  C120  1  0.47353000  0.54381000  0.32252000  1.0
  C  C121  1  0.41355000  0.56285000  0.17889000  1.0
  C  C122  1  0.41767000  0.53410000  0.88608000  1.0
  C  C123  1  0.44876000  0.53212000  0.83434000  1.0
  C  C124  1  0.34436000  0.47001000  0.86993000  1.0
  C  C125  1  0.40622000  0.47012000  0.76205000  1.0
  C  C126  1  0.33115000  0.40742000  0.74390000  1.0
  C  C127  1  0.73116000  0.56117000  0.51500000  1.0
  C  C128  1  0.30106000  0.40642000  0.79613000  1.0
  C  C129  1  0.77891000  0.86043000  0.74581000  1.0
  C  C130  1  0.76113000  0.91980000  0.77661000  1.0
  C  C131  1  0.26922000  0.40517000  0.53969000  1.0
  C  C132  1  0.81907000  0.99048000  0.84014000  1.0
  C  C133  1  0.89514000  0.99999000  0.87618000  1.0
  C  C134  1  0.91603000  0.94318000  0.84512000  1.0
  C  C135  1  0.85885000  0.87481000  0.77926000  1.0
  C  C136  1  0.09611000  0.19037000  0.07163000  1.0
  C  C137  1  0.15991000  0.24628000  0.14088000  1.0
  C  C138  1  0.04657000  0.11449000  0.06122000  1.0
  C  C139  1  0.53536000  0.26757000  0.42569000  1.0
  C  C140  1  0.17452000  0.23006000  0.20210000  1.0
  C  C141  1  0.12101000  0.15468000  0.18986000  1.0
  C  C142  1  0.48589000  0.71811000  0.57031000  1.0
  C  C143  1  0.05952000  0.09636000  0.12098000  1.0
  C  C144  1  0.64827000  0.73263000  0.69288000  1.0
  C  C145  1  0.71520000  0.78190000  0.68641000  1.0
  C  C146  1  0.78853000  0.82552000  0.58797000  1.0
  C  C147  1  0.47200000  0.79949000  0.66910000  1.0
  C  C148  1  0.38631000  0.24464000  0.21563000  1.0
  C  C149  1  0.14836000  0.32105000  0.34983000  1.0
  C  C150  1  0.12077000  0.41962000  0.70020000  1.0
  C  C151  1  0.87975000  0.32196000  0.63672000  1.0
  C  C152  1  0.07449000  0.70695000  0.74131000  1.0
  C  C153  1  0.32597000  0.30674000  0.27561000  1.0
  C  C154  1  0.51255000  0.27321000  0.62450000  1.0
  C  C155  1  0.97900000  0.37621000  0.42230000  1.0
  C  C156  1  0.78721000  0.06534000  0.70331000  1.0
  C  C157  1  0.44327000  0.62919000  0.73956000  1.0
  C  C158  1  0.77118000  0.26680000  0.74565000  1.0
  C  C159  1  0.40957000  0.05181000  0.57910000  1.0
  C  C160  1  0.39716000  0.94597000  0.42262000  1.0
  C  C161  1  0.19090000  0.27572000  0.71408000  1.0
  C  C162  1  0.95170000  0.82631000  0.77553000  1.0
  C  C163  1  0.67122000  0.74957000  0.81398000  1.0
  C  C164  1  0.26270000  0.31162000  0.34659000  1.0
  N  N165  1  0.64011000  0.66129000  0.58629000  1.0
  N  N166  1  0.32434000  0.45691000  0.92450000  1.0
  N  N167  1  0.94881000  0.06701000  0.94615000  1.0
  N  N168  1  0.45910000  0.30455000  0.46757000  1.0
  N  N169  1  0.98712000  0.05049000  0.99181000  1.0
  N  N170  1  0.49860000  0.50313000  0.63608000  1.0
  N  N171  1  0.60738000  0.47419000  0.47983000  1.0
  N  N172  1  0.46912000  0.42215000  0.61174000  1.0
  N  N173  1  0.65545000  0.54143000  0.47697000  1.0
  N  N174  1  0.49076000  0.30206000  0.41581000  1.0
  N  N175  1  0.60448000  0.66039000  0.63383000  1.0
  N  N176  1  0.33629000  0.42521000  0.52977000  1.0
  N  N177  1  0.51077000  0.52259000  0.36931000  1.0
  N  N178  1  0.47169000  0.64609000  0.52641000  1.0
  N  N179  1  0.38184000  0.34601000  0.34641000  1.0
  N  N180  1  0.34278000  0.34958000  0.39126000  1.0
  N  N181  1  0.51155000  0.65504000  0.48177000  1.0
  N  N182  1  0.51279000  0.45646000  0.32861000  1.0
  N  N183  1  0.36644000  0.50126000  0.53947000  1.0
  N  N184  1  0.34820000  0.51784000  0.98420000  1.0
  O  O185  1  0.74495000  0.74514000  0.57489000  1.0
  O  O186  1  0.75172000  0.10725000  0.67594000  1.0
  O  O187  1  0.49600000  0.60644000  0.71466000  1.0
  O  O188  1  0.71971000  0.21819000  0.66697000  1.0
  O  O189  1  0.47072000  0.08174000  0.55563000  1.0
  O  O190  1  0.48224000  0.99747000  0.46000000  1.0
  O  O191  1  0.22996000  0.34685000  0.78224000  1.0
  O  O192  1  0.87288000  0.81619000  0.74402000  1.0
  O  O193  1  0.62652000  0.75219000  0.74872000  1.0
  O  O194  1  0.45241000  0.72197000  0.61834000  1.0
  O  O195  1  0.34207000  0.28691000  0.21607000  1.0
  O  O196  1  0.21009000  0.30193000  0.37686000  1.0
  O  O197  1  0.04659000  0.42171000  0.67552000  1.0
  O  O198  1  0.90228000  0.39979000  0.64135000  1.0
  O  O199  1  0.02050000  0.63599000  0.67201000  1.0
  O  O200  1  0.45567000  0.25867000  0.55449000  1.0
  O  O201  1  0.02496000  0.46110000  0.46063000  1.0
  F  F202  1  0.59237000  0.75844000  0.46676000  1.0
  F  F203  1  0.66539000  0.08665000  0.72900000  1.0
  F  F204  1  0.52419000  0.59141000  0.85685000  1.0
  F  F205  1  0.46488000  0.59486000  0.95521000  1.0
  F  F206  1  0.44905000  0.62956000  0.24466000  1.0
  F  F207  1  0.36051000  0.35640000  0.10658000  1.0
  F  F208  1  0.39445000  0.32891000  0.64243000  1.0
  F  F209  1  0.13323000  0.13613000  0.24743000  1.0
  F  F210  1  0.79239000  0.62381000  0.52175000  1.0
  F  F211  1  0.57439000  0.25867000  0.38344000  1.0
  F  F212  1  0.01334000  0.56052000  0.73292000  1.0
  F  F213  1  0.15031000  0.63052000  0.67006000  1.0
  F  F214  1  0.88775000  0.45381000  0.46441000  1.0
  F  F215  1  0.87696000  0.35657000  0.52015000  1.0
  F  F216  1  0.00201000  0.34588000  0.55268000  1.0
  F  F217  1  0.69431000  0.98347000  0.53529000  1.0
  F  F218  1  0.50569000  0.00059000  0.63546000  1.0
  F  F219  1  0.60745000  0.16317000  0.68292000  1.0
