# generated using pymatgen
data_AlH7C16Cl2O5
_symmetry_space_group_name_H-M   'P 1'
_cell_length_a   6.66865000
_cell_length_b   23.11000000
_cell_length_c   26.39410000
_cell_angle_alpha   90.00000000
_cell_angle_beta   89.99930000
_cell_angle_gamma   89.99940000
_symmetry_Int_Tables_number   1
_chemical_formula_structural   AlH7C16Cl2O5
_chemical_formula_sum   'Al4 H28 C64 Cl8 O20'
_cell_volume   4067.66077531
_cell_formula_units_Z   4
loop_
 _symmetry_equiv_pos_site_id
 _symmetry_equiv_pos_as_xyz
  1  'x, y, z'
loop_
 _atom_site_type_symbol
 _atom_site_label
 _atom_site_symmetry_multiplicity
 _atom_site_fract_x
 _atom_site_fract_y
 _atom_site_fract_z
 _atom_site_occupancy
  Al  Al0  1  0.26399000  0.75096000  0.25000000  1.0
  Al  Al1  1  0.73600000  0.24904000  0.75000000  1.0
  Al  Al2  1  0.76400000  0.74904000  0.25000000  1.0
  Al  Al3  1  0.23599000  0.25096000  0.75000000  1.0
  H  H4  1  0.27864000  0.38663000  0.65300000  1.0
  H  H5  1  0.72137000  0.61336000  0.34700000  1.0
  H  H6  1  0.72136000  0.61337000  0.15300000  1.0
  H  H7  1  0.27863000  0.38663000  0.84700000  1.0
  H  H8  1  0.77864000  0.11337000  0.84700000  1.0
  H  H9  1  0.22136000  0.88663000  0.15299000  1.0
  H  H10  1  0.22136000  0.88664000  0.34700000  1.0
  H  H11  1  0.77862000  0.11336000  0.65299000  1.0
  H  H12  1  0.70538000  0.40627000  0.53488000  1.0
  H  H13  1  0.29465000  0.59373000  0.46512000  1.0
  H  H14  1  0.29461000  0.59373000  0.03488000  1.0
  H  H15  1  0.70537000  0.40627000  0.96512000  1.0
  H  H16  1  0.20538000  0.09373000  0.96513000  1.0
  H  H17  1  0.79464000  0.90627000  0.03489000  1.0
  H  H18  1  0.79463000  0.90627000  0.46512000  1.0
  H  H19  1  0.20535000  0.09373000  0.53489000  1.0
  H  H20  1  0.29348000  0.46032000  0.58410000  1.0
  H  H21  1  0.70657000  0.53968000  0.41589000  1.0
  H  H22  1  0.70655000  0.53969000  0.08411000  1.0
  H  H23  1  0.29345000  0.46031000  0.91590000  1.0
  H  H24  1  0.79347000  0.03969000  0.91589000  1.0
  H  H25  1  0.20655000  0.96032000  0.08410000  1.0
  H  H26  1  0.20653000  0.96032000  0.41590000  1.0
  H  H27  1  0.79344000  0.03968000  0.58410000  1.0
  H  H28  1  0.50887000  0.67345000  0.24999000  1.0
  H  H29  1  0.49112000  0.32655000  0.74999000  1.0
  H  H30  1  0.00886000  0.82655000  0.24999000  1.0
  H  H31  1  0.99113000  0.17345000  0.74999000  1.0
  C  C32  1  0.51546000  0.81779000  0.32012000  1.0
  C  C33  1  0.48454000  0.18221000  0.67988000  1.0
  C  C34  1  0.48452000  0.18221000  0.82012000  1.0
  C  C35  1  0.51547000  0.81779000  0.17989000  1.0
  C  C36  1  0.01550000  0.68221000  0.17988000  1.0
  C  C37  1  0.98449000  0.31779000  0.82012000  1.0
  C  C38  1  0.98450000  0.31779000  0.67989000  1.0
  C  C39  1  0.01550000  0.68221000  0.32012000  1.0
  C  C40  1  0.16162000  0.43304000  0.58882000  1.0
  C  C41  1  0.83840000  0.56695000  0.41118000  1.0
  C  C42  1  0.83838000  0.56696000  0.08881000  1.0
  C  C43  1  0.16161000  0.43304000  0.91119000  1.0
  C  C44  1  0.66162000  0.06696000  0.91119000  1.0
  C  C45  1  0.33841000  0.93304000  0.08881000  1.0
  C  C46  1  0.33839000  0.93305000  0.41119000  1.0
  C  C47  1  0.66160000  0.06696000  0.58881000  1.0
  C  C48  1  0.15268000  0.39229000  0.62723000  1.0
  C  C49  1  0.84733000  0.60771000  0.37277000  1.0
  C  C50  1  0.84732000  0.60771000  0.12723000  1.0
  C  C51  1  0.15267000  0.39229000  0.87277000  1.0
  C  C52  1  0.65268000  0.10771000  0.87277000  1.0
  C  C53  1  0.34732000  0.89229000  0.12723000  1.0
  C  C54  1  0.34732000  0.89230000  0.37277000  1.0
  C  C55  1  0.65268000  0.10771000  0.62723000  1.0
  C  C56  1  0.98369000  0.35691000  0.63476000  1.0
  C  C57  1  0.01633000  0.64309000  0.36524000  1.0
  C  C58  1  0.01632000  0.64310000  0.13476000  1.0
  C  C59  1  0.98367000  0.35690000  0.86524000  1.0
  C  C60  1  0.48366000  0.14310000  0.86524000  1.0
  C  C61  1  0.51632000  0.85691000  0.13476000  1.0
  C  C62  1  0.51632000  0.85691000  0.36524000  1.0
  C  C63  1  0.48367000  0.14309000  0.63476000  1.0
  C  C64  1  0.82337000  0.36206000  0.60005000  1.0
  C  C65  1  0.17665000  0.63794000  0.39995000  1.0
  C  C66  1  0.17664000  0.63794000  0.10004000  1.0
  C  C67  1  0.82335000  0.36206000  0.89996000  1.0
  C  C68  1  0.32336000  0.13794000  0.89995000  1.0
  C  C69  1  0.67664000  0.86206000  0.10005000  1.0
  C  C70  1  0.67664000  0.86206000  0.39995000  1.0
  C  C71  1  0.32335000  0.13794000  0.60005000  1.0
  C  C72  1  0.83040000  0.40289000  0.56122000  1.0
  C  C73  1  0.16963000  0.59710000  0.43877000  1.0
  C  C74  1  0.16962000  0.59711000  0.06122000  1.0
  C  C75  1  0.83038000  0.40290000  0.93878000  1.0
  C  C76  1  0.33040000  0.09710000  0.93878000  1.0
  C  C77  1  0.66963000  0.90290000  0.06123000  1.0
  C  C78  1  0.66960000  0.90290000  0.43878000  1.0
  C  C79  1  0.33036000  0.09710000  0.56123000  1.0
  C  C80  1  0.99772000  0.43950000  0.55549000  1.0
  C  C81  1  0.00231000  0.56050000  0.44451000  1.0
  C  C82  1  0.00229000  0.56050000  0.05549000  1.0
  C  C83  1  0.99771000  0.43950000  0.94451000  1.0
  C  C84  1  0.49773000  0.06050000  0.94451000  1.0
  C  C85  1  0.50231000  0.93951000  0.05549000  1.0
  C  C86  1  0.50229000  0.93951000  0.44451000  1.0
  C  C87  1  0.49768000  0.06050000  0.55549000  1.0
  C  C88  1  0.99979000  0.48168000  0.51666000  1.0
  C  C89  1  0.00024000  0.51832000  0.48334000  1.0
  C  C90  1  0.00021000  0.51832000  0.01666000  1.0
  C  C91  1  0.99977000  0.48168000  0.98335000  1.0
  C  C92  1  0.49979000  0.01832000  0.98334000  1.0
  C  C93  1  0.50024000  0.98167000  0.01667000  1.0
  C  C94  1  0.50022000  0.98168000  0.48334000  1.0
  C  C95  1  0.49976000  0.01832000  0.51666000  1.0
  Cl  Cl96  1  0.61466000  0.31768000  0.60139000  1.0
  Cl  Cl97  1  0.38535000  0.68232000  0.39861000  1.0
  Cl  Cl98  1  0.38534000  0.68232000  0.10139000  1.0
  Cl  Cl99  1  0.61465000  0.31768000  0.89861000  1.0
  Cl  Cl100  1  0.11465000  0.18231000  0.89861000  1.0
  Cl  Cl101  1  0.88534000  0.81768000  0.10139000  1.0
  Cl  Cl102  1  0.88534000  0.81768000  0.39861000  1.0
  Cl  Cl103  1  0.11465000  0.18232000  0.60140000  1.0
  O  O104  1  0.68370000  0.80275000  0.19817000  1.0
  O  O105  1  0.31629000  0.19725000  0.80183000  1.0
  O  O106  1  0.31630000  0.19725000  0.69817000  1.0
  O  O107  1  0.68369000  0.80276000  0.30183000  1.0
  O  O108  1  0.18370000  0.69725000  0.30183000  1.0
  O  O109  1  0.81629000  0.30275000  0.69817000  1.0
  O  O110  1  0.81630000  0.30276000  0.80183000  1.0
  O  O111  1  0.18370000  0.69724000  0.19817000  1.0
  O  O112  1  0.34411000  0.80432000  0.30221000  1.0
  O  O113  1  0.65589000  0.19568000  0.69779000  1.0
  O  O114  1  0.65587000  0.19568000  0.80221000  1.0
  O  O115  1  0.34410000  0.80432000  0.19779000  1.0
  O  O116  1  0.84412000  0.69568000  0.19779000  1.0
  O  O117  1  0.15588000  0.30432000  0.80221000  1.0
  O  O118  1  0.15589000  0.30432000  0.69779000  1.0
  O  O119  1  0.84411000  0.69568000  0.30221000  1.0
  O  O120  1  0.51283000  0.71528000  0.25000000  1.0
  O  O121  1  0.48717000  0.28472000  0.75000000  1.0
  O  O122  1  0.01283000  0.78472000  0.25000000  1.0
  O  O123  1  0.98716000  0.21528000  0.75000000  1.0
