# generated using pymatgen
data_CoH24C24(N3O2)2
_symmetry_space_group_name_H-M   'P 1'
_cell_length_a   5.03152000
_cell_length_b   9.19735000
_cell_length_c   11.56460000
_cell_angle_alpha   90.39320000
_cell_angle_beta   91.63540000
_cell_angle_gamma   99.32160000
_symmetry_Int_Tables_number   1
_chemical_formula_structural   CoH24C24(N3O2)2
_chemical_formula_sum   'Co1 H24 C24 N6 O4'
_cell_volume   527.85297485
_cell_formula_units_Z   1
loop_
 _symmetry_equiv_pos_site_id
 _symmetry_equiv_pos_as_xyz
  1  'x, y, z'
loop_
 _atom_site_type_symbol
 _atom_site_label
 _atom_site_symmetry_multiplicity
 _atom_site_fract_x
 _atom_site_fract_y
 _atom_site_fract_z
 _atom_site_occupancy
  Co  Co0  1  0.00000000  0.50000000  1.00000000  1.0
  H  H1  1  0.10622000  0.08621000  0.90605000  1.0
  H  H2  1  0.89380000  0.91380000  0.09395000  1.0
  H  H3  1  0.81724000  0.17233000  0.12479000  1.0
  H  H4  1  0.18277000  0.82769000  0.87521000  1.0
  H  H5  1  0.54956000  0.51729000  0.79831000  1.0
  H  H6  1  0.45042000  0.48270000  0.20170000  1.0
  H  H7  1  0.20345000  0.28583000  0.81277000  1.0
  H  H8  1  0.79656000  0.71417000  0.18723000  1.0
  H  H9  1  0.11966000  0.14919000  0.62163000  1.0
  H  H10  1  0.88033000  0.85081000  0.37837000  1.0
  H  H11  1  0.05388000  0.27917000  0.51869000  1.0
  H  H12  1  0.94612000  0.72083000  0.48132000  1.0
  H  H13  1  0.69500000  0.28380000  0.30264000  1.0
  H  H14  1  0.30500000  0.71620000  0.69736000  1.0
  H  H15  1  0.76894000  0.36713000  0.44159000  1.0
  H  H16  1  0.23105000  0.63286000  0.55842000  1.0
  H  H17  1  0.43879000  0.33915000  0.38543000  1.0
  H  H18  1  0.56119000  0.66084000  0.61457000  1.0
  H  H19  1  0.81222000  0.01398000  0.77038000  1.0
  H  H20  1  0.18777000  0.98602000  0.22961000  1.0
  H  H21  1  0.02932000  0.93260000  0.68125000  1.0
  H  H22  1  0.97067000  0.06739000  0.31875000  1.0
  H  H23  1  0.74131000  0.82440000  0.73858000  1.0
  H  H24  1  0.25869000  0.17559000  0.26142000  1.0
  C  C25  1  0.41501000  0.30147000  0.03921000  1.0
  C  C26  1  0.58500000  0.69855000  0.96079000  1.0
  C  C27  1  0.45712000  0.14593000  0.01739000  1.0
  C  C28  1  0.54290000  0.85408000  0.98261000  1.0
  C  C29  1  0.28110000  0.04865000  0.94562000  1.0
  C  C30  1  0.71891000  0.95136000  0.05437000  1.0
  C  C31  1  0.67719000  0.09554000  0.07167000  1.0
  C  C32  1  0.32283000  0.90447000  0.92833000  1.0
  C  C33  1  0.69565000  0.44941000  0.77226000  1.0
  C  C34  1  0.30434000  0.55058000  0.22774000  1.0
  C  C35  1  0.02737000  0.33099000  0.78494000  1.0
  C  C36  1  0.97264000  0.66901000  0.21506000  1.0
  C  C37  1  0.96237000  0.20796000  0.58731000  1.0
  C  C38  1  0.03762000  0.79204000  0.41269000  1.0
  C  C39  1  0.71869000  0.10200000  0.54216000  1.0
  C  C40  1  0.28129000  0.89799000  0.45783000  1.0
  C  C41  1  0.56524000  0.13949000  0.44620000  1.0
  C  C42  1  0.43476000  0.86051000  0.55380000  1.0
  C  C43  1  0.62260000  0.28920000  0.39123000  1.0
  C  C44  1  0.37740000  0.71079000  0.60877000  1.0
  C  C45  1  0.65284000  0.96481000  0.59693000  1.0
  C  C46  1  0.34716000  0.03519000  0.40307000  1.0
  C  C47  1  0.81671000  0.93156000  0.70161000  1.0
  C  C48  1  0.18329000  0.06844000  0.29839000  1.0
  N  N49  1  0.90200000  0.42360000  0.84531000  1.0
  N  N50  1  0.09801000  0.57640000  0.15469000  1.0
  N  N51  1  0.68620000  0.37694000  0.67217000  1.0
  N  N52  1  0.31378000  0.62304000  0.32784000  1.0
  N  N53  1  0.89857000  0.30248000  0.68184000  1.0
  N  N54  1  0.10142000  0.69752000  0.31816000  1.0
  O  O55  1  0.61169000  0.39314000  0.07850000  1.0
  O  O56  1  0.38832000  0.60688000  0.92149000  1.0
  O  O57  1  0.17230000  0.32615000  0.01907000  1.0
  O  O58  1  0.82770000  0.67385000  0.98092000  1.0
