# generated using pymatgen
data_LaH20C25N5Cl3
_symmetry_space_group_name_H-M   'P 1'
_cell_length_a   13.31300000
_cell_length_b   13.34990000
_cell_length_c   13.72170000
_cell_angle_alpha   78.89450000
_cell_angle_beta   65.70440000
_cell_angle_gamma   65.14510000
_symmetry_Int_Tables_number   1
_chemical_formula_structural   LaH20C25N5Cl3
_chemical_formula_sum   'La2 H40 C50 N10 Cl6'
_cell_volume   2016.28270207
_cell_formula_units_Z   2
loop_
 _symmetry_equiv_pos_site_id
 _symmetry_equiv_pos_as_xyz
  1  'x, y, z'
loop_
 _atom_site_type_symbol
 _atom_site_label
 _atom_site_symmetry_multiplicity
 _atom_site_fract_x
 _atom_site_fract_y
 _atom_site_fract_z
 _atom_site_occupancy
  La  La0  1  0.47997000  0.08128000  0.33891000  1.0
  La  La1  1  0.52004000  0.91871000  0.66110000  1.0
  H  H2  1  0.13996000  0.47228000  0.57866000  1.0
  H  H3  1  0.33014000  0.31636000  0.50013000  1.0
  H  H4  1  0.64592000  0.17590000  0.09681000  1.0
  H  H5  1  0.84346000  0.16595000  0.97379000  1.0
  H  H6  1  0.59515000  0.65816000  0.96386000  1.0
  H  H7  1  0.56960000  0.95124000  0.09939000  1.0
  H  H8  1  0.98904000  0.84939000  0.12335000  1.0
  H  H9  1  0.27983000  0.97392000  0.56244000  1.0
  H  H10  1  0.51220000  0.63817000  0.33616000  1.0
  H  H11  1  0.78248000  0.87596000  0.24344000  1.0
  H  H12  1  0.48062000  0.81060000  0.40434000  1.0
  H  H13  1  0.59798000  0.48411000  0.26519000  1.0
  H  H14  1  0.61097000  0.78278000  0.01663000  1.0
  H  H15  1  0.08834000  0.95315000  0.63099000  1.0
  H  H16  1  0.65000000  0.31498000  0.18033000  1.0
  H  H17  1  0.01868000  0.40692000  0.35783000  1.0
  H  H18  1  0.65174000  0.47936000  0.89068000  1.0
  H  H19  1  0.21534000  0.25610000  0.28808000  1.0
  H  H20  1  0.26903000  0.06595000  0.25983000  1.0
  H  H21  1  0.07490000  0.04969000  0.31488000  1.0
  H  H22  1  0.86008000  0.52773000  0.42133000  1.0
  H  H23  1  0.66991000  0.68366000  0.49987000  1.0
  H  H24  1  0.35407000  0.82410000  0.90319000  1.0
  H  H25  1  0.15654000  0.83406000  0.02621000  1.0
  H  H26  1  0.40483000  0.34186000  0.03613000  1.0
  H  H27  1  0.43041000  0.04876000  0.90061000  1.0
  H  H28  1  0.01097000  0.15061000  0.87663000  1.0
  H  H29  1  0.72015000  0.02609000  0.43757000  1.0
  H  H30  1  0.48779000  0.36184000  0.66385000  1.0
  H  H31  1  0.21753000  0.12404000  0.75655000  1.0
  H  H32  1  0.51940000  0.18940000  0.59565000  1.0
  H  H33  1  0.40198000  0.51590000  0.73481000  1.0
  H  H34  1  0.38902000  0.21723000  0.98337000  1.0
  H  H35  1  0.91164000  0.04688000  0.36902000  1.0
  H  H36  1  0.34996000  0.68504000  0.81966000  1.0
  H  H37  1  0.98136000  0.59308000  0.64217000  1.0
  H  H38  1  0.34824000  0.52066000  0.10931000  1.0
  H  H39  1  0.78470000  0.74390000  0.71193000  1.0
  H  H40  1  0.73095000  0.93403000  0.74017000  1.0
  H  H41  1  0.92510000  0.95027000  0.68512000  1.0
  C  C42  1  0.15046000  0.42680000  0.51497000  1.0
  C  C43  1  0.56739000  0.69218000  0.16849000  1.0
  C  C44  1  0.93854000  0.00556000  0.03608000  1.0
  C  C45  1  0.05841000  0.45433000  0.47731000  1.0
  C  C46  1  0.25803000  0.33913000  0.47144000  1.0
  C  C47  1  0.72423000  0.10472000  0.10132000  1.0
  C  C48  1  0.59396000  0.58842000  0.12199000  1.0
  C  C49  1  0.83762000  0.09751000  0.03074000  1.0
  C  C50  1  0.60876000  0.58416000  0.01513000  1.0
  C  C51  1  0.56016000  0.87885000  0.14892000  1.0
  C  C52  1  0.91657000  0.92403000  0.11391000  1.0
  C  C53  1  0.23088000  0.99211000  0.51011000  1.0
  C  C54  1  0.52839000  0.70408000  0.27925000  1.0
  C  C55  1  0.80035000  0.93781000  0.18151000  1.0
  C  C56  1  0.05916000  0.00359000  0.48064000  1.0
  C  C57  1  0.50906000  0.80183000  0.31847000  1.0
  C  C58  1  0.60848000  0.48874000  0.18156000  1.0
  C  C59  1  0.58265000  0.78361000  0.10317000  1.0
  C  C60  1  0.12215000  0.98029000  0.54812000  1.0
  C  C61  1  0.63952000  0.39192000  0.13291000  1.0
  C  C62  1  0.08353000  0.39077000  0.39362000  1.0
  C  C63  1  0.64021000  0.48306000  0.97375000  1.0
  C  C64  1  0.19360000  0.30480000  0.35439000  1.0
  C  C65  1  0.22433000  0.04271000  0.34223000  1.0
  C  C66  1  0.11515000  0.03320000  0.37405000  1.0
  C  C67  1  0.84957000  0.57321000  0.48503000  1.0
  C  C68  1  0.43260000  0.30782000  0.83152000  1.0
  C  C69  1  0.06146000  0.99445000  0.96391000  1.0
  C  C70  1  0.94162000  0.54566000  0.52270000  1.0
  C  C71  1  0.74201000  0.66088000  0.52856000  1.0
  C  C72  1  0.27576000  0.89528000  0.89868000  1.0
  C  C73  1  0.40602000  0.41159000  0.87801000  1.0
  C  C74  1  0.16238000  0.90249000  0.96926000  1.0
  C  C75  1  0.39121000  0.41586000  0.98486000  1.0
  C  C76  1  0.43985000  0.12115000  0.85108000  1.0
  C  C77  1  0.08344000  0.07598000  0.88609000  1.0
  C  C78  1  0.76910000  0.00790000  0.48990000  1.0
  C  C79  1  0.47160000  0.29592000  0.72075000  1.0
  C  C80  1  0.19966000  0.06219000  0.81849000  1.0
  C  C81  1  0.94083000  0.99639000  0.51937000  1.0
  C  C82  1  0.49095000  0.19817000  0.68152000  1.0
  C  C83  1  0.39148000  0.51128000  0.81843000  1.0
  C  C84  1  0.41734000  0.21639000  0.89683000  1.0
  C  C85  1  0.87783000  0.01972000  0.45189000  1.0
  C  C86  1  0.36044000  0.60809000  0.86709000  1.0
  C  C87  1  0.91650000  0.60921000  0.60639000  1.0
  C  C88  1  0.35977000  0.51695000  0.02624000  1.0
  C  C89  1  0.80642000  0.69519000  0.64563000  1.0
  C  C90  1  0.77567000  0.95727000  0.65777000  1.0
  C  C91  1  0.88484000  0.96677000  0.62595000  1.0
  N  N92  1  0.70432000  0.02709000  0.17713000  1.0
  N  N93  1  0.52465000  0.88896000  0.25491000  1.0
  N  N94  1  0.27997000  0.27708000  0.39300000  1.0
  N  N95  1  0.28105000  0.02571000  0.40933000  1.0
  N  N96  1  0.65719000  0.38702000  0.02988000  1.0
  N  N97  1  0.29568000  0.97291000  0.82287000  1.0
  N  N98  1  0.47536000  0.11104000  0.74509000  1.0
  N  N99  1  0.72006000  0.72292000  0.60701000  1.0
  N  N100  1  0.71893000  0.97428000  0.59067000  1.0
  N  N101  1  0.34279000  0.61300000  0.97011000  1.0
  Cl  Cl102  1  0.62760000  0.89866000  0.42927000  1.0
  Cl  Cl103  1  0.42935000  0.15851000  0.15536000  1.0
  Cl  Cl104  1  0.57637000  0.21549000  0.36666000  1.0
  Cl  Cl105  1  0.37242000  0.10132000  0.57073000  1.0
  Cl  Cl106  1  0.57066000  0.84148000  0.84465000  1.0
  Cl  Cl107  1  0.42365000  0.78449000  0.63334000  1.0
