# generated using pymatgen
data_Zn4H6C24S4O15F2
_symmetry_space_group_name_H-M   'P 1'
_cell_length_a   19.67380000
_cell_length_b   19.69420000
_cell_length_c   33.38060000
_cell_angle_alpha   79.15290000
_cell_angle_beta   79.21310000
_cell_angle_gamma   63.95750000
_symmetry_Int_Tables_number   1
_chemical_formula_structural   Zn4H6C24S4O15F2
_chemical_formula_sum   'Zn16 H24 C96 S16 O60 F8'
_cell_volume   11332.47890786
_cell_formula_units_Z   4
loop_
 _symmetry_equiv_pos_site_id
 _symmetry_equiv_pos_as_xyz
  1  'x, y, z'
loop_
 _atom_site_type_symbol
 _atom_site_label
 _atom_site_symmetry_multiplicity
 _atom_site_fract_x
 _atom_site_fract_y
 _atom_site_fract_z
 _atom_site_occupancy
  Zn  Zn0  1  0.05600000  0.40008000  0.47854000  1.0
  Zn  Zn1  1  0.98407000  0.48302000  0.56076000  1.0
  Zn  Zn2  1  0.05882000  0.56056000  0.48286000  1.0
  Zn  Zn3  1  0.90130000  0.55475000  0.47939000  1.0
  Zn  Zn4  1  0.69419000  0.34974000  0.27166000  1.0
  Zn  Zn5  1  0.68879000  0.18980000  0.26700000  1.0
  Zn  Zn6  1  0.76803000  0.26653000  0.19024000  1.0
  Zn  Zn7  1  0.84745000  0.19400000  0.27194000  1.0
  Zn  Zn8  1  0.26718000  0.76661000  0.68953000  1.0
  Zn  Zn9  1  0.34990000  0.69516000  0.77168000  1.0
  Zn  Zn10  1  0.19389000  0.84805000  0.77149000  1.0
  Zn  Zn11  1  0.19158000  0.68902000  0.76726000  1.0
  Zn  Zn12  1  0.56080000  0.06056000  0.98303000  1.0
  Zn  Zn13  1  0.40066000  0.05577000  0.97814000  1.0
  Zn  Zn14  1  0.55589000  0.90201000  0.97857000  1.0
  Zn  Zn15  1  0.48273000  0.98271000  0.05974000  1.0
  H  H16  1  0.74846000  0.45260000  0.35041000  1.0
  H  H17  1  0.00181000  0.29729000  0.39959000  1.0
  H  H18  1  0.20108000  0.70098000  0.59843000  1.0
  H  H19  1  0.04962000  0.54990000  0.65123000  1.0
  H  H20  1  0.46297000  0.24017000  0.34124000  1.0
  H  H21  1  0.47928000  0.70275000  0.60122000  1.0
  H  H22  1  0.20305000  0.97859000  0.60188000  1.0
  H  H23  1  0.94827000  0.97010000  0.34809000  1.0
  H  H24  1  0.65139000  0.15143000  0.04941000  1.0
  H  H25  1  0.59851000  0.09824000  0.20068000  1.0
  H  H26  1  0.54744000  0.77063000  0.14829000  1.0
  H  H27  1  0.16261000  0.14164000  0.04066000  1.0
  H  H28  1  0.29729000  0.00198000  0.89977000  1.0
  H  H29  1  0.45200000  0.74907000  0.85041000  1.0
  H  H30  1  0.30089000  0.28002000  0.90209000  1.0
  H  H31  1  0.78684000  0.00992000  0.90879000  1.0
  H  H32  1  0.80821000  0.52781000  0.41802000  1.0
  H  H33  1  0.94196000  0.22198000  0.33205000  1.0
  H  H34  1  0.13721000  0.63783000  0.52675000  1.0
  H  H35  1  0.11332000  0.61299000  0.72295000  1.0
  H  H36  1  0.72318000  0.22270000  0.11300000  1.0
  H  H37  1  0.52677000  0.02699000  0.13702000  1.0
  H  H38  1  0.22137000  0.94265000  0.83223000  1.0
  H  H39  1  0.52797000  0.80807000  0.91803000  1.0
  C  C40  1  0.06176000  0.31584000  0.56171000  1.0
  C  C41  1  0.07013000  0.57058000  0.56932000  1.0
  C  C42  1  0.18355000  0.43985000  0.43882000  1.0
  C  C43  1  0.93710000  0.68380000  0.43890000  1.0
  C  C44  1  0.93015000  0.43025000  0.43047000  1.0
  C  C45  1  0.81663000  0.56074000  0.56189000  1.0
  C  C46  1  0.56546000  0.31141000  0.31136000  1.0
  C  C47  1  0.68066000  0.18009000  0.18020000  1.0
  C  C48  1  0.68931000  0.43341000  0.18806000  1.0
  C  C49  1  0.93461000  0.18744000  0.18954000  1.0
  C  C50  1  0.81986000  0.31936000  0.31981000  1.0
  C  C51  1  0.81081000  0.06574000  0.31170000  1.0
  C  C52  1  0.43403000  0.68945000  0.68819000  1.0
  C  C53  1  0.31882000  0.82093000  0.81972000  1.0
  C  C54  1  0.18891000  0.93367000  0.68869000  1.0
  C  C55  1  0.06635000  0.81016000  0.81134000  1.0
  C  C56  1  0.18072000  0.68006000  0.68038000  1.0
  C  C57  1  0.31300000  0.56595000  0.81128000  1.0
  C  C58  1  0.43827000  0.18411000  0.93860000  1.0
  C  C59  1  0.43056000  0.93015000  0.93038000  1.0
  C  C60  1  0.68441000  0.93873000  0.93855000  1.0
  C  C61  1  0.56137000  0.81607000  0.06145000  1.0
  C  C62  1  0.56959000  0.06931000  0.06989000  1.0
  C  C63  1  0.31568000  0.06153000  0.06132000  1.0
  C  C64  1  0.90102000  0.40293000  0.40193000  1.0
  C  C65  1  0.84925000  0.34690000  0.34804000  1.0
  C  C66  1  0.82830000  0.44774000  0.38788000  1.0
  C  C67  1  0.92201000  0.30214000  0.36206000  1.0
  C  C68  1  0.80401000  0.41865000  0.36117000  1.0
  C  C69  1  0.94632000  0.33126000  0.38875000  1.0
  C  C70  1  0.09893000  0.59930000  0.59728000  1.0
  C  C71  1  0.15177000  0.65160000  0.65241000  1.0
  C  C72  1  0.14231000  0.64265000  0.58193000  1.0
  C  C73  1  0.10834000  0.60830000  0.66774000  1.0
  C  C74  1  0.16784000  0.66790000  0.60992000  1.0
  C  C75  1  0.08282000  0.58302000  0.63974000  1.0
  C  C76  1  0.30423000  0.45392000  0.40096000  1.0
  C  C77  1  0.44598000  0.29699000  0.34909000  1.0
  C  C78  1  0.25817000  0.41514000  0.41406000  1.0
  C  C79  1  0.49074000  0.33692000  0.33641000  1.0
  C  C80  1  0.37790000  0.34007000  0.37266000  1.0
  C  C81  1  0.37266000  0.41199000  0.37733000  1.0
  C  C82  1  0.72531000  0.57635000  0.62910000  1.0
  C  C83  1  0.52407000  0.67378000  0.62119000  1.0
  C  C84  1  0.74214000  0.58547000  0.58668000  1.0
  C  C85  1  0.50905000  0.66394000  0.66355000  1.0
  C  C86  1  0.60326000  0.64157000  0.60876000  1.0
  C  C87  1  0.64646000  0.60797000  0.64221000  1.0
  C  C88  1  0.07684000  0.22477000  0.62910000  1.0
  C  C89  1  0.17407000  0.02353000  0.62169000  1.0
  C  C90  1  0.08631000  0.24139000  0.58665000  1.0
  C  C91  1  0.16385000  0.00869000  0.66405000  1.0
  C  C92  1  0.14214000  0.10262000  0.60910000  1.0
  C  C93  1  0.10833000  0.14600000  0.64240000  1.0
  C  C94  1  0.84398000  0.80066000  0.39731000  1.0
  C  C95  1  0.90394000  0.94966000  0.35260000  1.0
  C  C96  1  0.91226000  0.75812000  0.41388000  1.0
  C  C97  1  0.83525000  0.99089000  0.33654000  1.0
  C  C98  1  0.90681000  0.88014000  0.37478000  1.0
  C  C99  1  0.83991000  0.87032000  0.37495000  1.0
  C  C100  1  0.65259000  0.15223000  0.15142000  1.0
  C  C101  1  0.59743000  0.09730000  0.09868000  1.0
  C  C102  1  0.66792000  0.16764000  0.10803000  1.0
  C  C103  1  0.58206000  0.08195000  0.14206000  1.0
  C  C104  1  0.63989000  0.13979000  0.08257000  1.0
  C  C105  1  0.61005000  0.10983000  0.16752000  1.0
  C  C106  1  0.67357000  0.52470000  0.12066000  1.0
  C  C107  1  0.57638000  0.72587000  0.12837000  1.0
  C  C108  1  0.66426000  0.50787000  0.16310000  1.0
  C  C109  1  0.58655000  0.74096000  0.08601000  1.0
  C  C110  1  0.60830000  0.64672000  0.14083000  1.0
  C  C111  1  0.64204000  0.60352000  0.10745000  1.0
  C  C112  1  0.08127000  0.12412000  0.17761000  1.0
  C  C113  1  0.17017000  0.12507000  0.07304000  1.0
  C  C114  1  0.00921000  0.16286000  0.16478000  1.0
  C  C115  1  0.24127000  0.08627000  0.08665000  1.0
  C  C116  1  0.11194000  0.13874000  0.10643000  1.0
  C  C117  1  0.14047000  0.10988000  0.14476000  1.0
  C  C118  1  0.34643000  0.84998000  0.84814000  1.0
  C  C119  1  0.40294000  0.90111000  0.90204000  1.0
  C  C120  1  0.30175000  0.92256000  0.86223000  1.0
  C  C121  1  0.44754000  0.82848000  0.88800000  1.0
  C  C122  1  0.33109000  0.94659000  0.88891000  1.0
  C  C123  1  0.41822000  0.80449000  0.86126000  1.0
  C  C124  1  0.40600000  0.44877000  0.85276000  1.0
  C  C125  1  0.34539000  0.30024000  0.89754000  1.0
  C  C126  1  0.33778000  0.49147000  0.83615000  1.0
  C  C127  1  0.41397000  0.25889000  0.91368000  1.0
  C  C128  1  0.34284000  0.36957000  0.87525000  1.0
  C  C129  1  0.40987000  0.37914000  0.87510000  1.0
  C  C130  1  0.94559000  0.79618000  0.84904000  1.0
  C  C131  1  0.80387000  0.95311000  0.90092000  1.0
  C  C132  1  0.99171000  0.83491000  0.83603000  1.0
  C  C133  1  0.75910000  0.91319000  0.91354000  1.0
  C  C134  1  0.87193000  0.91002000  0.87735000  1.0
  C  C135  1  0.87712000  0.83814000  0.87263000  1.0
  S  S136  1  0.29925000  0.32551000  0.39721000  1.0
  S  S137  1  0.45092000  0.42674000  0.35290000  1.0
  S  S138  1  0.65998000  0.63362000  0.56220000  1.0
  S  S139  1  0.59030000  0.61572000  0.68870000  1.0
  S  S140  1  0.13461000  0.15909000  0.56244000  1.0
  S  S141  1  0.11558000  0.09005000  0.68899000  1.0
  S  S142  1  0.97294000  0.80407000  0.40189000  1.0
  S  S143  1  0.77372000  0.94600000  0.34805000  1.0
  S  S144  1  0.61588000  0.59006000  0.18743000  1.0
  S  S145  1  0.63468000  0.65973000  0.06093000  1.0
  S  S146  1  0.01375000  0.18246000  0.11146000  1.0
  S  S147  1  0.23833000  0.06607000  0.13987000  1.0
  S  S148  1  0.27692000  0.44572000  0.84806000  1.0
  S  S149  1  0.47584000  0.30341000  0.90208000  1.0
  S  S150  1  0.95064000  0.92454000  0.85289000  1.0
  S  S151  1  0.79884000  0.82339000  0.89702000  1.0
  O  O152  1  0.00041000  0.49901000  0.50026000  1.0
  O  O153  1  0.07835000  0.31479000  0.52273000  1.0
  O  O154  1  0.03226000  0.53178000  0.58491000  1.0
  O  O155  1  0.15532000  0.50628000  0.45001000  1.0
  O  O156  1  0.02652000  0.37434000  0.58084000  1.0
  O  O157  1  0.15366000  0.39189000  0.44685000  1.0
  O  O158  1  0.08564000  0.58708000  0.53021000  1.0
  O  O159  1  0.00355000  0.65761000  0.45043000  1.0
  O  O160  1  0.88628000  0.49661000  0.44216000  1.0
  O  O161  1  0.89104000  0.65206000  0.44697000  1.0
  O  O162  1  0.99551000  0.38791000  0.44188000  1.0
  O  O163  1  0.87532000  0.52615000  0.58098000  1.0
  O  O164  1  0.81542000  0.57667000  0.52287000  1.0
  O  O165  1  0.74904000  0.25027000  0.25029000  1.0
  O  O166  1  0.59616000  0.35862000  0.30294000  1.0
  O  O167  1  0.66472000  0.16491000  0.21858000  1.0
  O  O168  1  0.72530000  0.37478000  0.16901000  1.0
  O  O169  1  0.59272000  0.24484000  0.30034000  1.0
  O  O170  1  0.67257000  0.43442000  0.22702000  1.0
  O  O171  1  0.72024000  0.21867000  0.16416000  1.0
  O  O172  1  0.87672000  0.22260000  0.16944000  1.0
  O  O173  1  0.86319000  0.25249000  0.30855000  1.0
  O  O174  1  0.93368000  0.17192000  0.22845000  1.0
  O  O175  1  0.75466000  0.36188000  0.30819000  1.0
  O  O176  1  0.74436000  0.09334000  0.30014000  1.0
  O  O177  1  0.85794000  0.09634000  0.30390000  1.0
  O  O178  1  0.25081000  0.74989000  0.74989000  1.0
  O  O179  1  0.37587000  0.72511000  0.66863000  1.0
  O  O180  1  0.36153000  0.75596000  0.80810000  1.0
  O  O181  1  0.17231000  0.93373000  0.72767000  1.0
  O  O182  1  0.43426000  0.67338000  0.72718000  1.0
  O  O183  1  0.22471000  0.87565000  0.66915000  1.0
  O  O184  1  0.25195000  0.86432000  0.80839000  1.0
  O  O185  1  0.09642000  0.85802000  0.80362000  1.0
  O  O186  1  0.16505000  0.66365000  0.71949000  1.0
  O  O187  1  0.09466000  0.74399000  0.79984000  1.0
  O  O188  1  0.21897000  0.71861000  0.66486000  1.0
  O  O189  1  0.35918000  0.59754000  0.80323000  1.0
  O  O190  1  0.24638000  0.59237000  0.79992000  1.0
  O  O191  1  0.49983000  0.00069000  0.99978000  1.0
  O  O192  1  0.50521000  0.15618000  0.94959000  1.0
  O  O193  1  0.38812000  0.99535000  0.94190000  1.0
  O  O194  1  0.65360000  0.89157000  0.94675000  1.0
  O  O195  1  0.39073000  0.15400000  0.94699000  1.0
  O  O196  1  0.65710000  0.00508000  0.94981000  1.0
  O  O197  1  0.49730000  0.88658000  0.94186000  1.0
  O  O198  1  0.57754000  0.81627000  0.02245000  1.0
  O  O199  1  0.53029000  0.03037000  0.08593000  1.0
  O  O200  1  0.52583000  0.87414000  0.08103000  1.0
  O  O201  1  0.58539000  0.08455000  0.03150000  1.0
  O  O202  1  0.31538000  0.07810000  0.02248000  1.0
  O  O203  1  0.37418000  0.02538000  0.08082000  1.0
  O  O204  1  0.78118000  0.51749000  0.39914000  1.0
  O  O205  1  0.96915000  0.23233000  0.35080000  1.0
  O  O206  1  0.16022000  0.66069000  0.54136000  1.0
  O  O207  1  0.09036000  0.59021000  0.70829000  1.0
  O  O208  1  0.70846000  0.20818000  0.09007000  1.0
  O  O209  1  0.54144000  0.04140000  0.16000000  1.0
  O  O210  1  0.23185000  0.96975000  0.85098000  1.0
  O  O211  1  0.51735000  0.78115000  0.89927000  1.0
  F  F212  1  0.28682000  0.52408000  0.40950000  1.0
  F  F213  1  0.77760000  0.54133000  0.65558000  1.0
  F  F214  1  0.04164000  0.27712000  0.65546000  1.0
  F  F215  1  0.78674000  0.77909000  0.40172000  1.0
  F  F216  1  0.70876000  0.47242000  0.09426000  1.0
  F  F217  1  0.09478000  0.10180000  0.21700000  1.0
  F  F218  1  0.46328000  0.47022000  0.84844000  1.0
  F  F219  1  0.96309000  0.72604000  0.84048000  1.0
