# generated using pymatgen
data_CdH12C6N2O9
_symmetry_space_group_name_H-M   'P 1'
_cell_length_a   5.15769000
_cell_length_b   5.15770000
_cell_length_c   23.09009516
_cell_angle_alpha   84.04998752
_cell_angle_beta   84.05021052
_cell_angle_gamma   83.64880000
_symmetry_Int_Tables_number   1
_chemical_formula_structural   CdH12C6N2O9
_chemical_formula_sum   'Cd2 H24 C12 N4 O18'
_cell_volume   604.53354508
_cell_formula_units_Z   2
loop_
 _symmetry_equiv_pos_site_id
 _symmetry_equiv_pos_as_xyz
  1  'x, y, z'
loop_
 _atom_site_type_symbol
 _atom_site_label
 _atom_site_symmetry_multiplicity
 _atom_site_fract_x
 _atom_site_fract_y
 _atom_site_fract_z
 _atom_site_occupancy
  Cd  Cd0  1  0.83214000  0.66795000  0.25000000  1.0
  Cd  Cd1  1  0.16790000  0.33214000  0.75000000  1.0
  H  H2  1  0.89028000  0.18153000  0.06864000  1.0
  H  H3  1  0.31844000  0.60969000  0.43138000  1.0
  H  H4  1  0.10971000  0.81847000  0.93138000  1.0
  H  H5  1  0.68161000  0.39023000  0.56862000  1.0
  H  H6  1  0.04129000  0.38474000  0.10967000  1.0
  H  H7  1  0.11532000  0.45869000  0.39033000  1.0
  H  H8  1  0.95870000  0.61538000  0.89033000  1.0
  H  H9  1  0.88469000  0.54129000  0.60968000  1.0
  H  H10  1  0.38121000  0.34966000  0.03974000  1.0
  H  H11  1  0.15035000  0.11880000  0.46026000  1.0
  H  H12  1  0.61877000  0.65035000  0.96025000  1.0
  H  H13  1  0.84968000  0.88118000  0.53975000  1.0
  H  H14  1  0.68796000  0.27282000  0.17880000  1.0
  H  H15  1  0.22724000  0.81201000  0.32120000  1.0
  H  H16  1  0.31199000  0.72722000  0.82119000  1.0
  H  H17  1  0.77282000  0.18794000  0.67880000  1.0
  H  H18  1  0.33124000  0.36855000  0.23095000  1.0
  H  H19  1  0.13148000  0.16875000  0.26903000  1.0
  H  H20  1  0.66870000  0.63151000  0.76904000  1.0
  H  H21  1  0.86857000  0.83121000  0.73095000  1.0
  H  H22  1  0.51279000  0.56402000  0.16300000  1.0
  H  H23  1  0.93605000  0.98716000  0.33701000  1.0
  H  H24  1  0.48715000  0.43605000  0.83701000  1.0
  H  H25  1  0.06401000  0.01277000  0.66299000  1.0
  C  C26  1  0.05846000  0.98168000  0.14389000  1.0
  C  C27  1  0.51836000  0.44154000  0.35611000  1.0
  C  C28  1  0.94151000  0.01836000  0.85612000  1.0
  C  C29  1  0.48165000  0.55842000  0.64388000  1.0
  C  C30  1  0.06318000  0.19233000  0.09224000  1.0
  C  C31  1  0.30772000  0.43682000  0.40776000  1.0
  C  C32  1  0.93684000  0.80778000  0.90776000  1.0
  C  C33  1  0.69231000  0.56313000  0.59223000  1.0
  C  C34  1  0.37926000  0.97489000  0.02158000  1.0
  C  C35  1  0.52513000  0.12068000  0.47843000  1.0
  C  C36  1  0.62069000  0.02515000  0.97843000  1.0
  C  C37  1  0.47488000  0.87925000  0.52158000  1.0
  N  N38  1  0.29749000  0.17956000  0.05237000  1.0
  N  N39  1  0.32048000  0.20248000  0.44762000  1.0
  N  N40  1  0.70249000  0.82049000  0.94763000  1.0
  N  N41  1  0.67953000  0.79748000  0.55238000  1.0
  O  O42  1  0.60091000  0.44533000  0.19284000  1.0
  O  O43  1  0.05473000  0.89909000  0.30717000  1.0
  O  O44  1  0.39910000  0.55471000  0.80717000  1.0
  O  O45  1  0.94533000  0.10086000  0.69284000  1.0
  O  O46  1  0.15111000  0.34882000  0.24998000  1.0
  O  O47  1  0.84880000  0.65111000  0.74999000  1.0
  O  O48  1  0.83446000  0.99240000  0.17583000  1.0
  O  O49  1  0.50758000  0.66555000  0.32416000  1.0
  O  O50  1  0.16554000  0.00760000  0.82415000  1.0
  O  O51  1  0.49242000  0.33440000  0.67584000  1.0
  O  O52  1  0.24769000  0.81867000  0.15410000  1.0
  O  O53  1  0.68141000  0.25233000  0.34590000  1.0
  O  O54  1  0.75228000  0.18137000  0.84589000  1.0
  O  O55  1  0.31865000  0.74766000  0.65410000  1.0
  O  O56  1  0.27791000  0.76441000  0.02565000  1.0
  O  O57  1  0.73560000  0.22199000  0.47438000  1.0
  O  O58  1  0.72198000  0.23565000  0.97437000  1.0
  O  O59  1  0.26441000  0.77788000  0.52564000  1.0
