# generated using pymatgen
data_MnH9C7N3O5
_symmetry_space_group_name_H-M   'P 1'
_cell_length_a   6.72375000
_cell_length_b   11.44600000
_cell_length_c   12.09810000
_cell_angle_alpha   72.81400000
_cell_angle_beta   89.99810000
_cell_angle_gamma   89.99840000
_symmetry_Int_Tables_number   1
_chemical_formula_structural   MnH9C7N3O5
_chemical_formula_sum   'Mn4 H36 C28 N12 O20'
_cell_volume   889.49854920
_cell_formula_units_Z   4
loop_
 _symmetry_equiv_pos_site_id
 _symmetry_equiv_pos_as_xyz
  1  'x, y, z'
loop_
 _atom_site_type_symbol
 _atom_site_label
 _atom_site_symmetry_multiplicity
 _atom_site_fract_x
 _atom_site_fract_y
 _atom_site_fract_z
 _atom_site_occupancy
  Mn  Mn0  1  0.09865000  0.42593000  0.82986000  1.0
  Mn  Mn1  1  0.59873000  0.07404000  0.67015000  1.0
  Mn  Mn2  1  0.90118000  0.57441000  0.17020000  1.0
  Mn  Mn3  1  0.40112000  0.92562000  0.32980000  1.0
  H  H4  1  0.19006000  0.61646000  0.53398000  1.0
  H  H5  1  0.69005000  0.88353000  0.96604000  1.0
  H  H6  1  0.80955000  0.38352000  0.46604000  1.0
  H  H7  1  0.30956000  0.11649000  0.03396000  1.0
  H  H8  1  0.48052000  0.32225000  0.01413000  1.0
  H  H9  1  0.98048000  0.17775000  0.48583000  1.0
  H  H10  1  0.51964000  0.67785000  0.98589000  1.0
  H  H11  1  0.01968000  0.82215000  0.51413000  1.0
  H  H12  1  0.26643000  0.33723000  0.09458000  1.0
  H  H13  1  0.76644000  0.16274000  0.40537000  1.0
  H  H14  1  0.73378000  0.66286000  0.90548000  1.0
  H  H15  1  0.23378000  0.83716000  0.59456000  1.0
  H  H16  1  0.58089000  0.37187000  0.19493000  1.0
  H  H17  1  0.08093000  0.12810000  0.30506000  1.0
  H  H18  1  0.41931000  0.62822000  0.80514000  1.0
  H  H19  1  0.91929000  0.87181000  0.69486000  1.0
  H  H20  1  0.42619000  0.50233000  0.15768000  1.0
  H  H21  1  0.92627000  0.99762000  0.34233000  1.0
  H  H22  1  0.57395000  0.49774000  0.84238000  1.0
  H  H23  1  0.07389000  0.00231000  0.65760000  1.0
  H  H24  1  0.25635000  0.50961000  0.38422000  1.0
  H  H25  1  0.75635000  0.99039000  0.11579000  1.0
  H  H26  1  0.74339000  0.49028000  0.61585000  1.0
  H  H27  1  0.24338000  0.00972000  0.88416000  1.0
  H  H28  1  0.22368000  0.53862000  0.97299000  1.0
  H  H29  1  0.72366000  0.96138000  0.52700000  1.0
  H  H30  1  0.77660000  0.46152000  0.02712000  1.0
  H  H31  1  0.27663000  0.03849000  0.47288000  1.0
  H  H32  1  0.06330000  0.68299000  0.79481000  1.0
  H  H33  1  0.56331000  0.81699000  0.70521000  1.0
  H  H34  1  0.93649000  0.31717000  0.20513000  1.0
  H  H35  1  0.43648000  0.18284000  0.29486000  1.0
  H  H36  1  0.88570000  0.64636000  0.72075000  1.0
  H  H37  1  0.38571000  0.85364000  0.77926000  1.0
  H  H38  1  0.11399000  0.35373000  0.27923000  1.0
  H  H39  1  0.61400000  0.14628000  0.22075000  1.0
  C  C40  1  0.27810000  0.22185000  0.75167000  1.0
  C  C41  1  0.77810000  0.27813000  0.74833000  1.0
  C  C42  1  0.72199000  0.77814000  0.24850000  1.0
  C  C43  1  0.22201000  0.72186000  0.25151000  1.0
  C  C44  1  0.27790000  0.32774000  0.64512000  1.0
  C  C45  1  0.77789000  0.17225000  0.85489000  1.0
  C  C46  1  0.72227000  0.67232000  0.35498000  1.0
  C  C47  1  0.22227000  0.82768000  0.14502000  1.0
  C  C48  1  0.22339000  0.51978000  0.55461000  1.0
  C  C49  1  0.72337000  0.98022000  0.94540000  1.0
  C  C50  1  0.77643000  0.48023000  0.44543000  1.0
  C  C51  1  0.27643000  0.01977000  0.05458000  1.0
  C  C52  1  0.30251000  0.34248000  0.52692000  1.0
  C  C53  1  0.80250000  0.15751000  0.97309000  1.0
  C  C54  1  0.69757000  0.65753000  0.47319000  1.0
  C  C55  1  0.19755000  0.84248000  0.02682000  1.0
  C  C56  1  0.35846000  0.25793000  0.46071000  1.0
  C  C57  1  0.85847000  0.24206000  0.03929000  1.0
  C  C58  1  0.64154000  0.74208000  0.53937000  1.0
  C  C59  1  0.14151000  0.75794000  0.96063000  1.0
  C  C60  1  0.39264000  0.38724000  0.04534000  1.0
  C  C61  1  0.89262000  0.11275000  0.45463000  1.0
  C  C62  1  0.60756000  0.61287000  0.95470000  1.0
  C  C63  1  0.10758000  0.88715000  0.54531000  1.0
  C  C64  1  0.51914000  0.44334000  0.12167000  1.0
  C  C65  1  0.01919000  0.05662000  0.37833000  1.0
  C  C66  1  0.48105000  0.55674000  0.87840000  1.0
  C  C67  1  0.98102000  0.94329000  0.62159000  1.0
  N  N68  1  0.22916000  0.43941000  0.65955000  1.0
  N  N69  1  0.72913000  0.06059000  0.84046000  1.0
  N  N70  1  0.77082000  0.56065000  0.34049000  1.0
  N  N71  1  0.27085000  0.93935000  0.15951000  1.0
  N  N72  1  0.26540000  0.46474000  0.47282000  1.0
  N  N73  1  0.76540000  0.03526000  0.02719000  1.0
  N  N74  1  0.73448000  0.53523000  0.52724000  1.0
  N  N75  1  0.23446000  0.96478000  0.97277000  1.0
  N  N76  1  0.31503000  0.48192000  0.94294000  1.0
  N  N77  1  0.81500000  0.01809000  0.55703000  1.0
  N  N78  1  0.68518000  0.51820000  0.05714000  1.0
  N  N79  1  0.18522000  0.98179000  0.44288000  1.0
  O  O80  1  0.31699000  0.11373000  0.74761000  1.0
  O  O81  1  0.81696000  0.38626000  0.75239000  1.0
  O  O82  1  0.68212000  0.88622000  0.25241000  1.0
  O  O83  1  0.18213000  0.61379000  0.24761000  1.0
  O  O84  1  0.23380000  0.24587000  0.84510000  1.0
  O  O85  1  0.73384000  0.25411000  0.65490000  1.0
  O  O86  1  0.76713000  0.75416000  0.15512000  1.0
  O  O87  1  0.26717000  0.74584000  0.34488000  1.0
  O  O88  1  0.43341000  0.15420000  0.51427000  1.0
  O  O89  1  0.93340000  0.34580000  0.98572000  1.0
  O  O90  1  0.56674000  0.84585000  0.48575000  1.0
  O  O91  1  0.06674000  0.65416000  0.01426000  1.0
  O  O92  1  0.32834000  0.29172000  0.35166000  1.0
  O  O93  1  0.82839000  0.20826000  0.14835000  1.0
  O  O94  1  0.67140000  0.70825000  0.64846000  1.0
  O  O95  1  0.17136000  0.79177000  0.85154000  1.0
  O  O96  1  0.01291000  0.61810000  0.76199000  1.0
  O  O97  1  0.51293000  0.88189000  0.73802000  1.0
  O  O98  1  0.98683000  0.38204000  0.23797000  1.0
  O  O99  1  0.48684000  0.11797000  0.26201000  1.0
