# generated using pymatgen
data_ZnH18C28(NO)4
_symmetry_space_group_name_H-M   'P 1'
_cell_length_a   7.32818000
_cell_length_b   17.58360000
_cell_length_c   22.00470000
_cell_angle_alpha   70.25200000
_cell_angle_beta   89.99960000
_cell_angle_gamma   89.99980000
_symmetry_Int_Tables_number   1
_chemical_formula_structural   ZnH18C28(NO)4
_chemical_formula_sum   'Zn4 H72 C112 N16 O16'
_cell_volume   2668.67489227
_cell_formula_units_Z   4
loop_
 _symmetry_equiv_pos_site_id
 _symmetry_equiv_pos_as_xyz
  1  'x, y, z'
loop_
 _atom_site_type_symbol
 _atom_site_label
 _atom_site_symmetry_multiplicity
 _atom_site_fract_x
 _atom_site_fract_y
 _atom_site_fract_z
 _atom_site_occupancy
  Zn  Zn0  1  0.99110000  0.50641000  0.74769000  1.0
  Zn  Zn1  1  0.99110000  0.99360000  0.75231000  1.0
  Zn  Zn2  1  0.00889000  0.49359000  0.25231000  1.0
  Zn  Zn3  1  0.00889000  0.00640000  0.24769000  1.0
  H  H4  1  0.26851000  0.86105000  0.75914000  1.0
  H  H5  1  0.26852000  0.63897000  0.74086000  1.0
  H  H6  1  0.73150000  0.13896000  0.24087000  1.0
  H  H7  1  0.73147000  0.36104000  0.25914000  1.0
  H  H8  1  0.05434000  0.01335000  0.90213000  1.0
  H  H9  1  0.05436000  0.48666000  0.59788000  1.0
  H  H10  1  0.94568000  0.98666000  0.09788000  1.0
  H  H11  1  0.94567000  0.51334000  0.40212000  1.0
  H  H12  1  0.20758000  0.98946000  0.00849000  1.0
  H  H13  1  0.20760000  0.51054000  0.49151000  1.0
  H  H14  1  0.79243000  0.01054000  0.99151000  1.0
  H  H15  1  0.79243000  0.48946000  0.50849000  1.0
  H  H16  1  0.46580000  0.89506000  0.04293000  1.0
  H  H17  1  0.46582000  0.60495000  0.45707000  1.0
  H  H18  1  0.53420000  0.10494000  0.95707000  1.0
  H  H19  1  0.53419000  0.39506000  0.54293000  1.0
  H  H20  1  0.58157000  0.81892000  0.97296000  1.0
  H  H21  1  0.58159000  0.68109000  0.52705000  1.0
  H  H22  1  0.41844000  0.18109000  0.02705000  1.0
  H  H23  1  0.41842000  0.31892000  0.47296000  1.0
  H  H24  1  0.77223000  0.85402000  0.85867000  1.0
  H  H25  1  0.77222000  0.64600000  0.64133000  1.0
  H  H26  1  0.22781000  0.14599000  0.14133000  1.0
  H  H27  1  0.22777000  0.35400000  0.35868000  1.0
  H  H28  1  0.99817000  0.75438000  0.84396000  1.0
  H  H29  1  0.99814000  0.74564000  0.65605000  1.0
  H  H30  1  0.00187000  0.24563000  0.15604000  1.0
  H  H31  1  0.00184000  0.25436000  0.34396000  1.0
  H  H32  1  0.56034000  0.60613000  0.81882000  1.0
  H  H33  1  0.56030000  0.89389000  0.68118000  1.0
  H  H34  1  0.43970000  0.39389000  0.18118000  1.0
  H  H35  1  0.43969000  0.10611000  0.31882000  1.0
  H  H36  1  0.33220000  0.70181000  0.83625000  1.0
  H  H37  1  0.33217000  0.79820000  0.66375000  1.0
  H  H38  1  0.66785000  0.29820000  0.16376000  1.0
  H  H39  1  0.66782000  0.20181000  0.33624000  1.0
  H  H40  1  0.35108000  0.10022000  0.74022000  1.0
  H  H41  1  0.35109000  0.39979000  0.75978000  1.0
  H  H42  1  0.64890000  0.89978000  0.25978000  1.0
  H  H43  1  0.64891000  0.60022000  0.24022000  1.0
  H  H44  1  0.83084000  0.06802000  0.60324000  1.0
  H  H45  1  0.83082000  0.43198000  0.89675000  1.0
  H  H46  1  0.16916000  0.93196000  0.39676000  1.0
  H  H47  1  0.16916000  0.56802000  0.10324000  1.0
  H  H48  1  0.75664000  0.18160000  0.50109000  1.0
  H  H49  1  0.75662000  0.31840000  0.99891000  1.0
  H  H50  1  0.24335000  0.81837000  0.49891000  1.0
  H  H51  1  0.24337000  0.68160000  0.00109000  1.0
  H  H52  1  0.93076000  0.30927000  0.46931000  1.0
  H  H53  1  0.93077000  0.19073000  0.03069000  1.0
  H  H54  1  0.06922000  0.69071000  0.53069000  1.0
  H  H55  1  0.06925000  0.80928000  0.96931000  1.0
  H  H56  1  0.18742000  0.32915000  0.53656000  1.0
  H  H57  1  0.18744000  0.17085000  0.96343000  1.0
  H  H58  1  0.81255000  0.67083000  0.46343000  1.0
  H  H59  1  0.81258000  0.82916000  0.03656000  1.0
  H  H60  1  0.23986000  0.34866000  0.65031000  1.0
  H  H61  1  0.23986000  0.15134000  0.84968000  1.0
  H  H62  1  0.76012000  0.65133000  0.34969000  1.0
  H  H63  1  0.76013000  0.84867000  0.15031000  1.0
  H  H64  1  0.48476000  0.44118000  0.66271000  1.0
  H  H65  1  0.48476000  0.05882000  0.83728000  1.0
  H  H66  1  0.51521000  0.55881000  0.33728000  1.0
  H  H67  1  0.51522000  0.94119000  0.16271000  1.0
  H  H68  1  0.88781000  0.25870000  0.67889000  1.0
  H  H69  1  0.88782000  0.24130000  0.82111000  1.0
  H  H70  1  0.11217000  0.74130000  0.32110000  1.0
  H  H71  1  0.11218000  0.75869000  0.17889000  1.0
  H  H72  1  0.64718000  0.16641000  0.66281000  1.0
  H  H73  1  0.64719000  0.33359000  0.83718000  1.0
  H  H74  1  0.35281000  0.83359000  0.33718000  1.0
  H  H75  1  0.35282000  0.66641000  0.16281000  1.0
  C  C76  1  0.28277000  0.87564000  0.80327000  1.0
  C  C77  1  0.28278000  0.62436000  0.69673000  1.0
  C  C78  1  0.71725000  0.12436000  0.19673000  1.0
  C  C79  1  0.71722000  0.37564000  0.30327000  1.0
  C  C80  1  0.23323000  0.92961000  0.87795000  1.0
  C  C81  1  0.23325000  0.57040000  0.62205000  1.0
  C  C82  1  0.76678000  0.07039000  0.12206000  1.0
  C  C83  1  0.76676000  0.42960000  0.37795000  1.0
  C  C84  1  0.16707000  0.97109000  0.91771000  1.0
  C  C85  1  0.16708000  0.52891000  0.58229000  1.0
  C  C86  1  0.83294000  0.02891000  0.08230000  1.0
  C  C87  1  0.83294000  0.47108000  0.41771000  1.0
  C  C88  1  0.25464000  0.95771000  0.97655000  1.0
  C  C89  1  0.25465000  0.54230000  0.52345000  1.0
  C  C90  1  0.74537000  0.04229000  0.02345000  1.0
  C  C91  1  0.74537000  0.45770000  0.47655000  1.0
  C  C92  1  0.40302000  0.90404000  0.99623000  1.0
  C  C93  1  0.40304000  0.59596000  0.50378000  1.0
  C  C94  1  0.59698000  0.09596000  0.00377000  1.0
  C  C95  1  0.59697000  0.40404000  0.49623000  1.0
  C  C96  1  0.46937000  0.86176000  0.95766000  1.0
  C  C97  1  0.46939000  0.63824000  0.54234000  1.0
  C  C98  1  0.53064000  0.13824000  0.04234000  1.0
  C  C99  1  0.53062000  0.36176000  0.45766000  1.0
  C  C100  1  0.38274000  0.87589000  0.89845000  1.0
  C  C101  1  0.38276000  0.62412000  0.60155000  1.0
  C  C102  1  0.61728000  0.12411000  0.10155000  1.0
  C  C103  1  0.61725000  0.37588000  0.39845000  1.0
  C  C104  1  0.54061000  0.78359000  0.84777000  1.0
  C  C105  1  0.54060000  0.71643000  0.65223000  1.0
  C  C106  1  0.45943000  0.21642000  0.15223000  1.0
  C  C107  1  0.45939000  0.28358000  0.34777000  1.0
  C  C108  1  0.72690000  0.79831000  0.85198000  1.0
  C  C109  1  0.72689000  0.70170000  0.64802000  1.0
  C  C110  1  0.27313000  0.20170000  0.14802000  1.0
  C  C111  1  0.27310000  0.29830000  0.35198000  1.0
  C  C112  1  0.85211000  0.74329000  0.84338000  1.0
  C  C113  1  0.85209000  0.75673000  0.65663000  1.0
  C  C114  1  0.14793000  0.25672000  0.15663000  1.0
  C  C115  1  0.14790000  0.24327000  0.34337000  1.0
  C  C116  1  0.79255000  0.67496000  0.82991000  1.0
  C  C117  1  0.79251000  0.82506000  0.67010000  1.0
  C  C118  1  0.20749000  0.32505000  0.17010000  1.0
  C  C119  1  0.20747000  0.17494000  0.32991000  1.0
  C  C120  1  0.60521000  0.65991000  0.82853000  1.0
  C  C121  1  0.60517000  0.84010000  0.67147000  1.0
  C  C122  1  0.39484000  0.34010000  0.17147000  1.0
  C  C123  1  0.39482000  0.15990000  0.32853000  1.0
  C  C124  1  0.47808000  0.71362000  0.83793000  1.0
  C  C125  1  0.47805000  0.78639000  0.66208000  1.0
  C  C126  1  0.52196000  0.28639000  0.16208000  1.0
  C  C127  1  0.52194000  0.21361000  0.33792000  1.0
  C  C128  1  0.92790000  0.62193000  0.81176000  1.0
  C  C129  1  0.92787000  0.87808000  0.68825000  1.0
  C  C130  1  0.07214000  0.37808000  0.18824000  1.0
  C  C131  1  0.07211000  0.12191000  0.31176000  1.0
  C  C132  1  0.26620000  0.12243000  0.69753000  1.0
  C  C133  1  0.26621000  0.37757000  0.80247000  1.0
  C  C134  1  0.73379000  0.87756000  0.30247000  1.0
  C  C135  1  0.73379000  0.62243000  0.19753000  1.0
  C  C136  1  0.05324000  0.13528000  0.62577000  1.0
  C  C137  1  0.05324000  0.36472000  0.87423000  1.0
  C  C138  1  0.94675000  0.86470000  0.37423000  1.0
  C  C139  1  0.94676000  0.63528000  0.12577000  1.0
  C  C140  1  0.90773000  0.12441000  0.58835000  1.0
  C  C141  1  0.90773000  0.37559000  0.91164000  1.0
  C  C142  1  0.09225000  0.87557000  0.41165000  1.0
  C  C143  1  0.09226000  0.62442000  0.08835000  1.0
  C  C144  1  0.86818000  0.18792000  0.53180000  1.0
  C  C145  1  0.86817000  0.31208000  0.96819000  1.0
  C  C146  1  0.13182000  0.81206000  0.46820000  1.0
  C  C147  1  0.13182000  0.68792000  0.03180000  1.0
  C  C148  1  0.96833000  0.26055000  0.51325000  1.0
  C  C149  1  0.96834000  0.23945000  0.98675000  1.0
  C  C150  1  0.03165000  0.73943000  0.48675000  1.0
  C  C151  1  0.03167000  0.76055000  0.01325000  1.0
  C  C152  1  0.11329000  0.27222000  0.55008000  1.0
  C  C153  1  0.11329000  0.22779000  0.94992000  1.0
  C  C154  1  0.88670000  0.72777000  0.44992000  1.0
  C  C155  1  0.88671000  0.77222000  0.05008000  1.0
  C  C156  1  0.15510000  0.20802000  0.60605000  1.0
  C  C157  1  0.15511000  0.29199000  0.89395000  1.0
  C  C158  1  0.84489000  0.79197000  0.39395000  1.0
  C  C159  1  0.84490000  0.70802000  0.10605000  1.0
  C  C160  1  0.43037000  0.25249000  0.65569000  1.0
  C  C161  1  0.43037000  0.24751000  0.84430000  1.0
  C  C162  1  0.56961000  0.74751000  0.34430000  1.0
  C  C163  1  0.56962000  0.75249000  0.15569000  1.0
  C  C164  1  0.38251000  0.33007000  0.65426000  1.0
  C  C165  1  0.38251000  0.16994000  0.84574000  1.0
  C  C166  1  0.61746000  0.66993000  0.34574000  1.0
  C  C167  1  0.61747000  0.83007000  0.15426000  1.0
  C  C168  1  0.51879000  0.38081000  0.66285000  1.0
  C  C169  1  0.51879000  0.11919000  0.83715000  1.0
  C  C170  1  0.48118000  0.61918000  0.33715000  1.0
  C  C171  1  0.48119000  0.88081000  0.16285000  1.0
  C  C172  1  0.70011000  0.35447000  0.67321000  1.0
  C  C173  1  0.70011000  0.14553000  0.82679000  1.0
  C  C174  1  0.29986000  0.64552000  0.32679000  1.0
  C  C175  1  0.29988000  0.85447000  0.17321000  1.0
  C  C176  1  0.74609000  0.27805000  0.67126000  1.0
  C  C177  1  0.74610000  0.22195000  0.82874000  1.0
  C  C178  1  0.25389000  0.72195000  0.32874000  1.0
  C  C179  1  0.25390000  0.77805000  0.17126000  1.0
  C  C180  1  0.61193000  0.22666000  0.66271000  1.0
  C  C181  1  0.61194000  0.27334000  0.83729000  1.0
  C  C182  1  0.38805000  0.77334000  0.33728000  1.0
  C  C183  1  0.38806000  0.72666000  0.16271000  1.0
  C  C184  1  0.84438000  0.40274000  0.69208000  1.0
  C  C185  1  0.84438000  0.09726000  0.80793000  1.0
  C  C186  1  0.15559000  0.59726000  0.30792000  1.0
  C  C187  1  0.15561000  0.90273000  0.19208000  1.0
  N  N188  1  0.17518000  0.92813000  0.81779000  1.0
  N  N189  1  0.17519000  0.57188000  0.68221000  1.0
  N  N190  1  0.82483000  0.07187000  0.18222000  1.0
  N  N191  1  0.82481000  0.42812000  0.31779000  1.0
  N  N192  1  0.40934000  0.84266000  0.84995000  1.0
  N  N193  1  0.40935000  0.65735000  0.65005000  1.0
  N  N194  1  0.59068000  0.15735000  0.15005000  1.0
  N  N195  1  0.59065000  0.34265000  0.34995000  1.0
  N  N196  1  0.12556000  0.08379000  0.68372000  1.0
  N  N197  1  0.12556000  0.41621000  0.81628000  1.0
  N  N198  1  0.87444000  0.91619000  0.31629000  1.0
  N  N199  1  0.87444000  0.58380000  0.18372000  1.0
  N  N200  1  0.29107000  0.19716000  0.65266000  1.0
  N  N201  1  0.29107000  0.30284000  0.84734000  1.0
  N  N202  1  0.70892000  0.80283000  0.34734000  1.0
  N  N203  1  0.70893000  0.69717000  0.15266000  1.0
  O  O204  1  0.85360000  0.56743000  0.79189000  1.0
  O  O205  1  0.85356000  0.93259000  0.70812000  1.0
  O  O206  1  0.14644000  0.43258000  0.20811000  1.0
  O  O207  1  0.14642000  0.06741000  0.29189000  1.0
  O  O208  1  0.09548000  0.63415000  0.81426000  1.0
  O  O209  1  0.09543000  0.86587000  0.68574000  1.0
  O  O210  1  0.90457000  0.36586000  0.18574000  1.0
  O  O211  1  0.90454000  0.13413000  0.31426000  1.0
  O  O212  1  0.78788000  0.46307000  0.70867000  1.0
  O  O213  1  0.78788000  0.03693000  0.79133000  1.0
  O  O214  1  0.21210000  0.53693000  0.29133000  1.0
  O  O215  1  0.21210000  0.96306000  0.20868000  1.0
  O  O216  1  0.00834000  0.38198000  0.69325000  1.0
  O  O217  1  0.00833000  0.11802000  0.80675000  1.0
  O  O218  1  0.99165000  0.61801000  0.30675000  1.0
  O  O219  1  0.99165000  0.88198000  0.19325000  1.0
