# generated using pymatgen
data_ZnH10(C5O2)3
_symmetry_space_group_name_H-M   'P 1'
_cell_length_a   6.27398000
_cell_length_b   7.22625000
_cell_length_c   14.59020000
_cell_angle_alpha   76.00500000
_cell_angle_beta   89.94470000
_cell_angle_gamma   89.95590000
_symmetry_Int_Tables_number   1
_chemical_formula_structural   ZnH10(C5O2)3
_chemical_formula_sum   'Zn2 H20 C30 O12'
_cell_volume   641.84572804
_cell_formula_units_Z   2
loop_
 _symmetry_equiv_pos_site_id
 _symmetry_equiv_pos_as_xyz
  1  'x, y, z'
loop_
 _atom_site_type_symbol
 _atom_site_label
 _atom_site_symmetry_multiplicity
 _atom_site_fract_x
 _atom_site_fract_y
 _atom_site_fract_z
 _atom_site_occupancy
  Zn  Zn0  1  0.69121000  0.25000000  0.49994000  1.0
  Zn  Zn1  1  0.30880000  0.74997000  0.50008000  1.0
  H  H2  1  0.43925000  0.59934000  0.04078000  1.0
  H  H3  1  0.43917000  0.90064000  0.95924000  1.0
  H  H4  1  0.56082000  0.40061000  0.95922000  1.0
  H  H5  1  0.56079000  0.09933000  0.04074000  1.0
  H  H6  1  0.59477000  0.48179000  0.19962000  1.0
  H  H7  1  0.59474000  0.01821000  0.80033000  1.0
  H  H8  1  0.40524000  0.51823000  0.80039000  1.0
  H  H9  1  0.40523000  0.98179000  0.19966000  1.0
  H  H10  1  0.03355000  0.65972000  0.32523000  1.0
  H  H11  1  0.03403000  0.84031000  0.67501000  1.0
  H  H12  1  0.96642000  0.34032000  0.67474000  1.0
  H  H13  1  0.96602000  0.15972000  0.32497000  1.0
  H  H14  1  0.87165000  0.77245000  0.16499000  1.0
  H  H15  1  0.87200000  0.72755000  0.83530000  1.0
  H  H16  1  0.12836000  0.22758000  0.83497000  1.0
  H  H17  1  0.12803000  0.27242000  0.16466000  1.0
  H  H18  1  0.10316000  0.14011000  0.52640000  1.0
  H  H19  1  0.10297000  0.35996000  0.47335000  1.0
  H  H20  1  0.89684000  0.85984000  0.47369000  1.0
  H  H21  1  0.89704000  0.63998000  0.52674000  1.0
  C  C22  1  0.32270000  0.56129000  0.27222000  1.0
  C  C23  1  0.32286000  0.93881000  0.72790000  1.0
  C  C24  1  0.67731000  0.43871000  0.72779000  1.0
  C  C25  1  0.67714000  0.06120000  0.27211000  1.0
  C  C26  1  0.34892000  0.61425000  0.10222000  1.0
  C  C27  1  0.34901000  0.88568000  0.89785000  1.0
  C  C28  1  0.65107000  0.38574000  0.89777000  1.0
  C  C29  1  0.65100000  0.11429000  0.10213000  1.0
  C  C30  1  0.14373000  0.69462000  0.09223000  1.0
  C  C31  1  0.14387000  0.80530000  0.90795000  1.0
  C  C32  1  0.85627000  0.30538000  0.90773000  1.0
  C  C33  1  0.85612000  0.19466000  0.09202000  1.0
  C  C34  1  0.43715000  0.54692000  0.19167000  1.0
  C  C35  1  0.43727000  0.95309000  0.80837000  1.0
  C  C36  1  0.56284000  0.45309000  0.80834000  1.0
  C  C37  1  0.56276000  0.04690000  0.19163000  1.0
  C  C38  1  0.11973000  0.64598000  0.26238000  1.0
  C  C39  1  0.12005000  0.85403000  0.73781000  1.0
  C  C40  1  0.88029000  0.35407000  0.73757000  1.0
  C  C41  1  0.87995000  0.14600000  0.26217000  1.0
  C  C42  1  0.02858000  0.74994000  0.00015000  1.0
  C  C43  1  0.97141000  0.24998000  0.99987000  1.0
  C  C44  1  0.03082000  0.71043000  0.17340000  1.0
  C  C45  1  0.03110000  0.78949000  0.82682000  1.0
  C  C46  1  0.96920000  0.28961000  0.82654000  1.0
  C  C47  1  0.96889000  0.21051000  0.17314000  1.0
  C  C48  1  0.41164000  0.48284000  0.36852000  1.0
  C  C49  1  0.41179000  0.01734000  0.63150000  1.0
  C  C50  1  0.58828000  0.51719000  0.63149000  1.0
  C  C51  1  0.58825000  0.98268000  0.36849000  1.0
  O  O52  1  0.00646000  0.24985000  0.49964000  1.0
  O  O53  1  0.99356000  0.75016000  0.50056000  1.0
  O  O54  1  0.59170000  0.39822000  0.37481000  1.0
  O  O55  1  0.59178000  0.10194000  0.62513000  1.0
  O  O56  1  0.40821000  0.60182000  0.62522000  1.0
  O  O57  1  0.40828000  0.89807000  0.37489000  1.0
  O  O58  1  0.83080000  0.74991000  0.00016000  1.0
  O  O59  1  0.16918000  0.25003000  0.99983000  1.0
  O  O60  1  0.30372000  0.49754000  0.44096000  1.0
  O  O61  1  0.30398000  0.00267000  0.55913000  1.0
  O  O62  1  0.69618000  0.50251000  0.55903000  1.0
  O  O63  1  0.69607000  0.99738000  0.44086000  1.0
