# generated using pymatgen
data_Zn2H8C27Br2N9O2
_symmetry_space_group_name_H-M   'P 1'
_cell_length_a   18.47610000
_cell_length_b   18.53100000
_cell_length_c   19.46160000
_cell_angle_alpha   103.08800000
_cell_angle_beta   111.01400000
_cell_angle_gamma   109.60400000
_symmetry_Int_Tables_number   1
_chemical_formula_structural   Zn2H8C27Br2N9O2
_chemical_formula_sum   'Zn4 H16 C54 Br4 N18 O4'
_cell_volume   5384.76889657
_cell_formula_units_Z   2
loop_
 _symmetry_equiv_pos_site_id
 _symmetry_equiv_pos_as_xyz
  1  'x, y, z'
loop_
 _atom_site_type_symbol
 _atom_site_label
 _atom_site_symmetry_multiplicity
 _atom_site_fract_x
 _atom_site_fract_y
 _atom_site_fract_z
 _atom_site_occupancy
  Zn  Zn0  1  0.11729000  0.61999000  0.99038000  1.0
  Zn  Zn1  1  0.87734000  0.39459000  0.02073000  1.0
  Zn  Zn2  1  0.88799000  0.51895000  0.91152000  1.0
  Zn  Zn3  1  0.10921000  0.50732000  0.11402000  1.0
  H  H4  1  0.14741000  0.79650000  0.10211000  1.0
  H  H5  1  0.88039000  0.21892000  0.02765000  1.0
  H  H6  1  0.68458000  0.49848000  0.84207000  1.0
  H  H7  1  0.13918000  0.36762000  0.02144000  1.0
  H  H8  1  0.20690000  0.67542000  0.27205000  1.0
  H  H9  1  0.85914000  0.39347000  0.75458000  1.0
  H  H10  1  0.69238000  0.38388000  0.01378000  1.0
  H  H11  1  0.15831000  0.50852000  0.87369000  1.0
  H  H12  1  0.86998000  0.65765000  0.01847000  1.0
  H  H13  1  0.16071000  0.36579000  0.17507000  1.0
  H  H14  1  0.38287000  0.07988000  0.45037000  1.0
  H  H15  1  0.62949000  0.01491000  0.53267000  1.0
  H  H16  1  0.46689000  0.07064000  0.59935000  1.0
  H  H17  1  0.54476000  0.02439000  0.38323000  1.0
  H  H18  1  0.54791000  0.17409000  0.46474000  1.0
  H  H19  1  0.46349000  0.92048000  0.51812000  1.0
  C  C20  1  0.08024000  0.74960000  0.07599000  1.0
  C  C21  1  0.94777000  0.26695000  0.06154000  1.0
  C  C22  1  0.92019000  0.45270000  0.18663000  1.0
  C  C23  1  0.04171000  0.60028000  0.81712000  1.0
  C  C24  1  0.70126000  0.47347000  0.88752000  1.0
  C  C25  1  0.13711000  0.40956000  0.99072000  1.0
  C  C26  1  0.22184000  0.68851000  0.22594000  1.0
  C  C27  1  0.84494000  0.36490000  0.79401000  1.0
  C  C28  1  0.70627000  0.41565000  0.97621000  1.0
  C  C29  1  0.14547000  0.48123000  0.91439000  1.0
  C  C30  1  0.27109000  0.74453000  0.15375000  1.0
  C  C31  1  0.79346000  0.28200000  0.84784000  1.0
  C  C32  1  0.06095000  0.53066000  0.26089000  1.0
  C  C33  1  0.89867000  0.54002000  0.75559000  1.0
  C  C34  1  0.93810000  0.67893000  0.03322000  1.0
  C  C35  1  0.09126000  0.34198000  0.13720000  1.0
  C  C36  1  0.00780000  0.76047000  0.07521000  1.0
  C  C37  1  0.02313000  0.26080000  0.10706000  1.0
  C  C38  1  0.98609000  0.48668000  0.26722000  1.0
  C  C39  1  0.96975000  0.56257000  0.73861000  1.0
  C  C40  1  0.64998000  0.43427000  0.91974000  1.0
  C  C41  1  0.16574000  0.41912000  0.93367000  1.0
  C  C42  1  0.27570000  0.76564000  0.23024000  1.0
  C  C43  1  0.78086000  0.28459000  0.77250000  1.0
  C  C44  1  0.48359000  0.05940000  0.55074000  1.0
  C  C45  1  0.52880000  0.03542000  0.43233000  1.0
  C  C46  1  0.43794000  0.06557000  0.46884000  1.0
  C  C47  1  0.57389000  0.02834000  0.51358000  1.0
  C  C48  1  0.32463000  0.84315000  0.29550000  1.0
  C  C49  1  0.71390000  0.22528000  0.69616000  1.0
  C  C50  1  0.48341000  0.97748000  0.50711000  1.0
  C  C51  1  0.52907000  0.11734000  0.47634000  1.0
  C  C52  1  0.43622000  0.98164000  0.42324000  1.0
  C  C53  1  0.57662000  0.11234000  0.55985000  1.0
  C  C54  1  0.37042000  0.90980000  0.35328000  1.0
  C  C55  1  0.65002000  0.17568000  0.63198000  1.0
  C  C56  1  0.98047000  0.48170000  0.33525000  1.0
  C  C57  1  0.96870000  0.54611000  0.66501000  1.0
  C  C58  1  0.97794000  0.48593000  0.39840000  1.0
  C  C59  1  0.96912000  0.52786000  0.60027000  1.0
  C  C60  1  0.97426000  0.49564000  0.46690000  1.0
  C  C61  1  0.97126000  0.50982000  0.53088000  1.0
  C  C62  1  0.21719000  0.38889000  0.91070000  1.0
  C  C63  1  0.56411000  0.41669000  0.90249000  1.0
  C  C64  1  0.27413000  0.37926000  0.89691000  1.0
  C  C65  1  0.48998000  0.40010000  0.89316000  1.0
  C  C66  1  0.34299000  0.37818000  0.88902000  1.0
  C  C67  1  0.41181000  0.38628000  0.88797000  1.0
  C  C68  1  0.00695000  0.83710000  0.10062000  1.0
  C  C69  1  0.02672000  0.18985000  0.11815000  1.0
  C  C70  1  0.01148000  0.90715000  0.11484000  1.0
  C  C71  1  0.02473000  0.12446000  0.12387000  1.0
  C  C72  1  0.01616000  0.98275000  0.12376000  1.0
  C  C73  1  0.02124000  0.05168000  0.12622000  1.0
  Br  Br74  1  0.32421000  0.81702000  0.11390000  1.0
  Br  Br75  1  0.73060000  0.19541000  0.86924000  1.0
  Br  Br76  1  0.17508000  0.57953000  0.34382000  1.0
  Br  Br77  1  0.77999000  0.48862000  0.68334000  1.0
  N  N78  1  0.05461000  0.66896000  0.03623000  1.0
  N  N79  1  0.96940000  0.34464000  0.06461000  1.0
  N  N80  1  0.95281000  0.47847000  0.13987000  1.0
  N  N81  1  0.01553000  0.59771000  0.87252000  1.0
  N  N82  1  0.78042000  0.47695000  0.92228000  1.0
  N  N83  1  0.10512000  0.46368000  0.00538000  1.0
  N  N84  1  0.18948000  0.62797000  0.15403000  1.0
  N  N85  1  0.88947000  0.40719000  0.87472000  1.0
  N  N86  1  0.78391000  0.44142000  0.97740000  1.0
  N  N87  1  0.11030000  0.50741000  0.95802000  1.0
  N  N88  1  0.21967000  0.66291000  0.10798000  1.0
  N  N89  1  0.85756000  0.35438000  0.90757000  1.0
  N  N90  1  0.03985000  0.52659000  0.18536000  1.0
  N  N91  1  0.92779000  0.56070000  0.83536000  1.0
  N  N92  1  0.96707000  0.62497000  0.00957000  1.0
  N  N93  1  0.05803000  0.39106000  0.11157000  1.0
  N  N94  1  0.83540000  0.38612000  0.15091000  1.0
  N  N95  1  0.13301000  0.63719000  0.84460000  1.0
  O  O96  1  0.80073000  0.36922000  0.19254000  1.0
  O  O97  1  0.79972000  0.34310000  0.07564000  1.0
  O  O98  1  0.16093000  0.64237000  0.79622000  1.0
  O  O99  1  0.18241000  0.66322000  0.91975000  1.0
