# generated using pymatgen
data_SmCuH16C16(NO)8
_symmetry_space_group_name_H-M   'P 1'
_cell_length_a   9.25197000
_cell_length_b   10.90460000
_cell_length_c   10.90460000
_cell_angle_alpha   88.29890000
_cell_angle_beta   72.84730000
_cell_angle_gamma   72.84730000
_symmetry_Int_Tables_number   1
_chemical_formula_structural   SmCuH16C16(NO)8
_chemical_formula_sum   'Sm2 Cu2 H32 C32 N16 O16'
_cell_volume   1002.48643547
_cell_formula_units_Z   2
loop_
 _symmetry_equiv_pos_site_id
 _symmetry_equiv_pos_as_xyz
  1  'x, y, z'
loop_
 _atom_site_type_symbol
 _atom_site_label
 _atom_site_symmetry_multiplicity
 _atom_site_fract_x
 _atom_site_fract_y
 _atom_site_fract_z
 _atom_site_occupancy
  Sm  Sm0  1  0.25000000  0.96699000  0.03301000  1.0
  Sm  Sm1  1  0.75000000  0.03301000  0.96699000  1.0
  Cu  Cu2  1  0.00000000  0.00000000  0.50000000  1.0
  Cu  Cu3  1  0.50000000  0.50000000  0.00000000  1.0
  H  H4  1  0.93506000  0.25323000  0.63354000  1.0
  H  H5  1  0.56494000  0.36646000  0.74677000  1.0
  H  H6  1  0.06494000  0.74677000  0.36646000  1.0
  H  H7  1  0.43506000  0.63353000  0.25323000  1.0
  H  H8  1  0.06801000  0.36262000  0.44684000  1.0
  H  H9  1  0.43198000  0.55316000  0.63738000  1.0
  H  H10  1  0.93198000  0.63738000  0.55316000  1.0
  H  H11  1  0.56802000  0.44683000  0.36262000  1.0
  H  H12  1  0.35745000  0.32403000  0.38672000  1.0
  H  H13  1  0.14255000  0.61328000  0.67597000  1.0
  H  H14  1  0.64255000  0.67597000  0.61328000  1.0
  H  H15  1  0.85745000  0.38672000  0.32403000  1.0
  H  H16  1  0.38409000  0.06963000  0.69575000  1.0
  H  H17  1  0.11591000  0.30425000  0.93037000  1.0
  H  H18  1  0.61592000  0.93037000  0.30424000  1.0
  H  H19  1  0.88408000  0.69576000  0.06963000  1.0
  H  H20  1  0.96315000  0.15745000  0.23024000  1.0
  H  H21  1  0.53685000  0.76976000  0.84255000  1.0
  H  H22  1  0.03685000  0.84255000  0.76976000  1.0
  H  H23  1  0.46315000  0.23024000  0.15745000  1.0
  H  H24  1  0.10855000  0.78773000  0.92700000  1.0
  H  H25  1  0.39145000  0.07300000  0.21227000  1.0
  H  H26  1  0.89145000  0.21227000  0.07300000  1.0
  H  H27  1  0.60856000  0.92701000  0.78773000  1.0
  H  H28  1  0.08226000  0.23793000  0.16909000  1.0
  H  H29  1  0.41774000  0.83091000  0.76207000  1.0
  H  H30  1  0.91774000  0.76207000  0.83091000  1.0
  H  H31  1  0.58226000  0.16909000  0.23793000  1.0
  H  H32  1  0.18145000  0.70431000  0.02717000  1.0
  H  H33  1  0.31855000  0.97283000  0.29569000  1.0
  H  H34  1  0.81856000  0.29569000  0.97283000  1.0
  H  H35  1  0.68145000  0.02718000  0.70431000  1.0
  C  C36  1  0.06874000  0.09024000  0.78326000  1.0
  C  C37  1  0.43126000  0.21674000  0.90976000  1.0
  C  C38  1  0.93126000  0.90975000  0.21674000  1.0
  C  C39  1  0.56874000  0.78326000  0.09025000  1.0
  C  C40  1  0.15230000  0.15509000  0.67445000  1.0
  C  C41  1  0.34771000  0.32555000  0.84491000  1.0
  C  C42  1  0.84771000  0.84491000  0.32555000  1.0
  C  C43  1  0.65229000  0.67445000  0.15509000  1.0
  C  C44  1  0.06270000  0.23715000  0.60413000  1.0
  C  C45  1  0.43730000  0.39587000  0.76286000  1.0
  C  C46  1  0.93730000  0.76286000  0.39587000  1.0
  C  C47  1  0.56270000  0.60413000  0.23715000  1.0
  C  C48  1  0.13665000  0.29847000  0.50166000  1.0
  C  C49  1  0.36335000  0.49833000  0.70153000  1.0
  C  C50  1  0.86335000  0.70153000  0.49834000  1.0
  C  C51  1  0.63665000  0.50166000  0.29847000  1.0
  C  C52  1  0.30001000  0.27631000  0.46725000  1.0
  C  C53  1  0.19999000  0.53275000  0.72369000  1.0
  C  C54  1  0.69999000  0.72369000  0.53275000  1.0
  C  C55  1  0.80001000  0.46725000  0.27631000  1.0
  C  C56  1  0.39155000  0.19253000  0.53535000  1.0
  C  C57  1  0.10845000  0.46465000  0.80747000  1.0
  C  C58  1  0.60845000  0.80747000  0.46465000  1.0
  C  C59  1  0.89156000  0.53535000  0.19253000  1.0
  C  C60  1  0.56366000  0.16636000  0.49319000  1.0
  C  C61  1  0.93634000  0.50681000  0.83364000  1.0
  C  C62  1  0.43634000  0.83364000  0.50681000  1.0
  C  C63  1  0.06366000  0.49319000  0.16636000  1.0
  C  C64  1  0.31600000  0.13338000  0.64043000  1.0
  C  C65  1  0.18400000  0.35956000  0.86662000  1.0
  C  C66  1  0.68400000  0.86662000  0.35956000  1.0
  C  C67  1  0.81600000  0.64043000  0.13338000  1.0
  N  N68  1  0.66448000  0.10966000  0.55999000  1.0
  N  N69  1  0.83552000  0.44001000  0.89034000  1.0
  N  N70  1  0.33552000  0.89035000  0.44002000  1.0
  N  N71  1  0.16448000  0.55998000  0.10966000  1.0
  N  N72  1  0.80864000  0.10265000  0.48014000  1.0
  N  N73  1  0.69136000  0.51986000  0.89735000  1.0
  N  N74  1  0.19136000  0.89735000  0.51986000  1.0
  N  N75  1  0.30864000  0.48014000  0.10265000  1.0
  N  N76  1  0.79712000  0.15415000  0.37004000  1.0
  N  N77  1  0.70288000  0.62996000  0.84585000  1.0
  N  N78  1  0.20288000  0.84585000  0.62996000  1.0
  N  N79  1  0.29712000  0.37004000  0.15415000  1.0
  N  N80  1  0.64478000  0.19393000  0.37558000  1.0
  N  N81  1  0.85523000  0.62442000  0.80607000  1.0
  N  N82  1  0.35523000  0.80607000  0.62442000  1.0
  N  N83  1  0.14477000  0.37558000  0.19393000  1.0
  O  O84  1  0.13599000  0.03940000  0.86672000  1.0
  O  O85  1  0.36402000  0.13328000  0.96060000  1.0
  O  O86  1  0.86401000  0.96060000  0.13328000  1.0
  O  O87  1  0.63598000  0.86672000  0.03940000  1.0
  O  O88  1  0.93080000  0.08911000  0.78564000  1.0
  O  O89  1  0.56920000  0.21437000  0.91089000  1.0
  O  O90  1  0.06920000  0.91089000  0.21436000  1.0
  O  O91  1  0.43080000  0.78564000  0.08911000  1.0
  O  O92  1  0.03644000  0.17212000  0.14701000  1.0
  O  O93  1  0.46356000  0.85299000  0.82788000  1.0
  O  O94  1  0.96356000  0.82788000  0.85299000  1.0
  O  O95  1  0.53644000  0.14701000  0.17212000  1.0
  O  O96  1  0.19340000  0.77506000  0.96896000  1.0
  O  O97  1  0.30660000  0.03104000  0.22494000  1.0
  O  O98  1  0.80660000  0.22494000  0.03104000  1.0
  O  O99  1  0.69340000  0.96896000  0.77506000  1.0
