# generated using pymatgen
data_MnH24C26(SN7)2
_symmetry_space_group_name_H-M   'P 1'
_cell_length_a   8.96013000
_cell_length_b   9.48691000
_cell_length_c   11.30800000
_cell_angle_alpha   112.69500000
_cell_angle_beta   93.89340000
_cell_angle_gamma   97.21120000
_symmetry_Int_Tables_number   1
_chemical_formula_structural   MnH24C26(SN7)2
_chemical_formula_sum   'Mn1 H24 C26 S2 N14'
_cell_volume   872.64908442
_cell_formula_units_Z   1
loop_
 _symmetry_equiv_pos_site_id
 _symmetry_equiv_pos_as_xyz
  1  'x, y, z'
loop_
 _atom_site_type_symbol
 _atom_site_label
 _atom_site_symmetry_multiplicity
 _atom_site_fract_x
 _atom_site_fract_y
 _atom_site_fract_z
 _atom_site_occupancy
  Mn  Mn0  1  0.00824000  0.99933000  0.49469000  1.0
  H  H1  1  0.89168000  0.66306000  0.51722000  1.0
  H  H2  1  0.11485000  0.33866000  0.47528000  1.0
  H  H3  1  0.30977000  0.96492000  0.66731000  1.0
  H  H4  1  0.69985000  0.03067000  0.32999000  1.0
  H  H5  1  0.31910000  0.63532000  0.77422000  1.0
  H  H6  1  0.67668000  0.35952000  0.22595000  1.0
  H  H7  1  0.43378000  0.80252000  0.77258000  1.0
  H  H8  1  0.56635000  0.19227000  0.23115000  1.0
  H  H9  1  0.39093000  0.71554000  0.47919000  1.0
  H  H10  1  0.61049000  0.28064000  0.52329000  1.0
  H  H11  1  0.52151000  0.55032000  0.30352000  1.0
  H  H12  1  0.47972000  0.44585000  0.69921000  1.0
  H  H13  1  0.62550000  0.89734000  0.48065000  1.0
  H  H14  1  0.37228000  0.10481000  0.52114000  1.0
  H  H15  1  0.91811000  0.21851000  0.80460000  1.0
  H  H16  1  0.07879000  0.78406000  0.19670000  1.0
  H  H17  1  0.53557000  0.28595000  0.87978000  1.0
  H  H18  1  0.46011000  0.71672000  0.12088000  1.0
  H  H19  1  0.71966000  0.30267000  0.95887000  1.0
  H  H20  1  0.27572000  0.70105000  0.04238000  1.0
  H  H21  1  0.76205000  0.00499000  0.94584000  1.0
  H  H22  1  0.23390000  0.99825000  0.05531000  1.0
  H  H23  1  0.65493000  0.82018000  0.03759000  1.0
  H  H24  1  0.34097000  0.18294000  0.96343000  1.0
  C  C25  1  0.00530000  0.71365000  0.56688000  1.0
  C  C26  1  0.00071000  0.28671000  0.42746000  1.0
  C  C27  1  0.21580000  0.87008000  0.64135000  1.0
  C  C28  1  0.79175000  0.12732000  0.35572000  1.0
  C  C29  1  0.35439000  0.69623000  0.71292000  1.0
  C  C30  1  0.64527000  0.29964000  0.28885000  1.0
  C  C31  1  0.42793000  0.59288000  0.60202000  1.0
  C  C32  1  0.57306000  0.40312000  0.40053000  1.0
  C  C33  1  0.43905000  0.62017000  0.48959000  1.0
  C  C34  1  0.56242000  0.37613000  0.51314000  1.0
  C  C35  1  0.51123000  0.52674000  0.39006000  1.0
  C  C36  1  0.49013000  0.46948000  0.61270000  1.0
  C  C37  1  0.66724000  0.98253000  0.57716000  1.0
  C  C38  1  0.33039000  0.01991000  0.42464000  1.0
  C  C39  1  0.81904000  0.14437000  0.73977000  1.0
  C  C40  1  0.17766000  0.85811000  0.26152000  1.0
  C  C41  1  0.62249000  0.21981000  0.89409000  1.0
  C  C42  1  0.37335000  0.78344000  0.10700000  1.0
  C  C43  1  0.55835000  0.10652000  0.94912000  1.0
  C  C44  1  0.43754000  0.89667000  0.05202000  1.0
  C  C45  1  0.64610000  0.00420000  0.97016000  1.0
  C  C46  1  0.34982000  0.99905000  0.03103000  1.0
  C  C47  1  0.58637000  0.89998000  0.02123000  1.0
  C  C48  1  0.40956000  0.10323000  0.97998000  1.0
  C  C49  1  0.80865000  0.72937000  0.26259000  1.0
  C  C50  1  0.19264000  0.27013000  0.73496000  1.0
  S  S51  1  0.71804000  0.59602000  0.12947000  1.0
  S  S52  1  0.27242000  0.40396000  0.87230000  1.0
  N  N53  1  0.22144000  0.74385000  0.66772000  1.0
  N  N54  1  0.78099000  0.25461000  0.33220000  1.0
  N  N55  1  0.08881000  0.64289000  0.62061000  1.0
  N  N56  1  0.91249000  0.35745000  0.37751000  1.0
  N  N57  1  0.07929000  0.85426000  0.57667000  1.0
  N  N58  1  0.93078000  0.14425000  0.41686000  1.0
  N  N59  1  0.67639000  0.14023000  0.77045000  1.0
  N  N60  1  0.32016000  0.86304000  0.23095000  1.0
  N  N61  1  0.57774000  0.03724000  0.66782000  1.0
  N  N62  1  0.41896000  0.96577000  0.33333333  1.0
  N  N63  1  0.81640000  0.04537000  0.61722000  1.0
  N  N64  1  0.18019000  0.95655000  0.38518000  1.0
  N  N65  1  0.87729000  0.82830000  0.35879000  1.0
  N  N66  1  0.13182000  0.17069000  0.63567000  1.0
