# generated using pymatgen
data_Zr3H3C26S5N2(ClO4)5
_symmetry_space_group_name_H-M   'P 1'
_cell_length_a   16.44780000
_cell_length_b   16.46770000
_cell_length_c   16.46942918
_cell_angle_alpha   88.09827149
_cell_angle_beta   60.06703968
_cell_angle_gamma   60.06420000
_symmetry_Int_Tables_number   1
_chemical_formula_structural   Zr3H3C26S5N2(ClO4)5
_chemical_formula_sum   'Zr6 H6 C52 S10 N4 Cl10 O40'
_cell_volume   3208.74994360
_cell_formula_units_Z   2
loop_
 _symmetry_equiv_pos_site_id
 _symmetry_equiv_pos_as_xyz
  1  'x, y, z'
loop_
 _atom_site_type_symbol
 _atom_site_label
 _atom_site_symmetry_multiplicity
 _atom_site_fract_x
 _atom_site_fract_y
 _atom_site_fract_z
 _atom_site_occupancy
  Zr  Zr0  1  0.50967000  0.09221000  0.60621000  1.0
  Zr  Zr1  1  0.49579000  0.88820000  0.40224000  1.0
  Zr  Zr2  1  0.29123000  0.09546000  0.60908000  1.0
  Zr  Zr3  1  0.71420000  0.88544000  0.39895000  1.0
  Zr  Zr4  1  0.50265000  0.09996000  0.39455000  1.0
  Zr  Zr5  1  0.50276000  0.88067000  0.61372000  1.0
  H  H6  1  0.34198000  0.23995000  0.57783000  1.0
  H  H7  1  0.66328000  0.91677000  0.25456000  1.0
  H  H8  1  0.33097000  0.90654000  0.59293000  1.0
  H  H9  1  0.67454000  0.90156000  0.58781000  1.0
  H  H10  1  0.30450000  0.34424000  0.83908000  1.0
  H  H11  1  0.70094000  0.65669000  0.14908000  1.0
  C  C12  1  0.51730000  0.25574000  0.49119000  1.0
  C  C13  1  0.48812000  0.00322000  0.23869000  1.0
  C  C14  1  0.50553000  0.71640000  0.50888000  1.0
  C  C15  1  0.50032000  0.98540000  0.77780000  1.0
  C  C16  1  0.24693000  0.25862000  0.76431000  1.0
  C  C17  1  0.77525000  0.99486000  0.49937000  1.0
  C  C18  1  0.75849000  0.73028000  0.23583000  1.0
  C  C19  1  0.23024000  0.99494000  0.49964000  1.0
  C  C20  1  0.23101000  0.25667000  0.49692000  1.0
  C  C21  1  0.23124000  0.99454000  0.78109000  1.0
  C  C22  1  0.77427000  0.71343000  0.49987000  1.0
  C  C23  1  0.77430000  0.99771000  0.23771000  1.0
  C  C24  1  0.51678000  0.56531000  0.56801000  1.0
  C  C25  1  0.51769000  0.40136000  0.42650000  1.0
  C  C26  1  0.51221000  0.62426000  0.50558000  1.0
  C  C27  1  0.52023000  0.34334000  0.48988000  1.0
  C  C28  1  0.51702000  0.48208000  0.45480000  1.0
  C  C29  1  0.51934000  0.48371000  0.53878000  1.0
  C  C30  1  0.48794000  0.06785000  0.09294000  1.0
  C  C31  1  0.48929000  0.92612000  0.92876000  1.0
  C  C32  1  0.48538000  0.00448000  0.15097000  1.0
  C  C33  1  0.49384000  0.98858000  0.86984000  1.0
  C  C34  1  0.48659000  0.95541000  0.01044000  1.0
  C  C35  1  0.48878000  0.03946000  0.01214000  1.0
  C  C36  1  0.02396000  0.05916000  0.91687000  1.0
  C  C37  1  0.98088000  0.94319000  0.11092000  1.0
  C  C38  1  0.14064000  0.99926000  0.87260000  1.0
  C  C39  1  0.86458000  0.00032000  0.15287000  1.0
  C  C40  1  0.03891000  0.96432000  0.02436000  1.0
  C  C41  1  0.96584000  0.03832000  0.00355000  1.0
  C  C42  1  0.02444000  0.38369000  0.55154000  1.0
  C  C43  1  0.98149000  0.57751000  0.43522000  1.0
  C  C44  1  0.14077000  0.34157000  0.49430000  1.0
  C  C45  1  0.86479000  0.62193000  0.49527000  1.0
  C  C46  1  0.03957000  0.49085000  0.45614000  1.0
  C  C47  1  0.96646000  0.47022000  0.53033000  1.0
  C  C48  1  0.05316000  0.41761000  0.87768000  1.0
  C  C49  1  0.21387000  0.38964000  0.87173000  1.0
  C  C50  1  0.14776000  0.47845000  0.93942000  1.0
  C  C51  1  0.02734000  0.53570000  0.99155000  1.0
  C  C52  1  0.95251000  0.61655000  0.07719000  1.0
  C  C53  1  0.79167000  0.62355000  0.10415000  1.0
  C  C54  1  0.85791000  0.55594000  0.01527000  1.0
  C  C55  1  0.97837000  0.50326000  0.95852000  1.0
  C  C56  1  0.16747000  0.35706000  0.83969000  1.0
  C  C57  1  0.83806000  0.65499000  0.13732000  1.0
  C  C58  1  0.15440000  0.93533000  0.42806000  1.0
  C  C59  1  0.85114000  0.06610000  0.55928000  1.0
  C  C60  1  0.14286000  0.99798000  0.49378000  1.0
  C  C61  1  0.86263000  0.00068000  0.49637000  1.0
  C  C62  1  0.95775000  0.04264000  0.53377000  1.0
  C  C63  1  0.04779000  0.96077000  0.45158000  1.0
  S  S64  1  0.51178000  0.57969000  0.41124000  1.0
  S  S65  1  0.52275000  0.38689000  0.58323000  1.0
  S  S66  1  0.48309000  0.91101000  0.10730000  1.0
  S  S67  1  0.49408000  0.08301000  0.91450000  1.0
  S  S68  1  0.17860000  0.91851000  0.93753000  1.0
  S  S69  1  0.82643000  0.08192000  0.08863000  1.0
  S  S70  1  0.17899000  0.40563000  0.41248000  1.0
  S  S71  1  0.82675000  0.55720000  0.57625000  1.0
  S  S72  1  0.00246000  0.08865000  0.58271000  1.0
  S  S73  1  0.00304000  0.91212000  0.40533000  1.0
  N  N74  1  0.79209000  0.54724000  0.98320000  1.0
  N  N75  1  0.00970000  0.39111000  0.83042000  1.0
  N  N76  1  0.21375000  0.50982000  0.94886000  1.0
  N  N77  1  0.99617000  0.66328000  0.10413000  1.0
  Cl  Cl78  1  0.51850000  0.58451000  0.66807000  1.0
  Cl  Cl79  1  0.51457000  0.38262000  0.32717000  1.0
  Cl  Cl80  1  0.49078000  0.16733000  0.11178000  1.0
  Cl  Cl81  1  0.48776000  0.82597000  0.90946000  1.0
  Cl  Cl82  1  0.95372000  0.14656000  0.87608000  1.0
  Cl  Cl83  1  0.05057000  0.85996000  0.15456000  1.0
  Cl  Cl84  1  0.95462000  0.34035000  0.63513000  1.0
  Cl  Cl85  1  0.05176000  0.61812000  0.34766000  1.0
  Cl  Cl86  1  0.27705000  0.83822000  0.33114000  1.0
  Cl  Cl87  1  0.72852000  0.16264000  0.65678000  1.0
  O  O88  1  0.51718000  0.21974000  0.56142000  1.0
  O  O89  1  0.48833000  0.93290000  0.27458000  1.0
  O  O90  1  0.50203000  0.75424000  0.44040000  1.0
  O  O91  1  0.50370000  0.05395000  0.74004000  1.0
  O  O92  1  0.20678000  0.22423000  0.73874000  1.0
  O  O93  1  0.80850000  0.92534000  0.43406000  1.0
  O  O94  1  0.79854000  0.75584000  0.27034000  1.0
  O  O95  1  0.19696000  0.06021000  0.56922000  1.0
  O  O96  1  0.33305000  0.22762000  0.43030000  1.0
  O  O97  1  0.33286000  0.92377000  0.74819000  1.0
  O  O98  1  0.67263000  0.74634000  0.57061000  1.0
  O  O99  1  0.67225000  0.06426000  0.26672000  1.0
  O  O100  1  0.20111000  0.06157000  0.74072000  1.0
  O  O101  1  0.80441000  0.75378000  0.43284000  1.0
  O  O102  1  0.80451000  0.92754000  0.27469000  1.0
  O  O103  1  0.20082000  0.21969000  0.56707000  1.0
  O  O104  1  0.35036000  0.21897000  0.73283000  1.0
  O  O105  1  0.33268000  0.92614000  0.43571000  1.0
  O  O106  1  0.65509000  0.76168000  0.27541000  1.0
  O  O107  1  0.67284000  0.05878000  0.56820000  1.0
  O  O108  1  0.50341000  0.91551000  0.74204000  1.0
  O  O109  1  0.51290000  0.22350000  0.42498000  1.0
  O  O110  1  0.49228000  0.06953000  0.27109000  1.0
  O  O111  1  0.50229000  0.75221000  0.57885000  1.0
  O  O112  1  0.62562000  0.92659000  0.56414000  1.0
  O  O113  1  0.37988000  0.93020000  0.56791000  1.0
  O  O114  1  0.61831000  0.93507000  0.32543000  1.0
  O  O115  1  0.38701000  0.16907000  0.55946000  1.0
  O  O116  1  0.41240000  0.03677000  0.45995000  1.0
  O  O117  1  0.59298000  0.03456000  0.45765000  1.0
  O  O118  1  0.58754000  0.85922000  0.46333000  1.0
  O  O119  1  0.41792000  0.03111000  0.63524000  1.0
  O  O120  1  0.80885000  0.56516000  0.90472000  1.0
  O  O121  1  0.72119000  0.53055000  0.03949000  1.0
  O  O122  1  0.03283000  0.40837000  0.75122000  1.0
  O  O123  1  0.95399000  0.35643000  0.87410000  1.0
  O  O124  1  0.19800000  0.58805000  0.93079000  1.0
  O  O125  1  0.28381000  0.45323000  0.96630000  1.0
  O  O126  1  0.97396000  0.74229000  0.08664000  1.0
  O  O127  1  0.05116000  0.61935000  0.13934000  1.0
