# generated using pymatgen
data_SmAgH8C14(NO4)2
_symmetry_space_group_name_H-M   'P 1'
_cell_length_a   9.15292000
_cell_length_b   9.79545000
_cell_length_c   22.24380000
_cell_angle_alpha   90.00030000
_cell_angle_beta   90.00020000
_cell_angle_gamma   117.54900000
_symmetry_Int_Tables_number   1
_chemical_formula_structural   SmAgH8C14(NO4)2
_chemical_formula_sum   'Sm4 Ag4 H32 C56 N8 O32'
_cell_volume   1768.18790919
_cell_formula_units_Z   4
loop_
 _symmetry_equiv_pos_site_id
 _symmetry_equiv_pos_as_xyz
  1  'x, y, z'
loop_
 _atom_site_type_symbol
 _atom_site_label
 _atom_site_symmetry_multiplicity
 _atom_site_fract_x
 _atom_site_fract_y
 _atom_site_fract_z
 _atom_site_occupancy
  Sm  Sm0  1  0.11670000  0.85281000  0.99078000  1.0
  Sm  Sm1  1  0.38329000  0.14719000  0.49078000  1.0
  Sm  Sm2  1  0.88329000  0.14719000  0.00922000  1.0
  Sm  Sm3  1  0.61671000  0.85281000  0.50922000  1.0
  Ag  Ag4  1  0.47680000  0.81145000  0.85060000  1.0
  Ag  Ag5  1  0.02320000  0.18855000  0.35060000  1.0
  Ag  Ag6  1  0.52320000  0.18854000  0.14940000  1.0
  Ag  Ag7  1  0.97680000  0.81146000  0.64939000  1.0
  H  H8  1  0.21307000  0.51922000  0.13257000  1.0
  H  H9  1  0.28694000  0.48079000  0.63257000  1.0
  H  H10  1  0.78694000  0.48078000  0.86743000  1.0
  H  H11  1  0.71307000  0.51921000  0.36743000  1.0
  H  H12  1  0.70085000  0.47073000  0.06763000  1.0
  H  H13  1  0.79916000  0.52927000  0.56762000  1.0
  H  H14  1  0.29916000  0.52926000  0.93238000  1.0
  H  H15  1  0.20085000  0.47074000  0.43238000  1.0
  H  H16  1  0.26404000  0.30051000  0.16462000  1.0
  H  H17  1  0.23596000  0.69949000  0.66462000  1.0
  H  H18  1  0.73596000  0.69949000  0.83539000  1.0
  H  H19  1  0.76404000  0.30051000  0.33538000  1.0
  H  H20  1  0.42670000  0.72916000  0.06965000  1.0
  H  H21  1  0.07331000  0.27085000  0.56965000  1.0
  H  H22  1  0.57330000  0.27084000  0.93035000  1.0
  H  H23  1  0.92670000  0.72916000  0.43035000  1.0
  H  H24  1  0.01256000  0.84827000  0.78184000  1.0
  H  H25  1  0.48744000  0.15173000  0.28184000  1.0
  H  H26  1  0.98744000  0.15173000  0.21816000  1.0
  H  H27  1  0.51256000  0.84828000  0.71816000  1.0
  H  H28  1  0.90059000  0.20384000  0.84489000  1.0
  H  H29  1  0.59941000  0.79617000  0.34490000  1.0
  H  H30  1  0.09942000  0.79616000  0.15511000  1.0
  H  H31  1  0.40059000  0.20384000  0.65511000  1.0
  H  H32  1  0.88064000  0.08514000  0.65588000  1.0
  H  H33  1  0.61936000  0.91486000  0.15589000  1.0
  H  H34  1  0.11936000  0.91486000  0.34412000  1.0
  H  H35  1  0.38063000  0.08514000  0.84412000  1.0
  H  H36  1  0.85422000  0.25184000  0.73614000  1.0
  H  H37  1  0.64578000  0.74817000  0.23614000  1.0
  H  H38  1  0.14579000  0.74817000  0.26386000  1.0
  H  H39  1  0.35421000  0.25183000  0.76387000  1.0
  C  C40  1  0.58092000  0.61641000  0.06420000  1.0
  C  C41  1  0.91908000  0.38359000  0.56420000  1.0
  C  C42  1  0.41908000  0.38359000  0.93580000  1.0
  C  C43  1  0.08092000  0.61641000  0.43580000  1.0
  C  C44  1  0.32544000  0.51526000  0.11912000  1.0
  C  C45  1  0.17456000  0.48474000  0.61912000  1.0
  C  C46  1  0.67456000  0.48474000  0.88089000  1.0
  C  C47  1  0.82544000  0.51526000  0.38089000  1.0
  C  C48  1  0.59614000  0.48678000  0.08209000  1.0
  C  C49  1  0.90387000  0.51322000  0.58209000  1.0
  C  C50  1  0.40387000  0.51322000  0.91791000  1.0
  C  C51  1  0.09614000  0.48678000  0.41791000  1.0
  C  C52  1  0.35188000  0.39197000  0.13615000  1.0
  C  C53  1  0.14813000  0.60804000  0.63615000  1.0
  C  C54  1  0.64813000  0.60803000  0.86385000  1.0
  C  C55  1  0.85187000  0.39197000  0.36385000  1.0
  C  C56  1  0.71442000  0.74217000  0.02755000  1.0
  C  C57  1  0.78558000  0.25783000  0.52755000  1.0
  C  C58  1  0.28558000  0.25783000  0.97245000  1.0
  C  C59  1  0.21442000  0.74217000  0.47245000  1.0
  C  C60  1  0.44261000  0.63012000  0.08329000  1.0
  C  C61  1  0.05740000  0.36988000  0.58329000  1.0
  C  C62  1  0.55740000  0.36988000  0.91671000  1.0
  C  C63  1  0.94260000  0.63012000  0.41671000  1.0
  C  C64  1  0.97537000  0.93698000  0.77264000  1.0
  C  C65  1  0.52463000  0.06303000  0.27264000  1.0
  C  C66  1  0.02463000  0.06302000  0.22736000  1.0
  C  C67  1  0.47537000  0.93698000  0.72736000  1.0
  C  C68  1  0.91403000  0.13671000  0.80807000  1.0
  C  C69  1  0.58597000  0.86329000  0.30807000  1.0
  C  C70  1  0.08597000  0.86329000  0.19193000  1.0
  C  C71  1  0.41403000  0.13671000  0.69193000  1.0
  C  C72  1  0.90409000  0.07123000  0.70296000  1.0
  C  C73  1  0.59592000  0.92877000  0.20296000  1.0
  C  C74  1  0.09592000  0.92877000  0.29704000  1.0
  C  C75  1  0.40408000  0.07123000  0.79704000  1.0
  C  C76  1  0.95926000  0.02123000  0.82039000  1.0
  C  C77  1  0.54073000  0.97877000  0.32039000  1.0
  C  C78  1  0.04074000  0.97877000  0.17961000  1.0
  C  C79  1  0.45927000  0.02123000  0.67961000  1.0
  C  C80  1  0.88825000  0.16242000  0.74816000  1.0
  C  C81  1  0.61175000  0.83758000  0.24817000  1.0
  C  C82  1  0.11175000  0.83758000  0.25183000  1.0
  C  C83  1  0.38825000  0.16242000  0.75184000  1.0
  C  C84  1  0.50375000  0.97912000  0.96675000  1.0
  C  C85  1  0.99624000  0.02087000  0.46675000  1.0
  C  C86  1  0.49624000  0.02087000  0.03325000  1.0
  C  C87  1  0.00375000  0.97912000  0.53325000  1.0
  C  C88  1  0.99220000  0.98339000  0.88270000  1.0
  C  C89  1  0.50779000  0.01661000  0.38271000  1.0
  C  C90  1  0.00780000  0.01661000  0.11729000  1.0
  C  C91  1  0.49221000  0.98340000  0.61729000  1.0
  C  C92  1  0.99141000  0.49241000  0.96508000  1.0
  C  C93  1  0.50857000  0.50758000  0.46508000  1.0
  C  C94  1  0.00857000  0.50758000  0.03491000  1.0
  C  C95  1  0.49142000  0.49242000  0.53491000  1.0
  N  N96  1  0.48509000  0.37747000  0.11828000  1.0
  N  N97  1  0.01492000  0.62253000  0.61827000  1.0
  N  N98  1  0.51492000  0.62253000  0.88173000  1.0
  N  N99  1  0.98508000  0.37747000  0.38173000  1.0
  N  N100  1  0.94693000  0.95937000  0.71503000  1.0
  N  N101  1  0.55307000  0.04063000  0.21503000  1.0
  N  N102  1  0.05307000  0.04063000  0.28497000  1.0
  N  N103  1  0.44693000  0.95937000  0.78497000  1.0
  O  O104  1  0.36923000  0.88006000  0.94345000  1.0
  O  O105  1  0.13076000  0.11992000  0.44345000  1.0
  O  O106  1  0.63077000  0.11993000  0.05654000  1.0
  O  O107  1  0.86923000  0.88007000  0.55654000  1.0
  O  O108  1  0.81845000  0.71112000  0.00116000  1.0
  O  O109  1  0.68154000  0.28888000  0.50116000  1.0
  O  O110  1  0.18154000  0.28888000  0.99884000  1.0
  O  O111  1  0.31845000  0.71112000  0.49884000  1.0
  O  O112  1  0.71260000  0.87089000  0.02766000  1.0
  O  O113  1  0.78740000  0.12911000  0.52765000  1.0
  O  O114  1  0.28740000  0.12911000  0.97234000  1.0
  O  O115  1  0.21260000  0.87089000  0.47234000  1.0
  O  O116  1  0.04701000  0.61580000  0.93521000  1.0
  O  O117  1  0.45297000  0.38419000  0.43521000  1.0
  O  O118  1  0.95298000  0.38420000  0.06478000  1.0
  O  O119  1  0.54702000  0.61581000  0.56478000  1.0
  O  O120  1  0.64082000  0.04453000  0.94026000  1.0
  O  O121  1  0.85917000  0.95545000  0.44026000  1.0
  O  O122  1  0.35917000  0.95546000  0.05974000  1.0
  O  O123  1  0.14082000  0.04454000  0.55974000  1.0
  O  O124  1  0.92249000  0.35687000  0.94360000  1.0
  O  O125  1  0.57749000  0.64312000  0.44360000  1.0
  O  O126  1  0.07750000  0.64312000  0.05640000  1.0
  O  O127  1  0.42251000  0.35688000  0.55640000  1.0
  O  O128  1  0.05496000  0.89236000  0.88745000  1.0
  O  O129  1  0.44504000  0.10764000  0.38745000  1.0
  O  O130  1  0.94504000  0.10764000  0.11255000  1.0
  O  O131  1  0.55497000  0.89237000  0.61255000  1.0
  O  O132  1  0.95592000  0.04357000  0.92682000  1.0
  O  O133  1  0.54407000  0.95643000  0.42683000  1.0
  O  O134  1  0.04408000  0.95643000  0.07318000  1.0
  O  O135  1  0.45593000  0.04358000  0.57318000  1.0
