# generated using pymatgen
data_Cd3H22C30(N3O2)4
_symmetry_space_group_name_H-M   'P 1'
_cell_length_a   8.16264000
_cell_length_b   9.30521000
_cell_length_c   21.27470000
_cell_angle_alpha   89.99980000
_cell_angle_beta   91.14980000
_cell_angle_gamma   89.99980000
_symmetry_Int_Tables_number   1
_chemical_formula_structural   Cd3H22C30(N3O2)4
_chemical_formula_sum   'Cd6 H44 C60 N24 O16'
_cell_volume   1615.59615857
_cell_formula_units_Z   2
loop_
 _symmetry_equiv_pos_site_id
 _symmetry_equiv_pos_as_xyz
  1  'x, y, z'
loop_
 _atom_site_type_symbol
 _atom_site_label
 _atom_site_symmetry_multiplicity
 _atom_site_fract_x
 _atom_site_fract_y
 _atom_site_fract_z
 _atom_site_occupancy
  Cd  Cd0  1  0.08417000  0.31832000  0.15752000  1.0
  Cd  Cd1  1  0.91584000  0.81832000  0.34248000  1.0
  Cd  Cd2  1  0.91583000  0.68168000  0.84248000  1.0
  Cd  Cd3  1  0.08416000  0.18168000  0.65752000  1.0
  Cd  Cd4  1  0.00000000  0.50000000  0.00000000  1.0
  Cd  Cd5  1  0.00000000  0.00000000  0.50000000  1.0
  H  H6  1  0.27259000  0.07335000  0.26469000  1.0
  H  H7  1  0.72741000  0.57334000  0.23531000  1.0
  H  H8  1  0.72741000  0.92666000  0.73531000  1.0
  H  H9  1  0.27260000  0.42666000  0.76469000  1.0
  H  H10  1  0.43698000  0.84399000  0.25997000  1.0
  H  H11  1  0.56302000  0.34399000  0.24004000  1.0
  H  H12  1  0.56302000  0.15602000  0.74003000  1.0
  H  H13  1  0.43698000  0.65602000  0.75996000  1.0
  H  H14  1  0.38839000  0.84403000  0.06483000  1.0
  H  H15  1  0.61161000  0.34402000  0.43517000  1.0
  H  H16  1  0.61162000  0.15598000  0.93517000  1.0
  H  H17  1  0.38838000  0.65598000  0.56483000  1.0
  H  H18  1  0.28894000  0.98079000  0.88113000  1.0
  H  H19  1  0.71106000  0.48079000  0.61887000  1.0
  H  H20  1  0.71106000  0.01921000  0.11887000  1.0
  H  H21  1  0.28893000  0.51921000  0.38113000  1.0
  H  H22  1  0.26238000  0.99378000  0.76377000  1.0
  H  H23  1  0.73762000  0.49378000  0.73623000  1.0
  H  H24  1  0.73762000  0.00622000  0.23623000  1.0
  H  H25  1  0.26238000  0.50622000  0.26377000  1.0
  H  H26  1  0.91317000  0.31600000  0.77362000  1.0
  H  H27  1  0.08683000  0.81600000  0.72638000  1.0
  H  H28  1  0.08683000  0.68400000  0.22638000  1.0
  H  H29  1  0.91317000  0.18400000  0.27362000  1.0
  H  H30  1  0.93086000  0.32217000  0.89003000  1.0
  H  H31  1  0.06914000  0.82216000  0.60997000  1.0
  H  H32  1  0.06914000  0.67783000  0.10997000  1.0
  H  H33  1  0.93086000  0.17784000  0.39003000  1.0
  H  H34  1  0.57217000  0.58665000  0.13447000  1.0
  H  H35  1  0.42783000  0.08665000  0.36553000  1.0
  H  H36  1  0.42783000  0.41335000  0.86553000  1.0
  H  H37  1  0.57217000  0.91335000  0.63447000  1.0
  H  H38  1  0.56512000  0.58806000  0.05100000  1.0
  H  H39  1  0.43488000  0.08806000  0.44900000  1.0
  H  H40  1  0.43488000  0.41194000  0.94900000  1.0
  H  H41  1  0.56512000  0.91194000  0.55100000  1.0
  H  H42  1  0.51326000  0.30359000  0.11972000  1.0
  H  H43  1  0.48675000  0.80359000  0.38028000  1.0
  H  H44  1  0.48675000  0.69641000  0.88028000  1.0
  H  H45  1  0.51325000  0.19640000  0.61972000  1.0
  H  H46  1  0.58912000  0.33431000  0.04289000  1.0
  H  H47  1  0.41089000  0.83431000  0.45711000  1.0
  H  H48  1  0.41089000  0.66569000  0.95711000  1.0
  H  H49  1  0.58911000  0.16569000  0.54289000  1.0
  C  C50  1  0.29941000  0.02194000  0.21992000  1.0
  C  C51  1  0.70058000  0.52194000  0.28008000  1.0
  C  C52  1  0.70058000  0.97806000  0.78008000  1.0
  C  C53  1  0.29942000  0.47806000  0.71992000  1.0
  C  C54  1  0.39038000  0.89504000  0.21709000  1.0
  C  C55  1  0.60962000  0.39503000  0.28291000  1.0
  C  C56  1  0.60962000  0.10497000  0.78291000  1.0
  C  C57  1  0.39038000  0.60497000  0.71709000  1.0
  C  C58  1  0.36413000  0.89464000  0.10997000  1.0
  C  C59  1  0.63587000  0.39464000  0.39003000  1.0
  C  C60  1  0.63587000  0.10536000  0.89003000  1.0
  C  C61  1  0.36413000  0.60536000  0.60997000  1.0
  C  C62  1  0.27265000  0.02245000  0.11197000  1.0
  C  C63  1  0.72735000  0.52245000  0.38803000  1.0
  C  C64  1  0.72735000  0.97755000  0.88803000  1.0
  C  C65  1  0.27265000  0.47755000  0.61197000  1.0
  C  C66  1  0.20873000  0.09405000  0.05575000  1.0
  C  C67  1  0.79127000  0.59405000  0.44425000  1.0
  C  C68  1  0.79127000  0.90595000  0.94425000  1.0
  C  C69  1  0.20873000  0.40595000  0.55575000  1.0
  C  C70  1  0.14012000  0.15475000  0.96358000  1.0
  C  C71  1  0.85988000  0.65475000  0.53642000  1.0
  C  C72  1  0.85988000  0.84525000  0.03642000  1.0
  C  C73  1  0.14012000  0.34525000  0.46358000  1.0
  C  C74  1  0.11788000  0.15484000  0.89544000  1.0
  C  C75  1  0.88212000  0.65484000  0.60456000  1.0
  C  C76  1  0.88212000  0.84516000  0.10456000  1.0
  C  C77  1  0.11788000  0.34516000  0.39544000  1.0
  C  C78  1  0.20733000  0.05862000  0.85887000  1.0
  C  C79  1  0.79266000  0.55862000  0.64113000  1.0
  C  C80  1  0.79266000  0.94137000  0.14113000  1.0
  C  C81  1  0.20734000  0.44138000  0.35887000  1.0
  C  C82  1  0.19128000  0.06401000  0.79388000  1.0
  C  C83  1  0.80872000  0.56401000  0.70612000  1.0
  C  C84  1  0.80872000  0.93598000  0.20612000  1.0
  C  C85  1  0.19128000  0.43599000  0.29388000  1.0
  C  C86  1  0.99784000  0.24580000  0.79927000  1.0
  C  C87  1  0.00216000  0.74579000  0.70073000  1.0
  C  C88  1  0.00216000  0.75420000  0.20073000  1.0
  C  C89  1  0.99784000  0.25420000  0.29927000  1.0
  C  C90  1  0.00829000  0.24850000  0.86435000  1.0
  C  C91  1  0.99171000  0.74850000  0.63564000  1.0
  C  C92  1  0.99171000  0.75150000  0.13564000  1.0
  C  C93  1  0.00829000  0.25150000  0.36436000  1.0
  C  C94  1  0.33972000  0.52501000  0.09658000  1.0
  C  C95  1  0.66028000  0.02501000  0.40342000  1.0
  C  C96  1  0.66028000  0.47499000  0.90342000  1.0
  C  C97  1  0.33972000  0.97498000  0.59658000  1.0
  C  C98  1  0.52543000  0.52958000  0.09271000  1.0
  C  C99  1  0.47457000  0.02958000  0.40729000  1.0
  C  C100  1  0.47457000  0.47043000  0.90729000  1.0
  C  C101  1  0.52543000  0.97042000  0.59271000  1.0
  C  C102  1  0.59050000  0.37420000  0.09158000  1.0
  C  C103  1  0.40951000  0.87420000  0.40842000  1.0
  C  C104  1  0.40950000  0.62581000  0.90842000  1.0
  C  C105  1  0.59049000  0.12580000  0.59158000  1.0
  C  C106  1  0.76401000  0.36288000  0.11673000  1.0
  C  C107  1  0.23600000  0.86288000  0.38327000  1.0
  C  C108  1  0.23600000  0.63713000  0.88327000  1.0
  C  C109  1  0.76400000  0.13712000  0.61673000  1.0
  N  N110  1  0.24127000  0.08570000  0.16775000  1.0
  N  N111  1  0.75873000  0.58570000  0.33225000  1.0
  N  N112  1  0.75873000  0.91430000  0.83225000  1.0
  N  N113  1  0.24127000  0.41430000  0.66775000  1.0
  N  N114  1  0.42305000  0.83171000  0.16212000  1.0
  N  N115  1  0.57695000  0.33171000  0.33788000  1.0
  N  N116  1  0.57695000  0.16829000  0.83788000  1.0
  N  N117  1  0.42305000  0.66829000  0.66212000  1.0
  N  N118  1  0.21879000  0.04881000  0.99575000  1.0
  N  N119  1  0.78121000  0.54881000  0.50425000  1.0
  N  N120  1  0.78121000  0.95119000  0.00425000  1.0
  N  N121  1  0.21879000  0.45119000  0.49575000  1.0
  N  N122  1  0.13007000  0.22076000  0.06061000  1.0
  N  N123  1  0.86993000  0.72076000  0.43939000  1.0
  N  N124  1  0.86993000  0.77924000  0.93939000  1.0
  N  N125  1  0.13007000  0.27924000  0.56061000  1.0
  N  N126  1  0.08567000  0.26079000  0.00199000  1.0
  N  N127  1  0.91433000  0.76079000  0.49801000  1.0
  N  N128  1  0.91433000  0.73921000  0.99801000  1.0
  N  N129  1  0.08567000  0.23921000  0.50199000  1.0
  N  N130  1  0.08981000  0.15717000  0.76423000  1.0
  N  N131  1  0.91019000  0.65717000  0.73577000  1.0
  N  N132  1  0.91019000  0.84283000  0.23577000  1.0
  N  N133  1  0.08981000  0.34283000  0.26423000  1.0
  O  O134  1  0.28366000  0.48389000  0.14945000  1.0
  O  O135  1  0.71635000  0.98390000  0.35055000  1.0
  O  O136  1  0.71635000  0.51610000  0.85055000  1.0
  O  O137  1  0.28365000  0.01610000  0.64944000  1.0
  O  O138  1  0.25448000  0.55785000  0.04810000  1.0
  O  O139  1  0.74553000  0.05785000  0.45190000  1.0
  O  O140  1  0.74552000  0.44215000  0.95190000  1.0
  O  O141  1  0.25448000  0.94215000  0.54810000  1.0
  O  O142  1  0.79800000  0.26830000  0.15810000  1.0
  O  O143  1  0.20200000  0.76830000  0.34190000  1.0
  O  O144  1  0.20200000  0.73171000  0.84190000  1.0
  O  O145  1  0.79800000  0.23170000  0.65810000  1.0
  O  O146  1  0.87370000  0.45085000  0.09731000  1.0
  O  O147  1  0.12631000  0.95086000  0.40270000  1.0
  O  O148  1  0.12630000  0.54915000  0.90270000  1.0
  O  O149  1  0.87369000  0.04914000  0.59730000  1.0
