# generated using pymatgen
data_CdH9C9S(N2O3)2
_symmetry_space_group_name_H-M   'P 1'
_cell_length_a   8.64100000
_cell_length_b   9.29287000
_cell_length_c   9.67597000
_cell_angle_alpha   75.48540000
_cell_angle_beta   79.64080000
_cell_angle_gamma   78.94740000
_symmetry_Int_Tables_number   1
_chemical_formula_structural   CdH9C9S(N2O3)2
_chemical_formula_sum   'Cd2 H18 C18 S2 N8 O12'
_cell_volume   731.09339265
_cell_formula_units_Z   2
loop_
 _symmetry_equiv_pos_site_id
 _symmetry_equiv_pos_as_xyz
  1  'x, y, z'
loop_
 _atom_site_type_symbol
 _atom_site_label
 _atom_site_symmetry_multiplicity
 _atom_site_fract_x
 _atom_site_fract_y
 _atom_site_fract_z
 _atom_site_occupancy
  Cd  Cd0  1  0.05842000  0.11389000  0.13041000  1.0
  Cd  Cd1  1  0.94158000  0.88611000  0.86959000  1.0
  H  H2  1  0.14616000  0.94758000  0.44606000  1.0
  H  H3  1  0.85384000  0.05241000  0.55393000  1.0
  H  H4  1  0.30886000  0.96537000  0.62585000  1.0
  H  H5  1  0.69113000  0.03461000  0.37415000  1.0
  H  H6  1  0.43519000  0.20037000  0.58433000  1.0
  H  H7  1  0.56482000  0.79962000  0.41568000  1.0
  H  H8  1  0.38640000  0.40400000  0.36529000  1.0
  H  H9  1  0.61361000  0.59599000  0.63471000  1.0
  H  H10  1  0.30686000  0.47604000  0.13267000  1.0
  H  H11  1  0.69315000  0.52396000  0.86734000  1.0
  H  H12  1  0.10148000  0.48991000  0.19728000  1.0
  H  H13  1  0.89853000  0.51010000  0.80273000  1.0
  H  H14  1  0.32638000  0.32205000  0.80134000  1.0
  H  H15  1  0.67361000  0.67796000  0.19866000  1.0
  H  H16  1  0.43511000  0.38119000  0.91141000  1.0
  H  H17  1  0.56489000  0.61881000  0.08859000  1.0
  H  H18  1  0.66202000  0.18415000  0.85407000  1.0
  H  H19  1  0.33797000  0.81585000  0.14592000  1.0
  C  C20  1  0.19954000  0.04796000  0.43370000  1.0
  C  C21  1  0.80045000  0.95204000  0.56630000  1.0
  C  C22  1  0.29154000  0.05859000  0.53349000  1.0
  C  C23  1  0.70846000  0.94140000  0.46652000  1.0
  C  C24  1  0.35978000  0.18858000  0.51003000  1.0
  C  C25  1  0.64023000  0.81142000  0.48997000  1.0
  C  C26  1  0.33319000  0.30200000  0.38849000  1.0
  C  C27  1  0.66682000  0.69799000  0.61151000  1.0
  C  C28  1  0.23933000  0.28356000  0.29217000  1.0
  C  C29  1  0.76065000  0.71644000  0.70784000  1.0
  C  C30  1  0.20726000  0.41182000  0.16482000  1.0
  C  C31  1  0.79274000  0.58818000  0.83519000  1.0
  C  C32  1  0.35177000  0.30531000  0.91236000  1.0
  C  C33  1  0.64822000  0.69470000  0.08764000  1.0
  C  C34  1  0.42572000  0.14427000  0.96303000  1.0
  C  C35  1  0.57428000  0.85574000  0.03698000  1.0
  C  C36  1  0.58819000  0.10213000  0.91922000  1.0
  C  C37  1  0.41180000  0.89787000  0.08077000  1.0
  S  S38  1  0.16111000  0.37336000  0.00396000  1.0
  S  S39  1  0.83888000  0.62665000  0.99605000  1.0
  N  N40  1  0.17397000  0.15785000  0.31544000  1.0
  N  N41  1  0.82602000  0.84215000  0.68456000  1.0
  N  N42  1  0.33924000  0.03992000  0.04390000  1.0
  N  N43  1  0.66075000  0.96008000  0.95609000  1.0
  N  N44  1  0.98539000  0.80341000  0.23997000  1.0
  N  N45  1  0.01462000  0.19660000  0.76003000  1.0
  N  N46  1  0.73473000  0.28150000  0.13168000  1.0
  N  N47  1  0.26527000  0.71851000  0.86831000  1.0
  O  O48  1  0.93170000  0.68309000  0.26803000  1.0
  O  O49  1  0.06829000  0.31692000  0.73197000  1.0
  O  O50  1  0.91947000  0.91969000  0.15003000  1.0
  O  O51  1  0.08055000  0.08032000  0.84996000  1.0
  O  O52  1  0.10044000  0.82087000  0.29454000  1.0
  O  O53  1  0.89957000  0.17913000  0.70546000  1.0
  O  O54  1  0.79404000  0.24977000  0.24904000  1.0
  O  O55  1  0.20595000  0.75023000  0.75096000  1.0
  O  O56  1  0.59664000  0.35126000  0.12163000  1.0
  O  O57  1  0.40337000  0.64874000  0.87836000  1.0
  O  O58  1  0.82074000  0.23998000  0.02142000  1.0
  O  O59  1  0.17927000  0.76003000  0.97857000  1.0
