# generated using pymatgen
data_TlH4(C2N)3
_symmetry_space_group_name_H-M   'P 1'
_cell_length_a   4.02394000
_cell_length_b   12.21550000
_cell_length_c   13.49080000
_cell_angle_alpha   86.17560000
_cell_angle_beta   81.45430000
_cell_angle_gamma   89.97060000
_symmetry_Int_Tables_number   1
_chemical_formula_structural   TlH4(C2N)3
_chemical_formula_sum   'Tl4 H16 C24 N12'
_cell_volume   654.28039673
_cell_formula_units_Z   4
loop_
 _symmetry_equiv_pos_site_id
 _symmetry_equiv_pos_as_xyz
  1  'x, y, z'
loop_
 _atom_site_type_symbol
 _atom_site_label
 _atom_site_symmetry_multiplicity
 _atom_site_fract_x
 _atom_site_fract_y
 _atom_site_fract_z
 _atom_site_occupancy
  Tl  Tl0  1  0.93747000  0.37306000  0.07769000  1.0
  Tl  Tl1  1  0.01433000  0.12713000  0.92246000  1.0
  Tl  Tl2  1  0.06251000  0.62694000  0.92231000  1.0
  Tl  Tl3  1  0.98567000  0.87287000  0.07754000  1.0
  H  H4  1  0.73540000  0.44647000  0.34780000  1.0
  H  H5  1  0.08240000  0.05342000  0.65280000  1.0
  H  H6  1  0.26460000  0.55353000  0.65220000  1.0
  H  H7  1  0.91760000  0.94658000  0.34720000  1.0
  H  H8  1  0.80926000  0.57845000  0.47603000  1.0
  H  H9  1  0.28374000  0.92156000  0.52437000  1.0
  H  H10  1  0.19073000  0.42155000  0.52397000  1.0
  H  H11  1  0.71627000  0.07843000  0.47563000  1.0
  H  H12  1  0.67077000  0.77381000  0.45164000  1.0
  H  H13  1  0.12102000  0.72621000  0.54856000  1.0
  H  H14  1  0.32923000  0.22619000  0.54836000  1.0
  H  H15  1  0.87898000  0.27379000  0.45145000  1.0
  H  H16  1  0.43982000  0.84691000  0.29842000  1.0
  H  H17  1  0.73657000  0.65307000  0.70156000  1.0
  H  H18  1  0.56018000  0.15309000  0.70158000  1.0
  H  H19  1  0.26342000  0.34693000  0.29844000  1.0
  C  C20  1  0.54787000  0.57392000  0.24947000  1.0
  C  C21  1  0.79612000  0.92596000  0.75083000  1.0
  C  C22  1  0.45213000  0.42608000  0.75052000  1.0
  C  C23  1  0.20389000  0.07404000  0.24917000  1.0
  C  C24  1  0.67169000  0.53273000  0.33669000  1.0
  C  C25  1  0.00764000  0.96716000  0.66380000  1.0
  C  C26  1  0.32831000  0.46727000  0.66331000  1.0
  C  C27  1  0.99237000  0.03284000  0.33621000  1.0
  C  C28  1  0.71118000  0.60679000  0.40777000  1.0
  C  C29  1  0.11781000  0.89317000  0.59262000  1.0
  C  C30  1  0.28882000  0.39321000  0.59222000  1.0
  C  C31  1  0.88220000  0.10683000  0.40738000  1.0
  C  C32  1  0.62988000  0.71913000  0.39387000  1.0
  C  C33  1  0.02235000  0.78088000  0.60633000  1.0
  C  C34  1  0.37012000  0.28087000  0.60613000  1.0
  C  C35  1  0.97765000  0.21913000  0.39367000  1.0
  C  C36  1  0.50373000  0.76061000  0.30894000  1.0
  C  C37  1  0.81085000  0.73938000  0.69111000  1.0
  C  C38  1  0.49627000  0.23939000  0.69106000  1.0
  C  C39  1  0.18916000  0.26062000  0.30889000  1.0
  C  C40  1  0.30186000  0.18637000  0.23617000  1.0
  C  C41  1  0.53629000  0.31367000  0.76375000  1.0
  C  C42  1  0.69814000  0.81363000  0.76383000  1.0
  C  C43  1  0.46371000  0.68633000  0.23625000  1.0
  N  N44  1  0.48883000  0.52488000  0.16510000  1.0
  N  N45  1  0.65287000  0.97496000  0.83521000  1.0
  N  N46  1  0.51116000  0.47512000  0.83490000  1.0
  N  N47  1  0.34713000  0.02504000  0.16479000  1.0
  N  N48  1  0.62100000  0.39630000  0.89605000  1.0
  N  N49  1  0.51854000  0.10380000  0.10383000  1.0
  N  N50  1  0.37900000  0.60370000  0.10395000  1.0
  N  N51  1  0.48146000  0.89620000  0.89617000  1.0
  N  N52  1  0.49851000  0.20120000  0.14419000  1.0
  N  N53  1  0.64083000  0.29883000  0.85581000  1.0
  N  N54  1  0.50149000  0.79880000  0.85581000  1.0
  N  N55  1  0.35917000  0.70117000  0.14419000  1.0
