# generated using pymatgen
data_FeH12C22O5
_symmetry_space_group_name_H-M   'P 1'
_cell_length_a   13.53230000
_cell_length_b   15.85670000
_cell_length_c   30.54830000
_cell_angle_alpha   90.03990000
_cell_angle_beta   90.50630000
_cell_angle_gamma   91.71220000
_symmetry_Int_Tables_number   1
_chemical_formula_structural   FeH12C22O5
_chemical_formula_sum   'Fe8 H96 C176 O40'
_cell_volume   6551.79605474
_cell_formula_units_Z   8
loop_
 _symmetry_equiv_pos_site_id
 _symmetry_equiv_pos_as_xyz
  1  'x, y, z'
loop_
 _atom_site_type_symbol
 _atom_site_label
 _atom_site_symmetry_multiplicity
 _atom_site_fract_x
 _atom_site_fract_y
 _atom_site_fract_z
 _atom_site_occupancy
  Fe  Fe0  1  0.87138000  0.99817000  0.74896000  1.0
  Fe  Fe1  1  0.62864000  0.99358000  0.24884000  1.0
  Fe  Fe2  1  0.87980000  0.99360000  0.24856000  1.0
  Fe  Fe3  1  0.62260000  0.00025000  0.74925000  1.0
  Fe  Fe4  1  0.37165000  0.00151000  0.75088000  1.0
  Fe  Fe5  1  0.12824000  0.00166000  0.25209000  1.0
  Fe  Fe6  1  0.37716000  0.00312000  0.25065000  1.0
  Fe  Fe7  1  0.12044000  0.99917000  0.75064000  1.0
  H  H8  1  0.76162000  0.04829000  0.69522000  1.0
  H  H9  1  0.76517000  0.28315000  0.95588000  1.0
  H  H10  1  0.75186000  0.49835000  0.84559000  1.0
  H  H11  1  0.75872000  0.04027000  0.30402000  1.0
  H  H12  1  0.76477000  0.28239000  0.03611000  1.0
  H  H13  1  0.75410000  0.49581000  0.14739000  1.0
  H  H14  1  0.73946000  0.71110000  0.03717000  1.0
  H  H15  1  0.73820000  0.71164000  0.95686000  1.0
  H  H16  1  0.01721000  0.05532000  0.19960000  1.0
  H  H17  1  0.01403000  0.28417000  0.46103000  1.0
  H  H18  1  0.01260000  0.49791000  0.34968000  1.0
  H  H19  1  0.98078000  0.95199000  0.80431000  1.0
  H  H20  1  0.00561000  0.28449000  0.54107000  1.0
  H  H21  1  0.98024000  0.49909000  0.65118000  1.0
  H  H22  1  0.97750000  0.71295000  0.53979000  1.0
  H  H23  1  0.98686000  0.71269000  0.45970000  1.0
  H  H24  1  0.85190000  0.28962000  0.59342000  1.0
  H  H25  1  0.85486000  0.16098000  0.64007000  1.0
  H  H26  1  0.64145000  0.38396000  0.65254000  1.0
  H  H27  1  0.64283000  0.25380000  0.69882000  1.0
  H  H28  1  0.90795000  0.23604000  0.80839000  1.0
  H  H29  1  0.61671000  0.16434000  0.85241000  1.0
  H  H30  1  0.61174000  0.29626000  0.89740000  1.0
  H  H31  1  0.90159000  0.36996000  0.85147000  1.0
  H  H32  1  0.89434000  0.82554000  0.85065000  1.0
  H  H33  1  0.89488000  0.69706000  0.89766000  1.0
  H  H34  1  0.60121000  0.62880000  0.85218000  1.0
  H  H35  1  0.59965000  0.75959000  0.80653000  1.0
  H  H36  1  0.63884000  0.83694000  0.64509000  1.0
  H  H37  1  0.83977000  0.62614000  0.64754000  1.0
  H  H38  1  0.83673000  0.75839000  0.69186000  1.0
  H  H39  1  0.64556000  0.70696000  0.59853000  1.0
  H  H40  1  0.65972000  0.23957000  0.31012000  1.0
  H  H41  1  0.86609000  0.16613000  0.35652000  1.0
  H  H42  1  0.65398000  0.37214000  0.35457000  1.0
  H  H43  1  0.86425000  0.29682000  0.40201000  1.0
  H  H44  1  0.86845000  0.62104000  0.34823000  1.0
  H  H45  1  0.86873000  0.75107000  0.30202000  1.0
  H  H46  1  0.64029000  0.82622000  0.34905000  1.0
  H  H47  1  0.64747000  0.69844000  0.39723000  1.0
  H  H48  1  0.88877000  0.83116000  0.14005000  1.0
  H  H49  1  0.89034000  0.70319000  0.09196000  1.0
  H  H50  1  0.61014000  0.74691000  0.19316000  1.0
  H  H51  1  0.61406000  0.61615000  0.14721000  1.0
  H  H52  1  0.61933000  0.15990000  0.13743000  1.0
  H  H53  1  0.89819000  0.24396000  0.19258000  1.0
  H  H54  1  0.89373000  0.37488000  0.14713000  1.0
  H  H55  1  0.61639000  0.28863000  0.09039000  1.0
  H  H56  1  0.24779000  0.04651000  0.69452000  1.0
  H  H57  1  0.26293000  0.28626000  0.96504000  1.0
  H  H58  1  0.25109000  0.49717000  0.85255000  1.0
  H  H59  1  0.24108000  0.95065000  0.30415000  1.0
  H  H60  1  0.26182000  0.28861000  0.04525000  1.0
  H  H61  1  0.24300000  0.50612000  0.15431000  1.0
  H  H62  1  0.23735000  0.71731000  0.04178000  1.0
  H  H63  1  0.24022000  0.71497000  0.96158000  1.0
  H  H64  1  0.50723000  0.04350000  0.19245000  1.0
  H  H65  1  0.52093000  0.28527000  0.46132000  1.0
  H  H66  1  0.50488000  0.49541000  0.34862000  1.0
  H  H67  1  0.49589000  0.95798000  0.80787000  1.0
  H  H68  1  0.51925000  0.28801000  0.54160000  1.0
  H  H69  1  0.50014000  0.50617000  0.65015000  1.0
  H  H70  1  0.49731000  0.71685000  0.53755000  1.0
  H  H71  1  0.49767000  0.71399000  0.45720000  1.0
  H  H72  1  0.36593000  0.29812000  0.59393000  1.0
  H  H73  1  0.36537000  0.17055000  0.64196000  1.0
  H  H74  1  0.12550000  0.37888000  0.65252000  1.0
  H  H75  1  0.13039000  0.24775000  0.69772000  1.0
  H  H76  1  0.39190000  0.24332000  0.80930000  1.0
  H  H77  1  0.11019000  0.16503000  0.86142000  1.0
  H  H78  1  0.11128000  0.29345000  0.90920000  1.0
  H  H79  1  0.39070000  0.37464000  0.85478000  1.0
  H  H80  1  0.38574000  0.83213000  0.85790000  1.0
  H  H81  1  0.39029000  0.70439000  0.90555000  1.0
  H  H82  1  0.10714000  0.62065000  0.85374000  1.0
  H  H83  1  0.10133000  0.75071000  0.80760000  1.0
  H  H84  1  0.12473000  0.83142000  0.64440000  1.0
  H  H85  1  0.35382000  0.63129000  0.64142000  1.0
  H  H86  1  0.34626000  0.76356000  0.68617000  1.0
  H  H87  1  0.12590000  0.70150000  0.59794000  1.0
  H  H88  1  0.15705000  0.23550000  0.31129000  1.0
  H  H89  1  0.37224000  0.16328000  0.35659000  1.0
  H  H90  1  0.15393000  0.36837000  0.35510000  1.0
  H  H91  1  0.36794000  0.29363000  0.40301000  1.0
  H  H92  1  0.35416000  0.62211000  0.35452000  1.0
  H  H93  1  0.34582000  0.75225000  0.30827000  1.0
  H  H94  1  0.14680000  0.83207000  0.35932000  1.0
  H  H95  1  0.14459000  0.70476000  0.40708000  1.0
  H  H96  1  0.38301000  0.83894000  0.14588000  1.0
  H  H97  1  0.38656000  0.70753000  0.10056000  1.0
  H  H98  1  0.09383000  0.76640000  0.19197000  1.0
  H  H99  1  0.09864000  0.63300000  0.14855000  1.0
  H  H100  1  0.11098000  0.16875000  0.14456000  1.0
  H  H101  1  0.38568000  0.25496000  0.20321000  1.0
  H  H102  1  0.38334000  0.38522000  0.15720000  1.0
  H  H103  1  0.11060000  0.29641000  0.09709000  1.0
  C  C104  1  0.76369000  0.11240000  0.80245000  1.0
  C  C105  1  0.75959000  0.34225000  0.97379000  1.0
  C  C106  1  0.75153000  0.49722000  0.97315000  1.0
  C  C107  1  0.75352000  0.42071000  0.90321000  1.0
  C  C108  1  0.75371000  0.41922000  0.94958000  1.0
  C  C109  1  0.75177000  0.49802000  0.88133000  1.0
  C  C110  1  0.84314000  0.25012000  0.82772000  1.0
  C  C111  1  0.83930000  0.32464000  0.85174000  1.0
  C  C112  1  0.67649000  0.28308000  0.87779000  1.0
  C  C113  1  0.67901000  0.20952000  0.85306000  1.0
  C  C114  1  0.76208000  0.11679000  0.19565000  1.0
  C  C115  1  0.75926000  0.34183000  0.01848000  1.0
  C  C116  1  0.75180000  0.49683000  0.01995000  1.0
  C  C117  1  0.75301000  0.41893000  0.08948000  1.0
  C  C118  1  0.75329000  0.41831000  0.04308000  1.0
  C  C119  1  0.75338000  0.49602000  0.11165000  1.0
  C  C120  1  0.74672000  0.87329000  0.19706000  1.0
  C  C121  1  0.74458000  0.65194000  0.01926000  1.0
  C  C122  1  0.75289000  0.57344000  0.08984000  1.0
  C  C123  1  0.75093000  0.57499000  0.04347000  1.0
  C  C124  1  0.74892000  0.79660000  0.16901000  1.0
  C  C125  1  0.75195000  0.65152000  0.11638000  1.0
  C  C126  1  0.75917000  0.19402000  0.16767000  1.0
  C  C127  1  0.83655000  0.25469000  0.17027000  1.0
  C  C128  1  0.83375000  0.32748000  0.14494000  1.0
  C  C129  1  0.75500000  0.34032000  0.11561000  1.0
  C  C130  1  0.67818000  0.27879000  0.11281000  1.0
  C  C131  1  0.67961000  0.20698000  0.13898000  1.0
  C  C132  1  0.74547000  0.87588000  0.79678000  1.0
  C  C133  1  0.74384000  0.65225000  0.97455000  1.0
  C  C134  1  0.75010000  0.57497000  0.90365000  1.0
  C  C135  1  0.74951000  0.57567000  0.94998000  1.0
  C  C136  1  0.74688000  0.80031000  0.82577000  1.0
  C  C137  1  0.66406000  0.74500000  0.82649000  1.0
  C  C138  1  0.66531000  0.67221000  0.85191000  1.0
  C  C139  1  0.74828000  0.65409000  0.87779000  1.0
  C  C140  1  0.83018000  0.71076000  0.87763000  1.0
  C  C141  1  0.83002000  0.78259000  0.85149000  1.0
  C  C142  1  0.76279000  0.19221000  0.82826000  1.0
  C  C143  1  0.75648000  0.34168000  0.87736000  1.0
  C  C144  1  0.67140000  0.73614000  0.17112000  1.0
  C  C145  1  0.67382000  0.66375000  0.14550000  1.0
  C  C146  1  0.82897000  0.71286000  0.11418000  1.0
  C  C147  1  0.82832000  0.78418000  0.14075000  1.0
  C  C148  1  0.01218000  0.11347000  0.30466000  1.0
  C  C149  1  0.00639000  0.34353000  0.47852000  1.0
  C  C150  1  0.99866000  0.49848000  0.47702000  1.0
  C  C151  1  0.00692000  0.42082000  0.40747000  1.0
  C  C152  1  0.00290000  0.42010000  0.45384000  1.0
  C  C153  1  0.00891000  0.49802000  0.38537000  1.0
  C  C154  1  0.01173000  0.19265000  0.33128000  1.0
  C  C155  1  0.59607000  0.25242000  0.33042000  1.0
  C  C156  1  0.59257000  0.32596000  0.35513000  1.0
  C  C157  1  0.51079000  0.34117000  0.38171000  1.0
  C  C158  1  0.92838000  0.28353000  0.38202000  1.0
  C  C159  1  0.92916000  0.21048000  0.35675000  1.0
  C  C160  1  0.99619000  0.12050000  0.70050000  1.0
  C  C161  1  0.00161000  0.34372000  0.52314000  1.0
  C  C162  1  0.99315000  0.49867000  0.52380000  1.0
  C  C163  1  0.98698000  0.42165000  0.59359000  1.0
  C  C164  1  0.99252000  0.42045000  0.54728000  1.0
  C  C165  1  0.98337000  0.49900000  0.61547000  1.0
  C  C166  1  0.98855000  0.34311000  0.61988000  1.0
  C  C167  1  0.98110000  0.88242000  0.69701000  1.0
  C  C168  1  0.98537000  0.65362000  0.52230000  1.0
  C  C169  1  0.98469000  0.57625000  0.59339000  1.0
  C  C170  1  0.98876000  0.57705000  0.54700000  1.0
  C  C171  1  0.99306000  0.19637000  0.67171000  1.0
  C  C172  1  0.58222000  0.26462000  0.67598000  1.0
  C  C173  1  0.58117000  0.33686000  0.65019000  1.0
  C  C174  1  0.91296000  0.28057000  0.61634000  1.0
  C  C175  1  0.91448000  0.20855000  0.64236000  1.0
  C  C176  1  0.00703000  0.87466000  0.29843000  1.0
  C  C177  1  0.99064000  0.65348000  0.47766000  1.0
  C  C178  1  0.00593000  0.57548000  0.40723000  1.0
  C  C179  1  0.99976000  0.57672000  0.45353000  1.0
  C  C180  1  0.49239000  0.79668000  0.32635000  1.0
  C  C181  1  0.92926000  0.73970000  0.32482000  1.0
  C  C182  1  0.92938000  0.66749000  0.35067000  1.0
  C  C183  1  0.00653000  0.65393000  0.38073000  1.0
  C  C184  1  0.58153000  0.71033000  0.37764000  1.0
  C  C185  1  0.57780000  0.78144000  0.35111000  1.0
  C  C186  1  0.49196000  0.80761000  0.66795000  1.0
  C  C187  1  0.90013000  0.74516000  0.67145000  1.0
  C  C188  1  0.90203000  0.67146000  0.64661000  1.0
  C  C189  1  0.98263000  0.65518000  0.61945000  1.0
  C  C190  1  0.57994000  0.71945000  0.61773000  1.0
  C  C191  1  0.57648000  0.79188000  0.64339000  1.0
  C  C192  1  0.25273000  0.11960000  0.80463000  1.0
  C  C193  1  0.25701000  0.34603000  0.98232000  1.0
  C  C194  1  0.25033000  0.50105000  0.98004000  1.0
  C  C195  1  0.25065000  0.42167000  0.91090000  1.0
  C  C196  1  0.25139000  0.42203000  0.95729000  1.0
  C  C197  1  0.25102000  0.49831000  0.88829000  1.0
  C  C198  1  0.33044000  0.25555000  0.83100000  1.0
  C  C199  1  0.32954000  0.32834000  0.85640000  1.0
  C  C200  1  0.17270000  0.28249000  0.88720000  1.0
  C  C201  1  0.17190000  0.21081000  0.86079000  1.0
  C  C202  1  0.25149000  0.12776000  0.20513000  1.0
  C  C203  1  0.25637000  0.34737000  0.02702000  1.0
  C  C204  1  0.24903000  0.50244000  0.02686000  1.0
  C  C205  1  0.24656000  0.42725000  0.09716000  1.0
  C  C206  1  0.24945000  0.42479000  0.05080000  1.0
  C  C207  1  0.24485000  0.50517000  0.11860000  1.0
  C  C208  1  0.23752000  0.89033000  0.19728000  1.0
  C  C209  1  0.24274000  0.65745000  0.02454000  1.0
  C  C210  1  0.24526000  0.58180000  0.09602000  1.0
  C  C211  1  0.24687000  0.58142000  0.04962000  1.0
  C  C212  1  0.23795000  0.81087000  0.17109000  1.0
  C  C213  1  0.24267000  0.66148000  0.12146000  1.0
  C  C214  1  0.24872000  0.20398000  0.17665000  1.0
  C  C215  1  0.32550000  0.26508000  0.18004000  1.0
  C  C216  1  0.32385000  0.33750000  0.15438000  1.0
  C  C217  1  0.24708000  0.34943000  0.12395000  1.0
  C  C218  1  0.17087000  0.28745000  0.12043000  1.0
  C  C219  1  0.17090000  0.21604000  0.14689000  1.0
  C  C220  1  0.23936000  0.87627000  0.80203000  1.0
  C  C221  1  0.24435000  0.65614000  0.97985000  1.0
  C  C222  1  0.25105000  0.57621000  0.90970000  1.0
  C  C223  1  0.24998000  0.57867000  0.95608000  1.0
  C  C224  1  0.24292000  0.79941000  0.83013000  1.0
  C  C225  1  0.16443000  0.73967000  0.82903000  1.0
  C  C226  1  0.16801000  0.66735000  0.85473000  1.0
  C  C227  1  0.24880000  0.65402000  0.88287000  1.0
  C  C228  1  0.32690000  0.71451000  0.88406000  1.0
  C  C229  1  0.32455000  0.78586000  0.85758000  1.0
  C  C230  1  0.25122000  0.19659000  0.83278000  1.0
  C  C231  1  0.25108000  0.34259000  0.88507000  1.0
  C  C232  1  0.15783000  0.75271000  0.17203000  1.0
  C  C233  1  0.16084000  0.67840000  0.14778000  1.0
  C  C234  1  0.32235000  0.72042000  0.12058000  1.0
  C  C235  1  0.32065000  0.79383000  0.14554000  1.0
  C  C236  1  0.51924000  0.11589000  0.30388000  1.0
  C  C237  1  0.51502000  0.34510000  0.47855000  1.0
  C  C238  1  0.50753000  0.50009000  0.47606000  1.0
  C  C239  1  0.50801000  0.42050000  0.40715000  1.0
  C  C240  1  0.50910000  0.42100000  0.45347000  1.0
  C  C241  1  0.50599000  0.49676000  0.38435000  1.0
  C  C242  1  0.51652000  0.19377000  0.33113000  1.0
  C  C243  1  0.09286000  0.24985000  0.33097000  1.0
  C  C244  1  0.09083000  0.32388000  0.35549000  1.0
  C  C245  1  0.00902000  0.34157000  0.38164000  1.0
  C  C246  1  0.43182000  0.28163000  0.38261000  1.0
  C  C247  1  0.43397000  0.20905000  0.35706000  1.0
  C  C248  1  0.50585000  0.12752000  0.70097000  1.0
  C  C249  1  0.51404000  0.34663000  0.52324000  1.0
  C  C250  1  0.50693000  0.50172000  0.52281000  1.0
  C  C251  1  0.50406000  0.42694000  0.59316000  1.0
  C  C252  1  0.50721000  0.42421000  0.54685000  1.0
  C  C253  1  0.50265000  0.50491000  0.61445000  1.0
  C  C254  1  0.50388000  0.34937000  0.62008000  1.0
  C  C255  1  0.48756000  0.88468000  0.69570000  1.0
  C  C256  1  0.50148000  0.65689000  0.52030000  1.0
  C  C257  1  0.50380000  0.58130000  0.59170000  1.0
  C  C258  1  0.50536000  0.58084000  0.54538000  1.0
  C  C259  1  0.50431000  0.20450000  0.67304000  1.0
  C  C260  1  0.06947000  0.25785000  0.67494000  1.0
  C  C261  1  0.06637000  0.33082000  0.64973000  1.0
  C  C262  1  0.42648000  0.28844000  0.61703000  1.0
  C  C263  1  0.42595000  0.21731000  0.64369000  1.0
  C  C264  1  0.48809000  0.87371000  0.29867000  1.0
  C  C265  1  0.50166000  0.65530000  0.47561000  1.0
  C  C266  1  0.50524000  0.57461000  0.40570000  1.0
  C  C267  1  0.50600000  0.57752000  0.45201000  1.0
  C  C268  1  0.00795000  0.79918000  0.32760000  1.0
  C  C269  1  0.41161000  0.73939000  0.32771000  1.0
  C  C270  1  0.41657000  0.66723000  0.35341000  1.0
  C  C271  1  0.50116000  0.65221000  0.37889000  1.0
  C  C272  1  0.08419000  0.71466000  0.38392000  1.0
  C  C273  1  0.08561000  0.78593000  0.35727000  1.0
  C  C274  1  0.98041000  0.80316000  0.67048000  1.0
  C  C275  1  0.41144000  0.74993000  0.66700000  1.0
  C  C276  1  0.41602000  0.67671000  0.64213000  1.0
  C  C277  1  0.50004000  0.66071000  0.61709000  1.0
  C  C278  1  0.06253000  0.71397000  0.61857000  1.0
  C  C279  1  0.06215000  0.78653000  0.64422000  1.0
  O  O280  1  0.75147000  0.00722000  0.71866000  1.0
  O  O281  1  0.84553000  0.09561000  0.78384000  1.0
  O  O282  1  0.75580000  0.99602000  0.28188000  1.0
  O  O283  1  0.68235000  0.07237000  0.19937000  1.0
  O  O284  1  0.82524000  0.91968000  0.19970000  1.0
  O  O285  1  0.84477000  0.10100000  0.21380000  1.0
  O  O286  1  0.66482000  0.89098000  0.77710000  1.0
  O  O287  1  0.68477000  0.06725000  0.80068000  1.0
  O  O288  1  0.82635000  0.91963000  0.79378000  1.0
  O  O289  1  0.66618000  0.88774000  0.21663000  1.0
  O  O290  1  0.00911000  0.00930000  0.22061000  1.0
  O  O291  1  0.60109000  0.09981000  0.28568000  1.0
  O  O292  1  0.99079000  0.99065000  0.77981000  1.0
  O  O293  1  0.91568000  0.07637000  0.70384000  1.0
  O  O294  1  0.56504000  0.93263000  0.69809000  1.0
  O  O295  1  0.58759000  0.11122000  0.71982000  1.0
  O  O296  1  0.92775000  0.88803000  0.27742000  1.0
  O  O297  1  0.93202000  0.07041000  0.30039000  1.0
  O  O298  1  0.56749000  0.91820000  0.29493000  1.0
  O  O299  1  0.89811000  0.90132000  0.71408000  1.0
  O  O300  1  0.24500000  0.00428000  0.71760000  1.0
  O  O301  1  0.33447000  0.10485000  0.78609000  1.0
  O  O302  1  0.24862000  0.99509000  0.28221000  1.0
  O  O303  1  0.17094000  0.08376000  0.20846000  1.0
  O  O304  1  0.31602000  0.93605000  0.19896000  1.0
  O  O305  1  0.33307000  0.11227000  0.22399000  1.0
  O  O306  1  0.15720000  0.89177000  0.78338000  1.0
  O  O307  1  0.17352000  0.07425000  0.80111000  1.0
  O  O308  1  0.31845000  0.92156000  0.79851000  1.0
  O  O309  1  0.15602000  0.90626000  0.21641000  1.0
  O  O310  1  0.50203000  0.00445000  0.21692000  1.0
  O  O311  1  0.09595000  0.09568000  0.28810000  1.0
  O  O312  1  0.49884000  0.99689000  0.78330000  1.0
  O  O313  1  0.42616000  0.08288000  0.70410000  1.0
  O  O314  1  0.06166000  0.92490000  0.70052000  1.0
  O  O315  1  0.07736000  0.10563000  0.71978000  1.0
  O  O316  1  0.40541000  0.89077000  0.28082000  1.0
  O  O317  1  0.43977000  0.07082000  0.30071000  1.0
  O  O318  1  0.08673000  0.92038000  0.29656000  1.0
  O  O319  1  0.40655000  0.89744000  0.71515000  1.0
