# generated using pymatgen
data_SrH7(C2O3)2
_symmetry_space_group_name_H-M   'P 1'
_cell_length_a   7.89662000
_cell_length_b   8.74887000
_cell_length_c   10.06140000
_cell_angle_alpha   96.20100000
_cell_angle_beta   90.00000000
_cell_angle_gamma   89.99990000
_symmetry_Int_Tables_number   1
_chemical_formula_structural   SrH7(C2O3)2
_chemical_formula_sum   'Sr4 H28 C16 O24'
_cell_volume   691.03991359
_cell_formula_units_Z   4
loop_
 _symmetry_equiv_pos_site_id
 _symmetry_equiv_pos_as_xyz
  1  'x, y, z'
loop_
 _atom_site_type_symbol
 _atom_site_label
 _atom_site_symmetry_multiplicity
 _atom_site_fract_x
 _atom_site_fract_y
 _atom_site_fract_z
 _atom_site_occupancy
  Sr  Sr0  1  0.45720000  0.78006000  0.39184000  1.0
  Sr  Sr1  1  0.95721000  0.71994000  0.10816000  1.0
  Sr  Sr2  1  0.54280000  0.21994000  0.60816000  1.0
  Sr  Sr3  1  0.04280000  0.28006000  0.89184000  1.0
  H  H4  1  0.46047000  0.10108000  0.27435000  1.0
  H  H5  1  0.96047000  0.39892000  0.22565000  1.0
  H  H6  1  0.53953000  0.89892000  0.72565000  1.0
  H  H7  1  0.03953000  0.60108000  0.77435000  1.0
  H  H8  1  0.33125000  0.98662000  0.19420000  1.0
  H  H9  1  0.83126000  0.51338000  0.30580000  1.0
  H  H10  1  0.66875000  0.01338000  0.80580000  1.0
  H  H11  1  0.16875000  0.48662000  0.69420000  1.0
  H  H12  1  0.26521000  0.53028000  0.50489000  1.0
  H  H13  1  0.76521000  0.96972000  0.99511000  1.0
  H  H14  1  0.73479000  0.46972000  0.49511000  1.0
  H  H15  1  0.23479000  0.03028000  0.00489000  1.0
  H  H16  1  0.12141000  0.55027000  0.39201000  1.0
  H  H17  1  0.62141000  0.94973000  0.10799000  1.0
  H  H18  1  0.87859000  0.44973000  0.60799000  1.0
  H  H19  1  0.37859000  0.05027000  0.89201000  1.0
  H  H20  1  0.37709000  0.69489000  0.89596000  1.0
  H  H21  1  0.87709000  0.80511000  0.60404000  1.0
  H  H22  1  0.62292000  0.30511000  0.10404000  1.0
  H  H23  1  0.12291000  0.19489000  0.39596000  1.0
  H  H24  1  0.59722000  0.71652000  0.88435000  1.0
  H  H25  1  0.09722000  0.78348000  0.61565000  1.0
  H  H26  1  0.40278000  0.28348000  0.11565000  1.0
  H  H27  1  0.90278000  0.21652000  0.38435000  1.0
  H  H28  1  0.42816000  0.39985000  0.87916000  1.0
  H  H29  1  0.92816000  0.10015000  0.62084000  1.0
  H  H30  1  0.57184000  0.60015000  0.12085000  1.0
  H  H31  1  0.07184000  0.89985000  0.37916000  1.0
  C  C32  1  0.46879000  0.61486000  0.70592000  1.0
  C  C33  1  0.96879000  0.88514000  0.79408000  1.0
  C  C34  1  0.53121000  0.38514000  0.29408000  1.0
  C  C35  1  0.03121000  0.11486000  0.20592000  1.0
  C  C36  1  0.49339000  0.63588000  0.85710000  1.0
  C  C37  1  0.99338000  0.86412000  0.64290000  1.0
  C  C38  1  0.50662000  0.36412000  0.14290000  1.0
  C  C39  1  0.00661000  0.13588000  0.35710000  1.0
  C  C40  1  0.51674000  0.48745000  0.92409000  1.0
  C  C41  1  0.01674000  0.01254000  0.57591000  1.0
  C  C42  1  0.48326000  0.51255000  0.07592000  1.0
  C  C43  1  0.98326000  0.98745000  0.42408000  1.0
  C  C44  1  0.69569000  0.42603000  0.90181000  1.0
  C  C45  1  0.19569000  0.07397000  0.59819000  1.0
  C  C46  1  0.30431000  0.57397000  0.09819000  1.0
  C  C47  1  0.80431000  0.92603000  0.40181000  1.0
  O  O48  1  0.51132000  0.72510000  0.64013000  1.0
  O  O49  1  0.01132000  0.77490000  0.85987000  1.0
  O  O50  1  0.48869000  0.27490000  0.35987000  1.0
  O  O51  1  0.98868000  0.22510000  0.14013000  1.0
  O  O52  1  0.44905000  0.99442000  0.22694000  1.0
  O  O53  1  0.94905000  0.50558000  0.27306000  1.0
  O  O54  1  0.55095000  0.00558000  0.77306000  1.0
  O  O55  1  0.05095000  0.49442000  0.72694000  1.0
  O  O56  1  0.39826000  0.49112000  0.65285000  1.0
  O  O57  1  0.89826000  0.00888000  0.84715000  1.0
  O  O58  1  0.60174000  0.50888000  0.34716000  1.0
  O  O59  1  0.10174000  0.99112000  0.15285000  1.0
  O  O60  1  0.21735000  0.59935000  0.44361000  1.0
  O  O61  1  0.71735000  0.90065000  0.05639000  1.0
  O  O62  1  0.78265000  0.40065000  0.55639000  1.0
  O  O63  1  0.28266000  0.09935000  0.94361000  1.0
  O  O64  1  0.71976000  0.30542000  0.82109000  1.0
  O  O65  1  0.21975000  0.19458000  0.67890000  1.0
  O  O66  1  0.28024000  0.69458000  0.17891000  1.0
  O  O67  1  0.78024000  0.80542000  0.32109000  1.0
  O  O68  1  0.81580000  0.49532000  0.96790000  1.0
  O  O69  1  0.31580000  0.00468000  0.53210000  1.0
  O  O70  1  0.18420000  0.50468000  0.03210000  1.0
  O  O71  1  0.68420000  0.99532000  0.46790000  1.0
