# generated using pymatgen
data_Zr3H26C24(N3O4)4
_symmetry_space_group_name_H-M   'P 1'
_cell_length_a   14.87510000
_cell_length_b   14.87510000
_cell_length_c   14.87510000
_cell_angle_alpha   60.00000000
_cell_angle_beta   60.00000000
_cell_angle_gamma   60.00000000
_symmetry_Int_Tables_number   1
_chemical_formula_structural   Zr3H26C24(N3O4)4
_chemical_formula_sum   'Zr6 H52 C48 N24 O32'
_cell_volume   2327.36599307
_cell_formula_units_Z   2
loop_
 _symmetry_equiv_pos_site_id
 _symmetry_equiv_pos_as_xyz
  1  'x, y, z'
loop_
 _atom_site_type_symbol
 _atom_site_label
 _atom_site_symmetry_multiplicity
 _atom_site_fract_x
 _atom_site_fract_y
 _atom_site_fract_z
 _atom_site_occupancy
  Zr  Zr0  1  0.88181000  0.11819000  0.88181000  1.0
  Zr  Zr1  1  0.11819000  0.88181000  0.11819000  1.0
  Zr  Zr2  1  0.11819000  0.11818000  0.88182000  1.0
  Zr  Zr3  1  0.88182000  0.88181000  0.11818000  1.0
  Zr  Zr4  1  0.11819000  0.88181000  0.88181000  1.0
  Zr  Zr5  1  0.88181000  0.11819000  0.11819000  1.0
  H  H6  1  0.09340000  0.09340000  0.71980000  1.0
  H  H7  1  0.09340000  0.71980000  0.09340000  1.0
  H  H8  1  0.09340000  0.09340000  0.09340000  1.0
  H  H9  1  0.71980000  0.09340000  0.09340000  1.0
  H  H10  1  0.14611000  0.81441000  0.36763000  1.0
  H  H11  1  0.17708000  0.75424000  0.48483000  1.0
  H  H12  1  0.81441000  0.14611000  0.67185000  1.0
  H  H13  1  0.75423000  0.17709000  0.58386000  1.0
  H  H14  1  0.17770000  0.85239000  0.64007000  1.0
  H  H15  1  0.24301000  0.82445000  0.52065000  1.0
  H  H16  1  0.85239000  0.17770000  0.32984000  1.0
  H  H17  1  0.82445000  0.24302000  0.41189000  1.0
  H  H18  1  0.36762000  0.67185000  0.14611000  1.0
  H  H19  1  0.48482000  0.58385000  0.17709000  1.0
  H  H20  1  0.67185000  0.36762000  0.81442000  1.0
  H  H21  1  0.58385000  0.48482000  0.75424000  1.0
  H  H22  1  0.64007000  0.32984000  0.17770000  1.0
  H  H23  1  0.52064000  0.41189000  0.24302000  1.0
  H  H24  1  0.32984000  0.64007000  0.85239000  1.0
  H  H25  1  0.41189000  0.52064000  0.82445000  1.0
  H  H26  1  0.81441000  0.36763000  0.14611000  1.0
  H  H27  1  0.75424000  0.48482000  0.17709000  1.0
  H  H28  1  0.14611000  0.67185000  0.81441000  1.0
  H  H29  1  0.17709000  0.58385000  0.75424000  1.0
  H  H30  1  0.85240000  0.64007000  0.17769000  1.0
  H  H31  1  0.82446000  0.52064000  0.24301000  1.0
  H  H32  1  0.17770000  0.32983000  0.85240000  1.0
  H  H33  1  0.24301000  0.41189000  0.82445000  1.0
  H  H34  1  0.36763000  0.81441000  0.67185000  1.0
  H  H35  1  0.48482000  0.75424000  0.58385000  1.0
  H  H36  1  0.67185000  0.14611000  0.36762000  1.0
  H  H37  1  0.58385000  0.17709000  0.48482000  1.0
  H  H38  1  0.64008000  0.85239000  0.32984000  1.0
  H  H39  1  0.52065000  0.82445000  0.41188000  1.0
  H  H40  1  0.32984000  0.17769000  0.64008000  1.0
  H  H41  1  0.41189000  0.24301000  0.52065000  1.0
  H  H42  1  0.81442000  0.67185000  0.36762000  1.0
  H  H43  1  0.75424000  0.58385000  0.48482000  1.0
  H  H44  1  0.14611000  0.36762000  0.67185000  1.0
  H  H45  1  0.17709000  0.48482000  0.58385000  1.0
  H  H46  1  0.85239000  0.32984000  0.64007000  1.0
  H  H47  1  0.82445000  0.41189000  0.52064000  1.0
  H  H48  1  0.17770000  0.64007000  0.32984000  1.0
  H  H49  1  0.24302000  0.52064000  0.41189000  1.0
  H  H50  1  0.32984000  0.85239000  0.17770000  1.0
  H  H51  1  0.41189000  0.82445000  0.24302000  1.0
  H  H52  1  0.64008000  0.17769000  0.85239000  1.0
  H  H53  1  0.52065000  0.24301000  0.82445000  1.0
  H  H54  1  0.67186000  0.81441000  0.14610000  1.0
  H  H55  1  0.58386000  0.75423000  0.17709000  1.0
  H  H56  1  0.36762000  0.14611000  0.81442000  1.0
  H  H57  1  0.48482000  0.17709000  0.75424000  1.0
  C  C58  1  0.99605000  0.99839000  0.69827000  1.0
  C  C59  1  0.30729000  0.69826000  0.99840000  1.0
  C  C60  1  0.99839000  0.99605000  0.30730000  1.0
  C  C61  1  0.69826000  0.30729000  0.99606000  1.0
  C  C62  1  0.99840000  0.30729000  0.69826000  1.0
  C  C63  1  0.69826000  0.99605000  0.99840000  1.0
  C  C64  1  0.99605000  0.69826000  0.30730000  1.0
  C  C65  1  0.30729000  0.99839000  0.99606000  1.0
  C  C66  1  0.30729000  0.99605000  0.69827000  1.0
  C  C67  1  0.99605000  0.30729000  0.99840000  1.0
  C  C68  1  0.69826000  0.99839000  0.30730000  1.0
  C  C69  1  0.99839000  0.69826000  0.99606000  1.0
  C  C70  1  0.99834000  0.99695000  0.40596000  1.0
  C  C71  1  0.99695000  0.99833000  0.59875000  1.0
  C  C72  1  0.07875000  0.91302000  0.45728000  1.0
  C  C73  1  0.91302000  0.07875000  0.55096000  1.0
  C  C74  1  0.08244000  0.91816000  0.54770000  1.0
  C  C75  1  0.91815000  0.08245000  0.45170000  1.0
  C  C76  1  0.40597000  0.59874000  0.99834000  1.0
  C  C77  1  0.59875000  0.40596000  0.99695000  1.0
  C  C78  1  0.45727000  0.55095000  0.07876000  1.0
  C  C79  1  0.55095000  0.45727000  0.91303000  1.0
  C  C80  1  0.54770000  0.45169000  0.08245000  1.0
  C  C81  1  0.45170000  0.54769000  0.91816000  1.0
  C  C82  1  0.99696000  0.40596000  0.99833000  1.0
  C  C83  1  0.99834000  0.59874000  0.99696000  1.0
  C  C84  1  0.91302000  0.45727000  0.07876000  1.0
  C  C85  1  0.07875000  0.55095000  0.91303000  1.0
  C  C86  1  0.91816000  0.54770000  0.08245000  1.0
  C  C87  1  0.08244000  0.45170000  0.91816000  1.0
  C  C88  1  0.40597000  0.99695000  0.59874000  1.0
  C  C89  1  0.59874000  0.99834000  0.40597000  1.0
  C  C90  1  0.45728000  0.91302000  0.55095000  1.0
  C  C91  1  0.55095000  0.07875000  0.45728000  1.0
  C  C92  1  0.54770000  0.91816000  0.45169000  1.0
  C  C93  1  0.45170000  0.08244000  0.54770000  1.0
  C  C94  1  0.99696000  0.59874000  0.40596000  1.0
  C  C95  1  0.99834000  0.40596000  0.59875000  1.0
  C  C96  1  0.91302000  0.55095000  0.45728000  1.0
  C  C97  1  0.07875000  0.45727000  0.55096000  1.0
  C  C98  1  0.91815000  0.45170000  0.54770000  1.0
  C  C99  1  0.08244000  0.54770000  0.45170000  1.0
  C  C100  1  0.40597000  0.99833000  0.99695000  1.0
  C  C101  1  0.59875000  0.99695000  0.99833000  1.0
  C  C102  1  0.45170000  0.91815000  0.08245000  1.0
  C  C103  1  0.54770000  0.08244000  0.91816000  1.0
  C  C104  1  0.55095000  0.91302000  0.07876000  1.0
  C  C105  1  0.45727000  0.07875000  0.91303000  1.0
  N  N106  1  0.16073000  0.82475000  0.42111000  1.0
  N  N107  1  0.82475000  0.16073000  0.59341000  1.0
  N  N108  1  0.17118000  0.83779000  0.58408000  1.0
  N  N109  1  0.83780000  0.17117000  0.40695000  1.0
  N  N110  1  0.42110000  0.59341000  0.16074000  1.0
  N  N111  1  0.59341000  0.42110000  0.82475000  1.0
  N  N112  1  0.58408000  0.40695000  0.17117000  1.0
  N  N113  1  0.40694000  0.58408000  0.83781000  1.0
  N  N114  1  0.82475000  0.42111000  0.16073000  1.0
  N  N115  1  0.16073000  0.59341000  0.82475000  1.0
  N  N116  1  0.83780000  0.58408000  0.17117000  1.0
  N  N117  1  0.17117000  0.40695000  0.83780000  1.0
  N  N118  1  0.42111000  0.82475000  0.59341000  1.0
  N  N119  1  0.59341000  0.16073000  0.42111000  1.0
  N  N120  1  0.58408000  0.83780000  0.40695000  1.0
  N  N121  1  0.40695000  0.17117000  0.58408000  1.0
  N  N122  1  0.82475000  0.59341000  0.42111000  1.0
  N  N123  1  0.16073000  0.42111000  0.59341000  1.0
  N  N124  1  0.83779000  0.40695000  0.58409000  1.0
  N  N125  1  0.17117000  0.58408000  0.40695000  1.0
  N  N126  1  0.40695000  0.83779000  0.17118000  1.0
  N  N127  1  0.58408000  0.17117000  0.83780000  1.0
  N  N128  1  0.59341000  0.82475000  0.16073000  1.0
  N  N129  1  0.42111000  0.16073000  0.82475000  1.0
  O  O130  1  0.92048000  0.07448000  0.74028000  1.0
  O  O131  1  0.26476000  0.74028000  0.07448000  1.0
  O  O132  1  0.07448000  0.92048000  0.26476000  1.0
  O  O133  1  0.74028000  0.26476000  0.92048000  1.0
  O  O134  1  0.07447000  0.26476000  0.74029000  1.0
  O  O135  1  0.74028000  0.92048000  0.07448000  1.0
  O  O136  1  0.92048000  0.74028000  0.26476000  1.0
  O  O137  1  0.26475000  0.07448000  0.92049000  1.0
  O  O138  1  0.26476000  0.92048000  0.74028000  1.0
  O  O139  1  0.92048000  0.26476000  0.07448000  1.0
  O  O140  1  0.74028000  0.07448000  0.26476000  1.0
  O  O141  1  0.07448000  0.74028000  0.92048000  1.0
  O  O142  1  0.07166000  0.26452000  0.92294000  1.0
  O  O143  1  0.74088000  0.92293000  0.26453000  1.0
  O  O144  1  0.92294000  0.74088000  0.07166000  1.0
  O  O145  1  0.26452000  0.07166000  0.74089000  1.0
  O  O146  1  0.92293000  0.26452000  0.74089000  1.0
  O  O147  1  0.26452000  0.92293000  0.07166000  1.0
  O  O148  1  0.07167000  0.74088000  0.26452000  1.0
  O  O149  1  0.74088000  0.07166000  0.92294000  1.0
  O  O150  1  0.74089000  0.26452000  0.07166000  1.0
  O  O151  1  0.07166000  0.92293000  0.74089000  1.0
  O  O152  1  0.26452000  0.74088000  0.92294000  1.0
  O  O153  1  0.92293000  0.07166000  0.26453000  1.0
  O  O154  1  0.79964000  0.06679000  0.06678000  1.0
  O  O155  1  0.06679000  0.06678000  0.06679000  1.0
  O  O156  1  0.06679000  0.79964000  0.06678000  1.0
  O  O157  1  0.06679000  0.06678000  0.79964000  1.0
  O  O158  1  0.14762000  0.95079000  0.95080000  1.0
  O  O159  1  0.95080000  0.95079000  0.95079000  1.0
  O  O160  1  0.95080000  0.95079000  0.14762000  1.0
  O  O161  1  0.95079000  0.14762000  0.95080000  1.0
