# generated using pymatgen
data_ZnH5C7ClO4
_symmetry_space_group_name_H-M   'P 1'
_cell_length_a   18.53670000
_cell_length_b   18.74580000
_cell_length_c   18.87980000
_cell_angle_alpha   108.56800000
_cell_angle_beta   108.36400000
_cell_angle_gamma   108.49700000
_symmetry_Int_Tables_number   1
_chemical_formula_structural   ZnH5C7ClO4
_chemical_formula_sum   'Zn6 H30 C42 Cl6 O24'
_cell_volume   5227.97646416
_cell_formula_units_Z   6
loop_
 _symmetry_equiv_pos_site_id
 _symmetry_equiv_pos_as_xyz
  1  'x, y, z'
loop_
 _atom_site_type_symbol
 _atom_site_label
 _atom_site_symmetry_multiplicity
 _atom_site_fract_x
 _atom_site_fract_y
 _atom_site_fract_z
 _atom_site_occupancy
  Zn  Zn0  1  0.06213000  0.00261000  0.56608000  1.0
  Zn  Zn1  1  0.93262000  0.98643000  0.43515000  1.0
  Zn  Zn2  1  0.50184000  0.55170000  0.57364000  1.0
  Zn  Zn3  1  0.49352000  0.43631000  0.43672000  1.0
  Zn  Zn4  1  0.95409000  0.44211000  0.00911000  1.0
  Zn  Zn5  1  0.06544000  0.56061000  0.99206000  1.0
  H  H6  1  0.68798000  0.75357000  0.58113000  1.0
  H  H7  1  0.26095000  0.20270000  0.55153000  1.0
  H  H8  1  0.91117000  0.63245000  0.15951000  1.0
  H  H9  1  0.97444000  0.24284000  0.83161000  1.0
  H  H10  1  0.05261000  0.77577000  0.16178000  1.0
  H  H11  1  0.05433000  0.37023000  0.77436000  1.0
  H  H12  1  0.88683000  0.74579000  0.24219000  1.0
  H  H13  1  0.02105000  0.15916000  0.73411000  1.0
  H  H14  1  0.27793000  0.89702000  0.38679000  1.0
  H  H15  1  0.27566000  0.98981000  0.38318000  1.0
  H  H16  1  0.32143000  0.99122000  0.48187000  1.0
  H  H17  1  0.27388000  0.18158000  0.36043000  1.0
  H  H18  1  0.17623000  0.98111000  0.44860000  1.0
  H  H19  1  0.17671000  0.88928000  0.45290000  1.0
  H  H20  1  0.11671000  0.81365000  0.29527000  1.0
  H  H21  1  0.11693000  0.90555000  0.29064000  1.0
  H  H22  1  0.80086000  0.10382000  0.65560000  1.0
  H  H23  1  0.78109000  0.19302000  0.67356000  1.0
  H  H24  1  0.69797000  0.09001000  0.59463000  1.0
  H  H25  1  0.75786000  0.17226000  0.52755000  1.0
  H  H26  1  0.77853000  0.08425000  0.50968000  1.0
  H  H27  1  0.90340000  0.21741000  0.54745000  1.0
  H  H28  1  0.15442000  0.49349000  0.24837000  1.0
  H  H29  1  0.90613000  0.26801000  0.64593000  1.0
  H  H30  1  0.79812000  0.45960000  0.77038000  1.0
  H  H31  1  0.36424000  0.51286000  0.28678000  1.0
  H  H32  1  0.63716000  0.52159000  0.78608000  1.0
  H  H33  1  0.71860000  0.63390000  0.45142000  1.0
  H  H34  1  0.27869000  0.31638000  0.51038000  1.0
  H  H35  1  0.87549000  0.76631000  0.55069000  1.0
  C  C36  1  0.99481000  0.88849000  0.37125000  1.0
  C  C37  1  0.11065000  0.50234000  0.13161000  1.0
  C  C38  1  0.01552000  0.64189000  0.09171000  1.0
  C  C39  1  0.03398000  0.40881000  0.88561000  1.0
  C  C40  1  0.26156000  0.53906000  0.22951000  1.0
  C  C41  1  0.71646000  0.46297000  0.82450000  1.0
  C  C42  1  0.17753000  0.51381000  0.20822000  1.0
  C  C43  1  0.78584000  0.45561000  0.82211000  1.0
  C  C44  1  0.32155000  0.53778000  0.30008000  1.0
  C  C45  1  0.66100000  0.47760000  0.76272000  1.0
  C  C46  1  0.33439000  0.56427000  0.38054000  1.0
  C  C47  1  0.95699000  0.10449000  0.57657000  1.0
  C  C48  1  0.63617000  0.44404000  0.67905000  1.0
  C  C49  1  0.91697000  0.88167000  0.53542000  1.0
  C  C50  1  0.13367000  0.10375000  0.51157000  1.0
  C  C51  1  0.71948000  0.73733000  0.54289000  1.0
  C  C52  1  0.25891000  0.20708000  0.41144000  1.0
  C  C53  1  0.69413000  0.65466000  0.49533000  1.0
  C  C54  1  0.29766000  0.29112000  0.46278000  1.0
  C  C55  1  0.78164000  0.80740000  0.54172000  1.0
  C  C56  1  0.19270000  0.14856000  0.42043000  1.0
  C  C57  1  0.85626000  0.81348000  0.54212000  1.0
  C  C58  1  0.01633000  0.83724000  0.31027000  1.0
  C  C59  1  0.19953000  0.15611000  0.49624000  1.0
  C  C60  1  0.95577000  0.69884000  0.18234000  1.0
  C  C61  1  0.99426000  0.26193000  0.78888000  1.0
  C  C62  1  0.01053000  0.71259000  0.14905000  1.0
  C  C63  1  0.02780000  0.34527000  0.81033000  1.0
  C  C64  1  0.95002000  0.76252000  0.24470000  1.0
  C  C65  1  0.98937000  0.19622000  0.71810000  1.0
  C  C66  1  0.10843000  0.86917000  0.32598000  1.0
  C  C67  1  0.18153000  0.92443000  0.41636000  1.0
  C  C68  1  0.26884000  0.95193000  0.41708000  1.0
  C  C69  1  0.94818000  0.17315000  0.63500000  1.0
  C  C70  1  0.89080000  0.20655000  0.59722000  1.0
  C  C71  1  0.79434000  0.14559000  0.55911000  1.0
  C  C72  1  0.76716000  0.13246000  0.62429000  1.0
  C  C73  1  0.39970000  0.55148000  0.43935000  1.0
  C  C74  1  0.58632000  0.47230000  0.62475000  1.0
  C  C75  1  0.62493000  0.58759000  0.49487000  1.0
  C  C76  1  0.36745000  0.35626000  0.46246000  1.0
  C  C77  1  0.85693000  0.45730000  0.88723000  1.0
  Cl  Cl78  1  0.28193000  0.61264000  0.42112000  1.0
  Cl  Cl79  1  0.65893000  0.36750000  0.62645000  1.0
  Cl  Cl80  1  0.75097000  0.88593000  0.54252000  1.0
  Cl  Cl81  1  0.10588000  0.06901000  0.32531000  1.0
  Cl  Cl82  1  0.30765000  0.56631000  0.16913000  1.0
  Cl  Cl83  1  0.69215000  0.46644000  0.90647000  1.0
  O  O84  1  0.03864000  0.91287000  0.44898000  1.0
  O  O85  1  0.01206000  0.08199000  0.60775000  1.0
  O  O86  1  0.99727000  0.91381000  0.58654000  1.0
  O  O87  1  0.05533000  0.07802000  0.46439000  1.0
  O  O88  1  0.88634000  0.90226000  0.47956000  1.0
  O  O89  1  0.16194000  0.08785000  0.57380000  1.0
  O  O90  1  0.42536000  0.59116000  0.51889000  1.0
  O  O91  1  0.56562000  0.43717000  0.54714000  1.0
  O  O92  1  0.42461000  0.50089000  0.40481000  1.0
  O  O93  1  0.56913000  0.53106000  0.66108000  1.0
  O  O94  1  0.60086000  0.60873000  0.55094000  1.0
  O  O95  1  0.90839000  0.07252000  0.49659000  1.0
  O  O96  1  0.39354000  0.33503000  0.40690000  1.0
  O  O97  1  0.59227000  0.51149000  0.43505000  1.0
  O  O98  1  0.39839000  0.43144000  0.52035000  1.0
  O  O99  1  0.84159000  0.41247000  0.92518000  1.0
  O  O100  1  0.13063000  0.54455000  0.09395000  1.0
  O  O101  1  0.93107000  0.50484000  0.90032000  1.0
  O  O102  1  0.03361000  0.44746000  0.10856000  1.0
  O  O103  1  0.97334000  0.56674000  0.07855000  1.0
  O  O104  1  0.08002000  0.48741000  0.90599000  1.0
  O  O105  1  0.06601000  0.66246000  0.05908000  1.0
  O  O106  1  0.99474000  0.38462000  0.92461000  1.0
  O  O107  1  0.93266000  0.90492000  0.34092000  1.0
