# generated using pymatgen
data_SbH11C9NO2F3
_symmetry_space_group_name_H-M   'P 1'
_cell_length_a   5.86724000
_cell_length_b   6.08343000
_cell_length_c   15.48260000
_cell_angle_alpha   89.99960000
_cell_angle_beta   90.94250000
_cell_angle_gamma   89.99940000
_symmetry_Int_Tables_number   1
_chemical_formula_structural   SbH11C9NO2F3
_chemical_formula_sum   'Sb2 H22 C18 N2 O4 F6'
_cell_volume   552.54480619
_cell_formula_units_Z   2
loop_
 _symmetry_equiv_pos_site_id
 _symmetry_equiv_pos_as_xyz
  1  'x, y, z'
loop_
 _atom_site_type_symbol
 _atom_site_label
 _atom_site_symmetry_multiplicity
 _atom_site_fract_x
 _atom_site_fract_y
 _atom_site_fract_z
 _atom_site_occupancy
  Sb  Sb0  1  0.07445000  0.98453000  0.08868000  1.0
  Sb  Sb1  1  0.92554000  0.48452000  0.91132000  1.0
  H  H2  1  0.50829000  0.29254000  0.16763000  1.0
  H  H3  1  0.49170000  0.79254000  0.83237000  1.0
  H  H4  1  0.54183000  0.41392000  0.07336000  1.0
  H  H5  1  0.45814000  0.91391000  0.92664000  1.0
  H  H6  1  0.33783000  0.50666000  0.14228000  1.0
  H  H7  1  0.66215000  0.00666000  0.85773000  1.0
  H  H8  1  0.95068000  0.57067000  0.38321000  1.0
  H  H9  1  0.04933000  0.07067000  0.61678000  1.0
  H  H10  1  0.97848000  0.26356000  0.48780000  1.0
  H  H11  1  0.02154000  0.76355000  0.51219000  1.0
  H  H12  1  0.66041000  0.99018000  0.49743000  1.0
  H  H13  1  0.33964000  0.49019000  0.50257000  1.0
  H  H14  1  0.32003000  0.02954000  0.40150000  1.0
  H  H15  1  0.67999000  0.52956000  0.59851000  1.0
  H  H16  1  0.28867000  0.33938000  0.29908000  1.0
  H  H17  1  0.71133000  0.83939000  0.70092000  1.0
  H  H18  1  0.72160000  0.79705000  0.28968000  1.0
  H  H19  1  0.27840000  0.29705000  0.71032000  1.0
  H  H20  1  0.43451000  0.73376000  0.26621000  1.0
  H  H21  1  0.56547000  0.23377000  0.73379000  1.0
  H  H22  1  0.66538000  0.74822000  0.13648000  1.0
  H  H23  1  0.33460000  0.24821000  0.86352000  1.0
  C  C24  1  0.81161000  0.45203000  0.38746000  1.0
  C  C25  1  0.18841000  0.95203000  0.61254000  1.0
  C  C26  1  0.82761000  0.27848000  0.44613000  1.0
  C  C27  1  0.17241000  0.77848000  0.55386000  1.0
  C  C28  1  0.65085000  0.12542000  0.45137000  1.0
  C  C29  1  0.34918000  0.62543000  0.54864000  1.0
  C  C30  1  0.45875000  0.14800000  0.39758000  1.0
  C  C31  1  0.54128000  0.64802000  0.60242000  1.0
  C  C32  1  0.44188000  0.32316000  0.33957000  1.0
  C  C33  1  0.55813000  0.82317000  0.66043000  1.0
  C  C34  1  0.61911000  0.47709000  0.33358000  1.0
  C  C35  1  0.38090000  0.97710000  0.66642000  1.0
  C  C36  1  0.60662000  0.66327000  0.26960000  1.0
  C  C37  1  0.39337000  0.16328000  0.73040000  1.0
  C  C38  1  0.67182000  0.59992000  0.17664000  1.0
  C  C39  1  0.32816000  0.09991000  0.82336000  1.0
  C  C40  1  0.90893000  0.49597000  0.17408000  1.0
  C  C41  1  0.09105000  0.99596000  0.82592000  1.0
  N  N42  1  0.50460000  0.44428000  0.13752000  1.0
  N  N43  1  0.49538000  0.94427000  0.86248000  1.0
  O  O44  1  0.07969000  0.62603000  0.16712000  1.0
  O  O45  1  0.92030000  0.12603000  0.83288000  1.0
  O  O46  1  0.92222000  0.29027000  0.18210000  1.0
  O  O47  1  0.07776000  0.79027000  0.81790000  1.0
  F  F48  1  0.34343000  0.01972000  0.16575000  1.0
  F  F49  1  0.65655000  0.51971000  0.83425000  1.0
  F  F50  1  0.27914000  0.80147000  0.01454000  1.0
  F  F51  1  0.72086000  0.30146000  0.98546000  1.0
  F  F52  1  0.19977000  0.23565000  0.01790000  1.0
  F  F53  1  0.80022000  0.73565000  0.98210000  1.0
