# generated using pymatgen
data_Zn4H4C40O13F16
_symmetry_space_group_name_H-M   'P 1'
_cell_length_a   23.85282138
_cell_length_b   23.85300000
_cell_length_c   23.85130000
_cell_angle_alpha   66.14190000
_cell_angle_beta   72.67349230
_cell_angle_gamma   107.32271585
_symmetry_Int_Tables_number   1
_chemical_formula_structural   Zn4H4C40O13F16
_chemical_formula_sum   'Zn8 H8 C80 O26 F32'
_cell_volume   10399.93690182
_cell_formula_units_Z   2
loop_
 _symmetry_equiv_pos_site_id
 _symmetry_equiv_pos_as_xyz
  1  'x, y, z'
loop_
 _atom_site_type_symbol
 _atom_site_label
 _atom_site_symmetry_multiplicity
 _atom_site_fract_x
 _atom_site_fract_y
 _atom_site_fract_z
 _atom_site_occupancy
  Zn  Zn0  1  0.05647000  0.10052000  0.45593000  1.0
  Zn  Zn1  1  0.05647000  0.95594000  0.48759000  1.0
  Zn  Zn2  1  0.94352000  0.95593000  0.60054000  1.0
  Zn  Zn3  1  0.94354000  0.98760000  0.45593000  1.0
  Zn  Zn4  1  0.94353000  0.39947000  0.04407000  1.0
  Zn  Zn5  1  0.05648000  0.54407000  0.89946000  1.0
  Zn  Zn6  1  0.94353000  0.54406000  0.01241000  1.0
  Zn  Zn7  1  0.05646000  0.51241000  0.04407000  1.0
  H  H8  1  0.92404000  0.12559000  0.29845000  1.0
  H  H9  1  0.07596000  0.37441000  0.20155000  1.0
  H  H10  1  0.92404000  0.22249000  0.20155000  1.0
  H  H11  1  0.07596000  0.27751000  0.29845000  1.0
  H  H12  1  0.92404000  0.79844000  0.77752000  1.0
  H  H13  1  0.07597000  0.70156000  0.72247000  1.0
  H  H14  1  0.92404000  0.70154000  0.87443000  1.0
  H  H15  1  0.07596000  0.79846000  0.62557000  1.0
  C  C16  1  0.18050000  0.09024000  0.40976000  1.0
  C  C17  1  0.00000000  0.86078000  0.63922000  1.0
  C  C18  1  0.99999000  0.09024000  0.59025000  1.0
  C  C19  1  0.81950000  0.90976000  0.59023000  1.0
  C  C20  1  0.00000000  0.13922000  0.36078000  1.0
  C  C21  1  0.99999000  0.90974000  0.40975000  1.0
  C  C22  1  0.00000000  0.40976000  0.90974000  1.0
  C  C23  1  1.00000000  0.63921000  0.86078000  1.0
  C  C24  1  0.81950000  0.40975000  0.09026000  1.0
  C  C25  1  1.00000000  0.59026000  0.09024000  1.0
  C  C26  1  1.00000000  0.36078000  0.13922000  1.0
  C  C27  1  0.18050000  0.59026000  0.90976000  1.0
  C  C28  1  0.00000000  0.19653000  0.30348000  1.0
  C  C29  1  0.00000000  0.30347000  0.19652000  1.0
  C  C30  1  0.95693000  0.18024000  0.27670000  1.0
  C  C31  1  0.04307000  0.31976000  0.22330000  1.0
  C  C32  1  0.95693000  0.23362000  0.22332000  1.0
  C  C33  1  0.04307000  0.26638000  0.27668000  1.0
  C  C34  1  0.00000000  0.80348000  0.69653000  1.0
  C  C35  1  0.00000000  0.69652000  0.80347000  1.0
  C  C36  1  0.95693000  0.77668000  0.76639000  1.0
  C  C37  1  0.04307000  0.72332000  0.73361000  1.0
  C  C38  1  0.95694000  0.72331000  0.81976000  1.0
  C  C39  1  0.04307000  0.77670000  0.68023000  1.0
  C  C40  1  0.00000000  0.37221000  0.87218000  1.0
  C  C41  1  0.95727000  0.29975000  0.90737000  1.0
  C  C42  1  0.95735000  0.26507000  0.87246000  1.0
  C  C43  1  0.99999000  0.30035000  0.80034000  1.0
  C  C44  1  0.04264000  0.37246000  0.76505000  1.0
  C  C45  1  0.04272000  0.40738000  0.79972000  1.0
  C  C46  1  0.99999000  0.26523000  0.76522000  1.0
  C  C47  1  0.99998000  0.23477000  0.73477000  1.0
  C  C48  1  0.99998000  0.19966000  0.69965000  1.0
  C  C49  1  0.95734000  0.12754000  0.73495000  1.0
  C  C50  1  0.95726000  0.09263000  0.70027000  1.0
  C  C51  1  0.99997000  0.12780000  0.62781000  1.0
  C  C52  1  0.04268000  0.20026000  0.59262000  1.0
  C  C53  1  0.04261000  0.23494000  0.62753000  1.0
  C  C54  1  0.00001000  0.62784000  0.12778000  1.0
  C  C55  1  0.04274000  0.63539000  0.15750000  1.0
  C  C56  1  0.04266000  0.67022000  0.19226000  1.0
  C  C57  1  0.00000000  0.69968000  0.19964000  1.0
  C  C58  1  0.95736000  0.69232000  0.17016000  1.0
  C  C59  1  0.95729000  0.65757000  0.13533000  1.0
  C  C60  1  0.00000000  0.73479000  0.23476000  1.0
  C  C61  1  0.99999000  0.76522000  0.26523000  1.0
  C  C62  1  0.99998000  0.80033000  0.30036000  1.0
  C  C63  1  0.04261000  0.80767000  0.32985000  1.0
  C  C64  1  0.04268000  0.84241000  0.36469000  1.0
  C  C65  1  0.99998000  0.87217000  0.37222000  1.0
  C  C66  1  0.95726000  0.86463000  0.34248000  1.0
  C  C67  1  0.95734000  0.82980000  0.30772000  1.0
  C  C68  1  0.74439000  0.37220000  0.12781000  1.0
  C  C69  1  0.70711000  0.29975000  0.15755000  1.0
  C  C70  1  0.63752000  0.26506000  0.19231000  1.0
  C  C71  1  0.60069000  0.30035000  0.19966000  1.0
  C  C72  1  0.63752000  0.37247000  0.17017000  1.0
  C  C73  1  0.70711000  0.40738000  0.13534000  1.0
  C  C74  1  0.53045000  0.26522000  0.23479000  1.0
  C  C75  1  0.46955000  0.23477000  0.26525000  1.0
  C  C76  1  0.39932000  0.19965000  0.30037000  1.0
  C  C77  1  0.36248000  0.12753000  0.32985000  1.0
  C  C78  1  0.29290000  0.09263000  0.36468000  1.0
  C  C79  1  0.25561000  0.12779000  0.37223000  1.0
  C  C80  1  0.29289000  0.20024000  0.34251000  1.0
  C  C81  1  0.36248000  0.23492000  0.30775000  1.0
  C  C82  1  0.25561000  0.62782000  0.87220000  1.0
  C  C83  1  0.29290000  0.65758000  0.79974000  1.0
  C  C84  1  0.36248000  0.69233000  0.76507000  1.0
  C  C85  1  0.39931000  0.69967000  0.80036000  1.0
  C  C86  1  0.36247000  0.67018000  0.87249000  1.0
  C  C87  1  0.29289000  0.63536000  0.90738000  1.0
  C  C88  1  0.46955000  0.73479000  0.76523000  1.0
  C  C89  1  0.53045000  0.76525000  0.73476000  1.0
  C  C90  1  0.60069000  0.80037000  0.69963000  1.0
  C  C91  1  0.63753000  0.82984000  0.62751000  1.0
  C  C92  1  0.70711000  0.86467000  0.59261000  1.0
  C  C93  1  0.74439000  0.87222000  0.62779000  1.0
  C  C94  1  0.70710000  0.84248000  0.70025000  1.0
  C  C95  1  0.63751000  0.80772000  0.73493000  1.0
  O  O96  1  0.00000000  0.00000000  0.50000000  1.0
  O  O97  1  0.15189000  0.12689000  0.41326000  1.0
  O  O98  1  0.04030000  0.88299000  0.57671000  1.0
  O  O99  1  0.95981000  0.02498000  0.62691000  1.0
  O  O100  1  0.15189000  0.02499000  0.43484000  1.0
  O  O101  1  0.04017000  0.12688000  0.52500000  1.0
  O  O102  1  0.95969000  0.88298000  0.65733000  1.0
  O  O103  1  0.84811000  0.91327000  0.62689000  1.0
  O  O104  1  0.95971000  0.07672000  0.38297000  1.0
  O  O105  1  0.84812000  0.93486000  0.52497000  1.0
  O  O106  1  0.04031000  0.15733000  0.38298000  1.0
  O  O107  1  0.04017000  0.91328000  0.43483000  1.0
  O  O108  1  0.95983000  0.93484000  0.41327000  1.0
  O  O109  1  1.00000000  0.50000000  0.00000000  1.0
  O  O110  1  0.95983000  0.37311000  0.97501000  1.0
  O  O111  1  0.04031000  0.61702000  0.84267000  1.0
  O  O112  1  0.84811000  0.47501000  0.06518000  1.0
  O  O113  1  0.04017000  0.47502000  0.87309000  1.0
  O  O114  1  0.84811000  0.37311000  0.08673000  1.0
  O  O115  1  0.95970000  0.61701000  0.92328000  1.0
  O  O116  1  0.95983000  0.58674000  0.06515000  1.0
  O  O117  1  0.04030000  0.42329000  0.11702000  1.0
  O  O118  1  0.04015000  0.56515000  0.08674000  1.0
  O  O119  1  0.95970000  0.34269000  0.11702000  1.0
  O  O120  1  0.15189000  0.58672000  0.87311000  1.0
  O  O121  1  0.15188000  0.56517000  0.97503000  1.0
  F  F122  1  0.91433000  0.26047000  0.97621000  1.0
  F  F123  1  0.08566000  0.47621000  0.76043000  1.0
  F  F124  1  0.08445000  0.40863000  0.69595000  1.0
  F  F125  1  0.91554000  0.19598000  0.90863000  1.0
  F  F126  1  0.91555000  0.09138000  0.80405000  1.0
  F  F127  1  0.08440000  0.30403000  0.59135000  1.0
  F  F128  1  0.08560000  0.23955000  0.52377000  1.0
  F  F129  1  0.91433000  0.02379000  0.73957000  1.0
  F  F130  1  0.08569000  0.60951000  0.15384000  1.0
  F  F131  1  0.91435000  0.65392000  0.10943000  1.0
  F  F132  1  0.91554000  0.71959000  0.17582000  1.0
  F  F133  1  0.08447000  0.67587000  0.21954000  1.0
  F  F134  1  0.08441000  0.78037000  0.32422000  1.0
  F  F135  1  0.91555000  0.82418000  0.28041000  1.0
  F  F136  1  0.91433000  0.89054000  0.34612000  1.0
  F  F137  1  0.08560000  0.84604000  0.39061000  1.0
  F  F138  1  0.73666000  0.26046000  0.15392000  1.0
  F  F139  1  0.73666000  0.47622000  0.10942000  1.0
  F  F140  1  0.60459000  0.40863000  0.17580000  1.0
  F  F141  1  0.60460000  0.19597000  0.21961000  1.0
  F  F142  1  0.39541000  0.09136000  0.32420000  1.0
  F  F143  1  0.39541000  0.30401000  0.28047000  1.0
  F  F144  1  0.26334000  0.23953000  0.34617000  1.0
  F  F145  1  0.26335000  0.02379000  0.39058000  1.0
  F  F146  1  0.26335000  0.65395000  0.76044000  1.0
  F  F147  1  0.26333000  0.60943000  0.97624000  1.0
  F  F148  1  0.39540000  0.67580000  0.90865000  1.0
  F  F149  1  0.39542000  0.71964000  0.69596000  1.0
  F  F150  1  0.60461000  0.82421000  0.59134000  1.0
  F  F151  1  0.60458000  0.78044000  0.80402000  1.0
  F  F152  1  0.73664000  0.84613000  0.73955000  1.0
  F  F153  1  0.73667000  0.89057000  0.52376000  1.0
