# generated using pymatgen
data_MnH24C26(SN7)2
_symmetry_space_group_name_H-M   'P 1'
_cell_length_a   8.36519000
_cell_length_b   8.78933000
_cell_length_c   9.75628000
_cell_angle_alpha   97.24980000
_cell_angle_beta   97.62160000
_cell_angle_gamma   97.17090000
_symmetry_Int_Tables_number   1
_chemical_formula_structural   MnH24C26(SN7)2
_chemical_formula_sum   'Mn1 H24 C26 S2 N14'
_cell_volume   697.95479656
_cell_formula_units_Z   1
loop_
 _symmetry_equiv_pos_site_id
 _symmetry_equiv_pos_as_xyz
  1  'x, y, z'
loop_
 _atom_site_type_symbol
 _atom_site_label
 _atom_site_symmetry_multiplicity
 _atom_site_fract_x
 _atom_site_fract_y
 _atom_site_fract_z
 _atom_site_occupancy
  Mn  Mn0  1  0.00000000  0.50000000  0.50000000  1.0
  H  H1  1  0.34955000  0.94257000  0.26381000  1.0
  H  H2  1  0.65046000  0.05742000  0.73618000  1.0
  H  H3  1  0.16237000  0.74180000  0.09244000  1.0
  H  H4  1  0.83763000  0.25820000  0.90756000  1.0
  H  H5  1  0.06515000  0.80374000  0.85482000  1.0
  H  H6  1  0.93485000  0.19626000  0.14518000  1.0
  H  H7  1  0.16437000  0.05530000  0.78789000  1.0
  H  H8  1  0.83563000  0.94470000  0.21211000  1.0
  H  H9  1  0.44376000  0.37712000  0.02471000  1.0
  H  H10  1  0.55623000  0.62289000  0.97529000  1.0
  H  H11  1  0.46907000  0.26728000  0.86584000  1.0
  H  H12  1  0.53092000  0.73272000  0.13416000  1.0
  H  H13  1  0.52793000  0.16818000  0.31589000  1.0
  H  H14  1  0.47207000  0.83183000  0.68411000  1.0
  H  H15  1  0.57233000  0.29447000  0.19432000  1.0
  H  H16  1  0.42767000  0.70553000  0.80568000  1.0
  H  H17  1  0.96169000  0.55359000  0.85004000  1.0
  H  H18  1  0.03831000  0.44641000  0.14996000  1.0
  H  H19  1  0.29285000  0.31733000  0.64766000  1.0
  H  H20  1  0.70715000  0.68267000  0.35234000  1.0
  H  H21  1  0.32087000  0.68657000  0.38979000  1.0
  H  H22  1  0.67912000  0.31343000  0.61021000  1.0
  H  H23  1  0.18586000  0.20482000  0.36936000  1.0
  H  H24  1  0.81414000  0.79518000  0.63064000  1.0
  C  C25  1  0.31413000  0.14204000  0.98645000  1.0
  C  C26  1  0.68587000  0.85796000  0.01355000  1.0
  C  C27  1  0.36489000  0.11017000  0.12191000  1.0
  C  C28  1  0.63512000  0.88983000  0.87808000  1.0
  C  C29  1  0.30983000  0.96547000  0.15813000  1.0
  C  C30  1  0.69017000  0.03452000  0.84187000  1.0
  C  C31  1  0.20382000  0.85399000  0.06296000  1.0
  C  C32  1  0.79618000  0.14601000  0.93704000  1.0
  C  C33  1  0.14986000  0.88800000  0.93020000  1.0
  C  C34  1  0.85014000  0.11200000  0.06980000  1.0
  C  C35  1  0.20508000  0.03078000  0.89259000  1.0
  C  C36  1  0.79492000  0.96922000  0.10742000  1.0
  C  C37  1  0.38109000  0.29045000  0.93731000  1.0
  C  C38  1  0.61891000  0.70955000  0.06269000  1.0
  C  C39  1  0.47264000  0.22783000  0.23315000  1.0
  C  C40  1  0.52736000  0.77217000  0.76685000  1.0
  C  C41  1  0.06042000  0.48955000  0.82903000  1.0
  C  C42  1  0.93958000  0.51045000  0.17097000  1.0
  C  C43  1  0.22593000  0.36934000  0.72392000  1.0
  C  C44  1  0.77407000  0.63066000  0.27608000  1.0
  C  C45  1  0.31886000  0.56215000  0.36797000  1.0
  C  C46  1  0.68114000  0.43785000  0.63203000  1.0
  C  C47  1  0.24659000  0.31828000  0.35854000  1.0
  C  C48  1  0.75341000  0.68172000  0.64146000  1.0
  C  C49  1  0.82815000  0.16063000  0.45543000  1.0
  C  C50  1  0.17186000  0.83937000  0.54458000  1.0
  S  S51  1  0.71206000  0.00004000  0.46022000  1.0
  S  S52  1  0.28795000  0.99996000  0.53978000  1.0
  N  N53  1  0.25655000  0.36279000  0.86162000  1.0
  N  N54  1  0.74345000  0.63721000  0.13838000  1.0
  N  N55  1  0.15199000  0.43877000  0.93057000  1.0
  N  N56  1  0.84801000  0.56123000  0.06943000  1.0
  N  N57  1  0.10237000  0.45019000  0.69954000  1.0
  N  N58  1  0.89763000  0.54981000  0.30046000  1.0
  N  N59  1  0.38046000  0.34302000  0.29664000  1.0
  N  N60  1  0.61954000  0.65698000  0.70336000  1.0
  N  N61  1  0.42725000  0.49749000  0.30092000  1.0
  N  N62  1  0.57275000  0.50251000  0.69908000  1.0
  N  N63  1  0.20424000  0.45600000  0.40573000  1.0
  N  N64  1  0.79576000  0.54400000  0.59427000  1.0
  N  N65  1  0.90488000  0.28413000  0.45504000  1.0
  N  N66  1  0.09513000  0.71588000  0.54496000  1.0
