# generated using pymatgen
data_Zn2H11C12NO10
_symmetry_space_group_name_H-M   'P 1'
_cell_length_a   8.90230000
_cell_length_b   9.00887000
_cell_length_c   9.89611000
_cell_angle_alpha   107.33100000
_cell_angle_beta   94.19850000
_cell_angle_gamma   97.23110000
_symmetry_Int_Tables_number   1
_chemical_formula_structural   Zn2H11C12NO10
_chemical_formula_sum   'Zn4 H22 C24 N2 O20'
_cell_volume   746.45278980
_cell_formula_units_Z   2
loop_
 _symmetry_equiv_pos_site_id
 _symmetry_equiv_pos_as_xyz
  1  'x, y, z'
loop_
 _atom_site_type_symbol
 _atom_site_label
 _atom_site_symmetry_multiplicity
 _atom_site_fract_x
 _atom_site_fract_y
 _atom_site_fract_z
 _atom_site_occupancy
  Zn  Zn0  1  0.86347000  0.24354000  0.03325000  1.0
  Zn  Zn1  1  0.13652000  0.75646000  0.96675000  1.0
  Zn  Zn2  1  0.54267000  0.70875000  0.02043000  1.0
  Zn  Zn3  1  0.45733000  0.29125000  0.97957000  1.0
  H  H4  1  0.17046000  0.62780000  0.38454000  1.0
  H  H5  1  0.82954000  0.37219000  0.61546000  1.0
  H  H6  1  0.28752000  0.61965000  0.61974000  1.0
  H  H7  1  0.71248000  0.38035000  0.38026000  1.0
  H  H8  1  0.72555000  0.78423000  0.52273000  1.0
  H  H9  1  0.27445000  0.21578000  0.47727000  1.0
  H  H10  1  0.76439000  0.02481000  0.38544000  1.0
  H  H11  1  0.23561000  0.97519000  0.61456000  1.0
  H  H12  1  0.57328000  0.01985000  0.31659000  1.0
  H  H13  1  0.42672000  0.98015000  0.68341000  1.0
  H  H14  1  0.83494000  0.72226000  0.35583000  1.0
  H  H15  1  0.16505000  0.27774000  0.64417000  1.0
  H  H16  1  0.86586000  0.78734000  0.20719000  1.0
  H  H17  1  0.13414000  0.21266000  0.79280000  1.0
  H  H18  1  0.82558000  0.94756000  0.83592000  1.0
  H  H19  1  0.17442000  0.05245000  0.16407000  1.0
  H  H20  1  0.00203000  0.99349000  0.87022000  1.0
  H  H21  1  0.99798000  0.00652000  0.12979000  1.0
  H  H22  1  0.10550000  0.44839000  0.10907000  1.0
  H  H23  1  0.89450000  0.55161000  0.89093000  1.0
  H  H24  1  0.16164000  0.29764000  0.13755000  1.0
  H  H25  1  0.83836000  0.70236000  0.86245000  1.0
  C  C26  1  0.29304000  0.71984000  0.18854000  1.0
  C  C27  1  0.70696000  0.28016000  0.81146000  1.0
  C  C28  1  0.38064000  0.71205000  0.32029000  1.0
  C  C29  1  0.61936000  0.28795000  0.67971000  1.0
  C  C30  1  0.29286000  0.66165000  0.41588000  1.0
  C  C31  1  0.70714000  0.33834000  0.58412000  1.0
  C  C32  1  0.35745000  0.65611000  0.54595000  1.0
  C  C33  1  0.64254000  0.34389000  0.45405000  1.0
  C  C34  1  0.51460000  0.70362000  0.58397000  1.0
  C  C35  1  0.48540000  0.29638000  0.41603000  1.0
  C  C36  1  0.59049000  0.70845000  0.72629000  1.0
  C  C37  1  0.40951000  0.29155000  0.27371000  1.0
  C  C38  1  0.60368000  0.74977000  0.48885000  1.0
  C  C39  1  0.39632000  0.25024000  0.51115000  1.0
  C  C40  1  0.54065000  0.75322000  0.35671000  1.0
  C  C41  1  0.45935000  0.24678000  0.64329000  1.0
  C  C42  1  0.67782000  0.96908000  0.29263000  1.0
  C  C43  1  0.32217000  0.03092000  0.70737000  1.0
  C  C44  1  0.72843000  0.01081000  0.16241000  1.0
  C  C45  1  0.27157000  0.98919000  0.83759000  1.0
  C  C46  1  0.78069000  0.72273000  0.25274000  1.0
  C  C47  1  0.21930000  0.27727000  0.74726000  1.0
  C  C48  1  0.74906000  0.55556000  0.15052000  1.0
  C  C49  1  0.25094000  0.44444000  0.84948000  1.0
  N  N50  1  0.64197000  0.79744000  0.26159000  1.0
  N  N51  1  0.35802000  0.20256000  0.73841000  1.0
  O  O52  1  0.15516000  0.65615000  0.15663000  1.0
  O  O53  1  0.84484000  0.34385000  0.84337000  1.0
  O  O54  1  0.67217000  0.92252000  0.03987000  1.0
  O  O55  1  0.32783000  0.07748000  0.96013000  1.0
  O  O56  1  0.35547000  0.79686000  0.10938000  1.0
  O  O57  1  0.64453000  0.20314000  0.89062000  1.0
  O  O58  1  0.64469000  0.52670000  0.04572000  1.0
  O  O59  1  0.35531000  0.47330000  0.95428000  1.0
  O  O60  1  0.82992000  0.45867000  0.17283000  1.0
  O  O61  1  0.17008000  0.54133000  0.82717000  1.0
  O  O62  1  0.82642000  0.13515000  0.18612000  1.0
  O  O63  1  0.17359000  0.86485000  0.81388000  1.0
  O  O64  1  0.50354000  0.66592000  0.80926000  1.0
  O  O65  1  0.49646000  0.33408000  0.19074000  1.0
  O  O66  1  0.73361000  0.75322000  0.75201000  1.0
  O  O67  1  0.26639000  0.24678000  0.24799000  1.0
  O  O68  1  0.90815000  0.03962000  0.86985000  1.0
  O  O69  1  0.09186000  0.96039000  0.13015000  1.0
  O  O70  1  0.09073000  0.33186000  0.07186000  1.0
  O  O71  1  0.90926000  0.66814000  0.92814000  1.0
