# generated using pymatgen
data_DyH6(C2N3)3
_symmetry_space_group_name_H-M   'P 1'
_cell_length_a   9.30954000
_cell_length_b   9.30954000
_cell_length_c   12.62100000
_cell_angle_alpha   91.69710000
_cell_angle_beta   91.69690000
_cell_angle_gamma   119.26500000
_symmetry_Int_Tables_number   1
_chemical_formula_structural   DyH6(C2N3)3
_chemical_formula_sum   'Dy4 H24 C24 N36'
_cell_volume   952.58461522
_cell_formula_units_Z   4
loop_
 _symmetry_equiv_pos_site_id
 _symmetry_equiv_pos_as_xyz
  1  'x, y, z'
loop_
 _atom_site_type_symbol
 _atom_site_label
 _atom_site_symmetry_multiplicity
 _atom_site_fract_x
 _atom_site_fract_y
 _atom_site_fract_z
 _atom_site_occupancy
  Dy  Dy0  1  0.74223000  0.47949000  0.57195000  1.0
  Dy  Dy1  1  0.52051000  0.25777000  0.92805000  1.0
  Dy  Dy2  1  0.25777000  0.52051000  0.42805000  1.0
  Dy  Dy3  1  0.47949000  0.74223000  0.07195000  1.0
  H  H4  1  0.70688000  0.77648000  0.76545000  1.0
  H  H5  1  0.22352000  0.29312000  0.73455000  1.0
  H  H6  1  0.29313000  0.22353000  0.23454000  1.0
  H  H7  1  0.77648000  0.70688000  0.26546000  1.0
  H  H8  1  0.46486000  0.86738000  0.72873000  1.0
  H  H9  1  0.13262000  0.53514000  0.77127000  1.0
  H  H10  1  0.53514000  0.13262000  0.27127000  1.0
  H  H11  1  0.86738000  0.46486000  0.22873000  1.0
  H  H12  1  0.74615000  0.09897000  0.66309000  1.0
  H  H13  1  0.90103000  0.25385000  0.83692000  1.0
  H  H14  1  0.25385000  0.90103000  0.33691000  1.0
  H  H15  1  0.09897000  0.74615000  0.16309000  1.0
  H  H16  1  0.99196000  0.02889000  0.59975000  1.0
  H  H17  1  0.97111000  0.00804000  0.90025000  1.0
  H  H18  1  0.00804000  0.97110000  0.40025000  1.0
  H  H19  1  0.02889000  0.99196000  0.09975000  1.0
  H  H20  1  0.11063000  0.84175000  0.83960000  1.0
  H  H21  1  0.15825000  0.88937000  0.66040000  1.0
  H  H22  1  0.88937000  0.15825000  0.16040000  1.0
  H  H23  1  0.84175000  0.11063000  0.33960000  1.0
  H  H24  1  0.91830000  0.63969000  0.99591000  1.0
  H  H25  1  0.36031000  0.08171000  0.50409000  1.0
  H  H26  1  0.08170000  0.36031000  0.00409000  1.0
  H  H27  1  0.63969000  0.91830000  0.49591000  1.0
  C  C28  1  0.61022000  0.73548000  0.70339000  1.0
  C  C29  1  0.26452000  0.38978000  0.79662000  1.0
  C  C30  1  0.38978000  0.26452000  0.29662000  1.0
  C  C31  1  0.73548000  0.61022000  0.20339000  1.0
  C  C32  1  0.49005000  0.78100000  0.68489000  1.0
  C  C33  1  0.21900000  0.50995000  0.81511000  1.0
  C  C34  1  0.50995000  0.21900000  0.31511000  1.0
  C  C35  1  0.78100000  0.49005000  0.18489000  1.0
  C  C36  1  0.85359000  0.16935000  0.61771000  1.0
  C  C37  1  0.83065000  0.14641000  0.88229000  1.0
  C  C38  1  0.14641000  0.83064000  0.38229000  1.0
  C  C39  1  0.16935000  0.85359000  0.11771000  1.0
  C  C40  1  0.97593000  0.13467000  0.58615000  1.0
  C  C41  1  0.86533000  0.02407000  0.91385000  1.0
  C  C42  1  0.02407000  0.86532000  0.41385000  1.0
  C  C43  1  0.13468000  0.97593000  0.08615000  1.0
  C  C44  1  0.99757000  0.72418000  0.83233000  1.0
  C  C45  1  0.27582000  0.00243000  0.66767000  1.0
  C  C46  1  0.00243000  0.27582000  0.16767000  1.0
  C  C47  1  0.72418000  0.99757000  0.33233000  1.0
  C  C48  1  0.90276000  0.62295000  0.91040000  1.0
  C  C49  1  0.37705000  0.09724000  0.58960000  1.0
  C  C50  1  0.09724000  0.37706000  0.08960000  1.0
  C  C51  1  0.62295000  0.90276000  0.41040000  1.0
  N  N52  1  0.58765000  0.61936000  0.62733000  1.0
  N  N53  1  0.38064000  0.41235000  0.87267000  1.0
  N  N54  1  0.41235000  0.38064000  0.37267000  1.0
  N  N55  1  0.61936000  0.58765000  0.12733000  1.0
  N  N56  1  0.45766000  0.59451000  0.56593000  1.0
  N  N57  1  0.40549000  0.54234000  0.93407000  1.0
  N  N58  1  0.54234000  0.40549000  0.43407000  1.0
  N  N59  1  0.59451000  0.45766000  0.06593000  1.0
  N  N60  1  0.39660000  0.69037000  0.59829000  1.0
  N  N61  1  0.30962000  0.60340000  0.90171000  1.0
  N  N62  1  0.60340000  0.30963000  0.40171000  1.0
  N  N63  1  0.69037000  0.39660000  0.09829000  1.0
  N  N64  1  0.88714000  0.31649000  0.57955000  1.0
  N  N65  1  0.68351000  0.11286000  0.92045000  1.0
  N  N66  1  0.11286000  0.68350000  0.42045000  1.0
  N  N67  1  0.31649000  0.88714000  0.07955000  1.0
  N  N68  1  0.02493000  0.36901000  0.52700000  1.0
  N  N69  1  0.63099000  0.97507000  0.97300000  1.0
  N  N70  1  0.97507000  0.63099000  0.47300000  1.0
  N  N71  1  0.36901000  0.02493000  0.02700000  1.0
  N  N72  1  0.08117000  0.26207000  0.52936000  1.0
  N  N73  1  0.73793000  0.91883000  0.97063000  1.0
  N  N74  1  0.91883000  0.73793000  0.47063000  1.0
  N  N75  1  0.26207000  0.08117000  0.02936000  1.0
  N  N76  1  0.92543000  0.64668000  0.73718000  1.0
  N  N77  1  0.35332000  0.07457000  0.76282000  1.0
  N  N78  1  0.07457000  0.35333000  0.26282000  1.0
  N  N79  1  0.64668000  0.92543000  0.23718000  1.0
  N  N80  1  0.79291000  0.50435000  0.75722000  1.0
  N  N81  1  0.49565000  0.20709000  0.74277000  1.0
  N  N82  1  0.20709000  0.49565000  0.24277000  1.0
  N  N83  1  0.50435000  0.79291000  0.25723000  1.0
  N  N84  1  0.77533000  0.48670000  0.86145000  1.0
  N  N85  1  0.51330000  0.22467000  0.63855000  1.0
  N  N86  1  0.22467000  0.51330000  0.13855000  1.0
  N  N87  1  0.48670000  0.77533000  0.36145000  1.0
