# generated using pymatgen
data_Zn2H41C48N7O10
_symmetry_space_group_name_H-M   'P 1'
_cell_length_a   10.88650000
_cell_length_b   14.62710000
_cell_length_c   15.11170000
_cell_angle_alpha   97.65750000
_cell_angle_beta   92.89270000
_cell_angle_gamma   106.74200000
_symmetry_Int_Tables_number   1
_chemical_formula_structural   Zn2H41C48N7O10
_chemical_formula_sum   'Zn2 H41 C48 N7 O10'
_cell_volume   2273.77457756
_cell_formula_units_Z   1
loop_
 _symmetry_equiv_pos_site_id
 _symmetry_equiv_pos_as_xyz
  1  'x, y, z'
loop_
 _atom_site_type_symbol
 _atom_site_label
 _atom_site_symmetry_multiplicity
 _atom_site_fract_x
 _atom_site_fract_y
 _atom_site_fract_z
 _atom_site_occupancy
  Zn  Zn0  1  0.55194000  0.58812000  0.47855000  1.0
  Zn  Zn1  1  0.47802000  0.40019000  0.51871000  1.0
  H  H2  1  0.15102000  0.61164000  0.43735000  1.0
  H  H3  1  0.39508000  0.46802000  0.77726000  1.0
  H  H4  1  0.19190000  0.64141000  0.55388000  1.0
  H  H5  1  0.22154000  0.20705000  0.08485000  1.0
  H  H6  1  0.23094000  0.94274000  0.61931000  1.0
  H  H7  1  0.46267000  0.75265000  0.52149000  1.0
  H  H8  1  0.72643000  0.69726000  0.35257000  1.0
  H  H9  1  0.76711000  0.03502000  0.34529000  1.0
  H  H10  1  0.27372000  0.28101000  0.61321000  1.0
  H  H11  1  0.58001000  0.23906000  0.48293000  1.0
  H  H12  1  0.35211000  0.83469000  0.55983000  1.0
  H  H13  1  0.86752000  0.36711000  0.57492000  1.0
  H  H14  1  0.65928000  0.14645000  0.41722000  1.0
  H  H15  1  0.79162000  0.86741000  0.31727000  1.0
  H  H16  1  0.95069000  0.63394000  0.46992000  1.0
  H  H17  1  0.08759000  0.43781000  0.35984000  1.0
  H  H18  1  0.08388000  0.37416000  0.58386000  1.0
  H  H19  1  0.90985000  0.47694000  0.64946000  1.0
  H  H20  1  0.40175000  0.83591000  0.00980000  1.0
  H  H21  1  0.36644000  0.79980000  0.10920000  1.0
  H  H22  1  0.33989000  0.60942000  0.20492000  1.0
  H  H23  1  0.44293000  0.71692000  0.19728000  1.0
  H  H24  1  0.04075000  0.34515000  0.42631000  1.0
  H  H25  1  0.18088000  0.43138000  0.79068000  1.0
  H  H26  1  0.11206000  0.32111000  0.81688000  1.0
  H  H27  1  0.06152000  0.18211000  0.61424000  1.0
  H  H28  1  0.15605000  0.21846000  0.72083000  1.0
  H  H29  1  0.01787000  0.11215000  0.70314000  1.0
  H  H30  1  0.90305000  0.74716000  0.56869000  1.0
  H  H31  1  0.07647000  0.78427000  0.58327000  1.0
  H  H32  1  0.98547000  0.77227000  0.67902000  1.0
  H  H33  1  0.94626000  0.53286000  0.33087000  1.0
  H  H34  1  0.85311000  0.42633000  0.28487000  1.0
  H  H35  1  0.83445000  0.36235000  0.41444000  1.0
  H  H36  1  0.23968000  0.51663000  0.67223000  1.0
  H  H37  1  0.12323000  0.56630000  0.68700000  1.0
  H  H38  1  0.46687000  0.54408000  0.21302000  1.0
  H  H39  1  0.32630000  0.24698000  0.24191000  1.0
  H  H40  1  0.16509000  0.25963000  0.94324000  1.0
  H  H41  1  0.50594000  0.81709000  0.89914000  1.0
  H  H42  1  0.54903000  0.76444000  0.74426000  1.0
  C  C43  1  0.51134000  0.57937000  0.66226000  1.0
  C  C44  1  0.38152000  0.57079000  0.89106000  1.0
  C  C45  1  0.42039000  0.67142000  0.92764000  1.0
  C  C46  1  0.26772000  0.48200000  0.49770000  1.0
  C  C47  1  0.32736000  0.49982000  0.94722000  1.0
  C  C48  1  0.35034000  0.52823000  0.04158000  1.0
  C  C49  1  0.37763000  0.62905000  0.07639000  1.0
  C  C50  1  0.40225000  0.69837000  0.01923000  1.0
  C  C51  1  0.24859000  0.40249000  0.91284000  1.0
  C  C52  1  0.22420000  0.33333333  0.96947000  1.0
  C  C53  1  0.27807000  0.35499000  0.05965000  1.0
  C  C54  1  0.89277000  0.49246000  0.50893000  1.0
  C  C55  1  0.34207000  0.45376000  0.09754000  1.0
  C  C56  1  0.27219000  0.28183000  0.11391000  1.0
  C  C57  1  0.33098000  0.30316000  0.20037000  1.0
  C  C58  1  0.46543000  0.42749000  0.32894000  1.0
  C  C59  1  0.40598000  0.47220000  0.18424000  1.0
  C  C60  1  0.28078000  0.13238000  0.60322000  1.0
  C  C61  1  0.32312000  0.22835000  0.59105000  1.0
  C  C62  1  0.49599000  0.20422000  0.51564000  1.0
  C  C63  1  0.46018000  0.10512000  0.52338000  1.0
  C  C64  1  0.35101000  0.06834000  0.57054000  1.0
  C  C65  1  0.90704000  0.43329000  0.41846000  1.0
  C  C66  1  0.52830000  0.04051000  0.48448000  1.0
  C  C67  1  0.48988000  0.94285000  0.49878000  1.0
  C  C68  1  0.38271000  0.90983000  0.54922000  1.0
  C  C69  1  0.31430000  0.96976000  0.58284000  1.0
  C  C70  1  0.75299000  0.49397000  0.51002000  1.0
  C  C71  1  0.63060000  0.07178000  0.42932000  1.0
  C  C72  1  0.69142000  0.00978000  0.38875000  1.0
  C  C73  1  0.65717000  0.91149000  0.40267000  1.0
  C  C74  1  0.55829000  0.87857000  0.45960000  1.0
  C  C75  1  0.71760000  0.84482000  0.36257000  1.0
  C  C76  1  0.92986000  0.44221000  0.58513000  1.0
  C  C77  1  0.68327000  0.75170000  0.38153000  1.0
  C  C78  1  0.53268000  0.78254000  0.47594000  1.0
  C  C79  1  0.12244000  0.58993000  0.50201000  1.0
  C  C80  1  0.98588000  0.59507000  0.51820000  1.0
  C  C81  1  0.04424000  0.42037000  0.42207000  1.0
  C  C82  1  0.07406000  0.44741000  0.58857000  1.0
  C  C83  1  0.13012000  0.48698000  0.50363000  1.0
  C  C84  1  0.09841000  0.15613000  0.67219000  1.0
  C  C85  1  0.98758000  0.74187000  0.60888000  1.0
  C  C86  1  0.47577000  0.61227000  0.75271000  1.0
  C  C87  1  0.40133000  0.39951000  0.23576000  1.0
  C  C88  1  0.47670000  0.74023000  0.87213000  1.0
  C  C89  1  0.50300000  0.71166000  0.78614000  1.0
  C  C90  1  0.41377000  0.54402000  0.80425000  1.0
  N  N91  1  0.42991000  0.26219000  0.54860000  1.0
  N  N92  1  0.59325000  0.72218000  0.43910000  1.0
  N  N93  1  0.41828000  0.79458000  0.05533000  1.0
  N  N94  1  0.36532000  0.66244000  0.16639000  1.0
  N  N95  1  0.19365000  0.37784000  0.82451000  1.0
  N  N96  1  0.87182000  0.47578000  0.34197000  1.0
  N  N97  1  0.14228000  0.50145000  0.67475000  1.0
  O  O98  1  0.54568000  0.64300000  0.61080000  1.0
  O  O99  1  0.98377000  0.64390000  0.60743000  1.0
  O  O100  1  0.50188000  0.48997000  0.64194000  1.0
  O  O101  1  0.34951000  0.55306000  0.47299000  1.0
  O  O102  1  0.28989000  0.40593000  0.51738000  1.0
  O  O103  1  0.53124000  0.51613000  0.35206000  1.0
  O  O104  1  0.44667000  0.36315000  0.38022000  1.0
  O  O105  1  0.72946000  0.57292000  0.50355000  1.0
  O  O106  1  0.66976000  0.41406000  0.51643000  1.0
  O  O107  1  0.17392000  0.09342000  0.64401000  1.0
