# generated using pymatgen
data_K2H22PtC20S4Cl4O3
_symmetry_space_group_name_H-M   'P 1'
_cell_length_a   8.05535000
_cell_length_b   12.61530000
_cell_length_c   14.31960000
_cell_angle_alpha   83.44680000
_cell_angle_beta   75.87420000
_cell_angle_gamma   77.71800000
_symmetry_Int_Tables_number   1
_chemical_formula_structural   K2H22PtC20S4Cl4O3
_chemical_formula_sum   'K4 H44 Pt2 C40 S8 Cl8 O6'
_cell_volume   1375.89314910
_cell_formula_units_Z   2
loop_
 _symmetry_equiv_pos_site_id
 _symmetry_equiv_pos_as_xyz
  1  'x, y, z'
loop_
 _atom_site_type_symbol
 _atom_site_label
 _atom_site_symmetry_multiplicity
 _atom_site_fract_x
 _atom_site_fract_y
 _atom_site_fract_z
 _atom_site_occupancy
  K  K0  1  0.03243000  0.48994000  0.75768000  1.0
  K  K1  1  0.96757000  0.51005000  0.24232000  1.0
  K  K2  1  0.50080000  0.44533000  0.83157000  1.0
  K  K3  1  0.49918000  0.55468000  0.16844000  1.0
  H  H4  1  0.01490000  0.02051000  0.86535000  1.0
  H  H5  1  0.98511000  0.97948000  0.13464000  1.0
  H  H6  1  0.28685000  0.96637000  0.92951000  1.0
  H  H7  1  0.71315000  0.03363000  0.07049000  1.0
  H  H8  1  0.20006000  0.95984000  0.52919000  1.0
  H  H9  1  0.79995000  0.04016000  0.47082000  1.0
  H  H10  1  0.97581000  0.99387000  0.68445000  1.0
  H  H11  1  0.02419000  0.00613000  0.31555000  1.0
  H  H12  1  0.38180000  0.70851000  0.75602000  1.0
  H  H13  1  0.61820000  0.29149000  0.24398000  1.0
  H  H14  1  0.17289000  0.67357000  0.80477000  1.0
  H  H15  1  0.82710000  0.32643000  0.19523000  1.0
  H  H16  1  0.20169000  0.84270000  0.66830000  1.0
  H  H17  1  0.79830000  0.15730000  0.33170000  1.0
  H  H18  1  0.07088000  0.74858000  0.65856000  1.0
  H  H19  1  0.92912000  0.25142000  0.34144000  1.0
  H  H20  1  0.28058000  0.73155000  0.50381000  1.0
  H  H21  1  0.71942000  0.26845000  0.49618000  1.0
  H  H22  1  0.45218000  0.74981000  0.55565000  1.0
  H  H23  1  0.54781000  0.25019000  0.44435000  1.0
  H  H24  1  0.30374000  0.54655000  0.56343000  1.0
  H  H25  1  0.69626000  0.45346000  0.43657000  1.0
  H  H26  1  0.51963000  0.55852000  0.56904000  1.0
  H  H27  1  0.48037000  0.44148000  0.43095000  1.0
  H  H28  1  0.50224000  0.34121000  0.63704000  1.0
  H  H29  1  0.49776000  0.65880000  0.36296000  1.0
  H  H30  1  0.29608000  0.33236000  0.61549000  1.0
  H  H31  1  0.70392000  0.66765000  0.38451000  1.0
  H  H32  1  0.39476000  0.14648000  0.59944000  1.0
  H  H33  1  0.60524000  0.85352000  0.40056000  1.0
  H  H34  1  0.58908000  0.14849000  0.63544000  1.0
  H  H35  1  0.41093000  0.85152000  0.36456000  1.0
  H  H36  1  0.30667000  0.05902000  0.75376000  1.0
  H  H37  1  0.69333000  0.94098000  0.24623000  1.0
  H  H38  1  0.47177000  0.09941000  0.79689000  1.0
  H  H39  1  0.52823000  0.90059000  0.20311000  1.0
  H  H40  1  0.11138000  0.23148000  0.78459000  1.0
  H  H41  1  0.88862000  0.76852000  0.21541000  1.0
  H  H42  1  0.22093000  0.22408000  0.88069000  1.0
  H  H43  1  0.77907000  0.77592000  0.11931000  1.0
  H  H44  1  0.70864000  0.65494000  0.83366000  1.0
  H  H45  1  0.29136000  0.34505000  0.16634000  1.0
  H  H46  1  0.70710000  0.65087000  0.72465000  1.0
  H  H47  1  0.29290000  0.34913000  0.27535000  1.0
  Pt  Pt48  1  0.00000000  0.50000000  0.00000000  1.0
  Pt  Pt49  1  0.00000000  0.50000000  0.50000000  1.0
  C  C50  1  0.98541000  0.75682000  0.94477000  1.0
  C  C51  1  0.01460000  0.24318000  0.05523000  1.0
  C  C52  1  0.94430000  0.86348000  0.90391000  1.0
  C  C53  1  0.05571000  0.13652000  0.09609000  1.0
  C  C54  1  0.05123000  0.93873000  0.89708000  1.0
  C  C55  1  0.94877000  0.06126000  0.10292000  1.0
  C  C56  1  0.20223000  0.90864000  0.93266000  1.0
  C  C57  1  0.79778000  0.09136000  0.06734000  1.0
  C  C58  1  0.24453000  0.80360000  0.97315000  1.0
  C  C59  1  0.75547000  0.19640000  0.02685000  1.0
  C  C60  1  0.14080000  0.72527000  0.97884000  1.0
  C  C61  1  0.85920000  0.27473000  0.02116000  1.0
  C  C62  1  0.10584000  0.23847000  0.50763000  1.0
  C  C63  1  0.89416000  0.76153000  0.49237000  1.0
  C  C64  1  0.18374000  0.13025000  0.48667000  1.0
  C  C65  1  0.81626000  0.86976000  0.51333000  1.0
  C  C66  1  0.13804000  0.04225000  0.54843000  1.0
  C  C67  1  0.86196000  0.95775000  0.45157000  1.0
  C  C68  1  0.01380000  0.06111000  0.63478000  1.0
  C  C69  1  0.98620000  0.93889000  0.36523000  1.0
  C  C70  1  0.93578000  0.16767000  0.65667000  1.0
  C  C71  1  0.06421000  0.83233000  0.34333000  1.0
  C  C72  1  0.97511000  0.25768000  0.59374000  1.0
  C  C73  1  0.02489000  0.74232000  0.40626000  1.0
  C  C74  1  0.27165000  0.68250000  0.73807000  1.0
  C  C75  1  0.72834000  0.31750000  0.26193000  1.0
  C  C76  1  0.20367000  0.75728000  0.65929000  1.0
  C  C77  1  0.79632000  0.24272000  0.34071000  1.0
  C  C78  1  0.33477000  0.71423000  0.56830000  1.0
  C  C79  1  0.66522000  0.28578000  0.43170000  1.0
  C  C80  1  0.37966000  0.59185000  0.59323000  1.0
  C  C81  1  0.62034000  0.40815000  0.40676000  1.0
  C  C82  1  0.39238000  0.29821000  0.65952000  1.0
  C  C83  1  0.60761000  0.70180000  0.34048000  1.0
  C  C84  1  0.44699000  0.17415000  0.65423000  1.0
  C  C85  1  0.55301000  0.82585000  0.34577000  1.0
  C  C86  1  0.36953000  0.12741000  0.75618000  1.0
  C  C87  1  0.63047000  0.87259000  0.24382000  1.0
  C  C88  1  0.23958000  0.22408000  0.80230000  1.0
  C  C89  1  0.76042000  0.77592000  0.19770000  1.0
  S  S90  1  0.84963000  0.66387000  0.95074000  1.0
  S  S91  1  0.15037000  0.33613000  0.04926000  1.0
  S  S92  1  0.20853000  0.59041000  0.02048000  1.0
  S  S93  1  0.79147000  0.40959000  0.97952000  1.0
  S  S94  1  0.17528000  0.34693000  0.43243000  1.0
  S  S95  1  0.82472000  0.65307000  0.56757000  1.0
  S  S96  1  0.86331000  0.38951000  0.62051000  1.0
  S  S97  1  0.13669000  0.61049000  0.37949000  1.0
  Cl  Cl98  1  0.75836000  0.90170000  0.85819000  1.0
  Cl  Cl99  1  0.24164000  0.09830000  0.14181000  1.0
  Cl  Cl100  1  0.43846000  0.76738000  0.01137000  1.0
  Cl  Cl101  1  0.56154000  0.23261000  0.98863000  1.0
  Cl  Cl102  1  0.34302000  0.10549000  0.38116000  1.0
  Cl  Cl103  1  0.65699000  0.89452000  0.61885000  1.0
  Cl  Cl104  1  0.78771000  0.18991000  0.76669000  1.0
  Cl  Cl105  1  0.21228000  0.81009000  0.23332000  1.0
  O  O106  1  0.33052000  0.57624000  0.69855000  1.0
  O  O107  1  0.66948000  0.42376000  0.30144000  1.0
  O  O108  1  0.31446000  0.31830000  0.76043000  1.0
  O  O109  1  0.68554000  0.68170000  0.23957000  1.0
  O  O110  1  0.67779000  0.61262000  0.78882000  1.0
  O  O111  1  0.32221000  0.38738000  0.21119000  1.0
