# generated using pymatgen
data_SmCuH15C25(N3O4)2
_symmetry_space_group_name_H-M   'P 1'
_cell_length_a   7.62834000
_cell_length_b   12.18760000
_cell_length_c   14.20930000
_cell_angle_alpha   69.05290000
_cell_angle_beta   88.02970000
_cell_angle_gamma   82.62480000
_symmetry_Int_Tables_number   1
_chemical_formula_structural   SmCuH15C25(N3O4)2
_chemical_formula_sum   'Sm2 Cu2 H30 C50 N12 O16'
_cell_volume   1223.44620952
_cell_formula_units_Z   2
loop_
 _symmetry_equiv_pos_site_id
 _symmetry_equiv_pos_as_xyz
  1  'x, y, z'
loop_
 _atom_site_type_symbol
 _atom_site_label
 _atom_site_symmetry_multiplicity
 _atom_site_fract_x
 _atom_site_fract_y
 _atom_site_fract_z
 _atom_site_occupancy
  Sm  Sm0  1  0.20004000  0.41337000  0.65347000  1.0
  Sm  Sm1  1  0.79996000  0.58663000  0.34653000  1.0
  Cu  Cu2  1  0.71468000  0.14310000  0.19857000  1.0
  Cu  Cu3  1  0.28533000  0.85690000  0.80144000  1.0
  H  H4  1  0.51866000  0.35150000  0.26393000  1.0
  H  H5  1  0.48135000  0.64850000  0.73607000  1.0
  H  H6  1  0.68985000  0.69533000  0.97053000  1.0
  H  H7  1  0.31015000  0.30467000  0.02947000  1.0
  H  H8  1  0.87814000  0.65397000  0.83482000  1.0
  H  H9  1  0.12186000  0.34603000  0.16518000  1.0
  H  H10  1  0.86642000  0.27817000  0.98080000  1.0
  H  H11  1  0.13360000  0.72183000  0.01920000  1.0
  H  H12  1  0.91340000  0.88775000  0.23313000  1.0
  H  H13  1  0.08659000  0.11226000  0.76687000  1.0
  H  H14  1  0.56187000  0.22653000  0.96838000  1.0
  H  H15  1  0.43813000  0.77347000  0.03162000  1.0
  H  H16  1  0.61878000  0.03110000  0.76728000  1.0
  H  H17  1  0.38120000  0.96891000  0.23272000  1.0
  H  H18  1  0.81219000  0.86441000  0.89213000  1.0
  H  H19  1  0.18782000  0.13560000  0.10786000  1.0
  H  H20  1  0.63067000  0.89794000  0.34687000  1.0
  H  H21  1  0.36933000  0.10206000  0.65313000  1.0
  H  H22  1  0.83332000  0.27204000  0.36069000  1.0
  H  H23  1  0.16668000  0.72796000  0.63931000  1.0
  H  H24  1  0.89190000  0.10561000  0.68292000  1.0
  H  H25  1  0.10810000  0.89437000  0.31708000  1.0
  H  H26  1  0.79311000  0.91914000  0.68074000  1.0
  H  H27  1  0.20687000  0.08085000  0.31926000  1.0
  H  H28  1  0.54577000  0.56803000  0.16144000  1.0
  H  H29  1  0.45423000  0.43197000  0.83855000  1.0
  H  H30  1  0.93501000  0.78962000  0.10890000  1.0
  H  H31  1  0.06499000  0.21039000  0.89109000  1.0
  H  H32  1  0.67952000  0.82253000  0.53379000  1.0
  H  H33  1  0.32047000  0.17747000  0.46620000  1.0
  C  C34  1  0.58063000  0.38196000  0.19077000  1.0
  C  C35  1  0.41939000  0.61804000  0.80923000  1.0
  C  C36  1  0.67774000  0.50795000  0.05097000  1.0
  C  C37  1  0.32228000  0.49206000  0.94903000  1.0
  C  C38  1  0.72837000  0.60548000  0.97229000  1.0
  C  C39  1  0.27164000  0.39452000  0.02771000  1.0
  C  C40  1  0.83121000  0.58217000  0.89745000  1.0
  C  C41  1  0.16880000  0.41784000  0.10256000  1.0
  C  C42  1  0.87910000  0.46540000  0.89929000  1.0
  C  C43  1  0.12092000  0.53461000  0.10071000  1.0
  C  C44  1  0.98697000  0.44638000  0.81591000  1.0
  C  C45  1  0.01304000  0.55362000  0.18409000  1.0
  C  C46  1  0.82854000  0.36820000  0.97873000  1.0
  C  C47  1  0.17149000  0.63180000  0.02127000  1.0
  C  C48  1  0.72997000  0.39019000  0.05576000  1.0
  C  C49  1  0.27004000  0.60981000  0.94424000  1.0
  C  C50  1  0.86148000  0.93193000  0.15689000  1.0
  C  C51  1  0.13851000  0.06807000  0.84311000  1.0
  C  C52  1  0.72169000  0.05557000  0.02292000  1.0
  C  C53  1  0.27831000  0.94444000  0.97708000  1.0
  C  C54  1  0.61765000  0.14857000  0.95216000  1.0
  C  C55  1  0.38234000  0.85144000  0.04784000  1.0
  C  C56  1  0.58223000  0.13784000  0.86010000  1.0
  C  C57  1  0.41776000  0.86217000  0.13989000  1.0
  C  C58  1  0.46067000  0.23236000  0.78630000  1.0
  C  C59  1  0.53932000  0.76764000  0.21370000  1.0
  C  C60  1  0.65205000  0.03571000  0.83947000  1.0
  C  C61  1  0.34795000  0.96430000  0.16053000  1.0
  C  C62  1  0.75796000  0.94254000  0.90884000  1.0
  C  C63  1  0.24205000  0.05747000  0.09116000  1.0
  C  C64  1  0.79010000  0.95302000  0.00144000  1.0
  C  C65  1  0.20990000  0.04699000  0.99855000  1.0
  C  C66  1  0.67406000  0.95059000  0.38762000  1.0
  C  C67  1  0.32593000  0.04941000  0.61238000  1.0
  C  C68  1  0.82174000  0.19563000  0.42923000  1.0
  C  C69  1  0.17826000  0.80436000  0.57078000  1.0
  C  C70  1  0.86951000  0.19781000  0.52294000  1.0
  C  C71  1  0.13048000  0.80218000  0.47706000  1.0
  C  C72  1  0.93991000  0.30391000  0.53110000  1.0
  C  C73  1  0.06008000  0.69607000  0.46890000  1.0
  C  C74  1  0.85735000  0.09867000  0.61197000  1.0
  C  C75  1  0.14264000  0.90132000  0.38803000  1.0
  C  C76  1  0.80022000  0.99525000  0.61154000  1.0
  C  C77  1  0.19977000  0.00474000  0.38847000  1.0
  C  C78  1  0.75457000  0.99310000  0.51811000  1.0
  C  C79  1  0.24543000  0.00689000  0.48189000  1.0
  C  C80  1  0.53371000  0.53141000  0.53436000  1.0
  C  C81  1  0.46627000  0.46861000  0.46565000  1.0
  C  C82  1  0.76438000  0.09174000  0.42735000  1.0
  C  C83  1  0.23563000  0.90825000  0.57265000  1.0
  N  N84  1  0.58032000  0.49833000  0.13621000  1.0
  N  N85  1  0.41970000  0.50168000  0.86379000  1.0
  N  N86  1  0.66753000  0.31290000  0.14534000  1.0
  N  N87  1  0.33249000  0.68710000  0.85466000  1.0
  N  N88  1  0.76997000  0.03942000  0.12152000  1.0
  N  N89  1  0.23002000  0.96059000  0.87848000  1.0
  N  N90  1  0.87877000  0.87794000  0.08797000  1.0
  N  N91  1  0.12122000  0.12207000  0.91203000  1.0
  N  N92  1  0.69594000  0.90684000  0.48956000  1.0
  N  N93  1  0.30405000  0.09315000  0.51044000  1.0
  N  N94  1  0.71293000  0.06112000  0.34691000  1.0
  N  N95  1  0.28706000  0.93888000  0.65309000  1.0
  O  O96  1  0.06282000  0.53035000  0.75456000  1.0
  O  O97  1  0.93722000  0.46964000  0.24545000  1.0
  O  O98  1  0.00229000  0.34438000  0.80595000  1.0
  O  O99  1  0.99771000  0.65563000  0.19404000  1.0
  O  O100  1  0.39362000  0.32249000  0.80813000  1.0
  O  O101  1  0.60639000  0.67752000  0.19186000  1.0
  O  O102  1  0.41608000  0.22331000  0.70404000  1.0
  O  O103  1  0.58387000  0.77668000  0.29597000  1.0
  O  O104  1  0.02482000  0.28893000  0.61185000  1.0
  O  O105  1  0.97521000  0.71105000  0.38813000  1.0
  O  O106  1  0.91510000  0.40224000  0.45868000  1.0
  O  O107  1  0.08486000  0.59776000  0.54133000  1.0
  O  O108  1  0.45675000  0.51534000  0.61803000  1.0
  O  O109  1  0.54323000  0.48468000  0.38197000  1.0
  O  O110  1  0.65901000  0.59292000  0.50148000  1.0
  O  O111  1  0.34098000  0.40709000  0.49852000  1.0
