# generated using pymatgen
data_ZrP4H18C8(NO8)2
_symmetry_space_group_name_H-M   'P 1'
_cell_length_a   5.49917000
_cell_length_b   13.49240000
_cell_length_c   14.74790000
_cell_angle_alpha   90.00030000
_cell_angle_beta   90.00010000
_cell_angle_gamma   82.25650000
_symmetry_Int_Tables_number   1
_chemical_formula_structural   ZrP4H18C8(NO8)2
_chemical_formula_sum   'Zr2 P8 H36 C16 N4 O32'
_cell_volume   1084.27169744
_cell_formula_units_Z   2
loop_
 _symmetry_equiv_pos_site_id
 _symmetry_equiv_pos_as_xyz
  1  'x, y, z'
loop_
 _atom_site_type_symbol
 _atom_site_label
 _atom_site_symmetry_multiplicity
 _atom_site_fract_x
 _atom_site_fract_y
 _atom_site_fract_z
 _atom_site_occupancy
  Zr  Zr0  1  0.50000000  0.49999000  0.50000000  1.0
  Zr  Zr1  1  0.00001000  0.00000000  0.99999000  1.0
  P  P2  1  0.99202000  0.49530000  0.35217000  1.0
  P  P3  1  0.50799000  0.00470000  0.85217000  1.0
  P  P4  1  0.00798000  0.50470000  0.64783000  1.0
  P  P5  1  0.49202000  0.99530000  0.14783000  1.0
  P  P6  1  0.80139000  0.25352000  0.05923000  1.0
  P  P7  1  0.69861000  0.24648000  0.55922000  1.0
  P  P8  1  0.19862000  0.74648000  0.94077000  1.0
  P  P9  1  0.30138000  0.75353000  0.44078000  1.0
  H  H10  1  0.53391000  0.17653000  0.14700000  1.0
  H  H11  1  0.96609000  0.32347000  0.64699000  1.0
  H  H12  1  0.46610000  0.82347000  0.85300000  1.0
  H  H13  1  0.03390000  0.67653000  0.35301000  1.0
  H  H14  1  0.28046000  0.40165000  0.25086000  1.0
  H  H15  1  0.21955000  0.09835000  0.75086000  1.0
  H  H16  1  0.71954000  0.59835000  0.74914000  1.0
  H  H17  1  0.78045000  0.90165000  0.24914000  1.0
  H  H18  1  0.09953000  0.32321000  0.31211000  1.0
  H  H19  1  0.40047000  0.17680000  0.81212000  1.0
  H  H20  1  0.90048000  0.67680000  0.68789000  1.0
  H  H21  1  0.59953000  0.82320000  0.18788000  1.0
  H  H22  1  0.02028000  0.22916000  0.19873000  1.0
  H  H23  1  0.47973000  0.27084000  0.69873000  1.0
  H  H24  1  0.97971000  0.77083000  0.80127000  1.0
  H  H25  1  0.52025000  0.72916000  0.30127000  1.0
  H  H26  1  0.19374000  0.28720000  0.11750000  1.0
  H  H27  1  0.30626000  0.21280000  0.61750000  1.0
  H  H28  1  0.80626000  0.71280000  0.88250000  1.0
  H  H29  1  0.69373000  0.78720000  0.38250000  1.0
  H  H30  1  0.75304000  0.39448000  0.21043000  1.0
  H  H31  1  0.74698000  0.10551000  0.71043000  1.0
  H  H32  1  0.24697000  0.60552000  0.78957000  1.0
  H  H33  1  0.25302000  0.89449000  0.28957000  1.0
  H  H34  1  0.05698000  0.52664000  0.15600000  1.0
  H  H35  1  0.44304000  0.97336000  0.65600000  1.0
  H  H36  1  0.94303000  0.47335000  0.84400000  1.0
  H  H37  1  0.55695000  0.02664000  0.34400000  1.0
  H  H38  1  0.02488000  0.44494000  0.06286000  1.0
  H  H39  1  0.47513000  0.05506000  0.56286000  1.0
  H  H40  1  0.97512000  0.55505000  0.93715000  1.0
  H  H41  1  0.52486000  0.94494000  0.43714000  1.0
  H  H42  1  0.47521000  0.62496000  0.04147000  1.0
  H  H43  1  0.02479000  0.87504000  0.54147000  1.0
  H  H44  1  0.52478000  0.37504000  0.95853000  1.0
  H  H45  1  0.97520000  0.12496000  0.45853000  1.0
  C  C46  1  0.09472000  0.39333000  0.27394000  1.0
  C  C47  1  0.40529000  0.10668000  0.77394000  1.0
  C  C48  1  0.90528000  0.60667000  0.72605000  1.0
  C  C49  1  0.59471000  0.89333000  0.22605000  1.0
  C  C50  1  0.00990000  0.28738000  0.14630000  1.0
  C  C51  1  0.49011000  0.21261000  0.64631000  1.0
  C  C52  1  0.99010000  0.71261000  0.85370000  1.0
  C  C53  1  0.50988000  0.78738000  0.35370000  1.0
  C  C54  1  0.94489000  0.47309000  0.12738000  1.0
  C  C55  1  0.55510000  0.02692000  0.62739000  1.0
  C  C56  1  0.05510000  0.52692000  0.87262000  1.0
  C  C57  1  0.44488000  0.97308000  0.37262000  1.0
  C  C58  1  0.68204000  0.52194000  0.11512000  1.0
  C  C59  1  0.81797000  0.97806000  0.61512000  1.0
  C  C60  1  0.31796000  0.47806000  0.88489000  1.0
  C  C61  1  0.18204000  0.02194000  0.38488000  1.0
  N  N62  1  0.93895000  0.38658000  0.19155000  1.0
  N  N63  1  0.56106000  0.11342000  0.69155000  1.0
  N  N64  1  0.06104000  0.61342000  0.80845000  1.0
  N  N65  1  0.43894000  0.88658000  0.30845000  1.0
  O  O66  1  0.74001000  0.47476000  0.38824000  1.0
  O  O67  1  0.76001000  0.02525000  0.88824000  1.0
  O  O68  1  0.25998000  0.52524000  0.61176000  1.0
  O  O69  1  0.24002000  0.97475000  0.11175000  1.0
  O  O70  1  0.19533000  0.47641000  0.42460000  1.0
  O  O71  1  0.30468000  0.02359000  0.92460000  1.0
  O  O72  1  0.80468000  0.52359000  0.57540000  1.0
  O  O73  1  0.69533000  0.97641000  0.07540000  1.0
  O  O74  1  0.98221000  0.59523000  0.30414000  1.0
  O  O75  1  0.51780000  0.90478000  0.80414000  1.0
  O  O76  1  0.01780000  0.40478000  0.69586000  1.0
  O  O77  1  0.48220000  0.09522000  0.19586000  1.0
  O  O78  1  0.76205000  0.33200000  0.98602000  1.0
  O  O79  1  0.73794000  0.16800000  0.48602000  1.0
  O  O80  1  0.23795000  0.66801000  0.01398000  1.0
  O  O81  1  0.26205000  0.83200000  0.51398000  1.0
  O  O82  1  0.55574000  0.24384000  0.10961000  1.0
  O  O83  1  0.94427000  0.25616000  0.60960000  1.0
  O  O84  1  0.44427000  0.75616000  0.89039000  1.0
  O  O85  1  0.05573000  0.74384000  0.39040000  1.0
  O  O86  1  0.93258000  0.15111000  0.02947000  1.0
  O  O87  1  0.56740000  0.34889000  0.52946000  1.0
  O  O88  1  0.06742000  0.84890000  0.97052000  1.0
  O  O89  1  0.43258000  0.65111000  0.47054000  1.0
  O  O90  1  0.51513000  0.49313000  0.16044000  1.0
  O  O91  1  0.98488000  0.00687000  0.66043000  1.0
  O  O92  1  0.48488000  0.50687000  0.83957000  1.0
  O  O93  1  0.01511000  0.99312000  0.33957000  1.0
  O  O94  1  0.66096000  0.59344000  0.05488000  1.0
  O  O95  1  0.83907000  0.90656000  0.55489000  1.0
  O  O96  1  0.33904000  0.40656000  0.94512000  1.0
  O  O97  1  0.16095000  0.09344000  0.44512000  1.0
