# generated using pymatgen
data_Cd3H16C18S2(N3O7)2
_symmetry_space_group_name_H-M   'P 1'
_cell_length_a   7.00360000
_cell_length_b   7.96810000
_cell_length_c   12.69780000
_cell_angle_alpha   88.66690000
_cell_angle_beta   86.89820000
_cell_angle_gamma   64.23950000
_symmetry_Int_Tables_number   1
_chemical_formula_structural   Cd3H16C18S2(N3O7)2
_chemical_formula_sum   'Cd3 H16 C18 S2 N6 O14'
_cell_volume   637.24842451
_cell_formula_units_Z   1
loop_
 _symmetry_equiv_pos_site_id
 _symmetry_equiv_pos_as_xyz
  1  'x, y, z'
loop_
 _atom_site_type_symbol
 _atom_site_label
 _atom_site_symmetry_multiplicity
 _atom_site_fract_x
 _atom_site_fract_y
 _atom_site_fract_z
 _atom_site_occupancy
  Cd  Cd0  1  0.50000000  0.50000000  0.00000000  1.0
  Cd  Cd1  1  0.77782000  0.97777000  0.86298000  1.0
  Cd  Cd2  1  0.22218000  0.02223000  0.13702000  1.0
  H  H3  1  0.18038000  0.84878000  0.36999000  1.0
  H  H4  1  0.81963000  0.15122000  0.63001000  1.0
  H  H5  1  0.44341000  0.29472000  0.25003000  1.0
  H  H6  1  0.55659000  0.70527000  0.74997000  1.0
  H  H7  1  0.05488000  0.76057000  0.50354000  1.0
  H  H8  1  0.94512000  0.23942000  0.49646000  1.0
  H  H9  1  0.21315000  0.33110000  0.73786000  1.0
  H  H10  1  0.78685000  0.66890000  0.26214000  1.0
  H  H11  1  0.45448000  0.09990000  0.60762000  1.0
  H  H12  1  0.54552000  0.90010000  0.39238000  1.0
  H  H13  1  0.50292000  0.19591000  0.42379000  1.0
  H  H14  1  0.49708000  0.80409000  0.57621000  1.0
  H  H15  1  0.12283000  0.54119000  0.88992000  1.0
  H  H16  1  0.87717000  0.45881000  0.11008000  1.0
  H  H17  1  0.20304000  0.34929000  0.95305000  1.0
  H  H18  1  0.79696000  0.65071000  0.04695000  1.0
  C  C19  1  0.24779000  0.72836000  0.31852000  1.0
  C  C20  1  0.75221000  0.27163000  0.68148000  1.0
  C  C21  1  0.38675000  0.44474000  0.25668000  1.0
  C  C22  1  0.61325000  0.55526000  0.74332000  1.0
  C  C23  1  0.28343000  0.48478000  0.45166000  1.0
  C  C24  1  0.71657000  0.51522000  0.54834000  1.0
  C  C25  1  0.14774000  0.61548000  0.52452000  1.0
  C  C26  1  0.85226000  0.38452000  0.47548000  1.0
  C  C27  1  0.12188000  0.56205000  0.62780000  1.0
  C  C28  1  0.87812000  0.43795000  0.37220000  1.0
  C  C29  1  0.23113000  0.37503000  0.65753000  1.0
  C  C30  1  0.76887000  0.62497000  0.34247000  1.0
  C  C31  1  0.36612000  0.24443000  0.58347000  1.0
  C  C32  1  0.63388000  0.75557000  0.41653000  1.0
  C  C33  1  0.39481000  0.29795000  0.48051000  1.0
  C  C34  1  0.60519000  0.70205000  0.51949000  1.0
  C  C35  1  0.97315000  0.71203000  0.70170000  1.0
  C  C36  1  0.02685000  0.28797000  0.29830000  1.0
  S  S37  1  0.72035000  0.02549000  0.10082000  1.0
  S  S38  1  0.27965000  0.97451000  0.89918000  1.0
  N  N39  1  0.37776000  0.55813000  0.17791000  1.0
  N  N40  1  0.62225000  0.44187000  0.82209000  1.0
  N  N41  1  0.29125000  0.73642000  0.21715000  1.0
  N  N42  1  0.70875000  0.26358000  0.78284000  1.0
  N  N43  1  0.30608000  0.54685000  0.34750000  1.0
  N  N44  1  0.69393000  0.45315000  0.65250000  1.0
  O  O45  1  0.86939000  0.87402000  0.66561000  1.0
  O  O46  1  0.13060000  0.12598000  0.33439000  1.0
  O  O47  1  0.95530000  0.67079000  0.79903000  1.0
  O  O48  1  0.04470000  0.32922000  0.20097000  1.0
  O  O49  1  0.62357000  0.17539000  0.01875000  1.0
  O  O50  1  0.37643000  0.82461000  0.98125000  1.0
  O  O51  1  0.83821000  0.84923000  0.03863000  1.0
  O  O52  1  0.16179000  0.15077000  0.96138000  1.0
  O  O53  1  0.86328000  0.06604000  0.16599000  1.0
  O  O54  1  0.13672000  0.93397000  0.83402000  1.0
  O  O55  1  0.54937000  0.01496000  0.17223000  1.0
  O  O56  1  0.45063000  0.98504000  0.82777000  1.0
  O  O57  1  0.21539000  0.46820000  0.94682000  1.0
  O  O58  1  0.78461000  0.53180000  0.05318000  1.0
