# generated using pymatgen
data_BaH14C10(NO3)4
_symmetry_space_group_name_H-M   'P 1'
_cell_length_a   6.63181000
_cell_length_b   9.56735000
_cell_length_c   14.99980000
_cell_angle_alpha   90.82490000
_cell_angle_beta   90.02220000
_cell_angle_gamma   110.22400000
_symmetry_Int_Tables_number   1
_chemical_formula_structural   BaH14C10(NO3)4
_chemical_formula_sum   'Ba2 H28 C20 N8 O24'
_cell_volume   892.93771820
_cell_formula_units_Z   2
loop_
 _symmetry_equiv_pos_site_id
 _symmetry_equiv_pos_as_xyz
  1  'x, y, z'
loop_
 _atom_site_type_symbol
 _atom_site_label
 _atom_site_symmetry_multiplicity
 _atom_site_fract_x
 _atom_site_fract_y
 _atom_site_fract_z
 _atom_site_occupancy
  Ba  Ba0  1  0.03505000  0.99974000  0.75028000  1.0
  Ba  Ba1  1  0.96495000  0.00026000  0.24972000  1.0
  H  H2  1  0.20899000  0.55367000  0.56965000  1.0
  H  H3  1  0.65397000  0.44564000  0.93052000  1.0
  H  H4  1  0.79102000  0.44635000  0.43035000  1.0
  H  H5  1  0.34604000  0.55436000  0.06948000  1.0
  H  H6  1  0.18514000  0.83767000  0.54904000  1.0
  H  H7  1  0.34678000  0.16208000  0.95067000  1.0
  H  H8  1  0.81487000  0.16234000  0.45097000  1.0
  H  H9  1  0.65321000  0.83790000  0.04933000  1.0
  H  H10  1  0.00650000  0.87263000  0.49460000  1.0
  H  H11  1  0.13332000  0.12732000  0.00500000  1.0
  H  H12  1  0.99350000  0.12737000  0.50540000  1.0
  H  H13  1  0.86667000  0.87267000  0.99501000  1.0
  H  H14  1  0.70865000  0.98632000  0.92457000  1.0
  H  H15  1  0.72237000  0.01399000  0.57591000  1.0
  H  H16  1  0.29135000  0.01368000  0.07543000  1.0
  H  H17  1  0.27763000  0.98602000  0.42409000  1.0
  H  H18  1  0.59863000  0.04271000  0.84358000  1.0
  H  H19  1  0.55621000  0.95721000  0.65688000  1.0
  H  H20  1  0.40136000  0.95728000  0.15642000  1.0
  H  H21  1  0.44379000  0.04280000  0.34312000  1.0
  H  H22  1  0.24918000  0.67218000  0.86144000  1.0
  H  H23  1  0.57676000  0.32731000  0.63870000  1.0
  H  H24  1  0.75082000  0.32782000  0.13856000  1.0
  H  H25  1  0.42323000  0.67266000  0.36129000  1.0
  H  H26  1  0.14138000  0.40590000  0.92409000  1.0
  H  H27  1  0.73566000  0.59356000  0.57605000  1.0
  H  H28  1  0.85863000  0.59409000  0.07590000  1.0
  H  H29  1  0.26432000  0.40642000  0.42394000  1.0
  C  C30  1  0.15561000  0.43337000  0.85389000  1.0
  C  C31  1  0.72232000  0.56599000  0.64625000  1.0
  C  C32  1  0.84440000  0.56663000  0.14611000  1.0
  C  C33  1  0.27768000  0.43400000  0.35374000  1.0
  C  C34  1  0.22130000  0.57343000  0.73328000  1.0
  C  C35  1  0.64727000  0.42603000  0.76689000  1.0
  C  C36  1  0.77872000  0.42659000  0.26672000  1.0
  C  C37  1  0.35274000  0.57395000  0.23311000  1.0
  C  C38  1  0.16484000  0.42265000  0.71015000  1.0
  C  C39  1  0.74182000  0.57674000  0.79001000  1.0
  C  C40  1  0.83517000  0.57736000  0.28985000  1.0
  C  C41  1  0.25819000  0.42325000  0.20998000  1.0
  C  C42  1  0.26987000  0.71115000  0.68131000  1.0
  C  C43  1  0.55801000  0.28837000  0.81884000  1.0
  C  C44  1  0.73015000  0.28887000  0.31870000  1.0
  C  C45  1  0.44199000  0.71162000  0.18116000  1.0
  C  C46  1  0.15952000  0.35244000  0.62165000  1.0
  C  C47  1  0.80610000  0.64684000  0.87857000  1.0
  C  C48  1  0.84047000  0.64758000  0.37835000  1.0
  C  C49  1  0.19390000  0.35316000  0.12142000  1.0
  N  N50  1  0.12475000  0.33759000  0.78589000  1.0
  N  N51  1  0.78725000  0.66176000  0.71426000  1.0
  N  N52  1  0.87525000  0.66241000  0.21411000  1.0
  N  N53  1  0.21276000  0.33823000  0.28573000  1.0
  N  N54  1  0.21653000  0.57620000  0.82478000  1.0
  N  N55  1  0.63994000  0.42324000  0.67538000  1.0
  N  N56  1  0.78348000  0.42380000  0.17522000  1.0
  N  N57  1  0.36006000  0.57674000  0.32461000  1.0
  O  O58  1  0.30906000  0.83328000  0.72224000  1.0
  O  O59  1  0.47467000  0.16629000  0.77794000  1.0
  O  O60  1  0.69095000  0.16673000  0.27778000  1.0
  O  O61  1  0.52532000  0.83370000  0.22206000  1.0
  O  O62  1  0.26667000  0.69697000  0.59544000  1.0
  O  O63  1  0.56920000  0.30246000  0.90471000  1.0
  O  O64  1  0.73335000  0.30305000  0.40457000  1.0
  O  O65  1  0.43078000  0.69753000  0.09529000  1.0
  O  O66  1  0.17371000  0.43572000  0.55137000  1.0
  O  O67  1  0.73605000  0.56367000  0.94880000  1.0
  O  O68  1  0.82630000  0.56430000  0.44863000  1.0
  O  O69  1  0.26396000  0.43633000  0.05119000  1.0
  O  O70  1  0.14657000  0.21991000  0.61403000  1.0
  O  O71  1  0.92594000  0.77920000  0.88633000  1.0
  O  O72  1  0.85341000  0.78011000  0.38596000  1.0
  O  O73  1  0.07404000  0.22079000  0.11367000  1.0
  O  O74  1  0.13527000  0.91983000  0.53185000  1.0
  O  O75  1  0.21462000  0.08002000  0.96764000  1.0
  O  O76  1  0.86472000  0.08018000  0.46815000  1.0
  O  O77  1  0.78537000  0.91997000  0.03237000  1.0
  O  O78  1  0.70267000  0.99472000  0.85907000  1.0
  O  O79  1  0.70806000  0.00543000  0.64142000  1.0
  O  O80  1  0.29735000  0.00529000  0.14094000  1.0
  O  O81  1  0.29195000  0.99457000  0.35858000  1.0
