# generated using pymatgen
data_CoH16(C12N5)2
_symmetry_space_group_name_H-M   'P 1'
_cell_length_a   9.24127000
_cell_length_b   15.62900000
_cell_length_c   16.08350000
_cell_angle_alpha   72.47650000
_cell_angle_beta   76.83310000
_cell_angle_gamma   75.30780000
_symmetry_Int_Tables_number   1
_chemical_formula_structural   CoH16(C12N5)2
_chemical_formula_sum   'Co3 H48 C72 N30'
_cell_volume   2113.66873363
_cell_formula_units_Z   3
loop_
 _symmetry_equiv_pos_site_id
 _symmetry_equiv_pos_as_xyz
  1  'x, y, z'
loop_
 _atom_site_type_symbol
 _atom_site_label
 _atom_site_symmetry_multiplicity
 _atom_site_fract_x
 _atom_site_fract_y
 _atom_site_fract_z
 _atom_site_occupancy
  Co  Co0  1  0.50000000  0.00000000  0.50000000  1.0
  Co  Co1  1  0.00000000  0.50000000  0.00000000  1.0
  Co  Co2  1  0.00000000  0.50000000  0.50000000  1.0
  H  H3  1  0.01801000  0.97437000  0.32269000  1.0
  H  H4  1  0.01924000  0.83672000  0.26963000  1.0
  H  H5  1  0.78791000  0.76627000  0.31980000  1.0
  H  H6  1  0.56546000  0.83450000  0.41779000  1.0
  H  H7  1  0.81280000  0.37151000  0.62244000  1.0
  H  H8  1  0.72030000  0.23723000  0.61612000  1.0
  H  H9  1  0.01865000  0.24215000  0.36690000  1.0
  H  H10  1  0.09437000  0.37899000  0.38090000  1.0
  H  H11  1  0.04375000  0.17940000  0.99233000  1.0
  H  H12  1  0.87937000  0.21087000  0.87586000  1.0
  H  H13  1  0.76906000  0.37667000  0.80624000  1.0
  H  H14  1  0.81874000  0.49972000  0.85799000  1.0
  H  H15  1  0.37772000  0.99310000  0.34430000  1.0
  H  H16  1  0.26744000  0.09219000  0.21023000  1.0
  H  H17  1  0.35027000  0.32501000  0.26998000  1.0
  H  H18  1  0.45699000  0.21699000  0.40137000  1.0
  H  H19  1  0.51078000  0.35325000  0.58132000  1.0
  H  H20  1  0.42616000  0.32487000  0.74719000  1.0
  H  H21  1  0.14877000  0.37096000  0.80391000  1.0
  H  H22  1  0.96926000  0.44493000  0.69525000  1.0
  H  H23  1  0.64365000  0.53610000  0.02845000  1.0
  H  H24  1  0.42257000  0.52154000  0.15022000  1.0
  H  H25  1  0.73904000  0.39258000  0.33275000  1.0
  H  H26  1  0.94818000  0.41091000  0.20315000  1.0
  H  H27  1  0.98200000  0.02562000  0.67731000  1.0
  H  H28  1  0.98076000  0.16327000  0.73038000  1.0
  H  H29  1  0.21208000  0.23373000  0.68020000  1.0
  H  H30  1  0.43453000  0.16551000  0.58221000  1.0
  H  H31  1  0.18720000  0.62849000  0.37757000  1.0
  H  H32  1  0.27971000  0.76276000  0.38388000  1.0
  H  H33  1  0.98135000  0.75786000  0.63311000  1.0
  H  H34  1  0.90563000  0.62101000  0.61910000  1.0
  H  H35  1  0.95626000  0.82061000  0.00767000  1.0
  H  H36  1  0.12062000  0.78914000  0.12415000  1.0
  H  H37  1  0.23092000  0.62333000  0.19377000  1.0
  H  H38  1  0.18125000  0.50028000  0.14202000  1.0
  H  H39  1  0.62230000  0.00690000  0.65569000  1.0
  H  H40  1  0.73256000  0.90781000  0.78977000  1.0
  H  H41  1  0.64974000  0.67498000  0.73002000  1.0
  H  H42  1  0.54303000  0.78300000  0.59863000  1.0
  H  H43  1  0.48922000  0.64675000  0.41868000  1.0
  H  H44  1  0.57384000  0.67514000  0.25282000  1.0
  H  H45  1  0.85123000  0.62905000  0.19609000  1.0
  H  H46  1  0.03075000  0.55508000  0.30475000  1.0
  H  H47  1  0.35635000  0.46389000  0.97155000  1.0
  H  H48  1  0.57743000  0.47844000  0.84978000  1.0
  H  H49  1  0.26096000  0.60742000  0.66725000  1.0
  H  H50  1  0.05181000  0.58909000  0.79685000  1.0
  C  C51  1  0.80129000  0.15668000  0.47816000  1.0
  C  C52  1  0.78059000  0.04963000  0.43229000  1.0
  C  C53  1  0.79341000  0.97420000  0.39584000  1.0
  C  C54  1  0.92146000  0.94065000  0.34074000  1.0
  C  C55  1  0.92091000  0.86515000  0.31228000  1.0
  C  C56  1  0.79271000  0.82564000  0.34020000  1.0
  C  C57  1  0.66845000  0.86277000  0.39511000  1.0
  C  C58  1  0.85411000  0.34154000  0.56644000  1.0
  C  C59  1  0.80284000  0.26724000  0.56235000  1.0
  C  C60  1  0.85778000  0.23043000  0.48894000  1.0
  C  C61  1  0.96933000  0.26966000  0.42406000  1.0
  C  C62  1  0.01229000  0.34525000  0.43169000  1.0
  C  C63  1  0.22706000  0.27384000  0.15407000  1.0
  C  C64  1  0.10472000  0.31218000  0.04968000  1.0
  C  C65  1  0.01496000  0.32169000  0.98425000  1.0
  C  C66  1  0.99066000  0.24849000  0.96004000  1.0
  C  C67  1  0.89988000  0.26668000  0.89624000  1.0
  C  C68  1  0.83691000  0.35770000  0.85864000  1.0
  C  C69  1  0.86509000  0.42761000  0.88620000  1.0
  C  C70  1  0.37058000  0.06701000  0.32515000  1.0
  C  C71  1  0.30987000  0.12162000  0.25099000  1.0
  C  C72  1  0.29978000  0.21679000  0.22910000  1.0
  C  C73  1  0.35500000  0.25177000  0.28392000  1.0
  C  C74  1  0.41392000  0.19165000  0.35735000  1.0
  C  C75  1  0.44146000  0.45298000  0.32857000  1.0
  C  C76  1  0.32772000  0.43181000  0.45923000  1.0
  C  C77  1  0.28588000  0.41205000  0.55424000  1.0
  C  C78  1  0.39279000  0.37118000  0.61099000  1.0
  C  C79  1  0.34497000  0.35589000  0.70159000  1.0
  C  C80  1  0.19083000  0.38151000  0.73346000  1.0
  C  C81  1  0.09007000  0.42249000  0.67364000  1.0
  C  C82  1  0.66020000  0.50422000  0.09694000  1.0
  C  C83  1  0.53717000  0.49647000  0.16507000  1.0
  C  C84  1  0.56281000  0.45711000  0.25265000  1.0
  C  C85  1  0.71401000  0.42398000  0.26601000  1.0
  C  C86  1  0.82979000  0.43435000  0.19411000  1.0
  C  C87  1  0.19873000  0.84331000  0.52184000  1.0
  C  C88  1  0.21942000  0.95037000  0.56771000  1.0
  C  C89  1  0.20660000  0.02580000  0.60416000  1.0
  C  C90  1  0.07854000  0.05935000  0.65926000  1.0
  C  C91  1  0.07910000  0.13485000  0.68772000  1.0
  C  C92  1  0.20728000  0.17436000  0.65980000  1.0
  C  C93  1  0.33155000  0.13724000  0.60489000  1.0
  C  C94  1  0.14589000  0.65846000  0.43356000  1.0
  C  C95  1  0.19717000  0.73275000  0.43765000  1.0
  C  C96  1  0.14224000  0.76956000  0.51107000  1.0
  C  C97  1  0.03068000  0.73034000  0.57594000  1.0
  C  C98  1  0.98771000  0.65475000  0.56831000  1.0
  C  C99  1  0.77293000  0.72616000  0.84592000  1.0
  C  C100  1  0.89528000  0.68782000  0.95031000  1.0
  C  C101  1  0.98504000  0.67831000  0.01575000  1.0
  C  C102  1  0.00934000  0.75152000  0.03996000  1.0
  C  C103  1  0.10012000  0.73332000  0.10377000  1.0
  C  C104  1  0.16307000  0.64231000  0.14136000  1.0
  C  C105  1  0.13490000  0.57239000  0.11380000  1.0
  C  C106  1  0.62942000  0.93299000  0.67484000  1.0
  C  C107  1  0.69013000  0.87839000  0.74900000  1.0
  C  C108  1  0.70022000  0.78321000  0.77090000  1.0
  C  C109  1  0.64500000  0.74822000  0.71608000  1.0
  C  C110  1  0.58609000  0.80835000  0.64265000  1.0
  C  C111  1  0.55854000  0.54702000  0.67144000  1.0
  C  C112  1  0.67228000  0.56818000  0.54078000  1.0
  C  C113  1  0.71412000  0.58795000  0.44576000  1.0
  C  C114  1  0.60721000  0.62882000  0.38902000  1.0
  C  C115  1  0.65504000  0.64411000  0.29841000  1.0
  C  C116  1  0.80916000  0.61849000  0.26655000  1.0
  C  C117  1  0.90993000  0.57752000  0.32636000  1.0
  C  C118  1  0.33980000  0.49577000  0.90306000  1.0
  C  C119  1  0.46282000  0.50353000  0.83493000  1.0
  C  C120  1  0.43719000  0.54289000  0.74734000  1.0
  C  C121  1  0.28599000  0.57602000  0.73399000  1.0
  C  C122  1  0.17021000  0.56565000  0.80588000  1.0
  N  N123  1  0.65061000  0.06880000  0.48942000  1.0
  N  N124  1  0.66345000  0.13705000  0.52024000  1.0
  N  N125  1  0.87758000  0.10388000  0.42242000  1.0
  N  N126  1  0.66695000  0.93629000  0.42282000  1.0
  N  N127  1  0.95449000  0.38268000  0.50102000  1.0
  N  N128  1  0.11881000  0.39097000  0.06389000  1.0
  N  N129  1  0.19800000  0.36706000  0.13102000  1.0
  N  N130  1  0.17131000  0.23716000  0.10433000  1.0
  N  N131  1  0.95227000  0.41091000  0.94833000  1.0
  N  N132  1  0.42127000  0.10062000  0.37853000  1.0
  N  N133  1  0.21949000  0.47269000  0.40754000  1.0
  N  N134  1  0.29169000  0.48701000  0.32276000  1.0
  N  N135  1  0.46854000  0.41766000  0.41291000  1.0
  N  N136  1  0.13585000  0.43791000  0.58551000  1.0
  N  N137  1  0.80509000  0.47484000  0.11049000  1.0
  N  N138  1  0.34939000  0.93121000  0.51058000  1.0
  N  N139  1  0.33656000  0.86295000  0.47976000  1.0
  N  N140  1  0.12243000  0.89612000  0.57758000  1.0
  N  N141  1  0.33305000  0.06372000  0.57718000  1.0
  N  N142  1  0.04550000  0.61732000  0.49899000  1.0
  N  N143  1  0.88118000  0.60904000  0.93611000  1.0
  N  N144  1  0.80199000  0.63294000  0.86898000  1.0
  N  N145  1  0.82869000  0.76285000  0.89566000  1.0
  N  N146  1  0.04773000  0.58910000  0.05166000  1.0
  N  N147  1  0.57874000  0.89938000  0.62146000  1.0
  N  N148  1  0.78051000  0.52731000  0.59246000  1.0
  N  N149  1  0.70831000  0.51299000  0.67724000  1.0
  N  N150  1  0.53146000  0.58234000  0.58709000  1.0
  N  N151  1  0.86414000  0.56209000  0.41449000  1.0
  N  N152  1  0.19491000  0.52516000  0.88951000  1.0
