# generated using pymatgen
data_ZnH17C22N5O6
_symmetry_space_group_name_H-M   'P 1'
_cell_length_a   9.36630000
_cell_length_b   10.13850000
_cell_length_c   12.15360000
_cell_angle_alpha   103.11100000
_cell_angle_beta   108.92500000
_cell_angle_gamma   98.65180000
_symmetry_Int_Tables_number   1
_chemical_formula_structural   ZnH17C22N5O6
_chemical_formula_sum   'Zn2 H34 C44 N10 O12'
_cell_volume   1031.35678874
_cell_formula_units_Z   2
loop_
 _symmetry_equiv_pos_site_id
 _symmetry_equiv_pos_as_xyz
  1  'x, y, z'
loop_
 _atom_site_type_symbol
 _atom_site_label
 _atom_site_symmetry_multiplicity
 _atom_site_fract_x
 _atom_site_fract_y
 _atom_site_fract_z
 _atom_site_occupancy
  Zn  Zn0  1  0.21458000  0.92184000  0.83005000  1.0
  Zn  Zn1  1  0.78542000  0.07816000  0.16995000  1.0
  H  H2  1  0.18513000  0.36095000  0.04684000  1.0
  H  H3  1  0.81487000  0.63905000  0.95316000  1.0
  H  H4  1  0.41718000  0.42237000  0.24270000  1.0
  H  H5  1  0.58282000  0.57763000  0.75730000  1.0
  H  H6  1  0.63660000  0.62555000  0.28744000  1.0
  H  H7  1  0.36340000  0.37445000  0.71256000  1.0
  H  H8  1  0.31005000  0.66741000  0.67511000  1.0
  H  H9  1  0.68995000  0.33259000  0.32489000  1.0
  H  H10  1  0.97970000  0.89711000  0.56141000  1.0
  H  H11  1  0.02030000  0.10289000  0.43859000  1.0
  H  H12  1  0.96919000  0.69972000  0.35712000  1.0
  H  H13  1  0.03081000  0.30028000  0.64288000  1.0
  H  H14  1  0.14980000  0.54533000  0.32595000  1.0
  H  H15  1  0.85020000  0.45467000  0.67405000  1.0
  H  H16  1  0.10116000  0.43490000  0.40837000  1.0
  H  H17  1  0.89884000  0.56510000  0.59163000  1.0
  H  H18  1  0.27770000  0.29851000  0.44516000  1.0
  H  H19  1  0.72230000  0.70149000  0.55484000  1.0
  H  H20  1  0.45437000  0.73353000  0.49110000  1.0
  H  H21  1  0.54563000  0.26647000  0.50890000  1.0
  H  H22  1  0.98487000  0.13518000  0.78759000  1.0
  H  H23  1  0.01513000  0.86482000  0.21241000  1.0
  H  H24  1  0.94069000  0.76143000  0.88263000  1.0
  H  H25  1  0.05931000  0.23857000  0.11737000  1.0
  H  H26  1  0.65856000  0.84361000  0.84323000  1.0
  H  H27  1  0.34144000  0.15639000  0.15677000  1.0
  H  H28  1  0.72668000  0.19726000  0.79634000  1.0
  H  H29  1  0.27332000  0.80274000  0.20366000  1.0
  H  H30  1  0.58784000  0.07100000  0.81145000  1.0
  H  H31  1  0.41216000  0.92900000  0.18855000  1.0
  H  H32  1  0.78553000  0.02746000  0.58133000  1.0
  H  H33  1  0.21447000  0.97254000  0.41867000  1.0
  H  H34  1  0.35712000  0.03903000  0.63959000  1.0
  H  H35  1  0.64288000  0.96096000  0.36041000  1.0
  C  C36  1  0.52449000  0.68174000  0.12731000  1.0
  C  C37  1  0.47551000  0.31826000  0.87269000  1.0
  C  C38  1  0.39314000  0.65155000  0.01959000  1.0
  C  C39  1  0.60686000  0.34845000  0.98041000  1.0
  C  C40  1  0.27484000  0.53291000  0.99444000  1.0
  C  C41  1  0.72516000  0.46709000  0.00556000  1.0
  C  C42  1  0.28070000  0.45151000  0.07347000  1.0
  C  C43  1  0.71930000  0.54849000  0.92653000  1.0
  C  C44  1  0.40990000  0.48539000  0.18058000  1.0
  C  C45  1  0.59010000  0.51461000  0.81942000  1.0
  C  C46  1  0.53208000  0.59859000  0.20567000  1.0
  C  C47  1  0.46792000  0.40141000  0.79433000  1.0
  C  C48  1  0.65821000  0.80686000  0.16604000  1.0
  C  C49  1  0.34179000  0.19314000  0.83396000  1.0
  C  C50  1  0.37317000  0.74756000  0.93913000  1.0
  C  C51  1  0.62683000  0.25244000  0.06087000  1.0
  C  C52  1  0.21896000  0.70264000  0.61655000  1.0
  C  C53  1  0.78104000  0.29736000  0.38345000  1.0
  C  C54  1  0.04580000  0.81874000  0.55429000  1.0
  C  C55  1  0.95420000  0.18126000  0.44571000  1.0
  C  C56  1  0.04065000  0.72245000  0.45248000  1.0
  C  C57  1  0.95935000  0.27755000  0.54752000  1.0
  C  C58  1  0.18119000  0.53122000  0.41712000  1.0
  C  C59  1  0.81881000  0.46877000  0.58288000  1.0
  C  C60  1  0.34681000  0.51794000  0.46393000  1.0
  C  C61  1  0.65319000  0.48206000  0.53607000  1.0
  C  C62  1  0.37534000  0.38729000  0.46928000  1.0
  C  C63  1  0.62466000  0.61271000  0.53072000  1.0
  C  C64  1  0.47340000  0.63088000  0.49522000  1.0
  C  C65  1  0.52660000  0.36912000  0.50478000  1.0
  C  C66  1  0.93413000  0.04346000  0.80641000  1.0
  C  C67  1  0.06587000  0.95654000  0.19359000  1.0
  C  C68  1  0.90519000  0.84946000  0.85505000  1.0
  C  C69  1  0.09481000  0.15053000  0.14495000  1.0
  C  C70  1  0.76654000  0.88811000  0.83521000  1.0
  C  C71  1  0.23346000  0.11189000  0.16479000  1.0
  C  C72  1  0.66827000  0.08554000  0.76440000  1.0
  C  C73  1  0.33173000  0.91446000  0.23560000  1.0
  C  C74  1  0.58223000  0.03873000  0.62753000  1.0
  C  C75  1  0.41777000  0.96127000  0.37247000  1.0
  C  C76  1  0.65983000  0.01500000  0.54663000  1.0
  C  C77  1  0.34018000  0.98500000  0.45337000  1.0
  C  C78  1  0.42092000  0.02296000  0.57898000  1.0
  C  C79  1  0.57909000  0.97704000  0.42103000  1.0
  N  N80  1  0.13926000  0.48849000  0.88087000  1.0
  N  N81  1  0.86074000  0.51151000  0.11913000  1.0
  N  N82  1  0.15742000  0.80550000  0.65578000  1.0
  N  N83  1  0.84258000  0.19450000  0.34422000  1.0
  N  N84  1  0.15121000  0.65017000  0.49364000  1.0
  N  N85  1  0.84879000  0.34983000  0.50636000  1.0
  N  N86  1  0.00828000  0.94692000  0.83667000  1.0
  N  N87  1  0.99172000  0.05308000  0.16333000  1.0
  N  N88  1  0.78752000  0.01072000  0.80427000  1.0
  N  N89  1  0.21248000  0.98928000  0.19573000  1.0
  O  O90  1  0.79126000  0.80430000  0.23193000  1.0
  O  O91  1  0.20874000  0.19570000  0.76807000  1.0
  O  O92  1  0.62062000  0.91175000  0.12983000  1.0
  O  O93  1  0.37938000  0.08825000  0.87017000  1.0
  O  O94  1  0.44912000  0.75395000  0.87265000  1.0
  O  O95  1  0.55088000  0.24605000  0.12735000  1.0
  O  O96  1  0.26896000  0.81529000  0.94804000  1.0
  O  O97  1  0.73104000  0.18471000  0.05196000  1.0
  O  O98  1  0.15109000  0.52878000  0.79421000  1.0
  O  O99  1  0.84891000  0.47123000  0.20579000  1.0
  O  O100  1  0.01858000  0.41082000  0.87484000  1.0
  O  O101  1  0.98142000  0.58918000  0.12516000  1.0
