# generated using pymatgen
data_MgH13C17N2O5
_symmetry_space_group_name_H-M   'P 1'
_cell_length_a   12.51400000
_cell_length_b   12.51470000
_cell_length_c   13.60740000
_cell_angle_alpha   116.38400000
_cell_angle_beta   114.37600000
_cell_angle_gamma   93.89890000
_symmetry_Int_Tables_number   1
_chemical_formula_structural   MgH13C17N2O5
_chemical_formula_sum   'Mg4 H52 C68 N8 O20'
_cell_volume   1654.29190977
_cell_formula_units_Z   4
loop_
 _symmetry_equiv_pos_site_id
 _symmetry_equiv_pos_as_xyz
  1  'x, y, z'
loop_
 _atom_site_type_symbol
 _atom_site_label
 _atom_site_symmetry_multiplicity
 _atom_site_fract_x
 _atom_site_fract_y
 _atom_site_fract_z
 _atom_site_occupancy
  Mg  Mg0  1  0.19077000  0.94086000  0.75008000  1.0
  Mg  Mg1  1  0.80923000  0.05914000  0.24992000  1.0
  Mg  Mg2  1  0.50000000  0.00000000  0.00000000  1.0
  Mg  Mg3  1  0.00000000  0.00000000  0.50000000  1.0
  H  H4  1  0.54237000  0.15428000  0.86376000  1.0
  H  H5  1  0.29036000  0.17865000  0.63613000  1.0
  H  H6  1  0.45763000  0.84572000  0.13624000  1.0
  H  H7  1  0.70964000  0.82135000  0.36386000  1.0
  H  H8  1  0.01535000  0.85539000  0.89260000  1.0
  H  H9  1  0.96278000  0.62279000  0.60741000  1.0
  H  H10  1  0.98465000  0.14461000  0.10740000  1.0
  H  H11  1  0.03722000  0.37721000  0.39258000  1.0
  H  H12  1  0.28774000  0.22702000  0.98339000  1.0
  H  H13  1  0.24358000  0.80446000  0.51670000  1.0
  H  H14  1  0.71226000  0.77298000  0.01661000  1.0
  H  H15  1  0.75642000  0.19554000  0.48330000  1.0
  H  H16  1  0.89548000  0.85250000  0.00052000  1.0
  H  H17  1  0.85202000  0.39502000  0.49954000  1.0
  H  H18  1  0.10452000  0.14750000  0.99948000  1.0
  H  H19  1  0.14798000  0.60498000  0.50046000  1.0
  H  H20  1  0.60970000  0.37401000  0.91381000  1.0
  H  H21  1  0.46009000  0.19592000  0.58616000  1.0
  H  H22  1  0.39030000  0.62600000  0.08619000  1.0
  H  H23  1  0.53991000  0.80408000  0.41384000  1.0
  H  H24  1  0.35345000  0.97561000  0.23315000  1.0
  H  H25  1  0.74215000  0.62040000  0.26696000  1.0
  H  H26  1  0.64655000  0.02440000  0.76685000  1.0
  H  H27  1  0.25785000  0.37960000  0.73304000  1.0
  H  H28  1  0.34339000  0.45065000  0.04443000  1.0
  H  H29  1  0.40607000  0.79898000  0.45555000  1.0
  H  H30  1  0.65661000  0.54935000  0.95557000  1.0
  H  H31  1  0.59393000  0.20102000  0.54445000  1.0
  H  H32  1  0.23273000  0.96729000  0.33948000  1.0
  H  H33  1  0.62772000  0.39335000  0.16065000  1.0
  H  H34  1  0.76727000  0.03271000  0.66052000  1.0
  H  H35  1  0.37228000  0.60665000  0.83935000  1.0
  H  H36  1  0.05287000  0.39926000  0.73664000  1.0
  H  H37  1  0.66239000  0.81641000  0.76337000  1.0
  H  H38  1  0.94713000  0.60074000  0.26336000  1.0
  H  H39  1  0.33760000  0.18359000  0.23663000  1.0
  H  H40  1  0.00671000  0.34268000  0.87768000  1.0
  H  H41  1  0.46497000  0.62896000  0.62236000  1.0
  H  H42  1  0.99328000  0.65732000  0.12232000  1.0
  H  H43  1  0.53503000  0.37104000  0.37764000  1.0
  H  H44  1  0.88664000  0.26397000  0.72131000  1.0
  H  H45  1  0.54271000  0.66546000  0.77879000  1.0
  H  H46  1  0.11336000  0.73603000  0.27869000  1.0
  H  H47  1  0.45729000  0.33454000  0.22121000  1.0
  H  H48  1  0.95133000  0.60600000  0.86356000  1.0
  H  H49  1  0.74248000  0.58816000  0.63655000  1.0
  H  H50  1  0.04867000  0.39400000  0.13644000  1.0
  H  H51  1  0.25752000  0.41184000  0.36345000  1.0
  H  H52  1  0.05445000  0.61592000  0.79933000  1.0
  H  H53  1  0.81654000  0.75552000  0.70072000  1.0
  H  H54  1  0.94555000  0.38408000  0.20067000  1.0
  H  H55  1  0.18346000  0.24448000  0.29928000  1.0
  C  C56  1  0.98715000  0.91829000  0.24534000  1.0
  C  C57  1  0.67313000  0.24180000  0.25469000  1.0
  C  C58  1  0.01285000  0.08171000  0.75466000  1.0
  C  C59  1  0.32687000  0.75820000  0.74531000  1.0
  C  C60  1  0.26044000  0.92830000  0.99230000  1.0
  C  C61  1  0.93601000  0.76823000  0.50789000  1.0
  C  C62  1  0.73956000  0.07170000  0.00770000  1.0
  C  C63  1  0.06399000  0.23177000  0.49211000  1.0
  C  C64  1  0.19099000  0.91505000  0.05594000  1.0
  C  C65  1  0.85893000  0.63519000  0.44421000  1.0
  C  C66  1  0.80901000  0.08495000  0.94406000  1.0
  C  C67  1  0.14107000  0.36481000  0.55579000  1.0
  C  C68  1  0.48149000  0.43455000  0.98290000  1.0
  C  C69  1  0.45159000  0.99861000  0.51707000  1.0
  C  C70  1  0.51851000  0.56545000  0.01710000  1.0
  C  C71  1  0.54841000  0.00139000  0.48294000  1.0
  C  C72  1  0.50167000  0.22562000  0.90061000  1.0
  C  C73  1  0.32486000  0.10111000  0.59930000  1.0
  C  C74  1  0.49833000  0.77438000  0.09939000  1.0
  C  C75  1  0.67514000  0.89889000  0.40070000  1.0
  C  C76  1  0.53691000  0.34790000  0.93070000  1.0
  C  C77  1  0.41710000  0.10622000  0.56926000  1.0
  C  C78  1  0.46309000  0.65210000  0.06930000  1.0
  C  C79  1  0.58290000  0.89378000  0.43074000  1.0
  C  C80  1  0.05744000  0.90854000  0.17664000  1.0
  C  C81  1  0.73184000  0.38085000  0.32344000  1.0
  C  C82  1  0.94256000  0.09146000  0.82336000  1.0
  C  C83  1  0.26816000  0.61915000  0.67656000  1.0
  C  C84  1  0.99555000  0.87598000  0.05008000  1.0
  C  C85  1  0.82582000  0.44553000  0.45001000  1.0
  C  C86  1  0.00445000  0.12402000  0.94992000  1.0
  C  C87  1  0.17418000  0.55447000  0.54999000  1.0
  C  C88  1  0.18633000  0.94132000  0.24117000  1.0
  C  C89  1  0.69998000  0.44528000  0.25899000  1.0
  C  C90  1  0.81367000  0.05868000  0.75882000  1.0
  C  C91  1  0.30002000  0.55472000  0.74101000  1.0
  C  C92  1  0.25290000  0.94549000  0.18187000  1.0
  C  C93  1  0.76332000  0.57120000  0.31830000  1.0
  C  C94  1  0.74710000  0.05451000  0.81813000  1.0
  C  C95  1  0.23668000  0.42880000  0.68170000  1.0
  C  C96  1  0.06184000  0.87833000  0.99017000  1.0
  C  C97  1  0.88802000  0.57173000  0.50990000  1.0
  C  C98  1  0.93816000  0.12167000  0.00983000  1.0
  C  C99  1  0.11198000  0.42826000  0.49010000  1.0
  C  C100  1  0.35837000  0.26787000  0.97254000  1.0
  C  C101  1  0.29523000  0.88593000  0.52749000  1.0
  C  C102  1  0.64163000  0.73214000  0.02746000  1.0
  C  C103  1  0.70477000  0.11407000  0.47251000  1.0
  C  C104  1  0.39083000  0.39067000  0.00346000  1.0
  C  C105  1  0.38708000  0.88741000  0.49649000  1.0
  C  C106  1  0.60917000  0.60933000  0.99654000  1.0
  C  C107  1  0.61292000  0.11259000  0.50351000  1.0
  C  C108  1  0.00103000  0.44251000  0.78301000  1.0
  C  C109  1  0.65944000  0.71825000  0.71705000  1.0
  C  C110  1  0.99897000  0.55749000  0.21699000  1.0
  C  C111  1  0.34056000  0.28174000  0.28295000  1.0
  C  C112  1  0.93695000  0.35808000  0.80699000  1.0
  C  C113  1  0.55115000  0.63007000  0.69311000  1.0
  C  C114  1  0.06305000  0.64192000  0.19301000  1.0
  C  C115  1  0.44885000  0.36993000  0.30689000  1.0
  C  C116  1  0.00154000  0.56011000  0.81640000  1.0
  C  C117  1  0.74371000  0.68554000  0.68370000  1.0
  C  C118  1  0.99846000  0.43989000  0.18361000  1.0
  C  C119  1  0.25629000  0.31446000  0.31630000  1.0
  C  C120  1  0.85260000  0.40381000  0.85164000  1.0
  C  C121  1  0.55235000  0.50113000  0.64858000  1.0
  C  C122  1  0.14740000  0.59619000  0.14836000  1.0
  C  C123  1  0.44765000  0.49887000  0.35142000  1.0
  N  N124  1  0.41212000  0.18656000  0.91994000  1.0
  N  N125  1  0.26649000  0.99225000  0.58003000  1.0
  N  N126  1  0.58788000  0.81344000  0.08006000  1.0
  N  N127  1  0.73351000  0.00775000  0.41997000  1.0
  N  N128  1  0.78512000  0.44008000  0.88779000  1.0
  N  N129  1  0.55233000  0.39746000  0.61239000  1.0
  N  N130  1  0.21488000  0.55992000  0.11221000  1.0
  N  N131  1  0.44767000  0.60254000  0.38761000  1.0
  O  O132  1  0.37807000  0.06819000  0.88801000  1.0
  O  O133  1  0.18005000  0.99014000  0.61197000  1.0
  O  O134  1  0.62193000  0.93181000  0.11199000  1.0
  O  O135  1  0.81995000  0.00986000  0.38802000  1.0
  O  O136  1  0.19653000  0.89621000  0.87766000  1.0
  O  O137  1  0.01856000  0.81888000  0.62252000  1.0
  O  O138  1  0.80347000  0.10379000  0.12234000  1.0
  O  O139  1  0.98144000  0.18111000  0.37748000  1.0
  O  O140  1  0.04288000  0.93335000  0.35469000  1.0
  O  O141  1  0.57892000  0.18811000  0.14527000  1.0
  O  O142  1  0.95712000  0.06665000  0.64531000  1.0
  O  O143  1  0.42109000  0.81189000  0.85473000  1.0
  O  O144  1  0.87492000  0.91376000  0.18884000  1.0
  O  O145  1  0.72523000  0.18613000  0.31120000  1.0
  O  O146  1  0.12509000  0.08624000  0.81116000  1.0
  O  O147  1  0.27477000  0.81387000  0.68880000  1.0
  O  O148  1  0.37781000  0.97274000  0.05847000  1.0
  O  O149  1  0.91437000  0.81944000  0.44174000  1.0
  O  O150  1  0.62219000  0.02726000  0.94153000  1.0
  O  O151  1  0.08563000  0.18056000  0.55826000  1.0
