# generated using pymatgen
data_AgH10C12(NO)3
_symmetry_space_group_name_H-M   'P 1'
_cell_length_a   6.72444000
_cell_length_b   14.27060000
_cell_length_c   14.57634036
_cell_angle_alpha   118.94464691
_cell_angle_beta   101.64876342
_cell_angle_gamma   90.40300000
_symmetry_Int_Tables_number   1
_chemical_formula_structural   AgH10C12(NO)3
_chemical_formula_sum   'Ag4 H40 C48 N12 O12'
_cell_volume   1189.84928394
_cell_formula_units_Z   4
loop_
 _symmetry_equiv_pos_site_id
 _symmetry_equiv_pos_as_xyz
  1  'x, y, z'
loop_
 _atom_site_type_symbol
 _atom_site_label
 _atom_site_symmetry_multiplicity
 _atom_site_fract_x
 _atom_site_fract_y
 _atom_site_fract_z
 _atom_site_occupancy
  Ag  Ag0  1  0.83644000  0.75428000  0.72108000  1.0
  Ag  Ag1  1  0.66473000  0.03247000  0.27846000  1.0
  Ag  Ag2  1  0.16355000  0.24572000  0.27892000  1.0
  Ag  Ag3  1  0.33526000  0.96753000  0.72154000  1.0
  H  H4  1  0.78609000  0.96041000  0.80820000  1.0
  H  H5  1  0.71409000  0.15000000  0.19034000  1.0
  H  H6  1  0.21389000  0.03959000  0.19179000  1.0
  H  H7  1  0.28591000  0.85001000  0.80966000  1.0
  H  H8  1  0.76259000  0.15707000  0.90255000  1.0
  H  H9  1  0.73720000  0.25262000  0.09513000  1.0
  H  H10  1  0.23741000  0.84293000  0.09744000  1.0
  H  H11  1  0.26281000  0.74737000  0.90486000  1.0
  H  H12  1  0.57546000  0.62857000  0.74194000  1.0
  H  H13  1  0.92369000  0.88621000  0.25828000  1.0
  H  H14  1  0.42455000  0.37143000  0.25806000  1.0
  H  H15  1  0.07631000  0.11379000  0.74172000  1.0
  H  H16  1  0.66016000  0.44218000  0.63782000  1.0
  H  H17  1  0.83840000  0.80323000  0.36310000  1.0
  H  H18  1  0.33984000  0.55782000  0.36218000  1.0
  H  H19  1  0.16160000  0.19677000  0.63690000  1.0
  H  H20  1  0.92816000  0.37280000  0.72571000  1.0
  H  H21  1  0.56971000  0.64561000  0.27598000  1.0
  H  H22  1  0.07185000  0.62721000  0.27430000  1.0
  H  H23  1  0.43030000  0.35438000  0.72401000  1.0
  H  H24  1  0.10604000  0.48781000  0.91844000  1.0
  H  H25  1  0.39230000  0.56789000  0.08305000  1.0
  H  H26  1  0.89397000  0.51220000  0.08157000  1.0
  H  H27  1  0.60771000  0.43211000  0.91695000  1.0
  H  H28  1  0.02318000  0.67454000  0.02303000  1.0
  H  H29  1  0.47580000  0.65064000  0.97763000  1.0
  H  H30  1  0.97683000  0.32547000  0.97698000  1.0
  H  H31  1  0.52420000  0.34937000  0.02238000  1.0
  H  H32  1  0.05591000  0.38336000  0.54526000  1.0
  H  H33  1  0.44255000  0.83747000  0.45550000  1.0
  H  H34  1  0.94408000  0.61664000  0.45474000  1.0
  H  H35  1  0.55744000  0.16253000  0.54449000  1.0
  H  H36  1  0.26283000  0.43968000  0.66212000  1.0
  H  H37  1  0.23558000  0.77687000  0.33881000  1.0
  H  H38  1  0.73717000  0.56033000  0.33789000  1.0
  H  H39  1  0.76442000  0.22312000  0.66118000  1.0
  H  H40  1  0.29328000  0.43975000  0.54288000  1.0
  H  H41  1  0.20551000  0.89492000  0.45792000  1.0
  H  H42  1  0.70672000  0.56025000  0.45712000  1.0
  H  H43  1  0.79449000  0.10508000  0.54208000  1.0
  C  C44  1  0.76427000  0.78009000  0.94583000  1.0
  C  C45  1  0.73503000  0.83381000  0.05404000  1.0
  C  C46  1  0.23573000  0.21991000  0.05417000  1.0
  C  C47  1  0.26497000  0.16620000  0.94596000  1.0
  C  C48  1  0.75925000  0.94240000  0.94474000  1.0
  C  C49  1  0.74120000  0.99677000  0.05424000  1.0
  C  C50  1  0.24074000  0.05760000  0.05525000  1.0
  C  C51  1  0.25879000  0.00323000  0.94576000  1.0
  C  C52  1  0.76812000  0.00215000  0.89108000  1.0
  C  C53  1  0.73226000  0.10951000  0.10745000  1.0
  C  C54  1  0.23187000  0.99786000  0.10892000  1.0
  C  C55  1  0.26773000  0.89049000  0.89256000  1.0
  C  C56  1  0.75889000  0.11188000  0.94488000  1.0
  C  C57  1  0.74125000  0.16563000  0.05322000  1.0
  C  C58  1  0.24110000  0.88812000  0.05512000  1.0
  C  C59  1  0.25874000  0.83437000  0.94678000  1.0
  C  C60  1  0.79561000  0.66479000  0.88913000  1.0
  C  C61  1  0.70330000  0.77504000  0.11125000  1.0
  C  C62  1  0.20439000  0.33520000  0.11087000  1.0
  C  C63  1  0.29670000  0.22497000  0.88875000  1.0
  C  C64  1  0.69116000  0.59771000  0.78103000  1.0
  C  C65  1  0.80770000  0.81605000  0.21945000  1.0
  C  C66  1  0.30883000  0.40230000  0.21897000  1.0
  C  C67  1  0.19229000  0.18395000  0.78055000  1.0
  C  C68  1  0.73622000  0.49227000  0.72288000  1.0
  C  C69  1  0.76230000  0.76838000  0.27802000  1.0
  C  C70  1  0.26379000  0.50774000  0.27713000  1.0
  C  C71  1  0.23770000  0.23162000  0.72198000  1.0
  C  C72  1  0.88692000  0.45350000  0.77218000  1.0
  C  C73  1  0.61127000  0.68003000  0.22910000  1.0
  C  C74  1  0.11308000  0.54651000  0.22783000  1.0
  C  C75  1  0.38875000  0.31997000  0.77090000  1.0
  C  C76  1  0.98857000  0.51868000  0.88042000  1.0
  C  C77  1  0.50983000  0.63702000  0.12078000  1.0
  C  C78  1  0.01143000  0.48133000  0.11959000  1.0
  C  C79  1  0.49017000  0.36297000  0.87922000  1.0
  C  C80  1  0.94202000  0.62356000  0.93904000  1.0
  C  C81  1  0.55673000  0.68359000  0.06168000  1.0
  C  C82  1  0.05798000  0.37645000  0.06097000  1.0
  C  C83  1  0.44328000  0.31642000  0.93832000  1.0
  C  C84  1  0.10956000  0.55106000  0.63126000  1.0
  C  C85  1  0.38949000  0.91954000  0.36937000  1.0
  C  C86  1  0.89044000  0.44893000  0.36874000  1.0
  C  C87  1  0.61051000  0.08046000  0.63063000  1.0
  C  C88  1  0.18534000  0.44782000  0.59300000  1.0
  C  C89  1  0.31327000  0.85390000  0.40776000  1.0
  C  C90  1  0.81466000  0.55218000  0.40700000  1.0
  C  C91  1  0.68673000  0.14609000  0.59223000  1.0
  N  N92  1  0.77298000  0.83444000  0.89347000  1.0
  N  N93  1  0.72720000  0.93996000  0.10599000  1.0
  N  N94  1  0.22702000  0.16557000  0.10654000  1.0
  N  N95  1  0.27279000  0.06005000  0.89401000  1.0
  N  N96  1  0.04336000  0.63326000  0.66177000  1.0
  N  N97  1  0.45595000  0.97186000  0.33878000  1.0
  N  N98  1  0.95664000  0.36674000  0.33824000  1.0
  N  N99  1  0.54405000  0.02815000  0.66122000  1.0
  N  N100  1  0.88640000  0.86844000  0.58158000  1.0
  N  N101  1  0.61405000  0.28626000  0.41776000  1.0
  N  N102  1  0.11361000  0.13156000  0.41842000  1.0
  N  N103  1  0.38596000  0.71374000  0.58224000  1.0
  O  O104  1  0.97284000  0.88691000  0.67774000  1.0
  O  O105  1  0.52879000  0.20864000  0.32177000  1.0
  O  O106  1  0.02716000  0.11309000  0.32226000  1.0
  O  O107  1  0.47121000  0.79135000  0.67822000  1.0
  O  O108  1  0.74208000  0.79351000  0.52481000  1.0
  O  O109  1  0.75893000  0.26938000  0.47510000  1.0
  O  O110  1  0.25792000  0.20649000  0.47519000  1.0
  O  O111  1  0.24108000  0.73060000  0.52489000  1.0
  O  O112  1  0.95107000  0.92715000  0.54879000  1.0
  O  O113  1  0.54801000  0.37669000  0.45022000  1.0
  O  O114  1  0.04893000  0.07285000  0.45121000  1.0
  O  O115  1  0.45199000  0.62330000  0.54978000  1.0
