# generated using pymatgen
data_CuH5C7N2
_symmetry_space_group_name_H-M   'P 1'
_cell_length_a   21.99370000
_cell_length_b   24.07690000
_cell_length_c   24.12300000
_cell_angle_alpha   94.57980000
_cell_angle_beta   95.12410000
_cell_angle_gamma   94.93340000
_symmetry_Int_Tables_number   1
_chemical_formula_structural   CuH5C7N2
_chemical_formula_sum   'Cu12 H60 C84 N24'
_cell_volume   12626.50328635
_cell_formula_units_Z   12
loop_
 _symmetry_equiv_pos_site_id
 _symmetry_equiv_pos_as_xyz
  1  'x, y, z'
loop_
 _atom_site_type_symbol
 _atom_site_label
 _atom_site_symmetry_multiplicity
 _atom_site_fract_x
 _atom_site_fract_y
 _atom_site_fract_z
 _atom_site_occupancy
  Cu  Cu0  1  0.19951000  0.23358000  0.11612000  1.0
  Cu  Cu1  1  0.22731000  0.16573000  0.22242000  1.0
  Cu  Cu2  1  0.09680000  0.21087000  0.19676000  1.0
  Cu  Cu3  1  0.80867000  0.22426000  0.86163000  1.0
  Cu  Cu4  1  0.80451000  0.11002000  0.78275000  1.0
  Cu  Cu5  1  0.87937000  0.22046000  0.75364000  1.0
  Cu  Cu6  1  0.21355000  0.77424000  0.87493000  1.0
  Cu  Cu7  1  0.23579000  0.85406000  0.77959000  1.0
  Cu  Cu8  1  0.10486000  0.78383000  0.78490000  1.0
  Cu  Cu9  1  0.75334000  0.76569000  0.13639000  1.0
  Cu  Cu10  1  0.76172000  0.82460000  0.25958000  1.0
  Cu  Cu11  1  0.85444000  0.73706000  0.22902000  1.0
  H  H12  1  0.31658000  0.21324000  0.05235000  1.0
  H  H13  1  0.35504000  0.12330000  0.19808000  1.0
  H  H14  1  0.99460000  0.28417000  0.14772000  1.0
  H  H15  1  0.13851000  0.31971000  0.04061000  1.0
  H  H16  1  0.20737000  0.10925000  0.33515000  1.0
  H  H17  1  0.02704000  0.16303000  0.29421000  1.0
  H  H18  1  0.71555000  0.18767000  0.94691000  1.0
  H  H19  1  0.70431000  0.03480000  0.83727000  1.0
  H  H20  1  0.90907000  0.35095000  0.74430000  1.0
  H  H21  1  0.83471000  0.35375000  0.90466000  1.0
  H  H22  1  0.84639000  0.02080000  0.69147000  1.0
  H  H23  1  0.95046000  0.17256000  0.65539000  1.0
  H  H24  1  0.31640000  0.82664000  0.96712000  1.0
  H  H25  1  0.35870000  0.92668000  0.83170000  1.0
  H  H26  1  0.00193000  0.69684000  0.82554000  1.0
  H  H27  1  0.16028000  0.67336000  0.93868000  1.0
  H  H28  1  0.20694000  0.91741000  0.67240000  1.0
  H  H29  1  0.02714000  0.83483000  0.68815000  1.0
  H  H30  1  0.66829000  0.84522000  0.07272000  1.0
  H  H31  1  0.66602000  0.91414000  0.24400000  1.0
  H  H32  1  0.90847000  0.63477000  0.16514000  1.0
  H  H33  1  0.77765000  0.67999000  0.03521000  1.0
  H  H34  1  0.82433000  0.88284000  0.37321000  1.0
  H  H35  1  0.96601000  0.78270000  0.31894000  1.0
  H  H36  1  0.04006000  0.12095000  0.49285000  1.0
  H  H37  1  0.98579000  0.96193000  0.55473000  1.0
  H  H38  1  0.16495000  0.01432000  0.50520000  1.0
  H  H39  1  0.02435000  0.98742000  0.38586000  1.0
  H  H40  1  0.52460000  0.02630000  0.14521000  1.0
  H  H41  1  0.57512000  0.98800000  0.97821000  1.0
  H  H42  1  0.53586000  0.15120000  0.04827000  1.0
  H  H43  1  0.39791000  0.03325000  0.01981000  1.0
  H  H44  1  0.09496000  0.48827000  0.99359000  1.0
  H  H45  1  0.92750000  0.56284000  0.94897000  1.0
  H  H46  1  0.95768000  0.45794000  0.08392000  1.0
  H  H47  1  0.95352000  0.38671000  0.92720000  1.0
  H  H48  1  0.41529000  0.15151000  0.04628000  1.0
  H  H49  1  0.44156000  0.08553000  0.14852000  1.0
  H  H50  1  0.63288000  0.02850000  0.92718000  1.0
  H  H51  1  0.61946000  0.14656000  0.98131000  1.0
  H  H52  1  0.38892000  0.92712000  0.99849000  1.0
  H  H53  1  0.46896000  0.95782000  0.90532000  1.0
  H  H54  1  0.59955000  0.96864000  0.16887000  1.0
  H  H55  1  0.61383000  0.93128000  0.04611000  1.0
  H  H56  1  0.97282000  0.36860000  0.07932000  1.0
  H  H57  1  0.07490000  0.38922000  0.00206000  1.0
  H  H58  1  0.87033000  0.60824000  0.99987000  1.0
  H  H59  1  0.90257000  0.54366000  0.10204000  1.0
  H  H60  1  0.86398000  0.45598000  0.78969000  1.0
  H  H61  1  0.89435000  0.52184000  0.86348000  1.0
  H  H62  1  0.97962000  0.61973000  0.90538000  1.0
  H  H63  1  0.10300000  0.58471000  0.95537000  1.0
  H  H64  1  0.03354000  0.10350000  0.38469000  1.0
  H  H65  1  0.15985000  0.06405000  0.41900000  1.0
  H  H66  1  0.02779000  0.91248000  0.60968000  1.0
  H  H67  1  0.15896000  0.95471000  0.58753000  1.0
  H  H68  1  0.00675000  0.88282000  0.38765000  1.0
  H  H69  1  0.90772000  0.91494000  0.46344000  1.0
  H  H70  1  0.93375000  0.00580000  0.61198000  1.0
  H  H71  1  0.97185000  0.12068000  0.57129000  1.0
  C  C72  1  0.31745000  0.19462000  0.09193000  1.0
  C  C73  1  0.36003000  0.16069000  0.11537000  1.0
  C  C74  1  0.33728000  0.14860000  0.16619000  1.0
  C  C75  1  0.03551000  0.28631000  0.12559000  1.0
  C  C76  1  0.05060000  0.31959000  0.08263000  1.0
  C  C77  1  0.10882000  0.30455000  0.07082000  1.0
  C  C78  1  0.16672000  0.12664000  0.31768000  1.0
  C  C79  1  0.10775000  0.12561000  0.33606000  1.0
  C  C80  1  0.07475000  0.15417000  0.29655000  1.0
  C  C81  1  0.71959000  0.15441000  0.91472000  1.0
  C  C82  1  0.68904000  0.10010000  0.90579000  1.0
  C  C83  1  0.71452000  0.07626000  0.85905000  1.0
  C  C84  1  0.88920000  0.34177000  0.78254000  1.0
  C  C85  1  0.87607000  0.37883000  0.82704000  1.0
  C  C86  1  0.85223000  0.34317000  0.86489000  1.0
  C  C87  1  0.86735000  0.06301000  0.68946000  1.0
  C  C88  1  0.90977000  0.08288000  0.65363000  1.0
  C  C89  1  0.91982000  0.14059000  0.67042000  1.0
  C  C90  1  0.31934000  0.84526000  0.92779000  1.0
  C  C91  1  0.35891000  0.89059000  0.91525000  1.0
  C  C92  1  0.34176000  0.89583000  0.85844000  1.0
  C  C93  1  0.04641000  0.69811000  0.84933000  1.0
  C  C94  1  0.06529000  0.66592000  0.89286000  1.0
  C  C95  1  0.12741000  0.68554000  0.90669000  1.0
  C  C96  1  0.16704000  0.89225000  0.68311000  1.0
  C  C97  1  0.10557000  0.88874000  0.65994000  1.0
  C  C98  1  0.07528000  0.85037000  0.69164000  1.0
  C  C99  1  0.67396000  0.85563000  0.11759000  1.0
  C  C100  1  0.65091000  0.89886000  0.15010000  1.0
  C  C101  1  0.67266000  0.89037000  0.20517000  1.0
  C  C102  1  0.87218000  0.65166000  0.14003000  1.0
  C  C103  1  0.85159000  0.63867000  0.08314000  1.0
  C  C104  1  0.80641000  0.67561000  0.07330000  1.0
  C  C105  1  0.85144000  0.85224000  0.35422000  1.0
  C  C106  1  0.91419000  0.84567000  0.36509000  1.0
  C  C107  1  0.92395000  0.80165000  0.32581000  1.0
  C  C108  1  0.07657000  0.03961000  0.46094000  1.0
  C  C109  1  0.03764000  0.07597000  0.49613000  1.0
  C  C110  1  0.00470000  0.04824000  0.53168000  1.0
  C  C111  1  0.01284000  0.98525000  0.52686000  1.0
  C  C112  1  0.11510000  0.01082000  0.50404000  1.0
  C  C113  1  0.08249000  0.98161000  0.53887000  1.0
  C  C114  1  0.03022000  0.99283000  0.43130000  1.0
  C  C115  1  0.99721000  0.96344000  0.46524000  1.0
  C  C116  1  0.48679000  0.06981000  0.07100000  1.0
  C  C117  1  0.52614000  0.02959000  0.10057000  1.0
  C  C118  1  0.55884000  0.99889000  0.06690000  1.0
  C  C119  1  0.54864000  0.01291000  0.00554000  1.0
  C  C120  1  0.53183000  0.10575000  0.04057000  1.0
  C  C121  1  0.56497000  0.07639000  0.00607000  1.0
  C  C122  1  0.44749000  0.03244000  0.02381000  1.0
  C  C123  1  0.47917000  0.00159000  0.98986000  1.0
  C  C124  1  0.00021000  0.44404000  0.00154000  1.0
  C  C125  1  0.04582000  0.49219000  0.98823000  1.0
  C  C126  1  0.02002000  0.53624000  0.96803000  1.0
  C  C127  1  0.94955000  0.52744000  0.96476000  1.0
  C  C128  1  0.96049000  0.47181000  0.04227000  1.0
  C  C129  1  0.93435000  0.51656000  0.02394000  1.0
  C  C130  1  0.95782000  0.42933000  0.94679000  1.0
  C  C131  1  0.93190000  0.47320000  0.92626000  1.0
  C  C132  1  0.41021000  0.13857000  0.08831000  1.0
  C  C133  1  0.44628000  0.10044000  0.10731000  1.0
  C  C134  1  0.64254000  0.07375000  0.93636000  1.0
  C  C135  1  0.61073000  0.10095000  0.97408000  1.0
  C  C136  1  0.40070000  0.92633000  0.95529000  1.0
  C  C137  1  0.45052000  0.96031000  0.94606000  1.0
  C  C138  1  0.61435000  0.94291000  0.13398000  1.0
  C  C139  1  0.59761000  0.95553000  0.08128000  1.0
  C  C140  1  0.01548000  0.36258000  0.06041000  1.0
  C  C141  1  0.03266000  0.39597000  0.02141000  1.0
  C  C142  1  0.87454000  0.59895000  0.04363000  1.0
  C  C143  1  0.90228000  0.55340000  0.05843000  1.0
  C  C144  1  0.87987000  0.43960000  0.82891000  1.0
  C  C145  1  0.89960000  0.47844000  0.87206000  1.0
  C  C146  1  0.02921000  0.62196000  0.91606000  1.0
  C  C147  1  0.05306000  0.58311000  0.94729000  1.0
  C  C148  1  0.08256000  0.09964000  0.38215000  1.0
  C  C149  1  0.11119000  0.06999000  0.41979000  1.0
  C  C150  1  0.07788000  0.91794000  0.61560000  1.0
  C  C151  1  0.10874000  0.95079000  0.58220000  1.0
  C  C152  1  0.96027000  0.88168000  0.40067000  1.0
  C  C153  1  0.95141000  0.91772000  0.44477000  1.0
  C  C154  1  0.93800000  0.05129000  0.61096000  1.0
  C  C155  1  0.97004000  0.07514000  0.57202000  1.0
  N  N156  1  0.28514000  0.17317000  0.17204000  1.0
  N  N157  1  0.27265000  0.20173000  0.12584000  1.0
  N  N158  1  0.12683000  0.26578000  0.10449000  1.0
  N  N159  1  0.08131000  0.25434000  0.13855000  1.0
  N  N160  1  0.11114000  0.17080000  0.25775000  1.0
  N  N161  1  0.16830000  0.15374000  0.27095000  1.0
  N  N162  1  0.75639000  0.11348000  0.84146000  1.0
  N  N163  1  0.75966000  0.16196000  0.87625000  1.0
  N  N164  1  0.85103000  0.28930000  0.84425000  1.0
  N  N165  1  0.87470000  0.28841000  0.79332000  1.0
  N  N166  1  0.88591000  0.15370000  0.71252000  1.0
  N  N167  1  0.85311000  0.10558000  0.72437000  1.0
  N  N168  1  0.29543000  0.85675000  0.83901000  1.0
  N  N169  1  0.28186000  0.82507000  0.88215000  1.0
  N  N170  1  0.14382000  0.72585000  0.87386000  1.0
  N  N171  1  0.09368000  0.73359000  0.83797000  1.0
  N  N172  1  0.11537000  0.83259000  0.73044000  1.0
  N  N173  1  0.17243000  0.85876000  0.72512000  1.0
  N  N174  1  0.70617000  0.84607000  0.20535000  1.0
  N  N175  1  0.70693000  0.82453000  0.15085000  1.0
  N  N176  1  0.80046000  0.70767000  0.12063000  1.0
  N  N177  1  0.84166000  0.69298000  0.16203000  1.0
  N  N178  1  0.87127000  0.78368000  0.29414000  1.0
  N  N179  1  0.82612000  0.81541000  0.31164000  1.0
