# generated using pymatgen
data_LuH14(C6O5)2
_symmetry_space_group_name_H-M   'P 1'
_cell_length_a   7.27856000
_cell_length_b   9.65111000
_cell_length_c   10.44920000
_cell_angle_alpha   87.58490000
_cell_angle_beta   79.63370000
_cell_angle_gamma   82.69230000
_symmetry_Int_Tables_number   1
_chemical_formula_structural   LuH14(C6O5)2
_chemical_formula_sum   'Lu2 H28 C24 O20'
_cell_volume   716.03116756
_cell_formula_units_Z   2
loop_
 _symmetry_equiv_pos_site_id
 _symmetry_equiv_pos_as_xyz
  1  'x, y, z'
loop_
 _atom_site_type_symbol
 _atom_site_label
 _atom_site_symmetry_multiplicity
 _atom_site_fract_x
 _atom_site_fract_y
 _atom_site_fract_z
 _atom_site_occupancy
  Lu  Lu0  1  0.21356000  0.24687000  0.53918000  1.0
  Lu  Lu1  1  0.78644000  0.75313000  0.46082000  1.0
  H  H2  1  0.32040000  0.59123000  0.16888000  1.0
  H  H3  1  0.67959000  0.40877000  0.83112000  1.0
  H  H4  1  0.31381000  0.66182000  0.93547000  1.0
  H  H5  1  0.68617000  0.33819000  0.06453000  1.0
  H  H6  1  0.13735000  0.26861000  0.86835000  1.0
  H  H7  1  0.86266000  0.73140000  0.13165000  1.0
  H  H8  1  0.14741000  0.19591000  0.10036000  1.0
  H  H9  1  0.85260000  0.80409000  0.89964000  1.0
  H  H10  1  0.29031000  0.92785000  0.85774000  1.0
  H  H11  1  0.70969000  0.07213000  0.14226000  1.0
  H  H12  1  0.71494000  0.17703000  0.91911000  1.0
  H  H13  1  0.28505000  0.82296000  0.08089000  1.0
  H  H14  1  0.58914000  0.23875000  0.55080000  1.0
  H  H15  1  0.41086000  0.76124000  0.44920000  1.0
  H  H16  1  0.60390000  0.29019000  0.39930000  1.0
  H  H17  1  0.39610000  0.70980000  0.60071000  1.0
  H  H18  1  0.30362000  0.93796000  0.53869000  1.0
  H  H19  1  0.69639000  0.06204000  0.46130000  1.0
  H  H20  1  0.19184000  0.98154000  0.42556000  1.0
  H  H21  1  0.80816000  0.01846000  0.57445000  1.0
  H  H22  1  0.84924000  0.42078000  0.56536000  1.0
  H  H23  1  0.15077000  0.57922000  0.43463000  1.0
  H  H24  1  0.87292000  0.35005000  0.42737000  1.0
  H  H25  1  0.12708000  0.64996000  0.57263000  1.0
  H  H26  1  0.03153000  0.08782000  0.75325000  1.0
  H  H27  1  0.96847000  0.91217000  0.24674000  1.0
  H  H28  1  0.84972000  0.18280000  0.71445000  1.0
  H  H29  1  0.15028000  0.81720000  0.28554000  1.0
  C  C30  1  0.23963000  0.34224000  0.28542000  1.0
  C  C31  1  0.76038000  0.65777000  0.71458000  1.0
  C  C32  1  0.23525000  0.38858000  0.14813000  1.0
  C  C33  1  0.76476000  0.61142000  0.85187000  1.0
  C  C34  1  0.27988000  0.52118000  0.10257000  1.0
  C  C35  1  0.72013000  0.47883000  0.89743000  1.0
  C  C36  1  0.27617000  0.56051000  0.97320000  1.0
  C  C37  1  0.72383000  0.43949000  0.02679000  1.0
  C  C38  1  0.22861000  0.46868000  0.88749000  1.0
  C  C39  1  0.77140000  0.53132000  0.11251000  1.0
  C  C40  1  0.22870000  0.50990000  0.74728000  1.0
  C  C41  1  0.77130000  0.49010000  0.25272000  1.0
  C  C42  1  0.18027000  0.33747000  0.93419000  1.0
  C  C43  1  0.81974000  0.66253000  0.06581000  1.0
  C  C44  1  0.18434000  0.29767000  0.06306000  1.0
  C  C45  1  0.81566000  0.70233000  0.93694000  1.0
  C  C46  1  0.49704000  0.12798000  0.74636000  1.0
  C  C47  1  0.50296000  0.87201000  0.25365000  1.0
  C  C48  1  0.50244000  0.05890000  0.87574000  1.0
  C  C49  1  0.49755000  0.94109000  0.12426000  1.0
  C  C50  1  0.38020000  0.95977000  0.92126000  1.0
  C  C51  1  0.61979000  0.04021000  0.07874000  1.0
  C  C52  1  0.62250000  0.09836000  0.95477000  1.0
  C  C53  1  0.37749000  0.90163000  0.04524000  1.0
  O  O54  1  0.21657000  0.21580000  0.32033000  1.0
  O  O55  1  0.78343000  0.78421000  0.67967000  1.0
  O  O56  1  0.26514000  0.42706000  0.37034000  1.0
  O  O57  1  0.73487000  0.57294000  0.62965000  1.0
  O  O58  1  0.22127000  0.41421000  0.66780000  1.0
  O  O59  1  0.77872000  0.58579000  0.33220000  1.0
  O  O60  1  0.23279000  0.63739000  0.71260000  1.0
  O  O61  1  0.76721000  0.36261000  0.28740000  1.0
  O  O62  1  0.35720000  0.11575000  0.69236000  1.0
  O  O63  1  0.64280000  0.88425000  0.30765000  1.0
  O  O64  1  0.63112000  0.19828000  0.69578000  1.0
  O  O65  1  0.36887000  0.80171000  0.30422000  1.0
  O  O66  1  0.53777000  0.22968000  0.46779000  1.0
  O  O67  1  0.46223000  0.77032000  0.53221000  1.0
  O  O68  1  0.20980000  0.01075000  0.51008000  1.0
  O  O69  1  0.79021000  0.98926000  0.48992000  1.0
  O  O70  1  0.91817000  0.34047000  0.51240000  1.0
  O  O71  1  0.08184000  0.65954000  0.48760000  1.0
  O  O72  1  0.98840000  0.17712000  0.71556000  1.0
  O  O73  1  0.01160000  0.82288000  0.28444000  1.0
