# generated using pymatgen
data_AgH8C12N4ClO4
_symmetry_space_group_name_H-M   'P 1'
_cell_length_a   7.15274000
_cell_length_b   14.16800000
_cell_length_c   14.74900000
_cell_angle_alpha   90.00030000
_cell_angle_beta   90.00010000
_cell_angle_gamma   75.39500000
_symmetry_Int_Tables_number   1
_chemical_formula_structural   AgH8C12N4ClO4
_chemical_formula_sum   'Ag4 H32 C48 N16 Cl4 O16'
_cell_volume   1446.36713664
_cell_formula_units_Z   4
loop_
 _symmetry_equiv_pos_site_id
 _symmetry_equiv_pos_as_xyz
  1  'x, y, z'
loop_
 _atom_site_type_symbol
 _atom_site_label
 _atom_site_symmetry_multiplicity
 _atom_site_fract_x
 _atom_site_fract_y
 _atom_site_fract_z
 _atom_site_occupancy
  Ag  Ag0  1  0.84999000  0.00004000  0.62863000  1.0
  Ag  Ag1  1  0.65001000  0.99996000  0.12863000  1.0
  Ag  Ag2  1  0.15001000  0.99996000  0.37137000  1.0
  Ag  Ag3  1  0.34999000  0.00004000  0.87137000  1.0
  H  H4  1  0.61648000  0.16771000  0.50929000  1.0
  H  H5  1  0.88352000  0.83229000  0.00929000  1.0
  H  H6  1  0.21580000  0.16763000  0.49064000  1.0
  H  H7  1  0.28420000  0.83238000  0.99065000  1.0
  H  H8  1  0.38352000  0.83229000  0.49071000  1.0
  H  H9  1  0.11647000  0.16771000  0.99070000  1.0
  H  H10  1  0.78420000  0.83238000  0.50936000  1.0
  H  H11  1  0.71580000  0.16762000  0.00935000  1.0
  H  H12  1  0.52401000  0.35051000  0.50561000  1.0
  H  H13  1  0.97599000  0.64949000  0.00561000  1.0
  H  H14  1  0.12581000  0.35046000  0.49430000  1.0
  H  H15  1  0.37419000  0.64955000  0.99429000  1.0
  H  H16  1  0.47599000  0.64949000  0.49439000  1.0
  H  H17  1  0.02401000  0.35051000  0.99439000  1.0
  H  H18  1  0.87419000  0.64954000  0.50571000  1.0
  H  H19  1  0.62581000  0.35046000  0.00570000  1.0
  H  H20  1  0.89793000  0.34452000  0.73817000  1.0
  H  H21  1  0.60207000  0.65548000  0.23817000  1.0
  H  H22  1  0.75716000  0.34445000  0.26200000  1.0
  H  H23  1  0.74284000  0.65555000  0.76200000  1.0
  H  H24  1  0.10207000  0.65548000  0.26183000  1.0
  H  H25  1  0.39792000  0.34452000  0.76183000  1.0
  H  H26  1  0.24284000  0.65555000  0.73800000  1.0
  H  H27  1  0.25716000  0.34445000  0.23800000  1.0
  H  H28  1  0.97591000  0.16171000  0.73093000  1.0
  H  H29  1  0.52410000  0.83829000  0.23093000  1.0
  H  H30  1  0.86283000  0.16163000  0.26885000  1.0
  H  H31  1  0.63717000  0.83837000  0.76886000  1.0
  H  H32  1  0.02410000  0.83829000  0.26907000  1.0
  H  H33  1  0.47590000  0.16171000  0.76907000  1.0
  H  H34  1  0.13717000  0.83837000  0.73115000  1.0
  H  H35  1  0.36283000  0.16163000  0.23114000  1.0
  C  C36  1  0.67513000  0.20995000  0.55847000  1.0
  C  C37  1  0.82487000  0.79005000  0.05847000  1.0
  C  C38  1  0.11505000  0.20989000  0.44144000  1.0
  C  C39  1  0.38495000  0.79011000  0.94144000  1.0
  C  C40  1  0.32487000  0.79005000  0.44153000  1.0
  C  C41  1  0.17513000  0.20995000  0.94153000  1.0
  C  C42  1  0.88495000  0.79011000  0.55856000  1.0
  C  C43  1  0.61505000  0.20989000  0.05856000  1.0
  C  C44  1  0.62350000  0.31133000  0.55687000  1.0
  C  C45  1  0.87650000  0.68867000  0.05687000  1.0
  C  C46  1  0.06530000  0.31127000  0.44309000  1.0
  C  C47  1  0.43470000  0.68873000  0.94309000  1.0
  C  C48  1  0.37650000  0.68867000  0.44313000  1.0
  C  C49  1  0.12350000  0.31133000  0.94313000  1.0
  C  C50  1  0.93470000  0.68873000  0.55691000  1.0
  C  C51  1  0.56530000  0.31127000  0.05691000  1.0
  C  C52  1  0.70424000  0.36131000  0.62234000  1.0
  C  C53  1  0.79576000  0.63869000  0.12234000  1.0
  C  C54  1  0.93429000  0.36124000  0.37777000  1.0
  C  C55  1  0.56571000  0.63876000  0.87777000  1.0
  C  C56  1  0.29576000  0.63869000  0.37766000  1.0
  C  C57  1  0.20424000  0.36131000  0.87766000  1.0
  C  C58  1  0.06571000  0.63876000  0.62223000  1.0
  C  C59  1  0.43429000  0.36124000  0.12223000  1.0
  C  C60  1  0.65614000  0.46535000  0.62305000  1.0
  C  C61  1  0.84386000  0.53465000  0.12306000  1.0
  C  C62  1  0.87840000  0.46528000  0.37700000  1.0
  C  C63  1  0.62160000  0.53472000  0.87700000  1.0
  C  C64  1  0.34387000  0.53465000  0.37695000  1.0
  C  C65  1  0.15613000  0.46535000  0.87695000  1.0
  C  C66  1  0.12160000  0.53472000  0.62300000  1.0
  C  C67  1  0.37840000  0.46528000  0.12300000  1.0
  C  C68  1  0.83374000  0.30796000  0.68641000  1.0
  C  C69  1  0.66626000  0.69204000  0.18641000  1.0
  C  C70  1  0.85807000  0.30789000  0.31369000  1.0
  C  C71  1  0.64193000  0.69211000  0.81369000  1.0
  C  C72  1  0.16626000  0.69204000  0.31359000  1.0
  C  C73  1  0.33374000  0.30796000  0.81359000  1.0
  C  C74  1  0.14193000  0.69211000  0.68632000  1.0
  C  C75  1  0.35807000  0.30789000  0.18631000  1.0
  C  C76  1  0.87708000  0.20669000  0.68259000  1.0
  C  C77  1  0.62292000  0.79331000  0.18259000  1.0
  C  C78  1  0.91640000  0.20663000  0.31730000  1.0
  C  C79  1  0.58361000  0.79337000  0.81731000  1.0
  C  C80  1  0.12292000  0.79331000  0.31741000  1.0
  C  C81  1  0.37708000  0.20669000  0.81741000  1.0
  C  C82  1  0.08360000  0.79337000  0.68270000  1.0
  C  C83  1  0.41640000  0.20663000  0.18269000  1.0
  N  N84  1  0.79889000  0.15857000  0.62018000  1.0
  N  N85  1  0.70111000  0.84143000  0.12018000  1.0
  N  N86  1  0.04274000  0.15851000  0.37967000  1.0
  N  N87  1  0.45726000  0.84149000  0.87967000  1.0
  N  N88  1  0.20111000  0.84143000  0.37982000  1.0
  N  N89  1  0.29889000  0.15857000  0.87982000  1.0
  N  N90  1  0.95726000  0.84149000  0.62033000  1.0
  N  N91  1  0.54274000  0.15851000  0.12033000  1.0
  N  N92  1  0.61711000  0.55052000  0.62316000  1.0
  N  N93  1  0.88289000  0.44947000  0.12316000  1.0
  N  N94  1  0.83249000  0.55046000  0.37670000  1.0
  N  N95  1  0.66751000  0.44954000  0.87671000  1.0
  N  N96  1  0.38289000  0.44947000  0.37684000  1.0
  N  N97  1  0.11710000  0.55053000  0.87684000  1.0
  N  N98  1  0.16752000  0.44954000  0.62330000  1.0
  N  N99  1  0.33249000  0.55046000  0.12329000  1.0
  Cl  Cl100  1  0.65870000  0.99999000  0.37454000  1.0
  Cl  Cl101  1  0.84130000  0.00001000  0.87454000  1.0
  Cl  Cl102  1  0.34130000  0.00001000  0.62547000  1.0
  Cl  Cl103  1  0.15870000  0.99998000  0.12546000  1.0
  O  O104  1  0.77850000  0.99988000  0.45503000  1.0
  O  O105  1  0.72150000  0.00012000  0.95503000  1.0
  O  O106  1  0.22150000  0.00012000  0.54497000  1.0
  O  O107  1  0.27850000  0.99988000  0.04497000  1.0
  O  O108  1  0.77914000  0.00000000  0.29338000  1.0
  O  O109  1  0.72085000  0.00000000  0.79338000  1.0
  O  O110  1  0.22085000  0.00000000  0.70662000  1.0
  O  O111  1  0.27914000  0.00000000  0.20662000  1.0
  O  O112  1  0.49875000  0.08758000  0.37445000  1.0
  O  O113  1  0.00125000  0.91242000  0.87445000  1.0
  O  O114  1  0.41405000  0.08751000  0.62568000  1.0
  O  O115  1  0.08595000  0.91249000  0.12567000  1.0
  O  O116  1  0.50126000  0.91243000  0.62555000  1.0
  O  O117  1  0.99874000  0.08757000  0.12555000  1.0
  O  O118  1  0.58594000  0.91249000  0.37432000  1.0
  O  O119  1  0.91406000  0.08751000  0.87432000  1.0
