# generated using pymatgen
data_ZnH7C8NO5
_symmetry_space_group_name_H-M   'P 1'
_cell_length_a   8.23703000
_cell_length_b   8.90255000
_cell_length_c   11.73480000
_cell_angle_alpha   102.25800000
_cell_angle_beta   90.00000000
_cell_angle_gamma   89.99990000
_symmetry_Int_Tables_number   1
_chemical_formula_structural   ZnH7C8NO5
_chemical_formula_sum   'Zn4 H28 C32 N4 O20'
_cell_volume   840.90100905
_cell_formula_units_Z   4
loop_
 _symmetry_equiv_pos_site_id
 _symmetry_equiv_pos_as_xyz
  1  'x, y, z'
loop_
 _atom_site_type_symbol
 _atom_site_label
 _atom_site_symmetry_multiplicity
 _atom_site_fract_x
 _atom_site_fract_y
 _atom_site_fract_z
 _atom_site_occupancy
  Zn  Zn0  1  0.96754000  0.27854000  0.40838000  1.0
  Zn  Zn1  1  0.46753000  0.22146000  0.09162000  1.0
  Zn  Zn2  1  0.03247000  0.72146000  0.59162000  1.0
  Zn  Zn3  1  0.53246000  0.77854000  0.90838000  1.0
  H  H4  1  0.86904000  0.42444000  0.60479000  1.0
  H  H5  1  0.36904000  0.07556000  0.89521000  1.0
  H  H6  1  0.13096000  0.57556000  0.39521000  1.0
  H  H7  1  0.63096000  0.92444000  0.10478000  1.0
  H  H8  1  0.74897000  0.45651000  0.50110000  1.0
  H  H9  1  0.24897000  0.04349000  0.99890000  1.0
  H  H10  1  0.25103000  0.54349000  0.49890000  1.0
  H  H11  1  0.75102000  0.95651000  0.00110000  1.0
  H  H12  1  0.84480000  0.16918000  0.67094000  1.0
  H  H13  1  0.34480000  0.33082000  0.82906000  1.0
  H  H14  1  0.15520000  0.83082000  0.32906000  1.0
  H  H15  1  0.65520000  0.66918000  0.17094000  1.0
  H  H16  1  0.34534000  0.02891000  0.67491000  1.0
  H  H17  1  0.84533000  0.47109000  0.82509000  1.0
  H  H18  1  0.65467000  0.97110000  0.32510000  1.0
  H  H19  1  0.15466000  0.52891000  0.17491000  1.0
  H  H20  1  0.48927000  0.35323000  0.46893000  1.0
  H  H21  1  0.98927000  0.14677000  0.03107000  1.0
  H  H22  1  0.51073000  0.64677000  0.53107000  1.0
  H  H23  1  0.01073000  0.85323000  0.96893000  1.0
  H  H24  1  0.04377000  0.04403000  0.27027000  1.0
  H  H25  1  0.54377000  0.45597000  0.22972000  1.0
  H  H26  1  0.95623000  0.95597000  0.72972000  1.0
  H  H27  1  0.45623000  0.54403000  0.77027000  1.0
  H  H28  1  0.91063000  0.99157000  0.35737000  1.0
  H  H29  1  0.41063000  0.50843000  0.14263000  1.0
  H  H30  1  0.08937000  0.00843000  0.64263000  1.0
  H  H31  1  0.58937000  0.49157000  0.85737000  1.0
  C  C32  1  0.67945000  0.27292000  0.56795000  1.0
  C  C33  1  0.17945000  0.22708000  0.93205000  1.0
  C  C34  1  0.32055000  0.72708000  0.43205000  1.0
  C  C35  1  0.82055000  0.77292000  0.06795000  1.0
  C  C36  1  0.71990000  0.17488000  0.64214000  1.0
  C  C37  1  0.21990000  0.32512000  0.85786000  1.0
  C  C38  1  0.28010000  0.82512000  0.35786000  1.0
  C  C39  1  0.78010000  0.67488000  0.14214000  1.0
  C  C40  1  0.59915000  0.08702000  0.68044000  1.0
  C  C41  1  0.09914000  0.41299000  0.81956000  1.0
  C  C42  1  0.40086000  0.91299000  0.31957000  1.0
  C  C43  1  0.90085000  0.58702000  0.18044000  1.0
  C  C44  1  0.43845000  0.09667000  0.64353000  1.0
  C  C45  1  0.93845000  0.40333000  0.85647000  1.0
  C  C46  1  0.56155000  0.90333000  0.35647000  1.0
  C  C47  1  0.06155000  0.59667000  0.14353000  1.0
  C  C48  1  0.39880000  0.19253000  0.56778000  1.0
  C  C49  1  0.89879000  0.30747000  0.93222000  1.0
  C  C50  1  0.60121000  0.80747000  0.43222000  1.0
  C  C51  1  0.10121000  0.69253000  0.06778000  1.0
  C  C52  1  0.52041000  0.27942000  0.52881000  1.0
  C  C53  1  0.02041000  0.22058000  0.97119000  1.0
  C  C54  1  0.47959000  0.72057000  0.47119000  1.0
  C  C55  1  0.97959000  0.77942000  0.02881000  1.0
  C  C56  1  0.63814000  0.98611000  0.76407000  1.0
  C  C57  1  0.13813000  0.51389000  0.73593000  1.0
  C  C58  1  0.36186000  0.01389000  0.23593000  1.0
  C  C59  1  0.86186000  0.48611000  0.26407000  1.0
  C  C60  1  0.22687000  0.20746000  0.53117000  1.0
  C  C61  1  0.72686000  0.29254000  0.96883000  1.0
  C  C62  1  0.77314000  0.79254000  0.46883000  1.0
  C  C63  1  0.27313000  0.70746000  0.03117000  1.0
  N  N64  1  0.80139000  0.36947000  0.53356000  1.0
  N  N65  1  0.30139000  0.13054000  0.96644000  1.0
  N  N66  1  0.19861000  0.63054000  0.46644000  1.0
  N  N67  1  0.69861000  0.86946000  0.03356000  1.0
  O  O68  1  0.78150000  0.96026000  0.79122000  1.0
  O  O69  1  0.28149000  0.53973000  0.70878000  1.0
  O  O70  1  0.21850000  0.03973000  0.20878000  1.0
  O  O71  1  0.71850000  0.46026000  0.29122000  1.0
  O  O72  1  0.51230000  0.93155000  0.80793000  1.0
  O  O73  1  0.01230000  0.56844000  0.69206000  1.0
  O  O74  1  0.48770000  0.06845000  0.19206000  1.0
  O  O75  1  0.98770000  0.43155000  0.30793000  1.0
  O  O76  1  0.11279000  0.13497000  0.56722000  1.0
  O  O77  1  0.61278000  0.36503000  0.93279000  1.0
  O  O78  1  0.88722000  0.86503000  0.43278000  1.0
  O  O79  1  0.38721000  0.63497000  0.06721000  1.0
  O  O80  1  0.20003000  0.29911000  0.46143000  1.0
  O  O81  1  0.70003000  0.20088000  0.03858000  1.0
  O  O82  1  0.79997000  0.70089000  0.53857000  1.0
  O  O83  1  0.29997000  0.79911000  0.96142000  1.0
  O  O84  1  0.93552000  0.07163000  0.31001000  1.0
  O  O85  1  0.43552000  0.42837000  0.18999000  1.0
  O  O86  1  0.06448000  0.92837000  0.68999000  1.0
  O  O87  1  0.56448000  0.57163000  0.81001000  1.0
