# generated using pymatgen
data_CoH16C16S(NO)4
_symmetry_space_group_name_H-M   'P 1'
_cell_length_a   9.42453000
_cell_length_b   15.23170000
_cell_length_c   15.50000000
_cell_angle_alpha   89.99960000
_cell_angle_beta   89.99980000
_cell_angle_gamma   89.99930000
_symmetry_Int_Tables_number   1
_chemical_formula_structural   CoH16C16S(NO)4
_chemical_formula_sum   'Co4 H64 C64 S4 N16 O16'
_cell_volume   2225.05001058
_cell_formula_units_Z   4
loop_
 _symmetry_equiv_pos_site_id
 _symmetry_equiv_pos_as_xyz
  1  'x, y, z'
loop_
 _atom_site_type_symbol
 _atom_site_label
 _atom_site_symmetry_multiplicity
 _atom_site_fract_x
 _atom_site_fract_y
 _atom_site_fract_z
 _atom_site_occupancy
  Co  Co0  1  0.47499000  0.25000000  0.42382000  1.0
  Co  Co1  1  0.97500000  0.75000000  0.07618000  1.0
  Co  Co2  1  0.02501000  0.25000000  0.92381000  1.0
  Co  Co3  1  0.52500000  0.75000000  0.57619000  1.0
  H  H4  1  0.85482000  0.25000000  0.45034000  1.0
  H  H5  1  0.35483000  0.75000000  0.04966000  1.0
  H  H6  1  0.64517000  0.25000000  0.95034000  1.0
  H  H7  1  0.14516000  0.75000000  0.54965000  1.0
  H  H8  1  0.72936000  0.25000000  0.60552000  1.0
  H  H9  1  0.22937000  0.75000000  0.89449000  1.0
  H  H10  1  0.77064000  0.25000000  0.10552000  1.0
  H  H11  1  0.27063000  0.75000000  0.39448000  1.0
  H  H12  1  0.70768000  0.38666000  0.36092000  1.0
  H  H13  1  0.20768000  0.61334000  0.13907000  1.0
  H  H14  1  0.79232000  0.11334000  0.86092000  1.0
  H  H15  1  0.29231000  0.88666000  0.63908000  1.0
  H  H16  1  0.29231000  0.61333000  0.63908000  1.0
  H  H17  1  0.79231000  0.38666000  0.86092000  1.0
  H  H18  1  0.20769000  0.88667000  0.13906000  1.0
  H  H19  1  0.70770000  0.11334000  0.36093000  1.0
  H  H20  1  0.48960000  0.36687000  0.59786000  1.0
  H  H21  1  0.98960000  0.63314000  0.90214000  1.0
  H  H22  1  0.01040000  0.13313000  0.09786000  1.0
  H  H23  1  0.51040000  0.86686000  0.40214000  1.0
  H  H24  1  0.51040000  0.63313000  0.40214000  1.0
  H  H25  1  0.01041000  0.36686000  0.09785000  1.0
  H  H26  1  0.98959000  0.86687000  0.90213000  1.0
  H  H27  1  0.48958000  0.13314000  0.59786000  1.0
  H  H28  1  0.67107000  0.51178000  0.60427000  1.0
  H  H29  1  0.17106000  0.48823000  0.89573000  1.0
  H  H30  1  0.82893000  0.98822000  0.10426000  1.0
  H  H31  1  0.32893000  0.01178000  0.39574000  1.0
  H  H32  1  0.32893000  0.48822000  0.39574000  1.0
  H  H33  1  0.82894000  0.51178000  0.10426000  1.0
  H  H34  1  0.17106000  0.01179000  0.89572000  1.0
  H  H35  1  0.67105000  0.98822000  0.60427000  1.0
  H  H36  1  0.79874000  0.59428000  0.48671000  1.0
  H  H37  1  0.29874000  0.40572000  0.01328000  1.0
  H  H38  1  0.70128000  0.90571000  0.98671000  1.0
  H  H39  1  0.20127000  0.09429000  0.51329000  1.0
  H  H40  1  0.20129000  0.40571000  0.51330000  1.0
  H  H41  1  0.70128000  0.59429000  0.98671000  1.0
  H  H42  1  0.29874000  0.09429000  0.01327000  1.0
  H  H43  1  0.79873000  0.90572000  0.48673000  1.0
  H  H44  1  0.79367000  0.55343000  0.38050000  1.0
  H  H45  1  0.29366000  0.44656000  0.11949000  1.0
  H  H46  1  0.70636000  0.94656000  0.88050000  1.0
  H  H47  1  0.20636000  0.05344000  0.61950000  1.0
  H  H48  1  0.20635000  0.44656000  0.61950000  1.0
  H  H49  1  0.70635000  0.55344000  0.88050000  1.0
  H  H50  1  0.29366000  0.05344000  0.11948000  1.0
  H  H51  1  0.79366000  0.94656000  0.38052000  1.0
  H  H52  1  0.99355000  0.44938000  0.41404000  1.0
  H  H53  1  0.49354000  0.55061000  0.08596000  1.0
  H  H54  1  0.50645000  0.05059000  0.91402000  1.0
  H  H55  1  0.00646000  0.94941000  0.58598000  1.0
  H  H56  1  0.00644000  0.55059000  0.58597000  1.0
  H  H57  1  0.50645000  0.44941000  0.91403000  1.0
  H  H58  1  0.49354000  0.94939000  0.08595000  1.0
  H  H59  1  0.99354000  0.05060000  0.41405000  1.0
  H  H60  1  0.03808000  0.56200000  0.42502000  1.0
  H  H61  1  0.53808000  0.43799000  0.07498000  1.0
  H  H62  1  0.46194000  0.93797000  0.92501000  1.0
  H  H63  1  0.96194000  0.06203000  0.57499000  1.0
  H  H64  1  0.96194000  0.43796000  0.57499000  1.0
  H  H65  1  0.46194000  0.56204000  0.92501000  1.0
  H  H66  1  0.53807000  0.06201000  0.07497000  1.0
  H  H67  1  0.03807000  0.93798000  0.42503000  1.0
  C  C68  1  0.16359000  0.25000000  0.44823000  1.0
  C  C69  1  0.66359000  0.75000000  0.05178000  1.0
  C  C70  1  0.33642000  0.25001000  0.94823000  1.0
  C  C71  1  0.83641000  0.75000000  0.55179000  1.0
  C  C72  1  0.05633000  0.25000000  0.51855000  1.0
  C  C73  1  0.55633000  0.75000000  0.98145000  1.0
  C  C74  1  0.44367000  0.25000000  0.01856000  1.0
  C  C75  1  0.94366000  0.75000000  0.48145000  1.0
  C  C76  1  0.90943000  0.25000000  0.51229000  1.0
  C  C77  1  0.40945000  0.75000000  0.98772000  1.0
  C  C78  1  0.59056000  0.25000000  0.01229000  1.0
  C  C79  1  0.09055000  0.75000000  0.48771000  1.0
  C  C80  1  0.84316000  0.25000000  0.59424000  1.0
  C  C81  1  0.34315000  0.75000000  0.90576000  1.0
  C  C82  1  0.65686000  0.25000000  0.09425000  1.0
  C  C83  1  0.15683000  0.75000000  0.40575000  1.0
  C  C84  1  0.94021000  0.25000000  0.66147000  1.0
  C  C85  1  0.44022000  0.75000000  0.83852000  1.0
  C  C86  1  0.55978000  0.25000000  0.16149000  1.0
  C  C87  1  0.05978000  0.75000000  0.33852000  1.0
  C  C88  1  0.91481000  0.25000000  0.75560000  1.0
  C  C89  1  0.41481000  0.75000000  0.74441000  1.0
  C  C90  1  0.58519000  0.25000000  0.25560000  1.0
  C  C91  1  0.08518000  0.75000000  0.24440000  1.0
  C  C92  1  0.67050000  0.40168000  0.42559000  1.0
  C  C93  1  0.17050000  0.59832000  0.07440000  1.0
  C  C94  1  0.82950000  0.09832000  0.92559000  1.0
  C  C95  1  0.32949000  0.90168000  0.57441000  1.0
  C  C96  1  0.32949000  0.59832000  0.57441000  1.0
  C  C97  1  0.82949000  0.40168000  0.92559000  1.0
  C  C98  1  0.17051000  0.90168000  0.07440000  1.0
  C  C99  1  0.67051000  0.09832000  0.42560000  1.0
  C  C100  1  0.56159000  0.39301000  0.54971000  1.0
  C  C101  1  0.06158000  0.60699000  0.95029000  1.0
  C  C102  1  0.93841000  0.10699000  0.04970000  1.0
  C  C103  1  0.43841000  0.89301000  0.45030000  1.0
  C  C104  1  0.43841000  0.60699000  0.45030000  1.0
  C  C105  1  0.93842000  0.39301000  0.04970000  1.0
  C  C106  1  0.06158000  0.89302000  0.95029000  1.0
  C  C107  1  0.56157000  0.10699000  0.54970000  1.0
  C  C108  1  0.65147000  0.46385000  0.55404000  1.0
  C  C109  1  0.15146000  0.53615000  0.94595000  1.0
  C  C110  1  0.84853000  0.03615000  0.05404000  1.0
  C  C111  1  0.34853000  0.96385000  0.44596000  1.0
  C  C112  1  0.34853000  0.53615000  0.44596000  1.0
  C  C113  1  0.84854000  0.46385000  0.05404000  1.0
  C  C114  1  0.15145000  0.96386000  0.94595000  1.0
  C  C115  1  0.65145000  0.03615000  0.55405000  1.0
  C  C116  1  0.81983000  0.53594000  0.44736000  1.0
  C  C117  1  0.31982000  0.46405000  0.05263000  1.0
  C  C118  1  0.68019000  0.96405000  0.94735000  1.0
  C  C119  1  0.18018000  0.03596000  0.55265000  1.0
  C  C120  1  0.18018000  0.46404000  0.55265000  1.0
  C  C121  1  0.68018000  0.53596000  0.94736000  1.0
  C  C122  1  0.31982000  0.03595000  0.05263000  1.0
  C  C123  1  0.81982000  0.96405000  0.44738000  1.0
  C  C124  1  0.97544000  0.50839000  0.45380000  1.0
  C  C125  1  0.47544000  0.49161000  0.04620000  1.0
  C  C126  1  0.52456000  0.99159000  0.95378000  1.0
  C  C127  1  0.02456000  0.00841000  0.54622000  1.0
  C  C128  1  0.02456000  0.49158000  0.54621000  1.0
  C  C129  1  0.52456000  0.50841000  0.95379000  1.0
  C  C130  1  0.47544000  0.00840000  0.04619000  1.0
  C  C131  1  0.97544000  0.99160000  0.45381000  1.0
  S  S132  1  0.11230000  0.25000000  0.62436000  1.0
  S  S133  1  0.61230000  0.75000000  0.87564000  1.0
  S  S134  1  0.38770000  0.24999000  0.12437000  1.0
  S  S135  1  0.88768000  0.75000000  0.37563000  1.0
  N  N136  1  0.57428000  0.35489000  0.46906000  1.0
  N  N137  1  0.07428000  0.64511000  0.03094000  1.0
  N  N138  1  0.92572000  0.14511000  0.96906000  1.0
  N  N139  1  0.42571000  0.85489000  0.53094000  1.0
  N  N140  1  0.42571000  0.64510000  0.53094000  1.0
  N  N141  1  0.92571000  0.35489000  0.96905000  1.0
  N  N142  1  0.07428000  0.85490000  0.03093000  1.0
  N  N143  1  0.57428000  0.14511000  0.46906000  1.0
  N  N144  1  0.71907000  0.46848000  0.47513000  1.0
  N  N145  1  0.21907000  0.53152000  0.02487000  1.0
  N  N146  1  0.78093000  0.03152000  0.97513000  1.0
  N  N147  1  0.28093000  0.96848000  0.52487000  1.0
  N  N148  1  0.28093000  0.53151000  0.52487000  1.0
  N  N149  1  0.78093000  0.46848000  0.97513000  1.0
  N  N150  1  0.21907000  0.96849000  0.02486000  1.0
  N  N151  1  0.71907000  0.03152000  0.47514000  1.0
  O  O152  1  0.29405000  0.25000000  0.47936000  1.0
  O  O153  1  0.79406000  0.75000000  0.02064000  1.0
  O  O154  1  0.20594000  0.25000000  0.97936000  1.0
  O  O155  1  0.70594000  0.75000000  0.52065000  1.0
  O  O156  1  0.12875000  0.25000000  0.37124000  1.0
  O  O157  1  0.62877000  0.74999000  0.12875000  1.0
  O  O158  1  0.37125000  0.25001000  0.87126000  1.0
  O  O159  1  0.87123000  0.75000000  0.62874000  1.0
  O  O160  1  0.79229000  0.25000000  0.78664000  1.0
  O  O161  1  0.29230000  0.75001000  0.71336000  1.0
  O  O162  1  0.70771000  0.25001000  0.28665000  1.0
  O  O163  1  0.20770000  0.75001000  0.21336000  1.0
  O  O164  1  0.03232000  0.25000000  0.80053000  1.0
  O  O165  1  0.53231000  0.74999000  0.69947000  1.0
  O  O166  1  0.46770000  0.25000000  0.30054000  1.0
  O  O167  1  0.96769000  0.75000000  0.19946000  1.0
