# generated using pymatgen
data_FeH24C27S2(N3O2)2
_symmetry_space_group_name_H-M   'P 1'
_cell_length_a   8.90884000
_cell_length_b   12.37520000
_cell_length_c   24.21240000
_cell_angle_alpha   89.99990000
_cell_angle_beta   90.00000000
_cell_angle_gamma   111.09200000
_symmetry_Int_Tables_number   1
_chemical_formula_structural   FeH24C27S2(N3O2)2
_chemical_formula_sum   'Fe2 H48 C54 S4 N12 O8'
_cell_volume   2490.54638128
_cell_formula_units_Z   2
loop_
 _symmetry_equiv_pos_site_id
 _symmetry_equiv_pos_as_xyz
  1  'x, y, z'
loop_
 _atom_site_type_symbol
 _atom_site_label
 _atom_site_symmetry_multiplicity
 _atom_site_fract_x
 _atom_site_fract_y
 _atom_site_fract_z
 _atom_site_occupancy
  Fe  Fe0  1  0.50000000  0.50000000  0.50000000  1.0
  Fe  Fe1  1  0.00000000  0.50000000  0.00000000  1.0
  H  H2  1  0.85250000  0.59064000  0.54574000  1.0
  H  H3  1  0.02480000  0.73291000  0.61290000  1.0
  H  H4  1  0.59901000  0.79898000  0.66375000  1.0
  H  H5  1  0.44749000  0.65646000  0.59316000  1.0
  H  H6  1  0.81595000  0.97692000  0.68708000  1.0
  H  H7  1  0.76311000  0.86705000  0.73996000  1.0
  H  H8  1  0.14751000  0.40936000  0.54574000  1.0
  H  H9  1  0.97521000  0.26709000  0.61290000  1.0
  H  H10  1  0.40100000  0.20103000  0.66375000  1.0
  H  H11  1  0.55252000  0.34355000  0.59316000  1.0
  H  H12  1  0.18405000  0.02308000  0.68708000  1.0
  H  H13  1  0.23689000  0.13295000  0.73996000  1.0
  H  H14  1  0.73820000  0.59077000  0.95431000  1.0
  H  H15  1  0.70840000  0.73317000  0.88713000  1.0
  H  H16  1  0.20004000  0.79870000  0.83622000  1.0
  H  H17  1  0.20886000  0.65608000  0.90682000  1.0
  H  H18  1  0.16115000  0.97708000  0.81293000  1.0
  H  H19  1  0.10420000  0.86716000  0.76008000  1.0
  H  H20  1  0.26180000  0.40923000  0.95430000  1.0
  H  H21  1  0.29160000  0.26682000  0.88713000  1.0
  H  H22  1  0.79996000  0.20130000  0.83622000  1.0
  H  H23  1  0.79114000  0.34392000  0.90682000  1.0
  H  H24  1  0.83884000  0.02292000  0.81293000  1.0
  H  H25  1  0.89580000  0.13284000  0.76008000  1.0
  H  H26  1  0.14751000  0.40936000  0.45426000  1.0
  H  H27  1  0.97520000  0.26709000  0.38710000  1.0
  H  H28  1  0.40099000  0.20102000  0.33625000  1.0
  H  H29  1  0.55251000  0.34354000  0.40684000  1.0
  H  H30  1  0.18405000  0.02308000  0.31292000  1.0
  H  H31  1  0.23689000  0.13295000  0.26005000  1.0
  H  H32  1  0.85249000  0.59064000  0.45426000  1.0
  H  H33  1  0.02479000  0.73291000  0.38709000  1.0
  H  H34  1  0.59900000  0.79897000  0.33625000  1.0
  H  H35  1  0.44748000  0.65645000  0.40684000  1.0
  H  H36  1  0.81594000  0.97692000  0.31292000  1.0
  H  H37  1  0.76311000  0.86705000  0.26004000  1.0
  H  H38  1  0.26180000  0.40923000  0.04569000  1.0
  H  H39  1  0.29160000  0.26683000  0.11287000  1.0
  H  H40  1  0.79996000  0.20130000  0.16378000  1.0
  H  H41  1  0.79114000  0.34392000  0.09318000  1.0
  H  H42  1  0.83885000  0.02292000  0.18707000  1.0
  H  H43  1  0.89580000  0.13284000  0.23992000  1.0
  H  H44  1  0.73820000  0.59077000  0.04569000  1.0
  H  H45  1  0.70840000  0.73317000  0.11287000  1.0
  H  H46  1  0.20003000  0.79870000  0.16378000  1.0
  H  H47  1  0.20887000  0.65608000  0.09318000  1.0
  H  H48  1  0.16115000  0.97708000  0.18707000  1.0
  H  H49  1  0.10419000  0.86716000  0.23992000  1.0
  C  C50  1  0.80076000  0.63875000  0.57256000  1.0
  C  C51  1  0.89650000  0.71696000  0.61055000  1.0
  C  C52  1  0.82603000  0.77743000  0.64433000  1.0
  C  C53  1  0.66122000  0.75529000  0.63868000  1.0
  C  C54  1  0.57560000  0.67505000  0.59915000  1.0
  C  C55  1  0.86118000  0.92330000  0.71377000  1.0
  C  C56  1  0.19925000  0.36125000  0.57256000  1.0
  C  C57  1  0.10351000  0.28304000  0.61055000  1.0
  C  C58  1  0.17398000  0.22257000  0.64433000  1.0
  C  C59  1  0.33879000  0.24471000  0.63868000  1.0
  C  C60  1  0.42441000  0.32495000  0.59915000  1.0
  C  C61  1  0.13883000  0.07670000  0.71377000  1.0
  C  C62  1  0.83807000  0.63880000  0.92749000  1.0
  C  C63  1  0.82064000  0.71705000  0.88948000  1.0
  C  C64  1  0.95157000  0.77739000  0.85568000  1.0
  C  C65  1  0.09413000  0.75505000  0.86129000  1.0
  C  C66  1  0.09942000  0.67478000  0.90083000  1.0
  C  C67  1  0.06231000  0.92339000  0.78627000  1.0
  C  C68  1  0.16193000  0.36120000  0.92748000  1.0
  C  C69  1  0.17936000  0.28294000  0.88948000  1.0
  C  C70  1  0.04843000  0.22261000  0.85568000  1.0
  C  C71  1  0.90586000  0.24495000  0.86128000  1.0
  C  C72  1  0.90058000  0.32523000  0.90082000  1.0
  C  C73  1  0.93768000  0.07661000  0.78627000  1.0
  C  C74  1  0.19925000  0.36125000  0.42744000  1.0
  C  C75  1  0.10351000  0.28304000  0.38945000  1.0
  C  C76  1  0.17397000  0.22256000  0.35567000  1.0
  C  C77  1  0.33878000  0.24471000  0.36132000  1.0
  C  C78  1  0.42440000  0.32495000  0.40085000  1.0
  C  C79  1  0.13882000  0.07669000  0.28623000  1.0
  C  C80  1  0.80075000  0.63875000  0.42744000  1.0
  C  C81  1  0.89649000  0.71696000  0.38945000  1.0
  C  C82  1  0.82602000  0.77743000  0.35567000  1.0
  C  C83  1  0.66121000  0.75529000  0.36131000  1.0
  C  C84  1  0.57559000  0.67505000  0.40085000  1.0
  C  C85  1  0.86117000  0.92330000  0.28623000  1.0
  C  C86  1  0.16194000  0.36121000  0.07252000  1.0
  C  C87  1  0.17936000  0.28294000  0.11052000  1.0
  C  C88  1  0.04843000  0.22261000  0.14432000  1.0
  C  C89  1  0.90587000  0.24495000  0.13871000  1.0
  C  C90  1  0.90058000  0.32523000  0.09918000  1.0
  C  C91  1  0.93769000  0.07661000  0.21373000  1.0
  C  C92  1  0.83807000  0.63879000  0.07252000  1.0
  C  C93  1  0.82064000  0.71705000  0.11052000  1.0
  C  C94  1  0.95157000  0.77739000  0.14432000  1.0
  C  C95  1  0.09414000  0.75505000  0.13872000  1.0
  C  C96  1  0.09943000  0.67478000  0.09917000  1.0
  C  C97  1  0.06231000  0.92339000  0.21373000  1.0
  C  C98  1  0.72029000  0.34484000  0.50000000  1.0
  C  C99  1  0.27972000  0.65516000  0.50000000  1.0
  C  C100  1  0.62458000  0.34472000  0.00000000  1.0
  C  C101  1  0.37543000  0.65528000  0.00000000  1.0
  C  C102  1  0.00000000  0.00000000  0.75002000  1.0
  C  C103  1  0.00000000  0.00000000  0.24999000  1.0
  S  S104  1  0.79814000  0.24606000  0.50000000  1.0
  S  S105  1  0.20185000  0.75394000  0.50000000  1.0
  S  S106  1  0.44804000  0.24591000  0.00000000  1.0
  S  S107  1  0.55197000  0.75409000  0.00000000  1.0
  N  N108  1  0.64209000  0.61744000  0.56597000  1.0
  N  N109  1  0.35792000  0.38256000  0.56597000  1.0
  N  N110  1  0.97532000  0.61733000  0.93404000  1.0
  N  N111  1  0.02468000  0.38267000  0.93404000  1.0
  N  N112  1  0.35792000  0.38256000  0.43404000  1.0
  N  N113  1  0.64208000  0.61744000  0.43403000  1.0
  N  N114  1  0.02469000  0.38267000  0.06596000  1.0
  N  N115  1  0.97532000  0.61733000  0.06596000  1.0
  N  N116  1  0.66239000  0.41816000  0.50000000  1.0
  N  N117  1  0.33762000  0.58184000  0.50000000  1.0
  N  N118  1  0.75576000  0.41808000  0.00000000  1.0
  N  N119  1  0.24424000  0.58193000  0.00000000  1.0
  O  O120  1  0.92549000  0.85443000  0.68047000  1.0
  O  O121  1  0.07451000  0.14557000  0.68047000  1.0
  O  O122  1  0.92920000  0.85451000  0.81959000  1.0
  O  O123  1  0.07079000  0.14548000  0.81959000  1.0
  O  O124  1  0.07451000  0.14557000  0.31953000  1.0
  O  O125  1  0.92549000  0.85443000  0.31953000  1.0
  O  O126  1  0.07080000  0.14549000  0.18041000  1.0
  O  O127  1  0.92920000  0.85451000  0.18041000  1.0
