# generated using pymatgen
data_ZnH17C21N2O7
_symmetry_space_group_name_H-M   'P 1'
_cell_length_a   5.28082000
_cell_length_b   9.60627000
_cell_length_c   40.58750000
_cell_angle_alpha   86.60940000
_cell_angle_beta   89.99950000
_cell_angle_gamma   89.99950000
_symmetry_Int_Tables_number   1
_chemical_formula_structural   ZnH17C21N2O7
_chemical_formula_sum   'Zn4 H68 C84 N8 O28'
_cell_volume   2055.35846417
_cell_formula_units_Z   4
loop_
 _symmetry_equiv_pos_site_id
 _symmetry_equiv_pos_as_xyz
  1  'x, y, z'
loop_
 _atom_site_type_symbol
 _atom_site_label
 _atom_site_symmetry_multiplicity
 _atom_site_fract_x
 _atom_site_fract_y
 _atom_site_fract_z
 _atom_site_occupancy
  Zn  Zn0  1  0.75743000  0.42116000  0.90709000  1.0
  Zn  Zn1  1  0.25739000  0.57886000  0.59291000  1.0
  Zn  Zn2  1  0.24259000  0.57886000  0.09291000  1.0
  Zn  Zn3  1  0.74258000  0.42114000  0.40710000  1.0
  H  H4  1  0.43055000  0.75570000  0.84551000  1.0
  H  H5  1  0.93053000  0.24431000  0.65449000  1.0
  H  H6  1  0.56946000  0.24432000  0.15449000  1.0
  H  H7  1  0.06945000  0.75567000  0.34552000  1.0
  H  H8  1  0.38927000  0.46983000  0.86368000  1.0
  H  H9  1  0.88924000  0.53018000  0.63632000  1.0
  H  H10  1  0.61077000  0.53017000  0.13632000  1.0
  H  H11  1  0.11077000  0.46983000  0.36368000  1.0
  H  H12  1  0.62636000  0.39101000  0.84567000  1.0
  H  H13  1  0.12634000  0.60899000  0.65433000  1.0
  H  H14  1  0.37367000  0.60899000  0.15433000  1.0
  H  H15  1  0.87369000  0.39100000  0.34567000  1.0
  H  H16  1  0.86031000  0.86695000  0.91530000  1.0
  H  H17  1  0.36029000  0.13306000  0.58470000  1.0
  H  H18  1  0.13969000  0.13305000  0.08470000  1.0
  H  H19  1  0.63968000  0.86695000  0.41530000  1.0
  H  H20  1  0.57669000  0.50260000  0.67232000  1.0
  H  H21  1  0.07672000  0.49739000  0.82768000  1.0
  H  H22  1  0.42336000  0.49738000  0.32768000  1.0
  H  H23  1  0.92333000  0.50260000  0.17232000  1.0
  H  H24  1  0.63739000  0.12403000  0.83020000  1.0
  H  H25  1  0.13734000  0.87596000  0.66980000  1.0
  H  H26  1  0.36259000  0.87600000  0.16979000  1.0
  H  H27  1  0.86261000  0.12401000  0.33020000  1.0
  H  H28  1  0.31347000  0.18777000  0.86646000  1.0
  H  H29  1  0.81342000  0.81223000  0.63354000  1.0
  H  H30  1  0.68649000  0.81224000  0.13354000  1.0
  H  H31  1  0.18653000  0.18776000  0.36646000  1.0
  H  H32  1  0.23330000  0.70464000  0.98319000  1.0
  H  H33  1  0.73327000  0.29539000  0.51681000  1.0
  H  H34  1  0.76671000  0.29541000  0.01681000  1.0
  H  H35  1  0.26668000  0.70461000  0.48319000  1.0
  H  H36  1  0.82938000  0.84849000  0.83718000  1.0
  H  H37  1  0.32935000  0.15149000  0.66282000  1.0
  H  H38  1  0.17063000  0.15154000  0.16282000  1.0
  H  H39  1  0.67063000  0.84846000  0.33718000  1.0
  H  H40  1  0.93929000  0.98655000  0.81102000  1.0
  H  H41  1  0.43927000  0.01343000  0.68897000  1.0
  H  H42  1  0.06071000  0.01348000  0.18897000  1.0
  H  H43  1  0.56072000  0.98652000  0.31103000  1.0
  H  H44  1  0.39515000  0.23675000  0.94517000  1.0
  H  H45  1  0.89512000  0.76328000  0.55482000  1.0
  H  H46  1  0.60483000  0.76330000  0.05482000  1.0
  H  H47  1  0.10485000  0.23671000  0.44518000  1.0
  H  H48  1  0.87883000  0.59008000  0.74101000  1.0
  H  H49  1  0.37890000  0.40988000  0.75899000  1.0
  H  H50  1  0.12119000  0.40990000  0.25900000  1.0
  H  H51  1  0.62116000  0.59010000  0.24100000  1.0
  H  H52  1  0.34288000  0.97491000  0.77931000  1.0
  H  H53  1  0.84287000  0.02509000  0.72069000  1.0
  H  H54  1  0.65713000  0.02508000  0.22069000  1.0
  H  H55  1  0.15714000  0.97490000  0.27931000  1.0
  H  H56  1  0.99872000  0.71105000  0.79103000  1.0
  H  H57  1  0.49875000  0.28892000  0.70897000  1.0
  H  H58  1  0.00129000  0.28895000  0.20897000  1.0
  H  H59  1  0.50128000  0.71105000  0.29103000  1.0
  H  H60  1  0.21496000  0.84865000  0.73000000  1.0
  H  H61  1  0.71500000  0.15134000  0.77000000  1.0
  H  H62  1  0.78504000  0.15132000  0.27000000  1.0
  H  H63  1  0.28503000  0.84866000  0.23000000  1.0
  H  H64  1  0.57120000  0.65693000  0.94328000  1.0
  H  H65  1  0.07115000  0.34310000  0.55672000  1.0
  H  H66  1  0.42881000  0.34312000  0.05671000  1.0
  H  H67  1  0.92879000  0.65689000  0.44329000  1.0
  H  H68  1  0.03747000  0.26548000  0.98378000  1.0
  H  H69  1  0.53745000  0.73455000  0.51622000  1.0
  H  H70  1  0.96251000  0.73457000  0.01621000  1.0
  H  H71  1  0.46252000  0.26545000  0.48379000  1.0
  C  C72  1  0.33932000  0.83620000  0.85911000  1.0
  C  C73  1  0.83928000  0.16381000  0.64089000  1.0
  C  C74  1  0.66069000  0.16382000  0.14088000  1.0
  C  C75  1  0.16069000  0.83618000  0.35912000  1.0
  C  C76  1  0.14490000  0.79689000  0.88137000  1.0
  C  C77  1  0.64487000  0.20312000  0.61863000  1.0
  C  C78  1  0.85512000  0.20313000  0.11863000  1.0
  C  C79  1  0.35512000  0.79687000  0.38138000  1.0
  C  C80  1  0.01553000  0.89653000  0.89873000  1.0
  C  C81  1  0.51551000  0.10348000  0.60127000  1.0
  C  C82  1  0.98446000  0.10348000  0.10127000  1.0
  C  C83  1  0.48447000  0.89652000  0.39873000  1.0
  C  C84  1  0.10268000  0.48855000  0.98801000  1.0
  C  C85  1  0.60265000  0.51147000  0.51199000  1.0
  C  C86  1  0.89732000  0.51149000  0.01199000  1.0
  C  C87  1  0.39730000  0.48852000  0.48801000  1.0
  C  C88  1  0.67944000  0.85172000  0.78828000  1.0
  C  C89  1  0.17947000  0.14826000  0.71172000  1.0
  C  C90  1  0.32057000  0.14828000  0.21172000  1.0
  C  C91  1  0.82054000  0.85170000  0.28828000  1.0
  C  C92  1  0.92761000  0.14740000  0.90922000  1.0
  C  C93  1  0.42757000  0.85260000  0.59079000  1.0
  C  C94  1  0.07238000  0.85260000  0.09078000  1.0
  C  C95  1  0.57239000  0.14739000  0.40922000  1.0
  C  C96  1  0.07734000  0.03756000  0.89283000  1.0
  C  C97  1  0.57730000  0.96245000  0.60718000  1.0
  C  C98  1  0.92264000  0.96245000  0.10717000  1.0
  C  C99  1  0.42265000  0.03755000  0.39283000  1.0
  C  C100  1  0.05741000  0.64925000  0.88364000  1.0
  C  C101  1  0.55739000  0.35075000  0.61636000  1.0
  C  C102  1  0.94262000  0.35075000  0.11635000  1.0
  C  C103  1  0.44261000  0.64925000  0.38365000  1.0
  C  C104  1  0.40455000  0.97765000  0.85350000  1.0
  C  C105  1  0.90449000  0.02236000  0.64650000  1.0
  C  C106  1  0.59544000  0.02238000  0.14650000  1.0
  C  C107  1  0.09546000  0.97762000  0.35351000  1.0
  C  C108  1  0.26865000  0.07737000  0.87055000  1.0
  C  C109  1  0.76860000  0.92263000  0.62945000  1.0
  C  C110  1  0.73132000  0.92264000  0.12945000  1.0
  C  C111  1  0.23134000  0.07736000  0.37055000  1.0
  C  C112  1  0.25820000  0.59855000  0.97576000  1.0
  C  C113  1  0.75817000  0.40148000  0.52424000  1.0
  C  C114  1  0.74180000  0.40149000  0.02424000  1.0
  C  C115  1  0.24178000  0.59852000  0.47576000  1.0
  C  C116  1  0.46380000  0.64392000  0.70203000  1.0
  C  C117  1  0.96384000  0.35607000  0.79797000  1.0
  C  C118  1  0.53623000  0.35606000  0.29798000  1.0
  C  C119  1  0.03620000  0.64392000  0.20202000  1.0
  C  C120  1  0.53973000  0.71286000  0.73209000  1.0
  C  C121  1  0.03978000  0.28712000  0.76791000  1.0
  C  C122  1  0.46030000  0.28712000  0.26792000  1.0
  C  C123  1  0.96026000  0.71287000  0.23208000  1.0
  C  C124  1  0.76766000  0.92682000  0.81793000  1.0
  C  C125  1  0.26764000  0.07317000  0.68207000  1.0
  C  C126  1  0.23235000  0.07320000  0.18207000  1.0
  C  C127  1  0.73235000  0.92680000  0.31793000  1.0
  C  C128  1  0.34800000  0.33826000  0.95422000  1.0
  C  C129  1  0.84797000  0.66176000  0.54578000  1.0
  C  C130  1  0.65199000  0.66178000  0.04578000  1.0
  C  C131  1  0.15199000  0.33823000  0.45422000  1.0
  C  C132  1  0.76049000  0.67338000  0.74961000  1.0
  C  C133  1  0.26055000  0.32658000  0.75039000  1.0
  C  C134  1  0.23954000  0.32660000  0.25040000  1.0
  C  C135  1  0.73950000  0.67339000  0.24961000  1.0
  C  C136  1  0.45895000  0.88996000  0.77091000  1.0
  C  C137  1  0.95897000  0.11003000  0.72909000  1.0
  C  C138  1  0.54107000  0.11003000  0.22909000  1.0
  C  C139  1  0.04105000  0.88995000  0.27091000  1.0
  C  C140  1  0.82727000  0.74184000  0.77753000  1.0
  C  C141  1  0.32731000  0.25814000  0.72247000  1.0
  C  C142  1  0.17274000  0.25816000  0.22247000  1.0
  C  C143  1  0.67271000  0.74183000  0.27753000  1.0
  C  C144  1  0.38876000  0.82063000  0.74318000  1.0
  C  C145  1  0.88880000  0.17936000  0.75682000  1.0
  C  C146  1  0.61126000  0.17935000  0.25682000  1.0
  C  C147  1  0.11123000  0.82063000  0.24318000  1.0
  C  C148  1  0.44904000  0.57359000  0.95343000  1.0
  C  C149  1  0.94900000  0.42643000  0.54657000  1.0
  C  C150  1  0.55097000  0.42645000  0.04656000  1.0
  C  C151  1  0.05094000  0.57356000  0.45344000  1.0
  C  C152  1  0.15136000  0.35631000  0.97634000  1.0
  C  C153  1  0.65132000  0.64371000  0.52366000  1.0
  C  C154  1  0.84864000  0.64373000  0.02366000  1.0
  C  C155  1  0.34864000  0.35629000  0.47634000  1.0
  N  N156  1  0.58849000  0.02151000  0.83122000  1.0
  N  N157  1  0.08845000  0.97849000  0.66878000  1.0
  N  N158  1  0.41150000  0.97851000  0.16877000  1.0
  N  N159  1  0.91152000  0.02149000  0.33123000  1.0
  N  N160  1  0.49510000  0.44531000  0.94291000  1.0
  N  N161  1  0.99505000  0.55471000  0.55709000  1.0
  N  N162  1  0.50491000  0.55473000  0.05708000  1.0
  N  N163  1  0.00490000  0.44528000  0.44291000  1.0
  O  O164  1  0.12989000  0.56698000  0.86197000  1.0
  O  O165  1  0.62986000  0.43303000  0.63803000  1.0
  O  O166  1  0.87015000  0.43303000  0.13803000  1.0
  O  O167  1  0.37017000  0.56697000  0.36197000  1.0
  O  O168  1  0.27155000  0.67863000  0.68577000  1.0
  O  O169  1  0.77158000  0.32137000  0.81423000  1.0
  O  O170  1  0.72850000  0.32135000  0.31424000  1.0
  O  O171  1  0.22846000  0.67864000  0.18576000  1.0
  O  O172  1  0.53984000  0.40830000  0.86690000  1.0
  O  O173  1  0.03980000  0.59171000  0.63310000  1.0
  O  O174  1  0.46019000  0.59170000  0.13309000  1.0
  O  O175  1  0.96020000  0.40831000  0.36691000  1.0
  O  O176  1  0.90604000  0.61162000  0.90727000  1.0
  O  O177  1  0.40603000  0.38840000  0.59273000  1.0
  O  O178  1  0.09399000  0.38839000  0.09273000  1.0
  O  O179  1  0.59398000  0.61160000  0.40727000  1.0
  O  O180  1  0.61897000  0.54221000  0.69418000  1.0
  O  O181  1  0.11900000  0.45778000  0.80582000  1.0
  O  O182  1  0.38108000  0.45777000  0.30582000  1.0
  O  O183  1  0.88106000  0.54221000  0.19418000  1.0
  O  O184  1  0.99363000  0.27497000  0.89983000  1.0
  O  O185  1  0.49360000  0.72504000  0.60017000  1.0
  O  O186  1  0.00637000  0.72504000  0.10017000  1.0
  O  O187  1  0.50638000  0.27496000  0.39983000  1.0
  O  O188  1  0.75582000  0.11627000  0.92943000  1.0
  O  O189  1  0.25578000  0.88373000  0.57058000  1.0
  O  O190  1  0.24416000  0.88373000  0.07057000  1.0
  O  O191  1  0.74416000  0.11627000  0.42943000  1.0
