# generated using pymatgen
data_NaH7(C2O3)2
_symmetry_space_group_name_H-M   'P 1'
_cell_length_a   6.19955000
_cell_length_b   7.79957000
_cell_length_c   8.01661000
_cell_angle_alpha   116.37200000
_cell_angle_beta   103.10800000
_cell_angle_gamma   101.12400000
_symmetry_Int_Tables_number   1
_chemical_formula_structural   NaH7(C2O3)2
_chemical_formula_sum   'Na2 H14 C8 O12'
_cell_volume   318.51173431
_cell_formula_units_Z   2
loop_
 _symmetry_equiv_pos_site_id
 _symmetry_equiv_pos_as_xyz
  1  'x, y, z'
loop_
 _atom_site_type_symbol
 _atom_site_label
 _atom_site_symmetry_multiplicity
 _atom_site_fract_x
 _atom_site_fract_y
 _atom_site_fract_z
 _atom_site_occupancy
  Na  Na0  1  0.48130000  0.73650000  0.65617000  1.0
  Na  Na1  1  0.51871000  0.26351000  0.34384000  1.0
  H  H2  1  0.24002000  0.99696000  0.91800000  1.0
  H  H3  1  0.75997000  0.00303000  0.08199000  1.0
  H  H4  1  0.75706000  0.65948000  0.39701000  1.0
  H  H5  1  0.24294000  0.34052000  0.60300000  1.0
  H  H6  1  0.90237000  0.68529000  0.59936000  1.0
  H  H7  1  0.09764000  0.31471000  0.40065000  1.0
  H  H8  1  0.27097000  0.00695000  0.60338000  1.0
  H  H9  1  0.72904000  0.99306000  0.39662000  1.0
  H  H10  1  0.26072000  0.88245000  0.38559000  1.0
  H  H11  1  0.73929000  0.11755000  0.61442000  1.0
  H  H12  1  0.01462000  0.47272000  0.74963000  1.0
  H  H13  1  0.98537000  0.52727000  0.25037000  1.0
  H  H14  1  0.32097000  0.60046000  0.16679000  1.0
  H  H15  1  0.67902000  0.39954000  0.83321000  1.0
  C  C16  1  0.16959000  0.78572000  0.98669000  1.0
  C  C17  1  0.83040000  0.21427000  0.01329000  1.0
  C  C18  1  0.05102000  0.56471000  0.90926000  1.0
  C  C19  1  0.94898000  0.43529000  0.09074000  1.0
  C  C20  1  0.17079000  0.48108000  0.03371000  1.0
  C  C21  1  0.82921000  0.51892000  0.96630000  1.0
  C  C22  1  0.25231000  0.30318000  0.93119000  1.0
  C  C23  1  0.74769000  0.69682000  0.06882000  1.0
  O  O24  1  0.25178000  0.91422000  0.16702000  1.0
  O  O25  1  0.74822000  0.08578000  0.83298000  1.0
  O  O26  1  0.17866000  0.83418000  0.84809000  1.0
  O  O27  1  0.82133000  0.16582000  0.15190000  1.0
  O  O28  1  0.29887000  0.21277000  0.02842000  1.0
  O  O29  1  0.70114000  0.78723000  0.97158000  1.0
  O  O30  1  0.27252000  0.25313000  0.76448000  1.0
  O  O31  1  0.72748000  0.74687000  0.23553000  1.0
  O  O32  1  0.74643000  0.61382000  0.49389000  1.0
  O  O33  1  0.25358000  0.38619000  0.50611000  1.0
  O  O34  1  0.26230000  0.87032000  0.50284000  1.0
  O  O35  1  0.73771000  0.12968000  0.49716000  1.0
