# generated using pymatgen
data_Cd3H14C18(N2O3)4
_symmetry_space_group_name_H-M   'P 1'
_cell_length_a   6.90331000
_cell_length_b   11.06852988
_cell_length_c   17.75237953
_cell_angle_alpha   83.00386854
_cell_angle_beta   78.83508885
_cell_angle_gamma   71.83283747
_symmetry_Int_Tables_number   1
_chemical_formula_structural   Cd3H14C18(N2O3)4
_chemical_formula_sum   'Cd6 H28 C36 N16 O24'
_cell_volume   1261.69141111
_cell_formula_units_Z   2
loop_
 _symmetry_equiv_pos_site_id
 _symmetry_equiv_pos_as_xyz
  1  'x, y, z'
loop_
 _atom_site_type_symbol
 _atom_site_label
 _atom_site_symmetry_multiplicity
 _atom_site_fract_x
 _atom_site_fract_y
 _atom_site_fract_z
 _atom_site_occupancy
  Cd  Cd0  1  0.76063000  0.00206000  0.90511000  1.0
  Cd  Cd1  1  0.66724000  0.49790000  0.59503000  1.0
  Cd  Cd2  1  0.23937000  0.99794000  0.09489000  1.0
  Cd  Cd3  1  0.33276000  0.50210000  0.40497000  1.0
  Cd  Cd4  1  0.94767000  0.24985000  0.75017000  1.0
  Cd  Cd5  1  0.05233000  0.75015000  0.24983000  1.0
  H  H6  1  0.80301000  0.59401000  0.95076000  1.0
  H  H7  1  0.34705000  0.90649000  0.54953000  1.0
  H  H8  1  0.19699000  0.40599000  0.04924000  1.0
  H  H9  1  0.65295000  0.09351000  0.45047000  1.0
  H  H10  1  0.19239000  0.85224000  0.90407000  1.0
  H  H11  1  0.95002000  0.64723000  0.59591000  1.0
  H  H12  1  0.80761000  0.14776000  0.09593000  1.0
  H  H13  1  0.04998000  0.35277000  0.40409000  1.0
  H  H14  1  0.10521000  0.83501000  0.83076000  1.0
  H  H15  1  0.77248000  0.66532000  0.66912000  1.0
  H  H16  1  0.89479000  0.16499000  0.16924000  1.0
  H  H17  1  0.22751000  0.33468000  0.33088000  1.0
  H  H18  1  0.53014000  0.73345000  0.17416000  1.0
  H  H19  1  0.43844000  0.76698000  0.32604000  1.0
  H  H20  1  0.46986000  0.26655000  0.82584000  1.0
  H  H21  1  0.56156000  0.23302000  0.67396000  1.0
  H  H22  1  0.62364000  0.34121000  0.13765000  1.0
  H  H23  1  0.10171000  0.15913000  0.36247000  1.0
  H  H24  1  0.37637000  0.65878000  0.86235000  1.0
  H  H25  1  0.89830000  0.84087000  0.63753000  1.0
  H  H26  1  0.01564000  0.49609000  0.71602000  1.0
  H  H27  1  0.22750000  0.00370000  0.78442000  1.0
  H  H28  1  0.98435000  0.50391000  0.28398000  1.0
  H  H29  1  0.77250000  0.99630000  0.21558000  1.0
  H  H30  1  0.99936000  0.45488000  0.80629000  1.0
  H  H31  1  0.25992000  0.04476000  0.69414000  1.0
  H  H32  1  0.00063000  0.54512000  0.19371000  1.0
  H  H33  1  0.74008000  0.95524000  0.30586000  1.0
  C  C34  1  0.57251000  0.53352000  0.16394000  1.0
  C  C35  1  0.27001000  0.96684000  0.33621000  1.0
  C  C36  1  0.42749000  0.46648000  0.83606000  1.0
  C  C37  1  0.72997000  0.03316000  0.66380000  1.0
  C  C38  1  0.72502000  0.45428000  0.03791000  1.0
  C  C39  1  0.21660000  0.04606000  0.46225000  1.0
  C  C40  1  0.27498000  0.54571000  0.96209000  1.0
  C  C41  1  0.78340000  0.95394000  0.53775000  1.0
  C  C42  1  0.48597000  0.50763000  0.24582000  1.0
  C  C43  1  0.23955000  0.99272000  0.25424000  1.0
  C  C44  1  0.51403000  0.49237000  0.75418000  1.0
  C  C45  1  0.76045000  0.00728000  0.74576000  1.0
  C  C46  1  0.78856000  0.35250000  0.98538000  1.0
  C  C47  1  0.12566000  0.14773000  0.51483000  1.0
  C  C48  1  0.21145000  0.64750000  0.01462000  1.0
  C  C49  1  0.87434000  0.85227000  0.48517000  1.0
  C  C50  1  0.73956000  0.57579000  0.01058000  1.0
  C  C51  1  0.32571000  0.92464000  0.48964000  1.0
  C  C52  1  0.26045000  0.42420000  0.98942000  1.0
  C  C53  1  0.67431000  0.07535000  0.51036000  1.0
  C  C54  1  0.66851000  0.67632000  0.05928000  1.0
  C  C55  1  0.40447000  0.82408000  0.44098000  1.0
  C  C56  1  0.33150000  0.32368000  0.94071000  1.0
  C  C57  1  0.59553000  0.17592000  0.55902000  1.0
  C  C58  1  0.68058000  0.80624000  0.02738000  1.0
  C  C59  1  0.51403000  0.69410000  0.47303000  1.0
  C  C60  1  0.31941000  0.19377000  0.97262000  1.0
  C  C61  1  0.48596000  0.30590000  0.52698000  1.0
  C  C62  1  0.58447000  0.65535000  0.13617000  1.0
  C  C63  1  0.37638000  0.84506000  0.36405000  1.0
  C  C64  1  0.41554000  0.34464000  0.86383000  1.0
  C  C65  1  0.62363000  0.15495000  0.63595000  1.0
  C  C66  1  0.64172000  0.43370000  0.11504000  1.0
  C  C67  1  0.18988000  0.06667000  0.38509000  1.0
  C  C68  1  0.35828000  0.56630000  0.88496000  1.0
  C  C69  1  0.81012000  0.93333000  0.61491000  1.0
  N  N70  1  0.77500000  0.23291000  0.00429000  1.0
  N  N71  1  0.01151000  0.26740000  0.49599000  1.0
  N  N72  1  0.22501000  0.76709000  0.99571000  1.0
  N  N73  1  0.98849000  0.73260000  0.50401000  1.0
  N  N74  1  0.86360000  0.36671000  0.90989000  1.0
  N  N75  1  0.13925000  0.13327000  0.59038000  1.0
  N  N76  1  0.13639000  0.63330000  0.09011000  1.0
  N  N77  1  0.86075000  0.86673000  0.40962000  1.0
  N  N78  1  0.84228000  0.17382000  0.93893000  1.0
  N  N79  1  0.95430000  0.32626000  0.56144000  1.0
  N  N80  1  0.15772000  0.82618000  0.06107000  1.0
  N  N81  1  0.04571000  0.67374000  0.43856000  1.0
  N  N82  1  0.89471000  0.25431000  0.88271000  1.0
  N  N83  1  0.03083000  0.24556000  0.61765000  1.0
  N  N84  1  0.10529000  0.74569000  0.11729000  1.0
  N  N85  1  0.96915000  0.75444000  0.38236000  1.0
  O  O86  1  0.58977000  0.90341000  0.06606000  1.0
  O  O87  1  0.55913000  0.59692000  0.43433000  1.0
  O  O88  1  0.41022000  0.09660000  0.93394000  1.0
  O  O89  1  0.44088000  0.40308000  0.56567000  1.0
  O  O90  1  0.13741000  0.89791000  0.85649000  1.0
  O  O91  1  0.89281000  0.60199000  0.64356000  1.0
  O  O92  1  0.86259000  0.10209000  0.14351000  1.0
  O  O93  1  0.10719000  0.39801000  0.35644000  1.0
  O  O94  1  0.06440000  0.42591000  0.75478000  1.0
  O  O95  1  0.24488000  0.07381000  0.74561000  1.0
  O  O96  1  0.93560000  0.57409000  0.24522000  1.0
  O  O97  1  0.75512000  0.92619000  0.25439000  1.0
  O  O98  1  0.35745000  0.60368000  0.28250000  1.0
  O  O99  1  0.24362000  0.89669000  0.21752000  1.0
  O  O100  1  0.64256000  0.39632000  0.71749000  1.0
  O  O101  1  0.75638000  0.10331000  0.78248000  1.0
  O  O102  1  0.78754000  0.81076000  0.96015000  1.0
  O  O103  1  0.55753000  0.68953000  0.54043000  1.0
  O  O104  1  0.21244000  0.18924000  0.03986000  1.0
  O  O105  1  0.44248000  0.31046000  0.45957000  1.0
  O  O106  1  0.53753000  0.39757000  0.27809000  1.0
  O  O107  1  0.21318000  0.10280000  0.22195000  1.0
  O  O108  1  0.46247000  0.60243000  0.72191000  1.0
  O  O109  1  0.78682000  0.89720000  0.77805000  1.0
