# generated using pymatgen
data_AgH3C5(NO)2
_symmetry_space_group_name_H-M   'P 1'
_cell_length_a   6.87026000
_cell_length_b   6.95570000
_cell_length_c   11.52970000
_cell_angle_alpha   90.00000000
_cell_angle_beta   90.00010000
_cell_angle_gamma   90.00000000
_symmetry_Int_Tables_number   1
_chemical_formula_structural   AgH3C5(NO)2
_chemical_formula_sum   'Ag4 H12 C20 N8 O8'
_cell_volume   550.97516383
_cell_formula_units_Z   4
loop_
 _symmetry_equiv_pos_site_id
 _symmetry_equiv_pos_as_xyz
  1  'x, y, z'
loop_
 _atom_site_type_symbol
 _atom_site_label
 _atom_site_symmetry_multiplicity
 _atom_site_fract_x
 _atom_site_fract_y
 _atom_site_fract_z
 _atom_site_occupancy
  Ag  Ag0  1  0.89822000  0.51334000  0.59422000  1.0
  Ag  Ag1  1  0.39823000  0.51334000  0.90578000  1.0
  Ag  Ag2  1  0.10177000  0.01334000  0.40578000  1.0
  Ag  Ag3  1  0.60178000  0.01334000  0.09422000  1.0
  H  H4  1  0.69846000  0.44404000  0.15539000  1.0
  H  H5  1  0.19847000  0.44405000  0.34461000  1.0
  H  H6  1  0.30154000  0.94404000  0.84461000  1.0
  H  H7  1  0.80154000  0.94405000  0.65539000  1.0
  H  H8  1  0.53303000  0.97533000  0.35562000  1.0
  H  H9  1  0.03303000  0.97533000  0.14438000  1.0
  H  H10  1  0.46697000  0.47533000  0.64438000  1.0
  H  H11  1  0.96697000  0.47533000  0.85562000  1.0
  H  H12  1  0.62453000  0.16325000  0.53898000  1.0
  H  H13  1  0.12453000  0.16325000  0.96102000  1.0
  H  H14  1  0.37547000  0.66325000  0.46102000  1.0
  H  H15  1  0.87547000  0.66325000  0.03898000  1.0
  C  C16  1  0.73930000  0.48100000  0.34000000  1.0
  C  C17  1  0.23930000  0.48100000  0.16000000  1.0
  C  C18  1  0.26070000  0.98100000  0.66000000  1.0
  C  C19  1  0.76070000  0.98100000  0.84000000  1.0
  C  C20  1  0.68377000  0.37955000  0.24097000  1.0
  C  C21  1  0.18377000  0.37955000  0.25903000  1.0
  C  C22  1  0.31623000  0.87955000  0.75903000  1.0
  C  C23  1  0.81623000  0.87955000  0.74097000  1.0
  C  C24  1  0.59218000  0.12059000  0.35281000  1.0
  C  C25  1  0.09218000  0.12059000  0.14719000  1.0
  C  C26  1  0.40782000  0.62059000  0.64719000  1.0
  C  C27  1  0.90782000  0.62059000  0.85281000  1.0
  C  C28  1  0.64294000  0.22273000  0.45210000  1.0
  C  C29  1  0.14294000  0.22273000  0.04790000  1.0
  C  C30  1  0.35706000  0.72273000  0.54790000  1.0
  C  C31  1  0.85706000  0.72273000  0.95210000  1.0
  C  C32  1  0.83089000  0.67948000  0.32965000  1.0
  C  C33  1  0.33089000  0.67948000  0.17035000  1.0
  C  C34  1  0.16911000  0.17948000  0.67035000  1.0
  C  C35  1  0.66911000  0.17948000  0.82965000  1.0
  N  N36  1  0.71957000  0.40018000  0.44573000  1.0
  N  N37  1  0.21957000  0.40018000  0.05427000  1.0
  N  N38  1  0.28043000  0.90018000  0.55427000  1.0
  N  N39  1  0.78043000  0.90018000  0.94573000  1.0
  N  N40  1  0.61468000  0.19914000  0.24693000  1.0
  N  N41  1  0.11468000  0.19914000  0.25306000  1.0
  N  N42  1  0.38532000  0.69914000  0.75307000  1.0
  N  N43  1  0.88532000  0.69914000  0.74693000  1.0
  O  O44  1  0.85259000  0.74547000  0.22902000  1.0
  O  O45  1  0.35259000  0.74548000  0.27098000  1.0
  O  O46  1  0.14741000  0.24547000  0.77098000  1.0
  O  O47  1  0.64741000  0.24547000  0.72902000  1.0
  O  O48  1  0.88126000  0.75918000  0.42510000  1.0
  O  O49  1  0.38126000  0.75918000  0.07490000  1.0
  O  O50  1  0.11874000  0.25918000  0.57490000  1.0
  O  O51  1  0.61874000  0.25918000  0.92510000  1.0
