# generated using pymatgen
data_CuH6(C2O3)2
_symmetry_space_group_name_H-M   'P 1'
_cell_length_a   6.92170000
_cell_length_b   8.48861000
_cell_length_c   11.60830000
_cell_angle_alpha   104.86700000
_cell_angle_beta   90.00000000
_cell_angle_gamma   89.99990000
_symmetry_Int_Tables_number   1
_chemical_formula_structural   CuH6(C2O3)2
_chemical_formula_sum   'Cu4 H24 C16 O24'
_cell_volume   659.22038191
_cell_formula_units_Z   4
loop_
 _symmetry_equiv_pos_site_id
 _symmetry_equiv_pos_as_xyz
  1  'x, y, z'
loop_
 _atom_site_type_symbol
 _atom_site_label
 _atom_site_symmetry_multiplicity
 _atom_site_fract_x
 _atom_site_fract_y
 _atom_site_fract_z
 _atom_site_occupancy
  Cu  Cu0  1  0.56200000  0.41994000  0.85391000  1.0
  Cu  Cu1  1  0.06199000  0.58005000  0.64609000  1.0
  Cu  Cu2  1  0.43801000  0.58005000  0.14609000  1.0
  Cu  Cu3  1  0.93801000  0.41994000  0.35391000  1.0
  H  H4  1  0.47631000  0.92745000  0.60895000  1.0
  H  H5  1  0.97631000  0.07255000  0.89105000  1.0
  H  H6  1  0.52369000  0.07254000  0.39104000  1.0
  H  H7  1  0.02369000  0.92745000  0.10895000  1.0
  H  H8  1  0.49752000  0.92098000  0.10602000  1.0
  H  H9  1  0.99751000  0.07902000  0.39398000  1.0
  H  H10  1  0.50249000  0.07902000  0.89397000  1.0
  H  H11  1  0.00248000  0.92099000  0.60602000  1.0
  H  H12  1  0.21975000  0.54592000  0.85052000  1.0
  H  H13  1  0.71975000  0.45408000  0.64948000  1.0
  H  H14  1  0.78026000  0.45408000  0.14948000  1.0
  H  H15  1  0.28026000  0.54592000  0.35052000  1.0
  H  H16  1  0.21332000  0.35802000  0.76480000  1.0
  H  H17  1  0.71331000  0.64198000  0.73521000  1.0
  H  H18  1  0.78668000  0.64198000  0.23521000  1.0
  H  H19  1  0.28668000  0.35802000  0.26480000  1.0
  H  H20  1  0.90529000  0.32872000  0.81470000  1.0
  H  H21  1  0.40528000  0.67127000  0.68530000  1.0
  H  H22  1  0.09472000  0.67127000  0.18530000  1.0
  H  H23  1  0.59472000  0.32873000  0.31470000  1.0
  H  H24  1  0.86344000  0.33484000  0.95318000  1.0
  H  H25  1  0.36345000  0.66516000  0.54682000  1.0
  H  H26  1  0.13655000  0.66516000  0.04682000  1.0
  H  H27  1  0.63655000  0.33484000  0.45318000  1.0
  C  C28  1  0.56314000  0.18126000  0.63214000  1.0
  C  C29  1  0.06313000  0.81874000  0.86786000  1.0
  C  C30  1  0.43686000  0.81874000  0.36785000  1.0
  C  C31  1  0.93687000  0.18126000  0.13215000  1.0
  C  C32  1  0.50760000  0.01750000  0.55944000  1.0
  C  C33  1  0.00758000  0.98249000  0.94056000  1.0
  C  C34  1  0.49241000  0.98249000  0.44055000  1.0
  C  C35  1  0.99241000  0.01751000  0.05945000  1.0
  C  C36  1  0.54105000  0.77288000  0.92110000  1.0
  C  C37  1  0.04105000  0.22712000  0.57890000  1.0
  C  C38  1  0.45895000  0.22712000  0.07889000  1.0
  C  C39  1  0.95895000  0.77289000  0.42111000  1.0
  C  C40  1  0.50855000  0.92819000  0.01375000  1.0
  C  C41  1  0.00856000  0.07181000  0.48625000  1.0
  C  C42  1  0.49145000  0.07181000  0.98624000  1.0
  C  C43  1  0.99145000  0.92819000  0.51376000  1.0
  O  O44  1  0.61541000  0.29083000  0.58226000  1.0
  O  O45  1  0.11540000  0.70918000  0.91774000  1.0
  O  O46  1  0.38459000  0.70917000  0.41774000  1.0
  O  O47  1  0.88459000  0.29083000  0.08227000  1.0
  O  O48  1  0.55222000  0.20014000  0.74533000  1.0
  O  O49  1  0.05221000  0.79987000  0.75466000  1.0
  O  O50  1  0.44778000  0.79986000  0.25466000  1.0
  O  O51  1  0.94779000  0.20013000  0.24534000  1.0
  O  O52  1  0.55451000  0.64439000  0.96126000  1.0
  O  O53  1  0.05451000  0.35561000  0.53874000  1.0
  O  O54  1  0.44550000  0.35561000  0.03874000  1.0
  O  O55  1  0.94549000  0.64439000  0.46127000  1.0
  O  O56  1  0.55468000  0.77225000  0.81194000  1.0
  O  O57  1  0.05469000  0.22775000  0.68806000  1.0
  O  O58  1  0.44532000  0.22775000  0.18805000  1.0
  O  O59  1  0.94531000  0.77225000  0.31195000  1.0
  O  O60  1  0.29963000  0.45160000  0.80352000  1.0
  O  O61  1  0.79964000  0.54840000  0.69649000  1.0
  O  O62  1  0.70036000  0.54840000  0.19649000  1.0
  O  O63  1  0.20037000  0.45160000  0.30352000  1.0
  O  O64  1  0.83863000  0.38999000  0.88799000  1.0
  O  O65  1  0.33862000  0.61001000  0.61201000  1.0
  O  O66  1  0.16137000  0.61000000  0.11201000  1.0
  O  O67  1  0.66138000  0.38999000  0.38799000  1.0
