# generated using pymatgen
data_KYbH8(CO3)4
_symmetry_space_group_name_H-M   'P 1'
_cell_length_a   8.74617000
_cell_length_b   9.14890000
_cell_length_c   9.14880174
_cell_angle_alpha   76.79254312
_cell_angle_beta   61.44662131
_cell_angle_gamma   61.44470000
_symmetry_Int_Tables_number   1
_chemical_formula_structural   KYbH8(CO3)4
_chemical_formula_sum   'K2 Yb2 H16 C8 O24'
_cell_volume   564.80722648
_cell_formula_units_Z   2
loop_
 _symmetry_equiv_pos_site_id
 _symmetry_equiv_pos_as_xyz
  1  'x, y, z'
loop_
 _atom_site_type_symbol
 _atom_site_label
 _atom_site_symmetry_multiplicity
 _atom_site_fract_x
 _atom_site_fract_y
 _atom_site_fract_z
 _atom_site_occupancy
  K  K0  1  0.37501000  0.25000000  0.74999000  1.0
  K  K1  1  0.62500000  0.75001000  0.25001000  1.0
  Yb  Yb2  1  0.87499000  0.25000000  0.75000000  1.0
  Yb  Yb3  1  0.12500000  0.75000000  0.25000000  1.0
  H  H4  1  0.99633000  0.32611000  0.17102000  1.0
  H  H5  1  0.66735000  0.32898000  0.32611000  1.0
  H  H6  1  0.49346000  0.17389000  0.32898000  1.0
  H  H7  1  0.32244000  0.17102000  0.17389000  1.0
  H  H8  1  0.00367000  0.67389000  0.82898000  1.0
  H  H9  1  0.33265000  0.67102000  0.67389000  1.0
  H  H10  1  0.50654000  0.82610000  0.67102000  1.0
  H  H11  1  0.67756000  0.82898000  0.82611000  1.0
  H  H12  1  0.14167000  0.40886000  0.09844000  1.0
  H  H13  1  0.74011000  0.40157000  0.40886000  1.0
  H  H14  1  0.64897000  0.09114000  0.40157000  1.0
  H  H15  1  0.55053000  0.09843000  0.09114000  1.0
  H  H16  1  0.85833000  0.59114000  0.90156000  1.0
  H  H17  1  0.25989000  0.59843000  0.59114000  1.0
  H  H18  1  0.35103000  0.90887000  0.59843000  1.0
  H  H19  1  0.44947000  0.90157000  0.90886000  1.0
  C  C20  1  0.07705000  0.48118000  0.52854000  1.0
  C  C21  1  0.10558000  0.97147000  0.48118000  1.0
  C  C22  1  0.08676000  0.01882000  0.97146000  1.0
  C  C23  1  0.55823000  0.52853000  0.01882000  1.0
  C  C24  1  0.92296000  0.51882000  0.47147000  1.0
  C  C25  1  0.89442000  0.02854000  0.51882000  1.0
  C  C26  1  0.91325000  0.98118000  0.02853000  1.0
  C  C27  1  0.44178000  0.47146000  0.98118000  1.0
  O  O28  1  0.08768000  0.37533000  0.64277000  1.0
  O  O29  1  0.23043000  0.85725000  0.37534000  1.0
  O  O30  1  0.10577000  0.12467000  0.85724000  1.0
  O  O31  1  0.46301000  0.64275000  0.12467000  1.0
  O  O32  1  0.91232000  0.62466000  0.35725000  1.0
  O  O33  1  0.76956000  0.14276000  0.62466000  1.0
  O  O34  1  0.89423000  0.87534000  0.14275000  1.0
  O  O35  1  0.53699000  0.35724000  0.87533000  1.0
  O  O36  1  0.17953000  0.56125000  0.45532000  1.0
  O  O37  1  0.13486000  0.04468000  0.56126000  1.0
  O  O38  1  0.19611000  0.93874000  0.04468000  1.0
  O  O39  1  0.74080000  0.45533000  0.93873000  1.0
  O  O40  1  0.82047000  0.43874000  0.54467000  1.0
  O  O41  1  0.86516000  0.95532000  0.43874000  1.0
  O  O42  1  0.80388000  0.06127000  0.95532000  1.0
  O  O43  1  0.25921000  0.54468000  0.06126000  1.0
  O  O44  1  0.13518000  0.30231000  0.10851000  1.0
  O  O45  1  0.74369000  0.39148000  0.30230000  1.0
  O  O46  1  0.54600000  0.19770000  0.39148000  1.0
  O  O47  1  0.43748000  0.10852000  0.19770000  1.0
  O  O48  1  0.86483000  0.69770000  0.89148000  1.0
  O  O49  1  0.25631000  0.60851000  0.69770000  1.0
  O  O50  1  0.45400000  0.80230000  0.60852000  1.0
  O  O51  1  0.56252000  0.89148000  0.80230000  1.0
