# generated using pymatgen
data_CdH18C26N4O5
_symmetry_space_group_name_H-M   'P 1'
_cell_length_a   12.58930000
_cell_length_b   15.51480000
_cell_length_c   16.05262467
_cell_angle_alpha   109.53071246
_cell_angle_beta   113.05629026
_cell_angle_gamma   90.04340000
_symmetry_Int_Tables_number   1
_chemical_formula_structural   CdH18C26N4O5
_chemical_formula_sum   'Cd4 H72 C104 N16 O20'
_cell_volume   2687.42597022
_cell_formula_units_Z   4
loop_
 _symmetry_equiv_pos_site_id
 _symmetry_equiv_pos_as_xyz
  1  'x, y, z'
loop_
 _atom_site_type_symbol
 _atom_site_label
 _atom_site_symmetry_multiplicity
 _atom_site_fract_x
 _atom_site_fract_y
 _atom_site_fract_z
 _atom_site_occupancy
  Cd  Cd0  1  0.57804000  0.00801000  0.14021000  1.0
  Cd  Cd1  1  0.43768000  0.49180000  0.85984000  1.0
  Cd  Cd2  1  0.42196000  0.99199000  0.85979000  1.0
  Cd  Cd3  1  0.56232000  0.50819000  0.14016000  1.0
  H  H4  1  0.01002000  0.34280000  0.57685000  1.0
  H  H5  1  0.43302000  0.15657000  0.42306000  1.0
  H  H6  1  0.98999000  0.65719000  0.42314000  1.0
  H  H7  1  0.56698000  0.84343000  0.57694000  1.0
  H  H8  1  0.71010000  0.33367000  0.13498000  1.0
  H  H9  1  0.57549000  0.16643000  0.86503000  1.0
  H  H10  1  0.28990000  0.66633000  0.86502000  1.0
  H  H11  1  0.42452000  0.83357000  0.13498000  1.0
  H  H12  1  0.15743000  0.36972000  0.74894000  1.0
  H  H13  1  0.40838000  0.12965000  0.25093000  1.0
  H  H14  1  0.84259000  0.63026000  0.25105000  1.0
  H  H15  1  0.59164000  0.87035000  0.74908000  1.0
  H  H16  1  0.32538000  0.48450000  0.62110000  1.0
  H  H17  1  0.70380000  0.01480000  0.37857000  1.0
  H  H18  1  0.67462000  0.51550000  0.37889000  1.0
  H  H19  1  0.29621000  0.98519000  0.62143000  1.0
  H  H20  1  0.19875000  0.51470000  0.47121000  1.0
  H  H21  1  0.72795000  0.98535000  0.52901000  1.0
  H  H22  1  0.80124000  0.48530000  0.52878000  1.0
  H  H23  1  0.27206000  0.01464000  0.47100000  1.0
  H  H24  1  0.08733000  0.50758000  0.30206000  1.0
  H  H25  1  0.78601000  0.99302000  0.69842000  1.0
  H  H26  1  0.91267000  0.49241000  0.69793000  1.0
  H  H27  1  0.21399000  0.00698000  0.30159000  1.0
  H  H28  1  0.90405000  0.39805000  0.19343000  1.0
  H  H29  1  0.71121000  0.10253000  0.80693000  1.0
  H  H30  1  0.09595000  0.60194000  0.80656000  1.0
  H  H31  1  0.28880000  0.89747000  0.19308000  1.0
  H  H32  1  0.94438000  0.29454000  0.41980000  1.0
  H  H33  1  0.52466000  0.20508000  0.58000000  1.0
  H  H34  1  0.05562000  0.70547000  0.58020000  1.0
  H  H35  1  0.47533000  0.79490000  0.42000000  1.0
  H  H36  1  0.81945000  0.15333000  0.29206000  1.0
  H  H37  1  0.52792000  0.34683000  0.70797000  1.0
  H  H38  1  0.18056000  0.84666000  0.70794000  1.0
  H  H39  1  0.47208000  0.65316000  0.29203000  1.0
  H  H40  1  0.54602000  0.19826000  0.06213000  1.0
  H  H41  1  0.48412000  0.30167000  0.93782000  1.0
  H  H42  1  0.45397000  0.80173000  0.93786000  1.0
  H  H43  1  0.51588000  0.69833000  0.06218000  1.0
  H  H44  1  0.19792000  0.04400000  0.91454000  1.0
  H  H45  1  0.28294000  0.45564000  0.08580000  1.0
  H  H46  1  0.80208000  0.95599000  0.08545000  1.0
  H  H47  1  0.71706000  0.54438000  0.91420000  1.0
  H  H48  1  0.98592000  0.99665000  0.80347000  1.0
  H  H49  1  0.18172000  0.50293000  0.19666000  1.0
  H  H50  1  0.01407000  0.00335000  0.19652000  1.0
  H  H51  1  0.81828000  0.49708000  0.80333000  1.0
  H  H52  1  0.97550000  0.77273000  0.90416000  1.0
  H  H53  1  0.07033000  0.72628000  0.09512000  1.0
  H  H54  1  0.02449000  0.22727000  0.09583000  1.0
  H  H55  1  0.92966000  0.27373000  0.90488000  1.0
  H  H56  1  0.18676000  0.82253000  0.01560000  1.0
  H  H57  1  0.17045000  0.67644000  0.98389000  1.0
  H  H58  1  0.81322000  0.17746000  0.98438000  1.0
  H  H59  1  0.82955000  0.32358000  0.01611000  1.0
  H  H60  1  0.76460000  0.68688000  0.65267000  1.0
  H  H61  1  0.11176000  0.81247000  0.34740000  1.0
  H  H62  1  0.23541000  0.31311000  0.34735000  1.0
  H  H63  1  0.88823000  0.18753000  0.65260000  1.0
  H  H64  1  0.62722000  0.57642000  0.66326000  1.0
  H  H65  1  0.96444000  0.92328000  0.33725000  1.0
  H  H66  1  0.37280000  0.42358000  0.33677000  1.0
  H  H67  1  0.03555000  0.07672000  0.66275000  1.0
  H  H68  1  0.65237000  0.77869000  0.93232000  1.0
  H  H69  1  0.72007000  0.72175000  0.06779000  1.0
  H  H70  1  0.34764000  0.22132000  0.06770000  1.0
  H  H71  1  0.27993000  0.27825000  0.93221000  1.0
  H  H72  1  0.78917000  0.88775000  0.92265000  1.0
  H  H73  1  0.86594000  0.61237000  0.07703000  1.0
  H  H74  1  0.21084000  0.11226000  0.07736000  1.0
  H  H75  1  0.13407000  0.38763000  0.92297000  1.0
  C  C76  1  0.17389000  0.39063000  0.69649000  1.0
  C  C77  1  0.47717000  0.10872000  0.30335000  1.0
  C  C78  1  0.82612000  0.60936000  0.30350000  1.0
  C  C79  1  0.52284000  0.89128000  0.69666000  1.0
  C  C80  1  0.25507000  0.44976000  0.62670000  1.0
  C  C81  1  0.62797000  0.04953000  0.37302000  1.0
  C  C82  1  0.74492000  0.55024000  0.37329000  1.0
  C  C83  1  0.37204000  0.95046000  0.62698000  1.0
  C  C84  1  0.14286000  0.41010000  0.55766000  1.0
  C  C85  1  0.58495000  0.08930000  0.44215000  1.0
  C  C86  1  0.85714000  0.58990000  0.44233000  1.0
  C  C87  1  0.41505000  0.91068000  0.55785000  1.0
  C  C88  1  0.07998000  0.40471000  0.45783000  1.0
  C  C89  1  0.62223000  0.09499000  0.54211000  1.0
  C  C90  1  0.92001000  0.59529000  0.54216000  1.0
  C  C91  1  0.37778000  0.90500000  0.45790000  1.0
  C  C92  1  0.11976000  0.46443000  0.42304000  1.0
  C  C93  1  0.69706000  0.03558000  0.57710000  1.0
  C  C94  1  0.88023000  0.53557000  0.57695000  1.0
  C  C95  1  0.30294000  0.96441000  0.42290000  1.0
  C  C96  1  0.05668000  0.46060000  0.32830000  1.0
  C  C97  1  0.72895000  0.03977000  0.67200000  1.0
  C  C98  1  0.94331000  0.53940000  0.67169000  1.0
  C  C99  1  0.27105000  0.96023000  0.32800000  1.0
  C  C100  1  0.95336000  0.39869000  0.26665000  1.0
  C  C101  1  0.68730000  0.10172000  0.73363000  1.0
  C  C102  1  0.04664000  0.60131000  0.73334000  1.0
  C  C103  1  0.31271000  0.89827000  0.26638000  1.0
  C  C104  1  0.91257000  0.33810000  0.29976000  1.0
  C  C105  1  0.61327000  0.16208000  0.70034000  1.0
  C  C106  1  0.08743000  0.66190000  0.70023000  1.0
  C  C107  1  0.38673000  0.83791000  0.29967000  1.0
  C  C108  1  0.97721000  0.34189000  0.39508000  1.0
  C  C109  1  0.58232000  0.15791000  0.60486000  1.0
  C  C110  1  0.02280000  0.65811000  0.60492000  1.0
  C  C111  1  0.41769000  0.84208000  0.39515000  1.0
  C  C112  1  0.80603000  0.27138000  0.23918000  1.0
  C  C113  1  0.56730000  0.22882000  0.76085000  1.0
  C  C114  1  0.19397000  0.72861000  0.76082000  1.0
  C  C115  1  0.43270000  0.77118000  0.23915000  1.0
  C  C116  1  0.77191000  0.18925000  0.24462000  1.0
  C  C117  1  0.52774000  0.31088000  0.75539000  1.0
  C  C118  1  0.22809000  0.81075000  0.75538000  1.0
  C  C119  1  0.47226000  0.68911000  0.24460000  1.0
  C  C120  1  0.62909000  0.20763000  0.12311000  1.0
  C  C121  1  0.50630000  0.29238000  0.87687000  1.0
  C  C122  1  0.37090000  0.79237000  0.87688000  1.0
  C  C123  1  0.49370000  0.70762000  0.12313000  1.0
  C  C124  1  0.33377000  0.95983000  0.03265000  1.0
  C  C125  1  0.30099000  0.53974000  0.96755000  1.0
  C  C126  1  0.66624000  0.04017000  0.96735000  1.0
  C  C127  1  0.69901000  0.46027000  0.03245000  1.0
  C  C128  1  0.20582000  0.93596000  0.97168000  1.0
  C  C129  1  0.23368000  0.56343000  0.02831000  1.0
  C  C130  1  0.79417000  0.06404000  0.02831000  1.0
  C  C131  1  0.76633000  0.43659000  0.97169000  1.0
  C  C132  1  0.14825000  0.98512000  0.91209000  1.0
  C  C133  1  0.23563000  0.51440000  0.08804000  1.0
  C  C134  1  0.85175000  0.01488000  0.08790000  1.0
  C  C135  1  0.76438000  0.48562000  0.91196000  1.0
  C  C136  1  0.03044000  0.95890000  0.85031000  1.0
  C  C137  1  0.17941000  0.54059000  0.14972000  1.0
  C  C138  1  0.96956000  0.04110000  0.14968000  1.0
  C  C139  1  0.82060000  0.45942000  0.85028000  1.0
  C  C140  1  0.96891000  0.88166000  0.84681000  1.0
  C  C141  1  0.12131000  0.61771000  0.15298000  1.0
  C  C142  1  0.03108000  0.11834000  0.15318000  1.0
  C  C143  1  0.87869000  0.38230000  0.84702000  1.0
  C  C144  1  0.02396000  0.83271000  0.90721000  1.0
  C  C145  1  0.11590000  0.66645000  0.09234000  1.0
  C  C146  1  0.97605000  0.16729000  0.09278000  1.0
  C  C147  1  0.88411000  0.33356000  0.90767000  1.0
  C  C148  1  0.14176000  0.86058000  0.96928000  1.0
  C  C149  1  0.17180000  0.63857000  0.03040000  1.0
  C  C150  1  0.85823000  0.13941000  0.03070000  1.0
  C  C151  1  0.82821000  0.36145000  0.96961000  1.0
  C  C152  1  0.78272000  0.79292000  0.78688000  1.0
  C  C153  1  0.99538000  0.70679000  0.21298000  1.0
  C  C154  1  0.21728000  0.20708000  0.21313000  1.0
  C  C155  1  0.00462000  0.29322000  0.78702000  1.0
  C  C156  1  0.73780000  0.70637000  0.71254000  1.0
  C  C157  1  0.02511000  0.79322000  0.28751000  1.0
  C  C158  1  0.26221000  0.29363000  0.28747000  1.0
  C  C159  1  0.97487000  0.20677000  0.71249000  1.0
  C  C160  1  0.66227000  0.64540000  0.71879000  1.0
  C  C161  1  0.94367000  0.85437000  0.28155000  1.0
  C  C162  1  0.33774000  0.35460000  0.28123000  1.0
  C  C163  1  0.05631000  0.14563000  0.71845000  1.0
  C  C164  1  0.63153000  0.67044000  0.79788000  1.0
  C  C165  1  0.83388000  0.82962000  0.20249000  1.0
  C  C166  1  0.36849000  0.32957000  0.20215000  1.0
  C  C167  1  0.16611000  0.17038000  0.79751000  1.0
  C  C168  1  0.67680000  0.75833000  0.87119000  1.0
  C  C169  1  0.80557000  0.74188000  0.12892000  1.0
  C  C170  1  0.32321000  0.24168000  0.12883000  1.0
  C  C171  1  0.19443000  0.25812000  0.87108000  1.0
  C  C172  1  0.75286000  0.81955000  0.86606000  1.0
  C  C173  1  0.88644000  0.68049000  0.13378000  1.0
  C  C174  1  0.24714000  0.18046000  0.13395000  1.0
  C  C175  1  0.11356000  0.31951000  0.86622000  1.0
  C  C176  1  0.55521000  0.60125000  0.80503000  1.0
  C  C177  1  0.75079000  0.89896000  0.19553000  1.0
  C  C178  1  0.44479000  0.39876000  0.19498000  1.0
  C  C179  1  0.24920000  0.10104000  0.80447000  1.0
  N  N180  1  0.27236000  0.43715000  0.71172000  1.0
  N  N181  1  0.56030000  0.06217000  0.28804000  1.0
  N  N182  1  0.72764000  0.56284000  0.28827000  1.0
  N  N183  1  0.43971000  0.93783000  0.71196000  1.0
  N  N184  1  0.09420000  0.37227000  0.60417000  1.0
  N  N185  1  0.48984000  0.12709000  0.39569000  1.0
  N  N186  1  0.90580000  0.62772000  0.39582000  1.0
  N  N187  1  0.51018000  0.87290000  0.60432000  1.0
  N  N188  1  0.71388000  0.28061000  0.16114000  1.0
  N  N189  1  0.55307000  0.21949000  0.83885000  1.0
  N  N190  1  0.28611000  0.71939000  0.83885000  1.0
  N  N191  1  0.44693000  0.78051000  0.16115000  1.0
  N  N192  1  0.66244000  0.15065000  0.17210000  1.0
  N  N193  1  0.49069000  0.34939000  0.82790000  1.0
  N  N194  1  0.33756000  0.84934000  0.82790000  1.0
  N  N195  1  0.50930000  0.65061000  0.17210000  1.0
  O  O196  1  0.39395000  0.02158000  0.02549000  1.0
  O  O197  1  0.36833000  0.47807000  0.97484000  1.0
  O  O198  1  0.60604000  0.97841000  0.97449000  1.0
  O  O199  1  0.63167000  0.52194000  0.02516000  1.0
  O  O200  1  0.38171000  0.91761000  0.09058000  1.0
  O  O201  1  0.29124000  0.58200000  0.90965000  1.0
  O  O202  1  0.61828000  0.08239000  0.90942000  1.0
  O  O203  1  0.70875000  0.41801000  0.09034000  1.0
  O  O204  1  0.52169000  0.52100000  0.74051000  1.0
  O  O205  1  0.78167000  0.97896000  0.26044000  1.0
  O  O206  1  0.47830000  0.47901000  0.25950000  1.0
  O  O207  1  0.21833000  0.02104000  0.73956000  1.0
  O  O208  1  0.53127000  0.62695000  0.88018000  1.0
  O  O209  1  0.65203000  0.87352000  0.12002000  1.0
  O  O210  1  0.46873000  0.37305000  0.11984000  1.0
  O  O211  1  0.34796000  0.12648000  0.87998000  1.0
  O  O212  1  0.85450000  0.85515000  0.77857000  1.0
  O  O213  1  0.07509000  0.64434000  0.22120000  1.0
  O  O214  1  0.14549000  0.14486000  0.22143000  1.0
  O  O215  1  0.92490000  0.35566000  0.77880000  1.0
