# generated using pymatgen
data_Cu2H29C30N3O10
_symmetry_space_group_name_H-M   'P 1'
_cell_length_a   11.12310000
_cell_length_b   11.12290000
_cell_length_c   19.11480000
_cell_angle_alpha   93.27330000
_cell_angle_beta   93.27380000
_cell_angle_gamma   94.51090000
_symmetry_Int_Tables_number   1
_chemical_formula_structural   Cu2H29C30N3O10
_chemical_formula_sum   'Cu4 H58 C60 N6 O20'
_cell_volume   2349.22051896
_cell_formula_units_Z   2
loop_
 _symmetry_equiv_pos_site_id
 _symmetry_equiv_pos_as_xyz
  1  'x, y, z'
loop_
 _atom_site_type_symbol
 _atom_site_label
 _atom_site_symmetry_multiplicity
 _atom_site_fract_x
 _atom_site_fract_y
 _atom_site_fract_z
 _atom_site_occupancy
  Cu  Cu0  1  0.09636000  0.96748000  0.47314000  1.0
  Cu  Cu1  1  0.03251000  0.90363000  0.02686000  1.0
  Cu  Cu2  1  0.90364000  0.03251000  0.52686000  1.0
  Cu  Cu3  1  0.96748000  0.09636000  0.97314000  1.0
  H  H4  1  0.21892000  0.75729000  0.63589000  1.0
  H  H5  1  0.24270000  0.78106000  0.86411000  1.0
  H  H6  1  0.78107000  0.24271000  0.36411000  1.0
  H  H7  1  0.75729000  0.21893000  0.13589000  1.0
  H  H8  1  0.00433000  0.99566000  0.75000000  1.0
  H  H9  1  0.99567000  0.00435000  0.25000000  1.0
  H  H10  1  0.33091000  0.30854000  0.51274000  1.0
  H  H11  1  0.69146000  0.66909000  0.98725000  1.0
  H  H12  1  0.66909000  0.69145000  0.48726000  1.0
  H  H13  1  0.30854000  0.33092000  0.01275000  1.0
  H  H14  1  0.44594000  0.48809000  0.57545000  1.0
  H  H15  1  0.51192000  0.55407000  0.92453000  1.0
  H  H16  1  0.55407000  0.51191000  0.42454000  1.0
  H  H17  1  0.48809000  0.44593000  0.07546000  1.0
  H  H18  1  0.15271000  0.52731000  0.71031000  1.0
  H  H19  1  0.47269000  0.84731000  0.78968000  1.0
  H  H20  1  0.84730000  0.47268000  0.28969000  1.0
  H  H21  1  0.52730000  0.15269000  0.21031000  1.0
  H  H22  1  0.47194000  0.60378000  0.69858000  1.0
  H  H23  1  0.39624000  0.52806000  0.80142000  1.0
  H  H24  1  0.52806000  0.39623000  0.30142000  1.0
  H  H25  1  0.60376000  0.47194000  0.19858000  1.0
  H  H26  1  0.38782000  0.70077000  0.65010000  1.0
  H  H27  1  0.29925000  0.61217000  0.84989000  1.0
  H  H28  1  0.61218000  0.29923000  0.34990000  1.0
  H  H29  1  0.70075000  0.38783000  0.15010000  1.0
  H  H30  1  0.03814000  0.34727000  0.64680000  1.0
  H  H31  1  0.65273000  0.96188000  0.85319000  1.0
  H  H32  1  0.96187000  0.65272000  0.35320000  1.0
  H  H33  1  0.34726000  0.03813000  0.14680000  1.0
  H  H34  1  0.32705000  0.08591000  0.41651000  1.0
  H  H35  1  0.91408000  0.67294000  0.08348000  1.0
  H  H36  1  0.67296000  0.91409000  0.58351000  1.0
  H  H37  1  0.08591000  0.32708000  0.91649000  1.0
  H  H38  1  0.57557000  0.05338000  0.33376000  1.0
  H  H39  1  0.94663000  0.42442000  0.16625000  1.0
  H  H40  1  0.42442000  0.94662000  0.66625000  1.0
  H  H41  1  0.05338000  0.57561000  0.83374000  1.0
  H  H42  1  0.62913000  0.07737000  0.42342000  1.0
  H  H43  1  0.92265000  0.37085000  0.07659000  1.0
  H  H44  1  0.37087000  0.92262000  0.57659000  1.0
  H  H45  1  0.07737000  0.62916000  0.92340000  1.0
  H  H46  1  0.50348000  0.15421000  0.39104000  1.0
  H  H47  1  0.84579000  0.49649000  0.10896000  1.0
  H  H48  1  0.49652000  0.84578000  0.60897000  1.0
  H  H49  1  0.15420000  0.50351000  0.89102000  1.0
  H  H50  1  0.43606000  0.79114000  0.42792000  1.0
  H  H51  1  0.20885000  0.56397000  0.07210000  1.0
  H  H52  1  0.56395000  0.20884000  0.57208000  1.0
  H  H53  1  0.79115000  0.43607000  0.92791000  1.0
  H  H54  1  0.59007000  0.85656000  0.44171000  1.0
  H  H55  1  0.14347000  0.40994000  0.05830000  1.0
  H  H56  1  0.40994000  0.14343000  0.55829000  1.0
  H  H57  1  0.85655000  0.59009000  0.94170000  1.0
  H  H58  1  0.52665000  0.81845000  0.35500000  1.0
  H  H59  1  0.18154000  0.47336000  0.14501000  1.0
  H  H60  1  0.47335000  0.18155000  0.64500000  1.0
  H  H61  1  0.81845000  0.52668000  0.85499000  1.0
  C  C62  1  0.19472000  0.79395000  0.68668000  1.0
  C  C63  1  0.20604000  0.80527000  0.81332000  1.0
  C  C64  1  0.80528000  0.20605000  0.31332000  1.0
  C  C65  1  0.79396000  0.19472000  0.18668000  1.0
  C  C66  1  0.24500000  0.75500000  0.75000000  1.0
  C  C67  1  0.75500000  0.24500000  0.25000000  1.0
  C  C68  1  0.11000000  0.88023000  0.68704000  1.0
  C  C69  1  0.11976000  0.88999000  0.81296000  1.0
  C  C70  1  0.89000000  0.11977000  0.31296000  1.0
  C  C71  1  0.88023000  0.11001000  0.18704000  1.0
  C  C72  1  0.07089000  0.92909000  0.75000000  1.0
  C  C73  1  0.92910000  0.07091000  0.25000000  1.0
  C  C74  1  0.11222000  0.20304000  0.54325000  1.0
  C  C75  1  0.79696000  0.88778000  0.95675000  1.0
  C  C76  1  0.88778000  0.79696000  0.45675000  1.0
  C  C77  1  0.20303000  0.11222000  0.04325000  1.0
  C  C78  1  0.30704000  0.51878000  0.64757000  1.0
  C  C79  1  0.48122000  0.69297000  0.85242000  1.0
  C  C80  1  0.69297000  0.48122000  0.35243000  1.0
  C  C81  1  0.51877000  0.30703000  0.14757000  1.0
  C  C82  1  0.17817000  0.31624000  0.57665000  1.0
  C  C83  1  0.68375000  0.82184000  0.92335000  1.0
  C  C84  1  0.82184000  0.68374000  0.42336000  1.0
  C  C85  1  0.31624000  0.17816000  0.07665000  1.0
  C  C86  1  0.29255000  0.35712000  0.55608000  1.0
  C  C87  1  0.64288000  0.70746000  0.94391000  1.0
  C  C88  1  0.70746000  0.64287000  0.44392000  1.0
  C  C89  1  0.35712000  0.29254000  0.05608000  1.0
  C  C90  1  0.35623000  0.45751000  0.59123000  1.0
  C  C91  1  0.54250000  0.64378000  0.90876000  1.0
  C  C92  1  0.64378000  0.54249000  0.40877000  1.0
  C  C93  1  0.45750000  0.35622000  0.09123000  1.0
  C  C94  1  0.19194000  0.47921000  0.66704000  1.0
  C  C95  1  0.52079000  0.80808000  0.83296000  1.0
  C  C96  1  0.80807000  0.52079000  0.33297000  1.0
  C  C97  1  0.47920000  0.19192000  0.16704000  1.0
  C  C98  1  0.37900000  0.62682000  0.68581000  1.0
  C  C99  1  0.37319000  0.62100000  0.81419000  1.0
  C  C100  1  0.62100000  0.37318000  0.31419000  1.0
  C  C101  1  0.62681000  0.37900000  0.18581000  1.0
  C  C102  1  0.12761000  0.37911000  0.63176000  1.0
  C  C103  1  0.62089000  0.87241000  0.86823000  1.0
  C  C104  1  0.87240000  0.62088000  0.36824000  1.0
  C  C105  1  0.37911000  0.12760000  0.13176000  1.0
  C  C106  1  0.34841000  0.99084000  0.42002000  1.0
  C  C107  1  0.00914000  0.65159000  0.07998000  1.0
  C  C108  1  0.65160000  0.00915000  0.58000000  1.0
  C  C109  1  0.99085000  0.34843000  0.92000000  1.0
  C  C110  1  0.54749000  0.06935000  0.38762000  1.0
  C  C111  1  0.93066000  0.45250000  0.11239000  1.0
  C  C112  1  0.45251000  0.93065000  0.61239000  1.0
  C  C113  1  0.06934000  0.54752000  0.88760000  1.0
  C  C114  1  0.50636000  0.85231000  0.40793000  1.0
  C  C115  1  0.14769000  0.49365000  0.09208000  1.0
  C  C116  1  0.49364000  0.14768000  0.59207000  1.0
  C  C117  1  0.85231000  0.50639000  0.90792000  1.0
  C  C118  1  0.06405000  0.92166000  0.61804000  1.0
  C  C119  1  0.07834000  0.93593000  0.88196000  1.0
  C  C120  1  0.93594000  0.07834000  0.38196000  1.0
  C  C121  1  0.92166000  0.06406000  0.11804000  1.0
  N  N122  1  0.32977000  0.67023000  0.75000000  1.0
  N  N123  1  0.67023000  0.32977000  0.25000000  1.0
  N  N124  1  0.46281000  0.97184000  0.40592000  1.0
  N  N125  1  0.02815000  0.53719000  0.09408000  1.0
  N  N126  1  0.53720000  0.02815000  0.59409000  1.0
  N  N127  1  0.97184000  0.46283000  0.90590000  1.0
  O  O128  1  0.13383000  0.91035000  0.56763000  1.0
  O  O129  1  0.08965000  0.86615000  0.93237000  1.0
  O  O130  1  0.86618000  0.08966000  0.43237000  1.0
  O  O131  1  0.91033000  0.13382000  0.06763000  1.0
  O  O132  1  0.17350000  0.13217000  0.50726000  1.0
  O  O133  1  0.86782000  0.82650000  0.99273000  1.0
  O  O134  1  0.82650000  0.86783000  0.49273000  1.0
  O  O135  1  0.13216000  0.17351000  0.00728000  1.0
  O  O136  1  0.00108000  0.18562000  0.55558000  1.0
  O  O137  1  0.81437000  0.99893000  0.94442000  1.0
  O  O138  1  0.99893000  0.81436000  0.44443000  1.0
  O  O139  1  0.18563000  0.00107000  0.05557000  1.0
  O  O140  1  0.96162000  0.96562000  0.61564000  1.0
  O  O141  1  0.03438000  0.03836000  0.88437000  1.0
  O  O142  1  0.03837000  0.03436000  0.38436000  1.0
  O  O143  1  0.96564000  0.96163000  0.11564000  1.0
  O  O144  1  0.27202000  0.91104000  0.43652000  1.0
  O  O145  1  0.08894000  0.72798000  0.06348000  1.0
  O  O146  1  0.72799000  0.08895000  0.56350000  1.0
  O  O147  1  0.91106000  0.27203000  0.93650000  1.0
