# generated using pymatgen
data_Zn2H27C34N6(O4F3)2
_symmetry_space_group_name_H-M   'P 1'
_cell_length_a   10.97440000
_cell_length_b   18.42400000
_cell_length_c   20.45140000
_cell_angle_alpha   90.00000000
_cell_angle_beta   90.00000000
_cell_angle_gamma   105.34000000
_symmetry_Int_Tables_number   1
_chemical_formula_structural   Zn2H27C34N6(O4F3)2
_chemical_formula_sum   'Zn8 H108 C136 N24 O32 F24'
_cell_volume   3987.79459635
_cell_formula_units_Z   4
loop_
 _symmetry_equiv_pos_site_id
 _symmetry_equiv_pos_as_xyz
  1  'x, y, z'
loop_
 _atom_site_type_symbol
 _atom_site_label
 _atom_site_symmetry_multiplicity
 _atom_site_fract_x
 _atom_site_fract_y
 _atom_site_fract_z
 _atom_site_occupancy
  Zn  Zn0  1  0.95297000  0.57963000  0.89757000  1.0
  Zn  Zn1  1  0.04703000  0.92037000  0.39757000  1.0
  Zn  Zn2  1  0.04704000  0.42037000  0.10243000  1.0
  Zn  Zn3  1  0.95296000  0.07963000  0.60243000  1.0
  Zn  Zn4  1  0.04659000  0.16304000  0.35091000  1.0
  Zn  Zn5  1  0.95340000  0.33696000  0.85090000  1.0
  Zn  Zn6  1  0.95341000  0.83696000  0.64910000  1.0
  Zn  Zn7  1  0.04659000  0.66304000  0.14909000  1.0
  H  H8  1  0.91116000  0.46159000  0.77038000  1.0
  H  H9  1  0.08885000  0.03841000  0.27037000  1.0
  H  H10  1  0.08885000  0.53841000  0.22963000  1.0
  H  H11  1  0.91115000  0.96158000  0.72963000  1.0
  H  H12  1  0.09622000  0.69163000  0.79511000  1.0
  H  H13  1  0.90378000  0.80837000  0.29511000  1.0
  H  H14  1  0.90378000  0.30837000  0.20489000  1.0
  H  H15  1  0.09622000  0.19162000  0.70489000  1.0
  H  H16  1  0.09323000  0.65617000  0.66225000  1.0
  H  H17  1  0.90677000  0.84383000  0.16225000  1.0
  H  H18  1  0.90677000  0.34384000  0.33775000  1.0
  H  H19  1  0.09323000  0.15616000  0.83774000  1.0
  H  H20  1  0.00097000  0.54281000  0.59850000  1.0
  H  H21  1  0.99902000  0.95719000  0.09850000  1.0
  H  H22  1  0.99903000  0.45719000  0.40150000  1.0
  H  H23  1  0.00098000  0.04281000  0.90150000  1.0
  H  H24  1  0.88083000  0.47087000  0.63476000  1.0
  H  H25  1  0.11917000  0.02913000  0.13476000  1.0
  H  H26  1  0.11917000  0.52913000  0.36524000  1.0
  H  H27  1  0.88083000  0.97087000  0.86524000  1.0
  H  H28  1  0.04037000  0.40689000  0.67502000  1.0
  H  H29  1  0.95962000  0.09311000  0.17502000  1.0
  H  H30  1  0.95963000  0.59312000  0.32498000  1.0
  H  H31  1  0.04038000  0.90688000  0.82498000  1.0
  H  H32  1  0.16377000  0.48000000  0.64234000  1.0
  H  H33  1  0.83623000  0.01999000  0.14233000  1.0
  H  H34  1  0.83623000  0.52000000  0.35766000  1.0
  H  H35  1  0.16377000  0.98000000  0.85766000  1.0
  H  H36  1  0.94629000  0.38216000  0.56028000  1.0
  H  H37  1  0.05371000  0.11784000  0.06028000  1.0
  H  H38  1  0.05371000  0.61784000  0.43972000  1.0
  H  H39  1  0.94629000  0.88216000  0.93972000  1.0
  H  H40  1  0.07823000  0.45146000  0.53029000  1.0
  H  H41  1  0.92176000  0.04854000  0.03029000  1.0
  H  H42  1  0.92176000  0.54854000  0.46971000  1.0
  H  H43  1  0.07824000  0.95146000  0.96971000  1.0
  H  H44  1  0.07748000  0.29942000  0.59258000  1.0
  H  H45  1  0.92252000  0.20058000  0.09258000  1.0
  H  H46  1  0.92251000  0.70058000  0.40742000  1.0
  H  H47  1  0.07749000  0.79942000  0.90742000  1.0
  H  H48  1  0.21854000  0.37166000  0.57971000  1.0
  H  H49  1  0.78145000  0.12834000  0.07972000  1.0
  H  H50  1  0.78145000  0.62833000  0.42028000  1.0
  H  H51  1  0.21855000  0.87167000  0.92028000  1.0
  H  H52  1  0.00134000  0.21344000  0.50028000  1.0
  H  H53  1  0.99866000  0.28656000  0.00028000  1.0
  H  H54  1  0.99866000  0.78656000  0.49972000  1.0
  H  H55  1  0.00134000  0.71344000  0.99972000  1.0
  H  H56  1  0.20431000  0.33541000  0.34085000  1.0
  H  H57  1  0.79570000  0.16460000  0.84085000  1.0
  H  H58  1  0.79569000  0.66459000  0.65915000  1.0
  H  H59  1  0.20431000  0.83541000  0.15915000  1.0
  H  H60  1  0.24923000  0.42448000  0.45316000  1.0
  H  H61  1  0.75078000  0.07552000  0.95316000  1.0
  H  H62  1  0.75077000  0.57552000  0.54684000  1.0
  H  H63  1  0.24923000  0.92448000  0.04684000  1.0
  H  H64  1  0.84485000  0.03266000  0.42208000  1.0
  H  H65  1  0.15514000  0.46735000  0.92208000  1.0
  H  H66  1  0.15514000  0.96735000  0.57793000  1.0
  H  H67  1  0.84486000  0.53265000  0.07792000  1.0
  H  H68  1  0.79415000  0.18040000  0.27241000  1.0
  H  H69  1  0.20585000  0.31960000  0.77241000  1.0
  H  H70  1  0.20585000  0.81960000  0.72759000  1.0
  H  H71  1  0.79415000  0.68040000  0.22759000  1.0
  H  H72  1  0.55779000  0.09121000  0.31228000  1.0
  H  H73  1  0.44220000  0.40879000  0.81228000  1.0
  H  H74  1  0.44220000  0.90879000  0.68772000  1.0
  H  H75  1  0.55780000  0.59121000  0.18772000  1.0
  H  H76  1  0.61378000  0.94395000  0.42589000  1.0
  H  H77  1  0.38622000  0.55605000  0.92589000  1.0
  H  H78  1  0.38622000  0.05605000  0.57411000  1.0
  H  H79  1  0.61378000  0.44395000  0.07411000  1.0
  H  H80  1  0.49282000  0.97442000  0.38562000  1.0
  H  H81  1  0.50718000  0.52558000  0.88562000  1.0
  H  H82  1  0.50718000  0.02558000  0.61438000  1.0
  H  H83  1  0.49282000  0.47442000  0.11438000  1.0
  H  H84  1  0.51564000  0.07806000  0.46906000  1.0
  H  H85  1  0.48436000  0.42195000  0.96906000  1.0
  H  H86  1  0.48436000  0.92195000  0.53094000  1.0
  H  H87  1  0.51564000  0.57806000  0.03094000  1.0
  H  H88  1  0.63756000  0.04675000  0.50850000  1.0
  H  H89  1  0.36244000  0.45326000  0.00850000  1.0
  H  H90  1  0.36243000  0.95326000  0.49150000  1.0
  H  H91  1  0.63756000  0.54675000  0.99150000  1.0
  H  H92  1  0.63838000  0.36669000  0.84709000  1.0
  H  H93  1  0.36162000  0.13331000  0.34709000  1.0
  H  H94  1  0.36162000  0.63331000  0.15291000  1.0
  H  H95  1  0.63838000  0.86669000  0.65291000  1.0
  H  H96  1  0.45861000  0.25745000  0.86709000  1.0
  H  H97  1  0.54139000  0.24255000  0.36709000  1.0
  H  H98  1  0.54140000  0.74255000  0.13291000  1.0
  H  H99  1  0.45861000  0.75745000  0.63291000  1.0
  H  H100  1  0.59433000  0.24481000  0.06452000  1.0
  H  H101  1  0.40567000  0.25519000  0.56452000  1.0
  H  H102  1  0.40567000  0.75519000  0.93548000  1.0
  H  H103  1  0.59433000  0.74481000  0.43548000  1.0
  H  H104  1  0.38008000  0.08236000  0.10100000  1.0
  H  H105  1  0.61991000  0.41764000  0.60100000  1.0
  H  H106  1  0.61992000  0.91764000  0.89900000  1.0
  H  H107  1  0.38008000  0.58236000  0.39900000  1.0
  H  H108  1  0.28100000  0.10243000  0.20453000  1.0
  H  H109  1  0.71899000  0.39756000  0.70452000  1.0
  H  H110  1  0.71899000  0.89756000  0.79548000  1.0
  H  H111  1  0.28101000  0.60244000  0.29547000  1.0
  H  H112  1  0.31487000  0.28864000  0.02715000  1.0
  H  H113  1  0.68513000  0.21135000  0.52715000  1.0
  H  H114  1  0.68514000  0.71136000  0.97285000  1.0
  H  H115  1  0.31486000  0.78864000  0.47285000  1.0
  C  C116  1  0.96181000  0.51953000  0.75999000  1.0
  C  C117  1  0.03820000  0.98047000  0.25999000  1.0
  C  C118  1  0.03820000  0.48048000  0.24001000  1.0
  C  C119  1  0.96180000  0.01952000  0.74001000  1.0
  C  C120  1  0.05922000  0.63898000  0.76974000  1.0
  C  C121  1  0.94078000  0.86102000  0.26974000  1.0
  C  C122  1  0.94078000  0.36102000  0.23026000  1.0
  C  C123  1  0.05922000  0.13898000  0.73026000  1.0
  C  C124  1  0.05880000  0.62184000  0.70464000  1.0
  C  C125  1  0.94119000  0.87816000  0.20464000  1.0
  C  C126  1  0.94120000  0.37816000  0.29536000  1.0
  C  C127  1  0.05880000  0.12183000  0.79536000  1.0
  C  C128  1  0.98039000  0.50246000  0.63901000  1.0
  C  C129  1  0.01961000  0.99754000  0.13901000  1.0
  C  C130  1  0.01962000  0.49754000  0.36099000  1.0
  C  C131  1  0.98039000  0.00246000  0.86099000  1.0
  C  C132  1  0.06437000  0.44846000  0.63522000  1.0
  C  C133  1  0.93563000  0.05154000  0.13522000  1.0
  C  C134  1  0.93563000  0.55154000  0.36478000  1.0
  C  C135  1  0.06437000  0.94846000  0.86478000  1.0
  C  C136  1  0.04707000  0.40900000  0.56902000  1.0
  C  C137  1  0.95293000  0.09100000  0.06902000  1.0
  C  C138  1  0.95293000  0.59100000  0.43098000  1.0
  C  C139  1  0.04707000  0.90900000  0.93098000  1.0
  C  C140  1  0.12034000  0.34953000  0.56325000  1.0
  C  C141  1  0.87966000  0.15047000  0.06325000  1.0
  C  C142  1  0.87966000  0.65047000  0.43675000  1.0
  C  C143  1  0.12035000  0.84953000  0.93675000  1.0
  C  C144  1  0.06273000  0.25720000  0.47074000  1.0
  C  C145  1  0.93727000  0.24280000  0.97074000  1.0
  C  C146  1  0.93727000  0.74280000  0.52926000  1.0
  C  C147  1  0.06274000  0.75720000  0.02926000  1.0
  C  C148  1  0.16922000  0.32336000  0.39032000  1.0
  C  C149  1  0.83078000  0.17664000  0.89032000  1.0
  C  C150  1  0.83078000  0.67664000  0.60968000  1.0
  C  C151  1  0.16922000  0.82336000  0.10968000  1.0
  C  C152  1  0.19117000  0.36786000  0.44508000  1.0
  C  C153  1  0.80883000  0.13214000  0.94508000  1.0
  C  C154  1  0.80883000  0.63214000  0.55491000  1.0
  C  C155  1  0.19117000  0.86786000  0.05492000  1.0
  C  C156  1  0.80045000  0.06179000  0.38690000  1.0
  C  C157  1  0.19955000  0.43821000  0.88690000  1.0
  C  C158  1  0.19955000  0.93821000  0.61311000  1.0
  C  C159  1  0.80045000  0.56179000  0.11310000  1.0
  C  C160  1  0.76906000  0.13702000  0.30956000  1.0
  C  C161  1  0.23093000  0.36298000  0.80956000  1.0
  C  C162  1  0.23093000  0.86299000  0.69044000  1.0
  C  C163  1  0.76907000  0.63702000  0.19044000  1.0
  C  C164  1  0.65255000  0.09357000  0.32871000  1.0
  C  C165  1  0.34745000  0.40643000  0.82871000  1.0
  C  C166  1  0.34745000  0.90643000  0.67129000  1.0
  C  C167  1  0.65255000  0.59357000  0.17129000  1.0
  C  C168  1  0.57803000  0.99322000  0.41598000  1.0
  C  C169  1  0.42196000  0.50678000  0.91598000  1.0
  C  C170  1  0.42196000  0.00678000  0.58402000  1.0
  C  C171  1  0.57804000  0.49322000  0.08401000  1.0
  C  C172  1  0.54962000  0.02824000  0.48007000  1.0
  C  C173  1  0.45038000  0.47177000  0.98007000  1.0
  C  C174  1  0.45037000  0.97177000  0.51993000  1.0
  C  C175  1  0.54962000  0.52823000  0.01993000  1.0
  C  C176  1  0.82421000  0.43529000  0.92773000  1.0
  C  C177  1  0.17579000  0.06471000  0.42773000  1.0
  C  C178  1  0.17579000  0.56471000  0.07227000  1.0
  C  C179  1  0.82421000  0.93529000  0.57227000  1.0
  C  C180  1  0.71692000  0.36806000  0.94380000  1.0
  C  C181  1  0.28307000  0.13194000  0.44380000  1.0
  C  C182  1  0.28309000  0.63193000  0.05620000  1.0
  C  C183  1  0.71692000  0.86806000  0.55620000  1.0
  C  C184  1  0.62652000  0.34046000  0.89525000  1.0
  C  C185  1  0.37349000  0.15954000  0.39525000  1.0
  C  C186  1  0.37350000  0.65953000  0.10475000  1.0
  C  C187  1  0.62651000  0.84046000  0.60475000  1.0
  C  C188  1  0.52483000  0.27805000  0.90673000  1.0
  C  C189  1  0.47517000  0.22195000  0.40673000  1.0
  C  C190  1  0.47518000  0.72195000  0.09327000  1.0
  C  C191  1  0.52483000  0.77805000  0.59327000  1.0
  C  C192  1  0.50974000  0.24333000  0.96825000  1.0
  C  C193  1  0.49026000  0.25667000  0.46825000  1.0
  C  C194  1  0.49027000  0.75667000  0.03175000  1.0
  C  C195  1  0.50974000  0.74333000  0.53175000  1.0
  C  C196  1  0.60050000  0.27072000  0.01633000  1.0
  C  C197  1  0.39950000  0.22928000  0.51633000  1.0
  C  C198  1  0.39951000  0.72928000  0.98367000  1.0
  C  C199  1  0.60049000  0.77072000  0.48367000  1.0
  C  C200  1  0.70514000  0.33133000  0.00453000  1.0
  C  C201  1  0.29486000  0.16867000  0.50453000  1.0
  C  C202  1  0.29487000  0.66867000  0.99547000  1.0
  C  C203  1  0.70514000  0.83133000  0.49547000  1.0
  C  C204  1  0.80676000  0.35000000  0.05614000  1.0
  C  C205  1  0.19324000  0.15000000  0.55614000  1.0
  C  C206  1  0.19325000  0.65000000  0.94386000  1.0
  C  C207  1  0.80676000  0.85000000  0.44386000  1.0
  C  C208  1  0.40278000  0.17361000  0.98598000  1.0
  C  C209  1  0.59722000  0.32639000  0.48598000  1.0
  C  C210  1  0.59723000  0.82639000  0.01402000  1.0
  C  C211  1  0.40278000  0.67361000  0.51402000  1.0
  C  C212  1  0.28910000  0.15999000  0.93766000  1.0
  C  C213  1  0.71091000  0.34001000  0.43766000  1.0
  C  C214  1  0.71091000  0.84001000  0.06234000  1.0
  C  C215  1  0.28909000  0.65999000  0.56234000  1.0
  C  C216  1  0.45817000  0.10409000  0.98124000  1.0
  C  C217  1  0.54182000  0.39591000  0.48124000  1.0
  C  C218  1  0.54183000  0.89590000  0.01876000  1.0
  C  C219  1  0.45817000  0.60410000  0.51876000  1.0
  C  C220  1  0.35082000  0.18283000  0.05457000  1.0
  C  C221  1  0.64918000  0.31717000  0.55457000  1.0
  C  C222  1  0.64918000  0.81717000  0.94543000  1.0
  C  C223  1  0.35082000  0.68283000  0.44543000  1.0
  C  C224  1  0.34356000  0.13144000  0.10578000  1.0
  C  C225  1  0.65644000  0.36856000  0.60578000  1.0
  C  C226  1  0.65645000  0.86856000  0.89422000  1.0
  C  C227  1  0.34355000  0.63144000  0.39422000  1.0
  C  C228  1  0.28695000  0.14243000  0.16462000  1.0
  C  C229  1  0.71304000  0.35757000  0.66462000  1.0
  C  C230  1  0.71304000  0.85757000  0.83538000  1.0
  C  C231  1  0.28696000  0.64243000  0.33538000  1.0
  C  C232  1  0.23168000  0.20205000  0.17323000  1.0
  C  C233  1  0.76831000  0.29795000  0.67323000  1.0
  C  C234  1  0.76832000  0.79795000  0.82678000  1.0
  C  C235  1  0.23169000  0.70205000  0.32677000  1.0
  C  C236  1  0.15015000  0.20175000  0.23220000  1.0
  C  C237  1  0.84984000  0.29825000  0.73220000  1.0
  C  C238  1  0.84985000  0.79825000  0.76780000  1.0
  C  C239  1  0.15016000  0.70175000  0.26780000  1.0
  C  C240  1  0.24422000  0.25586000  0.12310000  1.0
  C  C241  1  0.75578000  0.24413000  0.62310000  1.0
  C  C242  1  0.75579000  0.74414000  0.87690000  1.0
  C  C243  1  0.24422000  0.75586000  0.37690000  1.0
  C  C244  1  0.20000000  0.32655000  0.12891000  1.0
  C  C245  1  0.80001000  0.17345000  0.62891000  1.0
  C  C246  1  0.80001000  0.67345000  0.87109000  1.0
  C  C247  1  0.19999000  0.82655000  0.37108000  1.0
  C  C248  1  0.30527000  0.24608000  0.06515000  1.0
  C  C249  1  0.69472000  0.25392000  0.56514000  1.0
  C  C250  1  0.69473000  0.75392000  0.93486000  1.0
  C  C251  1  0.30527000  0.74608000  0.43485000  1.0
  N  N252  1  0.99861000  0.57478000  0.80359000  1.0
  N  N253  1  0.00139000  0.92522000  0.30359000  1.0
  N  N254  1  0.00140000  0.42522000  0.19641000  1.0
  N  N255  1  0.99860000  0.07477000  0.69641000  1.0
  N  N256  1  0.99718000  0.54621000  0.69917000  1.0
  N  N257  1  0.00282000  0.95379000  0.19916000  1.0
  N  N258  1  0.00283000  0.45379000  0.30084000  1.0
  N  N259  1  0.99717000  0.04621000  0.80083000  1.0
  N  N260  1  0.12405000  0.32506000  0.49536000  1.0
  N  N261  1  0.87595000  0.17494000  0.99536000  1.0
  N  N262  1  0.87594000  0.67494000  0.50464000  1.0
  N  N263  1  0.12406000  0.82506000  0.00464000  1.0
  N  N264  1  0.08889000  0.25445000  0.40700000  1.0
  N  N265  1  0.91111000  0.24555000  0.90700000  1.0
  N  N266  1  0.91111000  0.74555000  0.59300000  1.0
  N  N267  1  0.08889000  0.75445000  0.09300000  1.0
  N  N268  1  0.86043000  0.11654000  0.34621000  1.0
  N  N269  1  0.13956000  0.38347000  0.84621000  1.0
  N  N270  1  0.13956000  0.88347000  0.65379000  1.0
  N  N271  1  0.86044000  0.61653000  0.15379000  1.0
  N  N272  1  0.67421000  0.04641000  0.37738000  1.0
  N  N273  1  0.32579000  0.45359000  0.87738000  1.0
  N  N274  1  0.32579000  0.95359000  0.62263000  1.0
  N  N275  1  0.67421000  0.54641000  0.12262000  1.0
  O  O276  1  0.92181000  0.42640000  0.89857000  1.0
  O  O277  1  0.07818000  0.07360000  0.39856000  1.0
  O  O278  1  0.07819000  0.57360000  0.10143000  1.0
  O  O279  1  0.92181000  0.92640000  0.60144000  1.0
  O  O280  1  0.80852000  0.50011000  0.93857000  1.0
  O  O281  1  0.19148000  0.99989000  0.43857000  1.0
  O  O282  1  0.19148000  0.49989000  0.06143000  1.0
  O  O283  1  0.80852000  0.00011000  0.56143000  1.0
  O  O284  1  0.89839000  0.40941000  0.04400000  1.0
  O  O285  1  0.10161000  0.09059000  0.54400000  1.0
  O  O286  1  0.10162000  0.59059000  0.95600000  1.0
  O  O287  1  0.89839000  0.90941000  0.45600000  1.0
  O  O288  1  0.79984000  0.30704000  0.10389000  1.0
  O  O289  1  0.20017000  0.19296000  0.60389000  1.0
  O  O290  1  0.20018000  0.69296000  0.89611000  1.0
  O  O291  1  0.79983000  0.80704000  0.39611000  1.0
  O  O292  1  0.17327000  0.16333000  0.28215000  1.0
  O  O293  1  0.82672000  0.33667000  0.78214000  1.0
  O  O294  1  0.82673000  0.83666000  0.71786000  1.0
  O  O295  1  0.17328000  0.66333000  0.21785000  1.0
  O  O296  1  0.06134000  0.23234000  0.23084000  1.0
  O  O297  1  0.93865000  0.26765000  0.73084000  1.0
  O  O298  1  0.93866000  0.76766000  0.76917000  1.0
  O  O299  1  0.06135000  0.73234000  0.26916000  1.0
  O  O300  1  0.25672000  0.37752000  0.16625000  1.0
  O  O301  1  0.74327000  0.12248000  0.66624000  1.0
  O  O302  1  0.74328000  0.62248000  0.83376000  1.0
  O  O303  1  0.25672000  0.87752000  0.33375000  1.0
  O  O304  1  0.10819000  0.32868000  0.08932000  1.0
  O  O305  1  0.89182000  0.17132000  0.58932000  1.0
  O  O306  1  0.89182000  0.67132000  0.91068000  1.0
  O  O307  1  0.10818000  0.82868000  0.41067000  1.0
  F  F308  1  0.24965000  0.22326000  0.92763000  1.0
  F  F309  1  0.75035000  0.27674000  0.42764000  1.0
  F  F310  1  0.75035000  0.77674000  0.07236000  1.0
  F  F311  1  0.24965000  0.72326000  0.57236000  1.0
  F  F312  1  0.18694000  0.10669000  0.96124000  1.0
  F  F313  1  0.81307000  0.39331000  0.46124000  1.0
  F  F314  1  0.81307000  0.89332000  0.03876000  1.0
  F  F315  1  0.18694000  0.60668000  0.53876000  1.0
  F  F316  1  0.31499000  0.13560000  0.87763000  1.0
  F  F317  1  0.68501000  0.36440000  0.37763000  1.0
  F  F318  1  0.68502000  0.86440000  0.12237000  1.0
  F  F319  1  0.31499000  0.63560000  0.62237000  1.0
  F  F320  1  0.51361000  0.10001000  0.92258000  1.0
  F  F321  1  0.48639000  0.39999000  0.42258000  1.0
  F  F322  1  0.48639000  0.89999000  0.07743000  1.0
  F  F323  1  0.51361000  0.60001000  0.57742000  1.0
  F  F324  1  0.36792000  0.03712000  0.98936000  1.0
  F  F325  1  0.63207000  0.46288000  0.48936000  1.0
  F  F326  1  0.63209000  0.96288000  0.01065000  1.0
  F  F327  1  0.36792000  0.53712000  0.51064000  1.0
  F  F328  1  0.54790000  0.10648000  0.02782000  1.0
  F  F329  1  0.45210000  0.39352000  0.52782000  1.0
  F  F330  1  0.45211000  0.89352000  0.97218000  1.0
  F  F331  1  0.54790000  0.60648000  0.47218000  1.0
