# generated using pymatgen
data_HgH20C27N2(ClO2)2
_symmetry_space_group_name_H-M   'P 1'
_cell_length_a   10.44550000
_cell_length_b   11.12730000
_cell_length_c   14.00390000
_cell_angle_alpha   109.57400000
_cell_angle_beta   91.03030000
_cell_angle_gamma   103.74600000
_symmetry_Int_Tables_number   1
_chemical_formula_structural   HgH20C27N2(ClO2)2
_chemical_formula_sum   'Hg2 H40 C54 N4 Cl4 O8'
_cell_volume   1481.19464853
_cell_formula_units_Z   2
loop_
 _symmetry_equiv_pos_site_id
 _symmetry_equiv_pos_as_xyz
  1  'x, y, z'
loop_
 _atom_site_type_symbol
 _atom_site_label
 _atom_site_symmetry_multiplicity
 _atom_site_fract_x
 _atom_site_fract_y
 _atom_site_fract_z
 _atom_site_occupancy
  Hg  Hg0  1  0.15833000  0.19529000  0.78845000  1.0
  Hg  Hg1  1  0.84167000  0.80471000  0.21155000  1.0
  H  H2  1  0.91830000  0.95022000  0.64854000  1.0
  H  H3  1  0.08170000  0.04978000  0.35146000  1.0
  H  H4  1  0.73961000  0.87816000  0.50252000  1.0
  H  H5  1  0.26039000  0.12184000  0.49747000  1.0
  H  H6  1  0.85496000  0.27482000  0.49697000  1.0
  H  H7  1  0.14504000  0.72518000  0.50303000  1.0
  H  H8  1  0.02417000  0.33209000  0.64473000  1.0
  H  H9  1  0.97583000  0.66791000  0.35527000  1.0
  H  H10  1  0.47729000  0.02010000  0.29000000  1.0
  H  H11  1  0.52271000  0.97990000  0.70999000  1.0
  H  H12  1  0.61611000  0.05573000  0.22149000  1.0
  H  H13  1  0.38389000  0.94427000  0.77851000  1.0
  H  H14  1  0.58658000  0.31682000  0.51356000  1.0
  H  H15  1  0.41342000  0.68318000  0.48645000  1.0
  H  H16  1  0.42436000  0.38977000  0.63309000  1.0
  H  H17  1  0.57564000  0.61024000  0.36692000  1.0
  H  H18  1  0.20594000  0.39772000  0.56812000  1.0
  H  H19  1  0.79406000  0.60228000  0.43188000  1.0
  H  H20  1  0.13890000  0.32068000  0.38108000  1.0
  H  H21  1  0.86110000  0.67931000  0.61892000  1.0
  H  H22  1  0.11250000  0.21278000  0.18249000  1.0
  H  H23  1  0.88750000  0.78722000  0.81751000  1.0
  H  H24  1  0.14102000  0.11985000  0.99769000  1.0
  H  H25  1  0.85898000  0.88015000  0.00231000  1.0
  H  H26  1  0.35410000  0.08103000  0.94282000  1.0
  H  H27  1  0.64590000  0.91897000  0.05718000  1.0
  H  H28  1  0.54357000  0.12201000  0.07107000  1.0
  H  H29  1  0.45643000  0.87799000  0.92893000  1.0
  H  H30  1  0.72140000  0.35543000  0.36892000  1.0
  H  H31  1  0.27859000  0.64457000  0.63108000  1.0
  H  H32  1  0.62865000  0.42192000  0.30027000  1.0
  H  H33  1  0.37135000  0.57808000  0.69973000  1.0
  H  H34  1  0.76370000  0.14010000  0.04453000  1.0
  H  H35  1  0.23630000  0.85991000  0.95547000  1.0
  H  H36  1  0.87045000  0.09355000  0.88276000  1.0
  H  H37  1  0.12955000  0.90646000  0.11724000  1.0
  H  H38  1  0.16359000  0.44459000  0.99857000  1.0
  H  H39  1  0.83641000  0.55541000  0.00144000  1.0
  H  H40  1  0.07123000  0.50387000  0.16908000  1.0
  H  H41  1  0.92877000  0.49613000  0.83092000  1.0
  C  C42  1  0.89950000  0.01888000  0.61304000  1.0
  C  C43  1  0.10050000  0.98112000  0.38696000  1.0
  C  C44  1  0.80122000  0.97921000  0.53241000  1.0
  C  C45  1  0.19878000  0.02079000  0.46759000  1.0
  C  C46  1  0.78359000  0.07129000  0.48914000  1.0
  C  C47  1  0.21642000  0.92871000  0.51086000  1.0
  C  C48  1  0.86455000  0.20042000  0.52909000  1.0
  C  C49  1  0.13545000  0.79958000  0.47091000  1.0
  C  C50  1  0.95998000  0.23222000  0.61058000  1.0
  C  C51  1  0.04002000  0.76779000  0.38942000  1.0
  C  C52  1  0.68008000  0.02584000  0.40059000  1.0
  C  C53  1  0.31993000  0.97416000  0.59941000  1.0
  C  C54  1  0.56618000  0.09557000  0.28899000  1.0
  C  C55  1  0.43382000  0.90443000  0.71101000  1.0
  C  C56  1  0.53161000  0.22262000  0.29130000  1.0
  C  C57  1  0.46839000  0.77738000  0.70870000  1.0
  C  C58  1  0.45212000  0.27342000  0.37968000  1.0
  C  C59  1  0.54788000  0.72658000  0.62031000  1.0
  C  C60  1  0.48939000  0.31690000  0.48400000  1.0
  C  C61  1  0.51061000  0.68310000  0.51600000  1.0
  C  C62  1  0.39872000  0.35996000  0.55120000  1.0
  C  C63  1  0.60128000  0.64004000  0.44880000  1.0
  C  C64  1  0.27412000  0.36211000  0.51420000  1.0
  C  C65  1  0.72588000  0.63789000  0.48580000  1.0
  C  C66  1  0.23624000  0.31899000  0.40949000  1.0
  C  C67  1  0.76376000  0.68101000  0.59051000  1.0
  C  C68  1  0.32555000  0.27307000  0.34214000  1.0
  C  C69  1  0.67445000  0.72693000  0.65786000  1.0
  C  C70  1  0.31351000  0.22034000  0.23060000  1.0
  C  C71  1  0.68649000  0.77965000  0.76940000  1.0
  C  C72  1  0.20707000  0.19509000  0.15869000  1.0
  C  C73  1  0.79293000  0.80491000  0.84131000  1.0
  C  C74  1  0.22321000  0.14345000  0.05534000  1.0
  C  C75  1  0.77679000  0.85656000  0.94466000  1.0
  C  C76  1  0.34392000  0.11905000  0.02412000  1.0
  C  C77  1  0.65608000  0.88095000  0.97588000  1.0
  C  C78  1  0.45020000  0.14211000  0.09590000  1.0
  C  C79  1  0.54981000  0.85789000  0.90410000  1.0
  C  C80  1  0.43403000  0.19197000  0.19897000  1.0
  C  C81  1  0.56597000  0.80803000  0.80103000  1.0
  C  C82  1  0.65596000  0.33244000  0.29963000  1.0
  C  C83  1  0.34404000  0.66756000  0.70037000  1.0
  C  C84  1  0.85371000  0.36171000  0.21947000  1.0
  C  C85  1  0.14629000  0.63829000  0.78053000  1.0
  C  C86  1  0.90936000  0.32700000  0.11918000  1.0
  C  C87  1  0.09064000  0.67300000  0.88082000  1.0
  C  C88  1  0.85123000  0.21099000  0.03750000  1.0
  C  C89  1  0.14877000  0.78901000  0.96250000  1.0
  C  C90  1  0.91022000  0.18523000  0.94700000  1.0
  C  C91  1  0.08978000  0.81477000  0.05300000  1.0
  C  C92  1  0.07477000  0.38075000  0.01278000  1.0
  C  C93  1  0.92523000  0.61925000  0.98722000  1.0
  C  C94  1  0.02366000  0.41323000  0.10651000  1.0
  C  C95  1  0.97634000  0.58677000  0.89349000  1.0
  N  N96  1  0.97733000  0.14283000  0.65122000  1.0
  N  N97  1  0.02267000  0.85716000  0.34878000  1.0
  N  N98  1  0.01930000  0.26880000  0.93469000  1.0
  N  N99  1  0.98070000  0.73120000  0.06531000  1.0
  Cl  Cl100  1  0.11356000  0.96966000  0.78194000  1.0
  Cl  Cl101  1  0.88644000  0.03034000  0.21806000  1.0
  Cl  Cl102  1  0.29091000  0.41144000  0.81523000  1.0
  Cl  Cl103  1  0.70908000  0.58856000  0.18477000  1.0
  O  O104  1  0.62268000  0.91002000  0.35479000  1.0
  O  O105  1  0.37733000  0.08997000  0.64520000  1.0
  O  O106  1  0.65792000  0.12838000  0.37817000  1.0
  O  O107  1  0.34208000  0.87162000  0.62183000  1.0
  O  O108  1  0.72693000  0.29188000  0.21116000  1.0
  O  O109  1  0.27307000  0.70812000  0.78884000  1.0
  O  O110  1  0.91599000  0.44414000  0.29864000  1.0
  O  O111  1  0.08401000  0.55586000  0.70136000  1.0
