# generated using pymatgen
data_NiH12C20NO5
_symmetry_space_group_name_H-M   'P 1'
_cell_length_a   9.36737000
_cell_length_b   9.41657000
_cell_length_c   11.66330000
_cell_angle_alpha   79.33630000
_cell_angle_beta   75.10800000
_cell_angle_gamma   65.28390000
_symmetry_Int_Tables_number   1
_chemical_formula_structural   NiH12C20NO5
_chemical_formula_sum   'Ni2 H24 C40 N2 O10'
_cell_volume   899.63020606
_cell_formula_units_Z   2
loop_
 _symmetry_equiv_pos_site_id
 _symmetry_equiv_pos_as_xyz
  1  'x, y, z'
loop_
 _atom_site_type_symbol
 _atom_site_label
 _atom_site_symmetry_multiplicity
 _atom_site_fract_x
 _atom_site_fract_y
 _atom_site_fract_z
 _atom_site_occupancy
  Ni  Ni0  1  0.01686000  0.08959000  0.41272000  1.0
  Ni  Ni1  1  0.98312000  0.91046000  0.58727000  1.0
  H  H2  1  0.86615000  0.43152000  0.35657000  1.0
  H  H3  1  0.13386000  0.56852000  0.64340000  1.0
  H  H4  1  0.17715000  0.05999000  0.15719000  1.0
  H  H5  1  0.82286000  0.94002000  0.84280000  1.0
  H  H6  1  0.84541000  0.62191000  0.17903000  1.0
  H  H7  1  0.15461000  0.37810000  0.82094000  1.0
  H  H8  1  0.17093000  0.23178000  0.97044000  1.0
  H  H9  1  0.82908000  0.76822000  0.02954000  1.0
  H  H10  1  0.28801000  0.92347000  0.78218000  1.0
  H  H11  1  0.71203000  0.07650000  0.21776000  1.0
  H  H12  1  0.35950000  0.25403000  0.49005000  1.0
  H  H13  1  0.64050000  0.74603000  0.50995000  1.0
  H  H14  1  0.43903000  0.99741000  0.89504000  1.0
  H  H15  1  0.56100000  0.00254000  0.10493000  1.0
  H  H16  1  0.49733000  0.33766000  0.60350000  1.0
  H  H17  1  0.50271000  0.66233000  0.39651000  1.0
  H  H18  1  0.40669000  0.48523000  0.93475000  1.0
  H  H19  1  0.59329000  0.51474000  0.06529000  1.0
  H  H20  1  0.46531000  0.72495000  0.88918000  1.0
  H  H21  1  0.53465000  0.27502000  0.11085000  1.0
  H  H22  1  0.83844000  0.51626000  0.59218000  1.0
  H  H23  1  0.16156000  0.48373000  0.40787000  1.0
  H  H24  1  0.67991000  0.74369000  0.71400000  1.0
  H  H25  1  0.32007000  0.25629000  0.28607000  1.0
  C  C26  1  0.93186000  0.39350000  0.26864000  1.0
  C  C27  1  0.06815000  0.60653000  0.73134000  1.0
  C  C28  1  0.10522000  0.18550000  0.15768000  1.0
  C  C29  1  0.89479000  0.81451000  0.84231000  1.0
  C  C30  1  0.21928000  0.04147000  0.56776000  1.0
  C  C31  1  0.78073000  0.95855000  0.43222000  1.0
  C  C32  1  0.92115000  0.49887000  0.16760000  1.0
  C  C33  1  0.07887000  0.50114000  0.83237000  1.0
  C  C34  1  0.09992000  0.28424000  0.05294000  1.0
  C  C35  1  0.90009000  0.71575000  0.94704000  1.0
  C  C36  1  0.31546000  0.08375000  0.62992000  1.0
  C  C37  1  0.68456000  0.91626000  0.37006000  1.0
  C  C38  1  0.00539000  0.44582000  0.05508000  1.0
  C  C39  1  0.99463000  0.55418000  0.94489000  1.0
  C  C40  1  0.33756000  0.01174000  0.74414000  1.0
  C  C41  1  0.66247000  0.98824000  0.25582000  1.0
  C  C42  1  0.37623000  0.19918000  0.57889000  1.0
  C  C43  1  0.62379000  0.80084000  0.42110000  1.0
  C  C44  1  0.42000000  0.05337000  0.80653000  1.0
  C  C45  1  0.58005000  0.94658000  0.19344000  1.0
  C  C46  1  0.45436000  0.24480000  0.64269000  1.0
  C  C47  1  0.54566000  0.75520000  0.35731000  1.0
  C  C48  1  0.47762000  0.17184000  0.75685000  1.0
  C  C49  1  0.52242000  0.82811000  0.24315000  1.0
  C  C50  1  0.55460000  0.22010000  0.83093000  1.0
  C  C51  1  0.44539000  0.77987000  0.16909000  1.0
  C  C52  1  0.59086000  0.36441000  0.79185000  1.0
  C  C53  1  0.40913000  0.63556000  0.20819000  1.0
  C  C54  1  0.50110000  0.49288000  0.85956000  1.0
  C  C55  1  0.49888000  0.50708000  0.14049000  1.0
  C  C56  1  0.71176000  0.37430000  0.69418000  1.0
  C  C57  1  0.28822000  0.62570000  0.30585000  1.0
  C  C58  1  0.53314000  0.62850000  0.83266000  1.0
  C  C59  1  0.46684000  0.37147000  0.16738000  1.0
  C  C60  1  0.74261000  0.51140000  0.66714000  1.0
  C  C61  1  0.25738000  0.48859000  0.33290000  1.0
  C  C62  1  0.81072000  0.23786000  0.62220000  1.0
  C  C63  1  0.18923000  0.76217000  0.37780000  1.0
  C  C64  1  0.65444000  0.63792000  0.73633000  1.0
  C  C65  1  0.34554000  0.36206000  0.26372000  1.0
  N  N66  1  0.02203000  0.23886000  0.26436000  1.0
  N  N67  1  0.97797000  0.76117000  0.73562000  1.0
  O  O68  1  0.19562000  0.11061000  0.46539000  1.0
  O  O69  1  0.80406000  0.88974000  0.53472000  1.0
  O  O70  1  0.83782000  0.05873000  0.37438000  1.0
  O  O71  1  0.16250000  0.94101000  0.62544000  1.0
  O  O72  1  0.16996000  0.89879000  0.32574000  1.0
  O  O73  1  0.83034000  0.10120000  0.67432000  1.0
  O  O74  1  0.86943000  0.26700000  0.51363000  1.0
  O  O75  1  0.13017000  0.73309000  0.48629000  1.0
  O  O76  1  0.57563000  0.15242000  0.93055000  1.0
  O  O77  1  0.42432000  0.84756000  0.06948000  1.0
