# generated using pymatgen
data_CuH15C17NO6
_symmetry_space_group_name_H-M   'P 1'
_cell_length_a   15.36830000
_cell_length_b   15.36840000
_cell_length_c   20.64780000
_cell_angle_alpha   86.00050000
_cell_angle_beta   86.00060000
_cell_angle_gamma   63.69290000
_symmetry_Int_Tables_number   1
_chemical_formula_structural   CuH15C17NO6
_chemical_formula_sum   'Cu8 H120 C136 N8 O48'
_cell_volume   4356.88930832
_cell_formula_units_Z   8
loop_
 _symmetry_equiv_pos_site_id
 _symmetry_equiv_pos_as_xyz
  1  'x, y, z'
loop_
 _atom_site_type_symbol
 _atom_site_label
 _atom_site_symmetry_multiplicity
 _atom_site_fract_x
 _atom_site_fract_y
 _atom_site_fract_z
 _atom_site_occupancy
  Cu  Cu0  1  0.00788000  0.00907000  0.68808000  1.0
  Cu  Cu1  1  0.99092000  0.99212000  0.81193000  1.0
  Cu  Cu2  1  0.99221000  0.99080000  0.31235000  1.0
  Cu  Cu3  1  0.00920000  0.00779000  0.18765000  1.0
  Cu  Cu4  1  0.44439000  0.95842000  0.50120000  1.0
  Cu  Cu5  1  0.04158000  0.55562000  0.99880000  1.0
  Cu  Cu6  1  0.55566000  0.04146000  0.49869000  1.0
  Cu  Cu7  1  0.95854000  0.44434000  0.00131000  1.0
  H  H8  1  0.02896000  0.69296000  0.83203000  1.0
  H  H9  1  0.30702000  0.97106000  0.66797000  1.0
  H  H10  1  0.97131000  0.30665000  0.16790000  1.0
  H  H11  1  0.69335000  0.02868000  0.33210000  1.0
  H  H12  1  0.04983000  0.52579000  0.81819000  1.0
  H  H13  1  0.47420000  0.95018000  0.68182000  1.0
  H  H14  1  0.95015000  0.47384000  0.18176000  1.0
  H  H15  1  0.52616000  0.04984000  0.31824000  1.0
  H  H16  1  0.06994000  0.72823000  0.62541000  1.0
  H  H17  1  0.27177000  0.93006000  0.87459000  1.0
  H  H18  1  0.92980000  0.27152000  0.37446000  1.0
  H  H19  1  0.72848000  0.07019000  0.12553000  1.0
  H  H20  1  0.09339000  0.55886000  0.61157000  1.0
  H  H21  1  0.44113000  0.90660000  0.88843000  1.0
  H  H22  1  0.90622000  0.44086000  0.38832000  1.0
  H  H23  1  0.55914000  0.09377000  0.11168000  1.0
  H  H24  1  0.24957000  0.43663000  0.65359000  1.0
  H  H25  1  0.56338000  0.75043000  0.84641000  1.0
  H  H26  1  0.75021000  0.56325000  0.34626000  1.0
  H  H27  1  0.43675000  0.24979000  0.15374000  1.0
  H  H28  1  0.08386000  0.25455000  0.53539000  1.0
  H  H29  1  0.74542000  0.91615000  0.96460000  1.0
  H  H30  1  0.91599000  0.74530000  0.46462000  1.0
  H  H31  1  0.25469000  0.08401000  0.03538000  1.0
  H  H32  1  0.18606000  0.18376000  0.48409000  1.0
  H  H33  1  0.81620000  0.81395000  0.01590000  1.0
  H  H34  1  0.81375000  0.81613000  0.51589000  1.0
  H  H35  1  0.18386000  0.18625000  0.98411000  1.0
  H  H36  1  0.07005000  0.25237000  0.45005000  1.0
  H  H37  1  0.74760000  0.92995000  0.04995000  1.0
  H  H38  1  0.92967000  0.74739000  0.55000000  1.0
  H  H39  1  0.25262000  0.07033000  0.95000000  1.0
  H  H40  1  0.20022000  0.14050000  0.63477000  1.0
  H  H41  1  0.85950000  0.79979000  0.86523000  1.0
  H  H42  1  0.79990000  0.85918000  0.36517000  1.0
  H  H43  1  0.14081000  0.20013000  0.13485000  1.0
  H  H44  1  0.87432000  0.72588000  0.71109000  1.0
  H  H45  1  0.27414000  0.12567000  0.78892000  1.0
  H  H46  1  0.12566000  0.27419000  0.28886000  1.0
  H  H47  1  0.72582000  0.87434000  0.21115000  1.0
  H  H48  1  0.89052000  0.46667000  0.85924000  1.0
  H  H49  1  0.53333000  0.10949000  0.64075000  1.0
  H  H50  1  0.10920000  0.53356000  0.14083000  1.0
  H  H51  1  0.46644000  0.89080000  0.35916000  1.0
  H  H52  1  0.76250000  0.86230000  0.63858000  1.0
  H  H53  1  0.13772000  0.23749000  0.86142000  1.0
  H  H54  1  0.23750000  0.13772000  0.36132000  1.0
  H  H55  1  0.86229000  0.76249000  0.13869000  1.0
  H  H56  1  0.88586000  0.31184000  0.65675000  1.0
  H  H57  1  0.68815000  0.11415000  0.84324000  1.0
  H  H58  1  0.11371000  0.68851000  0.34327000  1.0
  H  H59  1  0.31150000  0.88628000  0.15672000  1.0
  H  H60  1  0.94035000  0.28933000  0.86039000  1.0
  H  H61  1  0.71067000  0.05964000  0.63961000  1.0
  H  H62  1  0.05933000  0.71086000  0.13967000  1.0
  H  H63  1  0.28913000  0.94068000  0.36033000  1.0
  H  H64  1  0.07494000  0.28260000  0.69350000  1.0
  H  H65  1  0.71739000  0.92507000  0.80650000  1.0
  H  H66  1  0.92509000  0.71702000  0.30643000  1.0
  H  H67  1  0.28297000  0.07493000  0.19358000  1.0
  H  H68  1  0.03885000  0.16429000  0.59925000  1.0
  H  H69  1  0.83569000  0.96115000  0.90075000  1.0
  H  H70  1  0.96115000  0.83560000  0.40087000  1.0
  H  H71  1  0.16439000  0.03885000  0.09914000  1.0
  H  H72  1  0.67551000  0.59725000  0.71986000  1.0
  H  H73  1  0.40274000  0.32450000  0.78012000  1.0
  H  H74  1  0.32420000  0.40312000  0.28045000  1.0
  H  H75  1  0.59688000  0.67581000  0.21955000  1.0
  H  H76  1  0.37323000  0.29522000  0.59453000  1.0
  H  H77  1  0.70478000  0.62676000  0.90546000  1.0
  H  H78  1  0.62666000  0.70470000  0.40535000  1.0
  H  H79  1  0.29531000  0.37335000  0.09465000  1.0
  H  H80  1  0.56592000  0.73191000  0.64595000  1.0
  H  H81  1  0.26807000  0.43410000  0.85404000  1.0
  H  H82  1  0.43382000  0.26840000  0.35430000  1.0
  H  H83  1  0.73161000  0.56618000  0.14571000  1.0
  H  H84  1  0.83705000  0.49002000  0.65499000  1.0
  H  H85  1  0.50997000  0.16297000  0.84500000  1.0
  H  H86  1  0.16248000  0.51036000  0.34512000  1.0
  H  H87  1  0.48965000  0.83752000  0.15489000  1.0
  H  H88  1  0.08312000  0.00574000  0.46571000  1.0
  H  H89  1  0.99423000  0.91685000  0.03430000  1.0
  H  H90  1  0.91695000  0.99390000  0.53453000  1.0
  H  H91  1  0.00611000  0.08303000  0.96547000  1.0
  H  H92  1  0.07485000  0.10025000  0.40801000  1.0
  H  H93  1  0.89973000  0.92513000  0.09199000  1.0
  H  H94  1  0.92513000  0.89938000  0.59216000  1.0
  H  H95  1  0.10063000  0.07485000  0.90785000  1.0
  H  H96  1  0.18882000  0.02482000  0.44298000  1.0
  H  H97  1  0.97515000  0.81117000  0.05702000  1.0
  H  H98  1  0.81116000  0.97496000  0.55719000  1.0
  H  H99  1  0.02505000  0.18882000  0.94280000  1.0
  H  H100  1  0.28961000  0.88472000  0.57569000  1.0
  H  H101  1  0.11528000  0.71039000  0.92432000  1.0
  H  H102  1  0.71065000  0.11506000  0.42431000  1.0
  H  H103  1  0.88492000  0.28937000  0.07570000  1.0
  H  H104  1  0.25059000  0.71450000  0.44696000  1.0
  H  H105  1  0.28549000  0.74944000  0.05304000  1.0
  H  H106  1  0.74910000  0.28559000  0.55307000  1.0
  H  H107  1  0.71441000  0.25091000  0.94693000  1.0
  H  H108  1  0.32779000  0.77158000  0.42140000  1.0
  H  H109  1  0.22842000  0.67223000  0.07860000  1.0
  H  H110  1  0.67203000  0.22836000  0.57858000  1.0
  H  H111  1  0.77164000  0.32797000  0.92142000  1.0
  H  H112  1  0.19956000  0.83690000  0.41416000  1.0
  H  H113  1  0.16309000  0.80046000  0.08584000  1.0
  H  H114  1  0.80026000  0.16321000  0.58593000  1.0
  H  H115  1  0.83679000  0.19974000  0.91408000  1.0
  H  H116  1  0.18197000  0.83284000  0.60274000  1.0
  H  H117  1  0.16713000  0.81804000  0.89727000  1.0
  H  H118  1  0.81808000  0.16724000  0.39732000  1.0
  H  H119  1  0.83276000  0.18191000  0.10268000  1.0
  H  H120  1  0.20335000  0.72325000  0.56509000  1.0
  H  H121  1  0.27673000  0.79667000  0.93490000  1.0
  H  H122  1  0.79661000  0.27679000  0.43505000  1.0
  H  H123  1  0.72321000  0.20338000  0.06495000  1.0
  H  H124  1  0.10831000  0.83777000  0.53913000  1.0
  H  H125  1  0.16220000  0.89170000  0.96087000  1.0
  H  H126  1  0.89167000  0.16227000  0.46098000  1.0
  H  H127  1  0.83774000  0.10833000  0.03902000  1.0
  C  C128  1  0.03677000  0.82217000  0.73712000  1.0
  C  C129  1  0.17783000  0.96324000  0.76288000  1.0
  C  C130  1  0.96361000  0.17727000  0.26272000  1.0
  C  C131  1  0.82273000  0.03639000  0.23728000  1.0
  C  C132  1  0.05086000  0.72087000  0.72948000  1.0
  C  C133  1  0.27912000  0.94915000  0.77052000  1.0
  C  C134  1  0.94919000  0.27874000  0.27042000  1.0
  C  C135  1  0.72125000  0.05082000  0.22959000  1.0
  C  C136  1  0.04451000  0.66359000  0.78383000  1.0
  C  C137  1  0.33641000  0.95551000  0.71617000  1.0
  C  C138  1  0.95560000  0.33604000  0.21610000  1.0
  C  C139  1  0.66396000  0.04439000  0.28391000  1.0
  C  C140  1  0.05650000  0.56975000  0.77645000  1.0
  C  C141  1  0.43025000  0.94351000  0.72355000  1.0
  C  C142  1  0.94348000  0.42990000  0.22348000  1.0
  C  C143  1  0.57010000  0.05652000  0.27652000  1.0
  C  C144  1  0.06794000  0.68245000  0.66759000  1.0
  C  C145  1  0.31754000  0.93207000  0.83241000  1.0
  C  C146  1  0.93187000  0.31726000  0.33230000  1.0
  C  C147  1  0.68275000  0.06812000  0.16770000  1.0
  C  C148  1  0.08099000  0.58811000  0.65975000  1.0
  C  C149  1  0.41189000  0.91901000  0.84025000  1.0
  C  C150  1  0.91877000  0.41162000  0.34014000  1.0
  C  C151  1  0.58839000  0.08123000  0.15985000  1.0
  C  C152  1  0.07645000  0.53145000  0.71482000  1.0
  C  C153  1  0.46855000  0.92356000  0.78518000  1.0
  C  C154  1  0.92343000  0.46823000  0.28509000  1.0
  C  C155  1  0.53177000  0.07656000  0.21490000  1.0
  C  C156  1  0.15342000  0.36842000  0.67524000  1.0
  C  C157  1  0.63157000  0.84659000  0.82476000  1.0
  C  C158  1  0.84650000  0.63133000  0.32465000  1.0
  C  C159  1  0.36867000  0.15351000  0.17535000  1.0
  C  C160  1  0.23748000  0.37295000  0.64807000  1.0
  C  C161  1  0.62705000  0.76253000  0.85192000  1.0
  C  C162  1  0.76238000  0.62689000  0.35181000  1.0
  C  C163  1  0.37311000  0.23763000  0.14820000  1.0
  C  C164  1  0.10737000  0.20906000  0.49304000  1.0
  C  C165  1  0.79091000  0.89263000  0.00696000  1.0
  C  C166  1  0.89244000  0.79076000  0.50699000  1.0
  C  C167  1  0.20924000  0.10756000  0.99301000  1.0
  C  C168  1  0.95011000  0.18243000  0.75746000  1.0
  C  C169  1  0.81756000  0.04987000  0.74254000  1.0
  C  C170  1  0.04987000  0.81792000  0.24244000  1.0
  C  C171  1  0.18208000  0.95013000  0.25756000  1.0
  C  C172  1  0.20977000  0.20621000  0.63782000  1.0
  C  C173  1  0.79379000  0.79023000  0.86218000  1.0
  C  C174  1  0.79025000  0.79353000  0.36208000  1.0
  C  C175  1  0.20647000  0.20975000  0.13792000  1.0
  C  C176  1  0.36938000  0.12616000  0.57438000  1.0
  C  C177  1  0.87384000  0.63063000  0.92562000  1.0
  C  C178  1  0.63067000  0.87371000  0.42549000  1.0
  C  C179  1  0.12630000  0.36934000  0.07450000  1.0
  C  C180  1  0.59548000  0.88084000  0.59049000  1.0
  C  C181  1  0.11915000  0.40452000  0.90950000  1.0
  C  C182  1  0.40449000  0.11918000  0.40948000  1.0
  C  C183  1  0.88083000  0.59551000  0.09052000  1.0
  C  C184  1  0.91654000  0.28900000  0.75843000  1.0
  C  C185  1  0.71099000  0.08347000  0.74157000  1.0
  C  C186  1  0.08315000  0.71127000  0.24159000  1.0
  C  C187  1  0.28873000  0.91686000  0.25840000  1.0
  C  C188  1  0.80697000  0.72796000  0.69589000  1.0
  C  C189  1  0.27205000  0.19303000  0.80411000  1.0
  C  C190  1  0.19294000  0.27218000  0.30412000  1.0
  C  C191  1  0.72783000  0.80706000  0.19588000  1.0
  C  C192  1  0.88982000  0.43202000  0.81520000  1.0
  C  C193  1  0.56798000  0.11019000  0.68479000  1.0
  C  C194  1  0.10988000  0.56820000  0.18488000  1.0
  C  C195  1  0.43180000  0.89013000  0.31512000  1.0
  C  C196  1  0.78203000  0.65347000  0.71761000  1.0
  C  C197  1  0.34652000  0.21797000  0.78238000  1.0
  C  C198  1  0.21782000  0.34672000  0.28247000  1.0
  C  C199  1  0.65329000  0.78218000  0.21753000  1.0
  C  C200  1  0.74490000  0.80316000  0.65581000  1.0
  C  C201  1  0.19685000  0.25509000  0.84419000  1.0
  C  C202  1  0.25504000  0.19693000  0.34417000  1.0
  C  C203  1  0.80308000  0.74496000  0.15583000  1.0
  C  C204  1  0.65886000  0.80375000  0.63669000  1.0
  C  C205  1  0.19625000  0.34113000  0.86331000  1.0
  C  C206  1  0.34104000  0.19637000  0.36337000  1.0
  C  C207  1  0.80363000  0.65896000  0.13663000  1.0
  C  C208  1  0.29390000  0.20979000  0.60961000  1.0
  C  C209  1  0.79021000  0.70610000  0.89038000  1.0
  C  C210  1  0.70608000  0.79001000  0.39028000  1.0
  C  C211  1  0.20999000  0.29393000  0.10973000  1.0
  C  C212  1  0.88622000  0.34653000  0.70092000  1.0
  C  C213  1  0.65347000  0.11378000  0.79908000  1.0
  C  C214  1  0.11338000  0.65377000  0.29912000  1.0
  C  C215  1  0.34623000  0.88662000  0.20088000  1.0
  C  C216  1  0.91732000  0.33293000  0.81548000  1.0
  C  C217  1  0.66706000  0.08268000  0.68452000  1.0
  C  C218  1  0.08231000  0.66730000  0.18458000  1.0
  C  C219  1  0.33271000  0.91770000  0.31542000  1.0
  C  C220  1  0.13975000  0.28490000  0.67026000  1.0
  C  C221  1  0.71509000  0.86026000  0.82974000  1.0
  C  C222  1  0.86026000  0.71480000  0.32966000  1.0
  C  C223  1  0.28521000  0.13975000  0.17035000  1.0
  C  C224  1  0.05225000  0.10832000  0.56399000  1.0
  C  C225  1  0.89166000  0.94775000  0.93602000  1.0
  C  C226  1  0.94777000  0.89150000  0.43620000  1.0
  C  C227  1  0.10850000  0.05223000  0.06380000  1.0
  C  C228  1  0.69479000  0.65462000  0.70090000  1.0
  C  C229  1  0.34537000  0.30521000  0.79909000  1.0
  C  C230  1  0.30497000  0.34566000  0.29933000  1.0
  C  C231  1  0.65434000  0.69503000  0.20068000  1.0
  C  C232  1  0.30684000  0.29364000  0.61545000  1.0
  C  C233  1  0.70635000  0.69316000  0.88454000  1.0
  C  C234  1  0.69306000  0.70623000  0.38443000  1.0
  C  C235  1  0.29379000  0.30694000  0.11556000  1.0
  C  C236  1  0.63390000  0.72952000  0.66014000  1.0
  C  C237  1  0.27048000  0.36611000  0.83985000  1.0
  C  C238  1  0.36589000  0.27072000  0.34005000  1.0
  C  C239  1  0.72928000  0.63411000  0.15996000  1.0
  C  C240  1  0.86157000  0.48767000  0.75730000  1.0
  C  C241  1  0.51233000  0.13844000  0.74269000  1.0
  C  C242  1  0.13814000  0.51255000  0.24277000  1.0
  C  C243  1  0.48745000  0.86187000  0.25723000  1.0
  C  C244  1  0.85874000  0.44572000  0.69985000  1.0
  C  C245  1  0.55427000  0.14129000  0.80014000  1.0
  C  C246  1  0.14087000  0.55457000  0.30021000  1.0
  C  C247  1  0.44543000  0.85912000  0.19979000  1.0
  C  C248  1  0.10967000  0.06015000  0.45247000  1.0
  C  C249  1  0.93982000  0.89031000  0.04754000  1.0
  C  C250  1  0.89029000  0.93954000  0.54771000  1.0
  C  C251  1  0.06046000  0.10969000  0.95229000  1.0
  C  C252  1  0.30141000  0.86263000  0.52474000  1.0
  C  C253  1  0.13737000  0.69859000  0.97527000  1.0
  C  C254  1  0.69873000  0.13719000  0.47526000  1.0
  C  C255  1  0.86280000  0.30129000  0.02475000  1.0
  C  C256  1  0.25727000  0.78292000  0.44420000  1.0
  C  C257  1  0.21707000  0.74276000  0.05580000  1.0
  C  C258  1  0.74257000  0.21709000  0.55582000  1.0
  C  C259  1  0.78291000  0.25743000  0.94418000  1.0
  C  C260  1  0.18248000  0.80136000  0.55668000  1.0
  C  C261  1  0.19862000  0.81753000  0.94332000  1.0
  C  C262  1  0.81751000  0.19867000  0.44341000  1.0
  C  C263  1  0.80133000  0.18249000  0.05659000  1.0
  N  N264  1  0.08538000  0.12640000  0.50516000  1.0
  N  N265  1  0.87358000  0.91461000  0.99484000  1.0
  N  N266  1  0.91455000  0.87336000  0.49498000  1.0
  N  N267  1  0.12665000  0.08545000  0.00502000  1.0
  N  N268  1  0.25020000  0.81570000  0.50974000  1.0
  N  N269  1  0.18429000  0.74981000  0.99026000  1.0
  N  N270  1  0.74979000  0.18424000  0.49029000  1.0
  N  N271  1  0.81576000  0.25021000  0.00971000  1.0
  O  O272  1  0.04107000  0.87050000  0.68481000  1.0
  O  O273  1  0.12949000  0.95894000  0.81519000  1.0
  O  O274  1  0.95813000  0.12948000  0.31499000  1.0
  O  O275  1  0.87051000  0.04187000  0.18500000  1.0
  O  O276  1  0.02090000  0.85329000  0.79454000  1.0
  O  O277  1  0.14671000  0.97911000  0.70547000  1.0
  O  O278  1  0.98089000  0.14596000  0.20536000  1.0
  O  O279  1  0.85403000  0.01912000  0.29465000  1.0
  O  O280  1  0.08255000  0.43949000  0.71181000  1.0
  O  O281  1  0.56051000  0.91746000  0.78819000  1.0
  O  O282  1  0.91734000  0.56019000  0.28810000  1.0
  O  O283  1  0.43980000  0.08266000  0.21191000  1.0
  O  O284  1  0.51897000  0.87576000  0.57440000  1.0
  O  O285  1  0.12424000  0.48102000  0.92560000  1.0
  O  O286  1  0.48105000  0.12421000  0.42552000  1.0
  O  O287  1  0.87579000  0.51896000  0.07447000  1.0
  O  O288  1  0.44881000  0.13106000  0.55757000  1.0
  O  O289  1  0.86894000  0.55119000  0.94242000  1.0
  O  O290  1  0.55123000  0.86884000  0.44231000  1.0
  O  O291  1  0.13116000  0.44879000  0.05768000  1.0
  O  O292  1  0.96752000  0.14694000  0.70102000  1.0
  O  O293  1  0.85306000  0.03246000  0.79898000  1.0
  O  O294  1  0.03432000  0.85294000  0.29893000  1.0
  O  O295  1  0.14707000  0.96568000  0.20107000  1.0
  O  O296  1  0.03616000  0.03642000  0.57951000  1.0
  O  O297  1  0.96356000  0.96384000  0.92050000  1.0
  O  O298  1  0.96397000  0.96336000  0.42079000  1.0
  O  O299  1  0.03663000  0.03603000  0.07921000  1.0
  O  O300  1  0.95991000  0.13412000  0.81162000  1.0
  O  O301  1  0.86588000  0.04008000  0.68838000  1.0
  O  O302  1  0.03882000  0.86600000  0.18818000  1.0
  O  O303  1  0.13400000  0.96118000  0.31182000  1.0
  O  O304  1  0.34970000  0.05622000  0.56263000  1.0
  O  O305  1  0.94378000  0.65029000  0.93737000  1.0
  O  O306  1  0.65036000  0.94363000  0.43724000  1.0
  O  O307  1  0.05637000  0.34965000  0.06276000  1.0
  O  O308  1  0.62254000  0.94581000  0.56992000  1.0
  O  O309  1  0.05419000  0.37746000  0.93009000  1.0
  O  O310  1  0.37748000  0.05415000  0.42998000  1.0
  O  O311  1  0.94586000  0.62252000  0.07003000  1.0
  O  O312  1  0.35717000  0.88050000  0.48517000  1.0
  O  O313  1  0.11951000  0.64283000  0.01483000  1.0
  O  O314  1  0.64297000  0.11926000  0.51478000  1.0
  O  O315  1  0.88073000  0.35705000  0.98523000  1.0
  O  O316  1  0.84422000  0.58341000  0.75958000  1.0
  O  O317  1  0.41658000  0.15580000  0.74042000  1.0
  O  O318  1  0.15563000  0.41677000  0.24051000  1.0
  O  O319  1  0.58323000  0.84437000  0.25949000  1.0
