# generated using pymatgen
data_ThH8(C2O)8
_symmetry_space_group_name_H-M   'P 1'
_cell_length_a   9.32027000
_cell_length_b   10.75220000
_cell_length_c   10.75220000
_cell_angle_alpha   114.14900000
_cell_angle_beta   103.41300000
_cell_angle_gamma   103.41300000
_symmetry_Int_Tables_number   1
_chemical_formula_structural   ThH8(C2O)8
_chemical_formula_sum   'Th2 H16 C32 O16'
_cell_volume   889.18216936
_cell_formula_units_Z   2
loop_
 _symmetry_equiv_pos_site_id
 _symmetry_equiv_pos_as_xyz
  1  'x, y, z'
loop_
 _atom_site_type_symbol
 _atom_site_label
 _atom_site_symmetry_multiplicity
 _atom_site_fract_x
 _atom_site_fract_y
 _atom_site_fract_z
 _atom_site_occupancy
  Th  Th0  1  0.25000000  0.51946000  0.48054000  1.0
  Th  Th1  1  0.75000000  0.48054000  0.51946000  1.0
  H  H2  1  0.23776000  0.48075000  0.02496000  1.0
  H  H3  1  0.26224000  0.97504000  0.51925000  1.0
  H  H4  1  0.76225000  0.51925000  0.97504000  1.0
  H  H5  1  0.73775000  0.02496000  0.48075000  1.0
  H  H6  1  0.72629000  0.53934000  0.20622000  1.0
  H  H7  1  0.77371000  0.79378000  0.46066000  1.0
  H  H8  1  0.27372000  0.46065000  0.79378000  1.0
  H  H9  1  0.22628000  0.20622000  0.53934000  1.0
  H  H10  1  0.44145000  0.83137000  0.97504000  1.0
  H  H11  1  0.05855000  0.02496000  0.16863000  1.0
  H  H12  1  0.55855000  0.16863000  0.02496000  1.0
  H  H13  1  0.94145000  0.97504000  0.83137000  1.0
  H  H14  1  0.96004000  0.78661000  0.93476000  1.0
  H  H15  1  0.53995000  0.06524000  0.21339000  1.0
  H  H16  1  0.03995000  0.21339000  0.06524000  1.0
  H  H17  1  0.46004000  0.93476000  0.78661000  1.0
  C  C18  1  0.45663000  0.51844000  0.26290000  1.0
  C  C19  1  0.04338000  0.73710000  0.48156000  1.0
  C  C20  1  0.54339000  0.48157000  0.73710000  1.0
  C  C21  1  0.95661000  0.26290000  0.51843000  1.0
  C  C22  1  0.47987000  0.51077000  0.12798000  1.0
  C  C23  1  0.02013000  0.87202000  0.48924000  1.0
  C  C24  1  0.52013000  0.48923000  0.87202000  1.0
  C  C25  1  0.97987000  0.12798000  0.51077000  1.0
  C  C26  1  0.35168000  0.48889000  0.01244000  1.0
  C  C27  1  0.14832000  0.98756000  0.51111000  1.0
  C  C28  1  0.64833000  0.51111000  0.98756000  1.0
  C  C29  1  0.85167000  0.01244000  0.48889000  1.0
  C  C30  1  0.13624000  0.67524000  0.78562000  1.0
  C  C31  1  0.36375000  0.21438000  0.32476000  1.0
  C  C32  1  0.86375000  0.32475000  0.21438000  1.0
  C  C33  1  0.63625000  0.78562000  0.67525000  1.0
  C  C34  1  0.19535000  0.79849000  0.93894000  1.0
  C  C35  1  0.30465000  0.06106000  0.20151000  1.0
  C  C36  1  0.80465000  0.20151000  0.06106000  1.0
  C  C37  1  0.69535000  0.93894000  0.79849000  1.0
  C  C38  1  0.62827000  0.52212000  0.11526000  1.0
  C  C39  1  0.87173000  0.88474000  0.47788000  1.0
  C  C40  1  0.37174000  0.47788000  0.88474000  1.0
  C  C41  1  0.12826000  0.11526000  0.52212000  1.0
  C  C42  1  0.35874000  0.87344000  0.01973000  1.0
  C  C43  1  0.14126000  0.98027000  0.12656000  1.0
  C  C44  1  0.64126000  0.12656000  0.98027000  1.0
  C  C45  1  0.85874000  0.01973000  0.87344000  1.0
  C  C46  1  0.08668000  0.84832000  0.99685000  1.0
  C  C47  1  0.41332000  0.00315000  0.15168000  1.0
  C  C48  1  0.91332000  0.15168000  0.00315000  1.0
  C  C49  1  0.58668000  0.99685000  0.84832000  1.0
  O  O50  1  0.23366000  0.66269000  0.71970000  1.0
  O  O51  1  0.26634000  0.28030000  0.33731000  1.0
  O  O52  1  0.76635000  0.33731000  0.28030000  1.0
  O  O53  1  0.73365000  0.71970000  0.66268000  1.0
  O  O54  1  0.98978000  0.59273000  0.72724000  1.0
  O  O55  1  0.51022000  0.27277000  0.40727000  1.0
  O  O56  1  0.01022000  0.40727000  0.27276000  1.0
  O  O57  1  0.48978000  0.72724000  0.59272000  1.0
  O  O58  1  0.32754000  0.52501000  0.27920000  1.0
  O  O59  1  0.17247000  0.72080000  0.47499000  1.0
  O  O60  1  0.67247000  0.47500000  0.72080000  1.0
  O  O61  1  0.82753000  0.27920000  0.52500000  1.0
  O  O62  1  0.56782000  0.51629000  0.35682000  1.0
  O  O63  1  0.93218000  0.64318000  0.48371000  1.0
  O  O64  1  0.43219000  0.48372000  0.64317000  1.0
  O  O65  1  0.06781000  0.35683000  0.51628000  1.0
