# generated using pymatgen
data_La2H12C8SO14
_symmetry_space_group_name_H-M   'P 1'
_cell_length_a   9.56454000
_cell_length_b   12.89820000
_cell_length_c   13.12260000
_cell_angle_alpha   110.23800000
_cell_angle_beta   90.00000000
_cell_angle_gamma   90.00000000
_symmetry_Int_Tables_number   1
_chemical_formula_structural   La2H12C8SO14
_chemical_formula_sum   'La8 H48 C32 S4 O56'
_cell_volume   1518.93101160
_cell_formula_units_Z   4
loop_
 _symmetry_equiv_pos_site_id
 _symmetry_equiv_pos_as_xyz
  1  'x, y, z'
loop_
 _atom_site_type_symbol
 _atom_site_label
 _atom_site_symmetry_multiplicity
 _atom_site_fract_x
 _atom_site_fract_y
 _atom_site_fract_z
 _atom_site_occupancy
  La  La0  1  0.33740000  0.54240000  0.61538000  1.0
  La  La1  1  0.83740000  0.95760000  0.88462000  1.0
  La  La2  1  0.66260000  0.45760000  0.38462000  1.0
  La  La3  1  0.16260000  0.04240000  0.11538000  1.0
  La  La4  1  0.13624000  0.44696000  0.86835000  1.0
  La  La5  1  0.63624000  0.05304000  0.63165000  1.0
  La  La6  1  0.86376000  0.55304000  0.13165000  1.0
  La  La7  1  0.36376000  0.94696000  0.36835000  1.0
  H  H8  1  0.04509000  0.35563000  0.47034000  1.0
  H  H9  1  0.54509000  0.14437000  0.02966000  1.0
  H  H10  1  0.95491000  0.64436000  0.52966000  1.0
  H  H11  1  0.45491000  0.85563000  0.97034000  1.0
  H  H12  1  0.89858000  0.28887000  0.50580000  1.0
  H  H13  1  0.39858000  0.21113000  0.99420000  1.0
  H  H14  1  0.10142000  0.71113000  0.49420000  1.0
  H  H15  1  0.60142000  0.78887000  0.00580000  1.0
  H  H16  1  0.37372000  0.26025000  0.78072000  1.0
  H  H17  1  0.87372000  0.23975000  0.71928000  1.0
  H  H18  1  0.62628000  0.73975000  0.21928000  1.0
  H  H19  1  0.12628000  0.76025000  0.28072000  1.0
  H  H20  1  0.34259000  0.30971000  0.68753000  1.0
  H  H21  1  0.84260000  0.19029000  0.81247000  1.0
  H  H22  1  0.65740000  0.69029000  0.31247000  1.0
  H  H23  1  0.15741000  0.80971000  0.18753000  1.0
  H  H24  1  0.04070000  0.13229000  0.50876000  1.0
  H  H25  1  0.54070000  0.36771000  0.99124000  1.0
  H  H26  1  0.95930000  0.86771000  0.49124000  1.0
  H  H27  1  0.45930000  0.63229000  0.00876000  1.0
  H  H28  1  0.19844000  0.20337000  0.50721000  1.0
  H  H29  1  0.69844000  0.29663000  0.99279000  1.0
  H  H30  1  0.80156000  0.79662000  0.49279000  1.0
  H  H31  1  0.30156000  0.70338000  0.00721000  1.0
  H  H32  1  0.11887000  0.45007000  0.25725000  1.0
  H  H33  1  0.61887000  0.04993000  0.24275000  1.0
  H  H34  1  0.88113000  0.54993000  0.74275000  1.0
  H  H35  1  0.38113000  0.95007000  0.75725000  1.0
  H  H36  1  0.26537000  0.36225000  0.21496000  1.0
  H  H37  1  0.76537000  0.13775000  0.28504000  1.0
  H  H38  1  0.73463000  0.63775000  0.78504000  1.0
  H  H39  1  0.23463000  0.86225000  0.71496000  1.0
  H  H40  1  0.27065000  0.61257000  0.25534000  1.0
  H  H41  1  0.77064000  0.88743000  0.24466000  1.0
  H  H42  1  0.72936000  0.38743000  0.74466000  1.0
  H  H43  1  0.22936000  0.11257000  0.75534000  1.0
  H  H44  1  0.41225000  0.52007000  0.20476000  1.0
  H  H45  1  0.91225000  0.97993000  0.29523000  1.0
  H  H46  1  0.58775000  0.47993000  0.79524000  1.0
  H  H47  1  0.08776000  0.02007000  0.70476000  1.0
  H  H48  1  0.07763000  0.72284000  0.69959000  1.0
  H  H49  1  0.57763000  0.77716000  0.80041000  1.0
  H  H50  1  0.92237000  0.27716000  0.30041000  1.0
  H  H51  1  0.42237000  0.22284000  0.19959000  1.0
  H  H52  1  0.12278000  0.67460000  0.78945000  1.0
  H  H53  1  0.62278000  0.82540000  0.71055000  1.0
  H  H54  1  0.87722000  0.32540000  0.21055000  1.0
  H  H55  1  0.37722000  0.17460000  0.28945000  1.0
  C  C56  1  0.09868000  0.14023000  0.35699000  1.0
  C  C57  1  0.59868000  0.35977000  0.14301000  1.0
  C  C58  1  0.90132000  0.85977000  0.64301000  1.0
  C  C59  1  0.40132000  0.64023000  0.85699000  1.0
  C  C60  1  0.01173000  0.30295000  0.51574000  1.0
  C  C61  1  0.51173000  0.19705000  0.98426000  1.0
  C  C62  1  0.98828000  0.69705000  0.48426000  1.0
  C  C63  1  0.48827000  0.80295000  0.01574000  1.0
  C  C64  1  0.27633000  0.47481000  0.37656000  1.0
  C  C65  1  0.77633000  0.02519000  0.12344000  1.0
  C  C66  1  0.72367000  0.52519000  0.62344000  1.0
  C  C67  1  0.22367000  0.97481000  0.87656000  1.0
  C  C68  1  0.04400000  0.36069000  0.63353000  1.0
  C  C69  1  0.54400000  0.13931000  0.86647000  1.0
  C  C70  1  0.95600000  0.63930000  0.36647000  1.0
  C  C71  1  0.45600000  0.86069000  0.13353000  1.0
  C  C72  1  0.08982000  0.19258000  0.47787000  1.0
  C  C73  1  0.58981000  0.30742000  0.02213000  1.0
  C  C74  1  0.91019000  0.80742000  0.52213000  1.0
  C  C75  1  0.41018000  0.69258000  0.97787000  1.0
  C  C76  1  0.23324000  0.44770000  0.25966000  1.0
  C  C77  1  0.73324000  0.05230000  0.24034000  1.0
  C  C78  1  0.76676000  0.55230000  0.74034000  1.0
  C  C79  1  0.26676000  0.94770000  0.75966000  1.0
  C  C80  1  0.29816000  0.52683000  0.20781000  1.0
  C  C81  1  0.79816000  0.97317000  0.29219000  1.0
  C  C82  1  0.70184000  0.47317000  0.79219000  1.0
  C  C83  1  0.20184000  0.02683000  0.70781000  1.0
  C  C84  1  0.24390000  0.50162000  0.09379000  1.0
  C  C85  1  0.74390000  0.99838000  0.40621000  1.0
  C  C86  1  0.75610000  0.49838000  0.90621000  1.0
  C  C87  1  0.25610000  0.00162000  0.59379000  1.0
  S  S88  1  0.50200000  0.25035000  0.49708000  1.0
  S  S89  1  0.00200000  0.24965000  0.00292000  1.0
  S  S90  1  0.49800000  0.74965000  0.50292000  1.0
  S  S91  1  0.99800000  0.75035000  0.99708000  1.0
  O  O92  1  0.13401000  0.43940000  0.66345000  1.0
  O  O93  1  0.63401000  0.06060000  0.83655000  1.0
  O  O94  1  0.86600000  0.56060000  0.33655000  1.0
  O  O95  1  0.36600000  0.93940000  0.16345000  1.0
  O  O96  1  0.39746000  0.33531000  0.55939000  1.0
  O  O97  1  0.89746000  0.16469000  0.94061000  1.0
  O  O98  1  0.60254000  0.66469000  0.44061000  1.0
  O  O99  1  0.10254000  0.83531000  0.05939000  1.0
  O  O100  1  0.16568000  0.04793000  0.31656000  1.0
  O  O101  1  0.66568000  0.45207000  0.18344000  1.0
  O  O102  1  0.83432000  0.95207000  0.68344000  1.0
  O  O103  1  0.33432000  0.54793000  0.81656000  1.0
  O  O104  1  0.60085000  0.29713000  0.43751000  1.0
  O  O105  1  0.10085000  0.20287000  0.06249000  1.0
  O  O106  1  0.39915000  0.70287000  0.56249000  1.0
  O  O107  1  0.89915000  0.79713000  0.93751000  1.0
  O  O108  1  0.40680000  0.47536000  0.40171000  1.0
  O  O109  1  0.90680000  0.02464000  0.09829000  1.0
  O  O110  1  0.59320000  0.52464000  0.59829000  1.0
  O  O111  1  0.09320000  0.97536000  0.90171000  1.0
  O  O112  1  0.42489000  0.15624000  0.41627000  1.0
  O  O113  1  0.92489000  0.34376000  0.08373000  1.0
  O  O114  1  0.57511000  0.84376000  0.58374000  1.0
  O  O115  1  0.07511000  0.65624000  0.91627000  1.0
  O  O116  1  0.98782000  0.32883000  0.70581000  1.0
  O  O117  1  0.48783000  0.17117000  0.79419000  1.0
  O  O118  1  0.01218000  0.67117000  0.29419000  1.0
  O  O119  1  0.51218000  0.82883000  0.20581000  1.0
  O  O120  1  0.32128000  0.45679000  0.01223000  1.0
  O  O121  1  0.82128000  0.04321000  0.48777000  1.0
  O  O122  1  0.67872000  0.54321000  0.98777000  1.0
  O  O123  1  0.17872000  0.95679000  0.51223000  1.0
  O  O124  1  0.11556000  0.52625000  0.07983000  1.0
  O  O125  1  0.61556000  0.97375000  0.42017000  1.0
  O  O126  1  0.88444000  0.47375000  0.92017000  1.0
  O  O127  1  0.38445000  0.02625000  0.57983000  1.0
  O  O128  1  0.04497000  0.18349000  0.29301000  1.0
  O  O129  1  0.54496000  0.31651000  0.20699000  1.0
  O  O130  1  0.95503000  0.81651000  0.70699000  1.0
  O  O131  1  0.45503000  0.68349000  0.79301000  1.0
  O  O132  1  0.18367000  0.49710000  0.45020000  1.0
  O  O133  1  0.68367000  0.00290000  0.04980000  1.0
  O  O134  1  0.81633000  0.50290000  0.54980000  1.0
  O  O135  1  0.31633000  0.99710000  0.95020000  1.0
  O  O136  1  0.57948000  0.21177000  0.57492000  1.0
  O  O137  1  0.07947000  0.28823000  0.92508000  1.0
  O  O138  1  0.42053000  0.78823000  0.42508000  1.0
  O  O139  1  0.92052000  0.71177000  0.07492000  1.0
  O  O140  1  0.30488000  0.30438000  0.75537000  1.0
  O  O141  1  0.80488000  0.19562000  0.74463000  1.0
  O  O142  1  0.69512000  0.69562000  0.24463000  1.0
  O  O143  1  0.19512000  0.80438000  0.25537000  1.0
  O  O144  1  0.15169000  0.67795000  0.71830000  1.0
  O  O145  1  0.65169000  0.82205000  0.78170000  1.0
  O  O146  1  0.84831000  0.32205000  0.28170000  1.0
  O  O147  1  0.34831000  0.17795000  0.21830000  1.0
