# generated using pymatgen
data_ZnH5C11NClO4F
_symmetry_space_group_name_H-M   'P 1'
_cell_length_a   9.73540000
_cell_length_b   11.03830000
_cell_length_c   11.07920000
_cell_angle_alpha   90.84350000
_cell_angle_beta   90.11880000
_cell_angle_gamma   91.76940000
_symmetry_Int_Tables_number   1
_chemical_formula_structural   ZnH5C11NClO4F
_chemical_formula_sum   'Zn2 H10 C22 N2 Cl2 O8 F2'
_cell_volume   1189.89548798
_cell_formula_units_Z   2
loop_
 _symmetry_equiv_pos_site_id
 _symmetry_equiv_pos_as_xyz
  1  'x, y, z'
loop_
 _atom_site_type_symbol
 _atom_site_label
 _atom_site_symmetry_multiplicity
 _atom_site_fract_x
 _atom_site_fract_y
 _atom_site_fract_z
 _atom_site_occupancy
  Zn  Zn0  1  0.36443000  0.49759000  0.50130000  1.0
  Zn  Zn1  1  0.64557000  0.50801000  0.50125000  1.0
  H  H2  1  0.72259000  0.57176000  0.89284000  1.0
  H  H3  1  0.87532000  0.63848000  0.63527000  1.0
  H  H4  1  0.72008000  0.56966000  0.11700000  1.0
  H  H5  1  0.22886000  0.34162000  0.10798000  1.0
  H  H6  1  0.17597000  0.49744000  0.88448000  1.0
  H  H7  1  0.17367000  0.49437000  0.11185000  1.0
  H  H8  1  0.23092000  0.34462000  0.88079000  1.0
  H  H9  1  0.36408000  0.11424000  0.63842000  1.0
  H  H10  1  0.36431000  0.88713000  0.63826000  1.0
  H  H11  1  0.86052000  0.36580000  0.36994000  1.0
  C  C12  1  0.50154000  0.73952000  0.49431000  1.0
  C  C13  1  0.39297000  0.47683000  0.06269000  1.0
  C  C14  1  0.51146000  0.51092000  0.87131000  1.0
  C  C15  1  0.50897000  0.50801000  0.13154000  1.0
  C  C16  1  0.62899000  0.54442000  0.94035000  1.0
  C  C17  1  0.62768000  0.54316000  0.06620000  1.0
  C  C18  1  0.24446000  0.43165000  0.06837000  1.0
  C  C19  1  0.24590000  0.43352000  0.92563000  1.0
  C  C20  1  0.57445000  0.93970000  0.39856000  1.0
  C  C21  1  0.57447000  0.06730000  0.39892000  1.0
  C  C22  1  0.50012000  0.12992000  0.48722000  1.0
  C  C23  1  0.49846000  0.26587000  0.49515000  1.0
  C  C24  1  0.50038000  0.87530000  0.48678000  1.0
  C  C25  1  0.42354000  0.06429000  0.57222000  1.0
  C  C26  1  0.42360000  0.93855000  0.57205000  1.0
  C  C27  1  0.92256000  0.42585000  0.42855000  1.0
  C  C28  1  0.93087000  0.57718000  0.57655000  1.0
  C  C29  1  0.06568000  0.42495000  0.43140000  1.0
  C  C30  1  0.07360000  0.57184000  0.57636000  1.0
  C  C31  1  0.51404000  0.50868000  0.73685000  1.0
  C  C32  1  0.51060000  0.50353000  0.26585000  1.0
  C  C33  1  0.39425000  0.47841000  0.93662000  1.0
  N  N34  1  0.14177000  0.49708000  0.50431000  1.0
  N  N35  1  0.85876000  0.50333000  0.50171000  1.0
  Cl  Cl36  1  0.65974000  0.86281000  0.28649000  1.0
  Cl  Cl37  1  0.65988000  0.14529000  0.28636000  1.0
  O  O38  1  0.38483000  0.68456000  0.49445000  1.0
  O  O39  1  0.38061000  0.31181000  0.50266000  1.0
  O  O40  1  0.61824000  0.69219000  0.50371000  1.0
  O  O41  1  0.61397000  0.32274000  0.49751000  1.0
  O  O42  1  0.39771000  0.50099000  0.68334000  1.0
  O  O43  1  0.39444000  0.49408000  0.31862000  1.0
  O  O44  1  0.63107000  0.51354000  0.68523000  1.0
  O  O45  1  0.62774000  0.50884000  0.31793000  1.0
  F  F46  1  0.13198000  0.34980000  0.35898000  1.0
  F  F47  1  0.14729000  0.64335000  0.65115000  1.0
