# generated using pymatgen
data_MnH8C13NO5
_symmetry_space_group_name_H-M   'P 1'
_cell_length_a   12.51620000
_cell_length_b   12.51720000
_cell_length_c   13.32180000
_cell_angle_alpha   115.72500000
_cell_angle_beta   115.72990000
_cell_angle_gamma   90.10720000
_symmetry_Int_Tables_number   1
_chemical_formula_structural   MnH8C13NO5
_chemical_formula_sum   'Mn4 H32 C52 N4 O20'
_cell_volume   1646.58823731
_cell_formula_units_Z   4
loop_
 _symmetry_equiv_pos_site_id
 _symmetry_equiv_pos_as_xyz
  1  'x, y, z'
loop_
 _atom_site_type_symbol
 _atom_site_label
 _atom_site_symmetry_multiplicity
 _atom_site_fract_x
 _atom_site_fract_y
 _atom_site_fract_z
 _atom_site_occupancy
  Mn  Mn0  1  0.99999000  0.50000000  0.00000000  1.0
  Mn  Mn1  1  0.50001000  0.00001000  0.50000000  1.0
  Mn  Mn2  1  0.69446000  0.30552000  0.75000000  1.0
  Mn  Mn3  1  0.30554000  0.69448000  0.24999000  1.0
  H  H4  1  0.85369000  0.74530000  0.23720000  1.0
  H  H5  1  0.25468000  0.14629000  0.26275000  1.0
  H  H6  1  0.14630000  0.25470000  0.76280000  1.0
  H  H7  1  0.74532000  0.85372000  0.73726000  1.0
  H  H8  1  0.73471000  0.86463000  0.33938000  1.0
  H  H9  1  0.13538000  0.26531000  0.16059000  1.0
  H  H10  1  0.26529000  0.13537000  0.66062000  1.0
  H  H11  1  0.86462000  0.73470000  0.83941000  1.0
  H  H12  1  0.40081000  0.65054000  0.99440000  1.0
  H  H13  1  0.34954000  0.59911000  0.50561000  1.0
  H  H14  1  0.59919000  0.34947000  0.00560000  1.0
  H  H15  1  0.65045000  0.40090000  0.49439000  1.0
  H  H16  1  0.51967000  0.53707000  0.88870000  1.0
  H  H17  1  0.46297000  0.48022000  0.61127000  1.0
  H  H18  1  0.48032000  0.46293000  0.11130000  1.0
  H  H19  1  0.53703000  0.51979000  0.38873000  1.0
  H  H20  1  0.79203000  0.24728000  0.99254000  1.0
  H  H21  1  0.75274000  0.20798000  0.50748000  1.0
  H  H22  1  0.20796000  0.75271000  0.00745000  1.0
  H  H23  1  0.24728000  0.79202000  0.49253000  1.0
  H  H24  1  0.84740000  0.08400000  0.05108000  1.0
  H  H25  1  0.91601000  0.15259000  0.44892000  1.0
  H  H26  1  0.15261000  0.91600000  0.94893000  1.0
  H  H27  1  0.08399000  0.84738000  0.55106000  1.0
  H  H28  1  0.10404000  0.04940000  0.90585000  1.0
  H  H29  1  0.95059000  0.89597000  0.59415000  1.0
  H  H30  1  0.89598000  0.95061000  0.09417000  1.0
  H  H31  1  0.04941000  0.10400000  0.40583000  1.0
  H  H32  1  0.03736000  0.21623000  0.85661000  1.0
  H  H33  1  0.78375000  0.96268000  0.64341000  1.0
  H  H34  1  0.96265000  0.78377000  0.14341000  1.0
  H  H35  1  0.21625000  0.03731000  0.35658000  1.0
  C  C36  1  0.76177000  0.55909000  0.99420000  1.0
  C  C37  1  0.44088000  0.23817000  0.50579000  1.0
  C  C38  1  0.23823000  0.44091000  0.00581000  1.0
  C  C39  1  0.55912000  0.76184000  0.49421000  1.0
  C  C40  1  0.69347000  0.63531000  0.05593000  1.0
  C  C41  1  0.36470000  0.30647000  0.44403000  1.0
  C  C42  1  0.30652000  0.36469000  0.94406000  1.0
  C  C43  1  0.63530000  0.69354000  0.55597000  1.0
  C  C44  1  0.75466000  0.72802000  0.18325000  1.0
  C  C45  1  0.27199000  0.24530000  0.31670000  1.0
  C  C46  1  0.24533000  0.27198000  0.81675000  1.0
  C  C47  1  0.72801000  0.75471000  0.68329000  1.0
  C  C48  1  0.68891000  0.79368000  0.24043000  1.0
  C  C49  1  0.20635000  0.31107000  0.25953000  1.0
  C  C50  1  0.31108000  0.20633000  0.75957000  1.0
  C  C51  1  0.79364000  0.68895000  0.74048000  1.0
  C  C52  1  0.56112000  0.76601000  0.17293000  1.0
  C  C53  1  0.23403000  0.43884000  0.32704000  1.0
  C  C54  1  0.43887000  0.23399000  0.82707000  1.0
  C  C55  1  0.76596000  0.56116000  0.67296000  1.0
  C  C56  1  0.50018000  0.67389000  0.04549000  1.0
  C  C57  1  0.32616000  0.49975000  0.45448000  1.0
  C  C58  1  0.49981000  0.32611000  0.95451000  1.0
  C  C59  1  0.67384000  0.50025000  0.54553000  1.0
  C  C60  1  0.56578000  0.61019000  0.98705000  1.0
  C  C61  1  0.38984000  0.43414000  0.51292000  1.0
  C  C62  1  0.43421000  0.38981000  0.01295000  1.0
  C  C63  1  0.61015000  0.56587000  0.48708000  1.0
  C  C64  1  0.49112000  0.82776000  0.23993000  1.0
  C  C65  1  0.17230000  0.50886000  0.26006000  1.0
  C  C66  1  0.50887000  0.17224000  0.76007000  1.0
  C  C67  1  0.82769000  0.49115000  0.73994000  1.0
  C  C68  1  0.86030000  0.19912000  0.97773000  1.0
  C  C69  1  0.80088000  0.13972000  0.52229000  1.0
  C  C70  1  0.13972000  0.80087000  0.02228000  1.0
  C  C71  1  0.19913000  0.86026000  0.47771000  1.0
  C  C72  1  0.89273000  0.10762000  0.00741000  1.0
  C  C73  1  0.89239000  0.10727000  0.49259000  1.0
  C  C74  1  0.10728000  0.89238000  0.99259000  1.0
  C  C75  1  0.10761000  0.89271000  0.50740000  1.0
  C  C76  1  0.98156000  0.04762000  0.98331000  1.0
  C  C77  1  0.95238000  0.01843000  0.51668000  1.0
  C  C78  1  0.01845000  0.95239000  0.01670000  1.0
  C  C79  1  0.04762000  0.98155000  0.48330000  1.0
  C  C80  1  0.03346000  0.08781000  0.92643000  1.0
  C  C81  1  0.91219000  0.96654000  0.57357000  1.0
  C  C82  1  0.96655000  0.91220000  0.07358000  1.0
  C  C83  1  0.08781000  0.03344000  0.42642000  1.0
  C  C84  1  0.99847000  0.17881000  0.89660000  1.0
  C  C85  1  0.82118000  0.00155000  0.60342000  1.0
  C  C86  1  0.00154000  0.82119000  0.10342000  1.0
  C  C87  1  0.17883000  0.99843000  0.39658000  1.0
  N  N88  1  0.91194000  0.23278000  0.92129000  1.0
  N  N89  1  0.76723000  0.08808000  0.57872000  1.0
  N  N90  1  0.08807000  0.76722000  0.07871000  1.0
  N  N91  1  0.23278000  0.91191000  0.42128000  1.0
  O  O92  1  0.69941000  0.47894000  0.87793000  1.0
  O  O93  1  0.52098000  0.30051000  0.62208000  1.0
  O  O94  1  0.30060000  0.52106000  0.12208000  1.0
  O  O95  1  0.47902000  0.69951000  0.37792000  1.0
  O  O96  1  0.87718000  0.57955000  0.06245000  1.0
  O  O97  1  0.42041000  0.12277000  0.43754000  1.0
  O  O98  1  0.12282000  0.42047000  0.93756000  1.0
  O  O99  1  0.57958000  0.87724000  0.56245000  1.0
  O  O100  1  0.37649000  0.77947000  0.18265000  1.0
  O  O101  1  0.22060000  0.62347000  0.31736000  1.0
  O  O102  1  0.62350000  0.22053000  0.81735000  1.0
  O  O103  1  0.77940000  0.37653000  0.68264000  1.0
  O  O104  1  0.54820000  0.92053000  0.34950000  1.0
  O  O105  1  0.07952000  0.45180000  0.15048000  1.0
  O  O106  1  0.45180000  0.07948000  0.65050000  1.0
  O  O107  1  0.92047000  0.54820000  0.84952000  1.0
  O  O108  1  0.87866000  0.32037000  0.89078000  1.0
  O  O109  1  0.67962000  0.12137000  0.60922000  1.0
  O  O110  1  0.12134000  0.67963000  0.10922000  1.0
  O  O111  1  0.32039000  0.87863000  0.39078000  1.0
