# generated using pymatgen
data_Al6H63C90(NO4)7
_symmetry_space_group_name_H-M   'P 1'
_cell_length_a   13.15410000
_cell_length_b   13.15780000
_cell_length_c   27.60670000
_cell_angle_alpha   89.89120000
_cell_angle_beta   89.57360000
_cell_angle_gamma   60.63110000
_symmetry_Int_Tables_number   1
_chemical_formula_structural   Al6H63C90(NO4)7
_chemical_formula_sum   'Al6 H63 C90 N7 O28'
_cell_volume   4163.93085360
_cell_formula_units_Z   1
loop_
 _symmetry_equiv_pos_site_id
 _symmetry_equiv_pos_as_xyz
  1  'x, y, z'
loop_
 _atom_site_type_symbol
 _atom_site_label
 _atom_site_symmetry_multiplicity
 _atom_site_fract_x
 _atom_site_fract_y
 _atom_site_fract_z
 _atom_site_occupancy
  Al  Al0  1  0.41807000  0.17680000  0.49856000  1.0
  Al  Al1  1  0.41848000  0.93482000  0.49877000  1.0
  Al  Al2  1  0.65015000  0.92603000  0.49960000  1.0
  Al  Al3  1  0.91199000  0.17306000  0.98641000  1.0
  Al  Al4  1  0.67273000  0.41508000  0.98580000  1.0
  Al  Al5  1  0.89581000  0.42401000  0.98355000  1.0
  H  H6  1  0.46478000  0.68853000  0.21398000  1.0
  H  H7  1  0.81269000  0.54845000  0.69363000  1.0
  H  H8  1  0.49669000  0.86733000  0.72878000  1.0
  H  H9  1  0.46250000  0.91302000  0.64145000  1.0
  H  H10  1  0.71734000  0.92423000  0.64117000  1.0
  H  H11  1  0.49504000  0.31037000  0.77703000  1.0
  H  H12  1  0.50785000  0.36048000  0.86326000  1.0
  H  H13  1  0.47420000  0.87690000  0.25980000  1.0
  H  H14  1  0.73206000  0.95699000  0.72865000  1.0
  H  H15  1  0.85585000  0.07056000  0.86979000  1.0
  H  H16  1  0.57592000  0.32667000  0.70246000  1.0
  H  H17  1  0.47973000  0.23981000  0.21798000  1.0
  H  H18  1  0.54374000  0.29374000  0.61615000  1.0
  H  H19  1  0.00311000  0.13141000  0.75596000  1.0
  H  H20  1  0.95947000  0.15097000  0.84398000  1.0
  H  H21  1  0.19610000  0.31551000  0.77419000  1.0
  H  H22  1  0.66422000  0.83849000  0.19684000  1.0
  H  H23  1  0.13948000  0.34595000  0.86146000  1.0
  H  H24  1  0.18664000  0.01951000  0.71484000  1.0
  H  H25  1  0.82113000  0.68699000  0.26691000  1.0
  H  H26  1  0.81643000  0.99406000  0.20687000  1.0
  H  H27  1  0.87544000  0.11262000  0.27799000  1.0
  H  H28  1  0.72871000  0.32751000  0.23054000  1.0
  H  H29  1  0.46762000  0.45795000  0.27054000  1.0
  H  H30  1  0.44846000  0.37193000  0.31578000  1.0
  H  H31  1  0.55717000  0.41296000  0.32326000  1.0
  H  H32  1  0.26301000  0.37147000  0.23363000  1.0
  H  H33  1  0.29031000  0.31120000  0.17393000  1.0
  H  H34  1  0.14742000  0.41890000  0.19106000  1.0
  H  H35  1  0.35261000  0.88092000  0.19767000  1.0
  H  H36  1  0.24358000  0.95005000  0.15285000  1.0
  H  H37  1  0.36820000  0.96846000  0.15214000  1.0
  H  H38  1  0.09993000  0.95749000  0.24431000  1.0
  H  H39  1  0.06544000  0.33906000  0.28526000  1.0
  H  H40  1  0.18276000  0.93970000  0.29252000  1.0
  H  H41  1  0.86241000  0.66125000  0.73755000  1.0
  H  H42  1  0.93596000  0.62469000  0.79054000  1.0
  H  H43  1  0.43534000  0.64641000  0.78390000  1.0
  H  H44  1  0.48679000  0.68001000  0.73360000  1.0
  H  H45  1  0.47406000  0.66774000  0.90820000  1.0
  H  H46  1  0.39797000  0.71706000  0.85295000  1.0
  H  H47  1  0.47656000  0.56505000  0.86690000  1.0
  H  H48  1  0.93735000  0.95381000  0.79928000  1.0
  H  H49  1  0.86947000  0.98347000  0.74454000  1.0
  H  H50  1  0.38570000  0.09704000  0.24614000  1.0
  H  H51  1  0.04858000  0.43587000  0.60024000  1.0
  H  H52  1  0.20079000  0.38772000  0.59484000  1.0
  H  H53  1  0.13558000  0.33815000  0.55350000  1.0
  H  H54  1  0.08976000  0.45780000  0.67318000  1.0
  H  H55  1  0.05130000  0.41771000  0.72495000  1.0
  H  H56  1  0.27847000  0.88140000  0.65378000  1.0
  H  H57  1  0.28898000  0.91664000  0.59435000  1.0
  H  H58  1  0.88143000  0.41957000  0.25176000  1.0
  H  H59  1  0.81441000  0.41325000  0.19674000  1.0
  H  H60  1  0.90589000  0.47684000  0.19710000  1.0
  H  H61  1  0.96969000  0.22974000  0.22537000  1.0
  H  H62  1  0.58948000  0.97691000  0.24556000  1.0
  H  H63  1  0.57770000  0.02076000  0.30280000  1.0
  H  H64  1  0.78554000  0.60232000  0.60716000  1.0
  H  H65  1  0.62395000  0.53419000  0.28302000  1.0
  H  H66  1  0.86011000  0.59554000  0.86423000  1.0
  H  H67  1  0.34510000  0.36751000  0.46963000  1.0
  H  H68  1  0.95788000  0.97962000  0.97234000  1.0
  C  C69  1  0.30468000  0.09098000  0.42461000  1.0
  C  C70  1  0.62846000  0.72842000  0.34006000  1.0
  C  C71  1  0.78786000  0.14065000  0.26425000  1.0
  C  C72  1  0.60061000  0.79519000  0.43168000  1.0
  C  C73  1  0.75538000  0.07461000  0.22561000  1.0
  C  C74  1  0.68565000  0.23049000  0.10604000  1.0
  C  C75  1  0.66873000  0.11694000  0.38932000  1.0
  C  C76  1  0.70659000  0.25947000  0.23896000  1.0
  C  C77  1  0.67405000  0.19377000  0.19908000  1.0
  C  C78  1  0.59950000  0.27723000  0.27048000  1.0
  C  C79  1  0.68200000  0.15757000  0.29708000  1.0
  C  C80  1  0.61862000  0.74873000  0.38348000  1.0
  C  C81  1  0.56756000  0.21119000  0.23162000  1.0
  C  C82  1  0.64924000  0.09118000  0.25756000  1.0
  C  C83  1  0.67592000  0.21404000  0.14887000  1.0
  C  C84  1  0.63231000  0.09512000  0.43539000  1.0
  C  C85  1  0.67964000  0.13606000  0.34692000  1.0
  C  C86  1  0.11425000  0.26172000  0.26254000  1.0
  C  C87  1  0.20174000  0.24943000  0.22114000  1.0
  C  C88  1  0.09049000  0.23698000  0.09622000  1.0
  C  C89  1  0.26288000  0.10589000  0.37567000  1.0
  C  C90  1  0.06205000  0.20146000  0.23034000  1.0
  C  C91  1  0.73759000  0.58200000  0.23040000  1.0
  C  C92  1  0.14841000  0.18958000  0.18781000  1.0
  C  C93  1  0.15276000  0.07948000  0.25048000  1.0
  C  C94  1  0.20650000  0.13898000  0.28348000  1.0
  C  C95  1  0.24160000  0.06545000  0.20795000  1.0
  C  C96  1  0.27473000  0.10898000  0.56331000  1.0
  C  C97  1  0.29302000  0.12622000  0.24064000  1.0
  C  C98  1  0.11709000  0.21567000  0.13874000  1.0
  C  C99  1  0.23702000  0.11762000  0.33289000  1.0
  C  C100  1  0.62037000  0.75943000  0.61845000  1.0
  C  C101  1  0.72109000  0.65941000  0.63374000  1.0
  C  C102  1  0.64788000  0.66846000  0.19113000  1.0
  C  C103  1  0.73684000  0.63035000  0.68283000  1.0
  C  C104  1  0.65581000  0.70372000  0.71798000  1.0
  C  C105  1  0.55851000  0.80738000  0.70211000  1.0
  C  C106  1  0.53928000  0.83342000  0.65309000  1.0
  C  C107  1  0.76979000  0.65201000  0.79604000  1.0
  C  C108  1  0.59670000  0.79672000  0.56691000  1.0
  C  C109  1  0.78006000  0.61884000  0.84465000  1.0
  C  C110  1  0.58369000  0.64163000  0.84538000  1.0
  C  C111  1  0.57740000  0.66702000  0.79525000  1.0
  C  C112  1  0.66861000  0.67365000  0.77031000  1.0
  C  C113  1  0.74218000  0.68696000  0.25482000  1.0
  C  C114  1  0.68950000  0.61224000  0.86899000  1.0
  C  C115  1  0.63125000  0.10704000  0.62338000  1.0
  C  C116  1  0.68654000  0.01214000  0.65498000  1.0
  C  C117  1  0.69710000  0.03092000  0.70379000  1.0
  C  C118  1  0.65829000  0.14436000  0.72175000  1.0
  C  C119  1  0.60466000  0.23854000  0.68927000  1.0
  C  C120  1  0.61041000  0.08720000  0.57240000  1.0
  C  C121  1  0.58845000  0.22069000  0.64099000  1.0
  C  C122  1  0.57522000  0.25926000  0.79735000  1.0
  C  C123  1  0.58082000  0.28675000  0.84546000  1.0
  C  C124  1  0.63788000  0.70678000  0.28961000  1.0
  C  C125  1  0.77705000  0.12223000  0.84874000  1.0
  C  C126  1  0.77409000  0.09740000  0.79955000  1.0
  C  C127  1  0.66956000  0.16611000  0.77336000  1.0
  C  C128  1  0.68317000  0.21672000  0.87134000  1.0
  C  C129  1  0.20976000  0.14294000  0.60948000  1.0
  C  C130  1  0.15696000  0.26132000  0.62530000  1.0
  C  C131  1  0.11966000  0.28963000  0.67364000  1.0
  C  C132  1  0.63225000  0.60237000  0.26367000  1.0
  C  C133  1  0.13501000  0.20030000  0.70653000  1.0
  C  C134  1  0.17783000  0.08703000  0.68944000  1.0
  C  C135  1  0.65418000  0.77224000  0.21692000  1.0
  C  C136  1  0.21287000  0.05545000  0.64111000  1.0
  C  C137  1  0.03560000  0.17640000  0.77895000  1.0
  C  C138  1  0.01015000  0.18772000  0.82812000  1.0
  C  C139  1  0.11054000  0.29859000  0.83806000  1.0
  C  C140  1  0.13985000  0.28342000  0.78893000  1.0
  C  C141  1  0.10240000  0.22253000  0.75844000  1.0
  C  C142  1  0.04661000  0.24930000  0.85814000  1.0
  C  C143  1  0.71690000  0.24954000  0.05818000  1.0
  C  C144  1  0.54393000  0.68828000  0.22597000  1.0
  C  C145  1  0.70735000  0.55855000  0.05177000  1.0
  C  C146  1  0.54934000  0.79258000  0.25051000  1.0
  C  C147  1  0.03940000  0.26129000  0.04889000  1.0
  C  C148  1  0.70079000  0.24689000  0.92124000  1.0
  C  C149  1  0.71675000  0.55999000  0.91827000  1.0
  C  C150  1  0.01189000  0.26179000  0.91013000  1.0
  C  C151  1  0.67824000  0.61326000  0.09859000  1.0
  C  C152  1  0.51389000  0.38591000  0.29630000  1.0
  C  C153  1  0.22716000  0.34257000  0.20417000  1.0
  C  C154  1  0.30521000  0.96075000  0.17616000  1.0
  C  C155  1  0.47780000  0.64808000  0.86962000  1.0
  C  C156  1  0.13424000  0.36033000  0.59166000  1.0
  C  C157  1  0.66056000  0.64263000  0.14108000  1.0
  C  C158  1  0.84021000  0.46693000  0.21835000  1.0
  N  N159  1  0.12094000  0.99940000  0.27009000  1.0
  N  N160  1  0.85717000  0.66772000  0.77420000  1.0
  N  N161  1  0.47740000  0.68729000  0.77015000  1.0
  N  N162  1  0.87568000  0.01384000  0.77738000  1.0
  N  N163  1  0.05930000  0.40747000  0.68841000  1.0
  N  N164  1  0.24948000  0.94212000  0.62724000  1.0
  N  N165  1  0.62773000  0.00004000  0.27207000  1.0
  O  O166  1  0.53078000  0.16919000  0.44931000  1.0
  O  O167  1  0.80470000  0.53712000  0.03287000  1.0
  O  O168  1  0.00900000  0.36324000  0.03109000  1.0
  O  O169  1  0.32815000  0.16627000  0.44131000  1.0
  O  O170  1  0.98591000  0.18805000  0.92697000  1.0
  O  O171  1  0.79017000  0.17430000  0.94409000  1.0
  O  O172  1  0.62640000  0.34953000  0.93728000  1.0
  O  O173  1  0.64752000  0.53024000  0.93853000  1.0
  O  O174  1  0.81409000  0.53950000  0.93734000  1.0
  O  O175  1  0.00653000  0.34868000  0.93411000  1.0
  O  O176  1  0.82597000  0.33930000  0.98588000  1.0
  O  O177  1  0.49295000  0.83148000  0.55183000  1.0
  O  O178  1  0.31770000  0.99875000  0.44684000  1.0
  O  O179  1  0.50974000  0.81022000  0.45512000  1.0
  O  O180  1  0.67500000  0.82370000  0.44681000  1.0
  O  O181  1  0.70309000  0.00020000  0.45766000  1.0
  O  O182  1  0.52197000  0.16660000  0.55147000  1.0
  O  O183  1  0.31307000  0.17299000  0.54615000  1.0
  O  O184  1  0.29674000  0.01053000  0.54278000  1.0
  O  O185  1  0.67720000  0.79984000  0.54180000  1.0
  O  O186  1  0.68322000  0.98703000  0.55383000  1.0
  O  O187  1  0.49727000  0.01048000  0.49807000  1.0
  O  O188  1  0.02416000  0.18319000  0.02938000  1.0
  O  O189  1  0.82083000  0.18169000  0.04495000  1.0
  O  O190  1  0.63834000  0.33564000  0.03372000  1.0
  O  O191  1  0.63478000  0.53054000  0.03378000  1.0
  O  O192  1  0.34065000  0.33013000  0.49912000  1.0
  O  O193  1  0.99425000  0.02011000  0.98715000  1.0
