# generated using pymatgen
data_Zn2H26C19(N3O4)2
_symmetry_space_group_name_H-M   'P 1'
_cell_length_a   9.93839000
_cell_length_b   16.98820000
_cell_length_c   16.98900000
_cell_angle_alpha   116.28300000
_cell_angle_beta   101.23600000
_cell_angle_gamma   101.25900000
_symmetry_Int_Tables_number   1
_chemical_formula_structural   Zn2H26C19(N3O4)2
_chemical_formula_sum   'Zn6 H78 C57 N18 O24'
_cell_volume   2389.77066360
_cell_formula_units_Z   3
loop_
 _symmetry_equiv_pos_site_id
 _symmetry_equiv_pos_as_xyz
  1  'x, y, z'
loop_
 _atom_site_type_symbol
 _atom_site_label
 _atom_site_symmetry_multiplicity
 _atom_site_fract_x
 _atom_site_fract_y
 _atom_site_fract_z
 _atom_site_occupancy
  Zn  Zn0  1  0.63841000  0.68376000  0.30686000  1.0
  Zn  Zn1  1  0.33149000  0.69300000  0.37673000  1.0
  Zn  Zn2  1  0.95459000  0.62315000  0.31628000  1.0
  Zn  Zn3  1  0.12315000  0.30748000  0.68427000  1.0
  Zn  Zn4  1  0.43910000  0.31577000  0.62335000  1.0
  Zn  Zn5  1  0.81579000  0.37672000  0.69253000  1.0
  H  H6  1  0.38022000  0.37316000  0.02223000  1.0
  H  H7  1  0.35823000  0.97781000  0.35094000  1.0
  H  H8  1  0.00745000  0.64897000  0.62673000  1.0
  H  H9  1  0.86870000  0.36772000  0.97830000  1.0
  H  H10  1  0.89077000  0.02171000  0.38951000  1.0
  H  H11  1  0.50131000  0.61053000  0.63222000  1.0
  H  H12  1  0.45492000  0.38737000  0.15891000  1.0
  H  H13  1  0.29626000  0.84115000  0.22852000  1.0
  H  H14  1  0.06814000  0.77156000  0.61268000  1.0
  H  H15  1  0.00017000  0.23165000  0.86996000  1.0
  H  H16  1  0.13068000  0.13018000  0.36189000  1.0
  H  H17  1  0.76888000  0.63812000  0.76818000  1.0
  H  H18  1  0.34762000  0.53684000  0.17829000  1.0
  H  H19  1  0.16971000  0.82175000  0.35895000  1.0
  H  H20  1  0.81075000  0.64113000  0.46278000  1.0
  H  H21  1  0.65382000  0.36287000  0.82176000  1.0
  H  H22  1  0.83218000  0.17833000  0.54112000  1.0
  H  H23  1  0.29105000  0.45876000  0.63708000  1.0
  H  H24  1  0.24654000  0.32559000  0.87894000  1.0
  H  H25  1  0.36777000  0.12112000  0.44664000  1.0
  H  H26  1  0.92145000  0.55352000  0.67464000  1.0
  H  H27  1  0.88251000  0.45165000  0.12357000  1.0
  H  H28  1  0.75933000  0.87639000  0.32789000  1.0
  H  H29  1  0.43126000  0.67194000  0.54835000  1.0
  H  H30  1  0.76576000  0.16823000  0.88443000  1.0
  H  H31  1  0.88180000  0.11577000  0.28410000  1.0
  H  H32  1  0.59794000  0.71601000  0.83164000  1.0
  H  H33  1  0.73652000  0.14300000  0.76774000  1.0
  H  H34  1  0.96925000  0.23245000  0.37565000  1.0
  H  H35  1  0.59375000  0.62446000  0.85679000  1.0
  H  H36  1  0.68552000  0.23468000  0.84513000  1.0
  H  H37  1  0.84088000  0.15493000  0.38985000  1.0
  H  H38  1  0.45118000  0.61028000  0.76512000  1.0
  H  H39  1  0.54720000  0.25515000  0.09361000  1.0
  H  H40  1  0.45350000  0.90650000  0.16147000  1.0
  H  H41  1  0.29271000  0.83837000  0.74483000  1.0
  H  H42  1  0.65269000  0.33871000  0.21123000  1.0
  H  H43  1  0.44157000  0.78890000  0.12740000  1.0
  H  H44  1  0.31455000  0.87252000  0.66130000  1.0
  H  H45  1  0.72033000  0.33152000  0.11907000  1.0
  H  H46  1  0.60136000  0.88115000  0.21227000  1.0
  H  H47  1  0.38940000  0.78753000  0.66842000  1.0
  H  H48  1  0.59463000  0.61926000  0.10689000  1.0
  H  H49  1  0.48775000  0.89301000  0.51248000  1.0
  H  H50  1  0.97526000  0.48765000  0.38083000  1.0
  H  H51  1  0.61410000  0.71375000  0.08744000  1.0
  H  H52  1  0.52678000  0.91278000  0.62652000  1.0
  H  H53  1  0.90002000  0.37370000  0.28643000  1.0
  H  H54  1  0.24107000  0.58721000  0.99651000  1.0
  H  H55  1  0.24462000  0.00355000  0.59074000  1.0
  H  H56  1  0.65352000  0.40931000  0.41286000  1.0
  H  H57  1  0.00097000  0.69572000  0.02707000  1.0
  H  H58  1  0.97388000  0.97283000  0.66844000  1.0
  H  H59  1  0.30508000  0.33132000  0.30435000  1.0
  H  H60  1  0.08717000  0.67613000  0.11576000  1.0
  H  H61  1  0.97129000  0.88418000  0.56013000  1.0
  H  H62  1  0.41066000  0.43960000  0.32378000  1.0
  H  H63  1  0.91430000  0.52974000  0.93495000  1.0
  H  H64  1  0.97952000  0.06508000  0.59465000  1.0
  H  H65  1  0.38467000  0.40523000  0.47030000  1.0
  H  H66  1  0.42939000  0.60429000  0.92592000  1.0
  H  H67  1  0.50354000  0.07425000  0.67816000  1.0
  H  H68  1  0.82507000  0.32186000  0.39621000  1.0
  H  H69  1  0.41013000  0.51506000  0.95526000  1.0
  H  H70  1  0.45477000  0.04458000  0.55952000  1.0
  H  H71  1  0.89476000  0.44052000  0.48514000  1.0
  H  H72  1  0.67877000  0.53913000  0.96216000  1.0
  H  H73  1  0.71660000  0.03784000  0.57685000  1.0
  H  H74  1  0.13952000  0.42301000  0.46095000  1.0
  H  H75  1  0.72949000  0.64897000  0.97054000  1.0
  H  H76  1  0.75908000  0.02951000  0.67832000  1.0
  H  H77  1  0.08016000  0.32153000  0.35113000  1.0
  H  H78  1  0.84739000  0.59878000  0.11617000  1.0
  H  H79  1  0.73120000  0.88388000  0.48249000  1.0
  H  H80  1  0.24833000  0.51729000  0.40114000  1.0
  H  H81  1  0.87453000  0.71484000  0.14275000  1.0
  H  H82  1  0.73172000  0.85721000  0.57192000  1.0
  H  H83  1  0.15929000  0.42778000  0.28513000  1.0
  C  C84  1  0.10769000  0.46129000  0.11308000  1.0
  C  C85  1  0.99501000  0.88693000  0.34832000  1.0
  C  C86  1  0.64661000  0.65163000  0.53851000  1.0
  C  C87  1  0.48247000  0.35157000  0.88901000  1.0
  C  C88  1  0.59365000  0.11109000  0.46252000  1.0
  C  C89  1  0.13131000  0.53749000  0.64859000  1.0
  C  C90  1  0.56461000  0.37414000  0.98271000  1.0
  C  C91  1  0.58214000  0.01739000  0.39137000  1.0
  C  C92  1  0.19098000  0.60862000  0.62599000  1.0
  C  C93  1  0.92572000  0.29948000  0.79895000  1.0
  C  C94  1  0.12715000  0.20108000  0.50069000  1.0
  C  C95  1  0.62647000  0.49932000  0.70039000  1.0
  C  C96  1  0.54920000  0.39471000  0.13454000  1.0
  C  C97  1  0.41490000  0.86553000  0.26014000  1.0
  C  C98  1  0.15503000  0.73983000  0.60531000  1.0
  C  C99  1  0.08881000  0.38629000  0.02089000  1.0
  C  C100  1  0.06833000  0.97915000  0.36552000  1.0
  C  C101  1  0.70275000  0.63441000  0.61349000  1.0
  C  C102  1  0.91777000  0.26612000  0.86915000  1.0
  C  C103  1  0.04906000  0.13092000  0.39715000  1.0
  C  C104  1  0.65198000  0.60286000  0.73372000  1.0
  C  C105  1  0.23760000  0.52807000  0.18083000  1.0
  C  C106  1  0.05712000  0.81920000  0.34750000  1.0
  C  C107  1  0.70958000  0.65252000  0.47163000  1.0
  C  C108  1  0.54162000  0.35064000  0.82007000  1.0
  C  C109  1  0.72169000  0.18001000  0.53056000  1.0
  C  C110  1  0.19119000  0.46939000  0.64940000  1.0
  C  C111  1  0.33333333  0.33098000  0.84942000  1.0
  C  C112  1  0.48407000  0.15065000  0.48155000  1.0
  C  C113  1  0.00277000  0.51856000  0.66924000  1.0
  C  C114  1  0.99927000  0.48382000  0.15220000  1.0
  C  C115  1  0.84741000  0.84777000  0.33157000  1.0
  C  C116  1  0.51571000  0.66832000  0.51608000  1.0
  C  C117  1  0.64091000  0.49766000  0.20036000  1.0
  C  C118  1  0.44088000  0.79967000  0.29721000  1.0
  C  C119  1  0.14370000  0.70273000  0.50235000  1.0
  C  C120  1  0.76673000  0.19878000  0.83949000  1.0
  C  C121  1  0.92771000  0.16064000  0.35959000  1.0
  C  C122  1  0.56829000  0.64051000  0.80105000  1.0
  C  C123  1  0.62300000  0.32579000  0.13993000  1.0
  C  C124  1  0.48316000  0.86021000  0.18578000  1.0
  C  C125  1  0.29779000  0.81410000  0.67419000  1.0
  C  C126  1  0.59185000  0.63817000  0.05272000  1.0
  C  C127  1  0.53918000  0.94734000  0.58550000  1.0
  C  C128  1  0.95346000  0.41458000  0.36199000  1.0
  C  C129  1  0.99035000  0.64813000  0.05535000  1.0
  C  C130  1  0.93498000  0.94462000  0.59260000  1.0
  C  C131  1  0.34196000  0.40721000  0.35188000  1.0
  C  C132  1  0.43825000  0.59072000  0.98441000  1.0
  C  C133  1  0.45387000  0.01563000  0.60619000  1.0
  C  C134  1  0.84733000  0.39383000  0.40953000  1.0
  C  C135  1  0.71205000  0.61419000  0.01093000  1.0
  C  C136  1  0.70116000  0.98910000  0.60318000  1.0
  C  C137  1  0.09759000  0.39671000  0.38590000  1.0
  C  C138  1  0.85571000  0.64432000  0.08598000  1.0
  C  C139  1  0.76972000  0.91403000  0.55821000  1.0
  C  C140  1  0.21107000  0.44157000  0.35566000  1.0
  N  N141  1  0.20730000  0.58618000  0.25491000  1.0
  N  N142  1  0.95263000  0.74510000  0.33146000  1.0
  N  N143  1  0.62116000  0.66855000  0.41358000  1.0
  N  N144  1  0.43507000  0.33127000  0.74525000  1.0
  N  N145  1  0.68994000  0.25480000  0.58605000  1.0
  N  N146  1  0.10392000  0.41395000  0.66878000  1.0
  N  N147  1  0.06053000  0.55832000  0.23688000  1.0
  N  N148  1  0.82389000  0.76309000  0.32143000  1.0
  N  N149  1  0.50238000  0.67850000  0.44156000  1.0
  N  N150  1  0.48732000  0.37699000  0.04057000  1.0
  N  N151  1  0.44699000  0.95949000  0.33640000  1.0
  N  N152  1  0.11080000  0.66358000  0.62304000  1.0
  N  N153  1  0.95145000  0.34293000  0.96159000  1.0
  N  N154  1  0.99028000  0.03844000  0.38148000  1.0
  N  N155  1  0.60885000  0.61853000  0.65692000  1.0
  N  N156  1  0.30685000  0.31943000  0.76392000  1.0
  N  N157  1  0.54306000  0.23612000  0.55554000  1.0
  N  N158  1  0.98765000  0.44455000  0.68071000  1.0
  O  O159  1  0.57552000  0.55549000  0.20086000  1.0
  O  O160  1  0.37492000  0.79902000  0.35448000  1.0
  O  O161  1  0.02044000  0.64539000  0.44454000  1.0
  O  O162  1  0.86563000  0.36032000  0.80281000  1.0
  O  O163  1  0.06319000  0.19720000  0.55768000  1.0
  O  O164  1  0.50561000  0.44232000  0.63945000  1.0
  O  O165  1  0.98770000  0.26214000  0.73968000  1.0
  O  O166  1  0.24836000  0.26041000  0.52261000  1.0
  O  O167  1  0.72561000  0.47739000  0.73789000  1.0
  O  O168  1  0.76848000  0.51797000  0.25061000  1.0
  O  O169  1  0.51832000  0.74952000  0.26728000  1.0
  O  O170  1  0.25093000  0.73270000  0.48204000  1.0
  O  O171  1  0.69924000  0.39018000  0.00612000  1.0
  O  O172  1  0.69335000  0.99401000  0.38396000  1.0
  O  O173  1  0.30961000  0.61604000  0.61005000  1.0
  O  O174  1  0.19267000  0.36168000  0.99747000  1.0
  O  O175  1  0.19561000  0.00258000  0.36431000  1.0
  O  O176  1  0.83124000  0.63553000  0.63801000  1.0
  O  O177  1  0.34156000  0.62550000  0.03353000  1.0
  O  O178  1  0.30812000  0.96656000  0.59205000  1.0
  O  O179  1  0.71571000  0.40790000  0.37452000  1.0
  O  O180  1  0.99848000  0.56024000  0.99049000  1.0
  O  O181  1  0.00808000  0.00951000  0.56962000  1.0
  O  O182  1  0.43812000  0.43036000  0.43976000  1.0
