# generated using pymatgen
data_TlBH12(C3N2)4
_symmetry_space_group_name_H-M   'P 1'
_cell_length_a   8.42999000
_cell_length_b   8.95201000
_cell_length_c   10.18050000
_cell_angle_alpha   92.84110000
_cell_angle_beta   99.46670000
_cell_angle_gamma   104.85200000
_symmetry_Int_Tables_number   1
_chemical_formula_structural   TlBH12(C3N2)4
_chemical_formula_sum   'Tl2 B2 H24 C24 N16'
_cell_volume   729.09688405
_cell_formula_units_Z   2
loop_
 _symmetry_equiv_pos_site_id
 _symmetry_equiv_pos_as_xyz
  1  'x, y, z'
loop_
 _atom_site_type_symbol
 _atom_site_label
 _atom_site_symmetry_multiplicity
 _atom_site_fract_x
 _atom_site_fract_y
 _atom_site_fract_z
 _atom_site_occupancy
  Tl  Tl0  1  0.54460000  0.81675000  0.61689000  1.0
  Tl  Tl1  1  0.45539000  0.18325000  0.38311000  1.0
  B  B2  1  0.09721000  0.21636000  0.77890000  1.0
  B  B3  1  0.90279000  0.78365000  0.22110000  1.0
  H  H4  1  0.35122000  0.51471000  0.80830000  1.0
  H  H5  1  0.64878000  0.48529000  0.19170000  1.0
  H  H6  1  0.23663000  0.44627000  0.38851000  1.0
  H  H7  1  0.76337000  0.55372000  0.61149000  1.0
  H  H8  1  0.04657000  0.19316000  0.49050000  1.0
  H  H9  1  0.95343000  0.80682000  0.50950000  1.0
  H  H10  1  0.31126000  0.09703000  0.97651000  1.0
  H  H11  1  0.68874000  0.90297000  0.02349000  1.0
  H  H12  1  0.32851000  0.51152000  0.19921000  1.0
  H  H13  1  0.67150000  0.48849000  0.80079000  1.0
  H  H14  1  0.12272000  0.49108000  0.95389000  1.0
  H  H15  1  0.87729000  0.50892000  0.04611000  1.0
  H  H16  1  0.34695000  0.11610000  0.66811000  1.0
  H  H17  1  0.65304000  0.88390000  0.33189000  1.0
  H  H18  1  0.08480000  0.68145000  0.76546000  1.0
  H  H19  1  0.91520000  0.31855000  0.23454000  1.0
  H  H20  1  0.91626000  0.89895000  0.82085000  1.0
  H  H21  1  0.08374000  0.10105000  0.17915000  1.0
  H  H22  1  0.83627000  0.27331000  0.57121000  1.0
  H  H23  1  0.16373000  0.72669000  0.42879000  1.0
  H  H24  1  0.55697000  0.16611000  0.87683000  1.0
  H  H25  1  0.44303000  0.83389000  0.12317000  1.0
  H  H26  1  0.87935000  0.15236000  0.96944000  1.0
  H  H27  1  0.12066000  0.84764000  0.03056000  1.0
  C  C28  1  0.29383000  0.46333000  0.70750000  1.0
  C  C29  1  0.70616000  0.53666000  0.29250000  1.0
  C  C30  1  0.23269000  0.42305000  0.49156000  1.0
  C  C31  1  0.76731000  0.57695000  0.50844000  1.0
  C  C32  1  0.13659000  0.29735000  0.54104000  1.0
  C  C33  1  0.86341000  0.70264000  0.45895000  1.0
  C  C34  1  0.29031000  0.20758000  0.00555000  1.0
  C  C35  1  0.70970000  0.79242000  0.99445000  1.0
  C  C36  1  0.29332000  0.42000000  0.11751000  1.0
  C  C37  1  0.70670000  0.58001000  0.88249000  1.0
  C  C38  1  0.19142000  0.41212000  0.99547000  1.0
  C  C39  1  0.80858000  0.58789000  0.00453000  1.0
  C  C40  1  0.25231000  0.02518000  0.69984000  1.0
  C  C41  1  0.74768000  0.97482000  0.30015000  1.0
  C  C42  1  0.11604000  0.80486000  0.75381000  1.0
  C  C43  1  0.88395000  0.19515000  0.24620000  1.0
  C  C44  1  0.03026000  0.91148000  0.78118000  1.0
  C  C45  1  0.96974000  0.08852000  0.21883000  1.0
  C  C46  1  0.80139000  0.24045000  0.66585000  1.0
  C  C47  1  0.19861000  0.75956000  0.33415000  1.0
  C  C48  1  0.66164000  0.18356000  0.82462000  1.0
  C  C49  1  0.33836000  0.81644000  0.17538000  1.0
  C  C50  1  0.82166000  0.17635000  0.87248000  1.0
  C  C51  1  0.17834000  0.82365000  0.12752000  1.0
  N  N52  1  0.33102000  0.52587000  0.59691000  1.0
  N  N53  1  0.66898000  0.47413000  0.40309000  1.0
  N  N54  1  0.17570000  0.32383000  0.67930000  1.0
  N  N55  1  0.82430000  0.67616000  0.32070000  1.0
  N  N56  1  0.35441000  0.29066000  0.12315000  1.0
  N  N57  1  0.64559000  0.70935000  0.87685000  1.0
  N  N58  1  0.18998000  0.27600000  0.92361000  1.0
  N  N59  1  0.81003000  0.72400000  0.07639000  1.0
  N  N60  1  0.25497000  0.87733000  0.70262000  1.0
  N  N61  1  0.74502000  0.12266000  0.29737000  1.0
  N  N62  1  0.11794000  0.05253000  0.74594000  1.0
  N  N63  1  0.88206000  0.94747000  0.25407000  1.0
  N  N64  1  0.64958000  0.22415000  0.69462000  1.0
  N  N65  1  0.35043000  0.77585000  0.30538000  1.0
  N  N66  1  0.91140000  0.21292000  0.77060000  1.0
  N  N67  1  0.08860000  0.78709000  0.22940000  1.0
