# generated using pymatgen
data_TmH16C18N3O8
_symmetry_space_group_name_H-M   'P 1'
_cell_length_a   9.54941000
_cell_length_b   11.41740000
_cell_length_c   11.54742929
_cell_angle_alpha   119.62663820
_cell_angle_beta   109.97001532
_cell_angle_gamma   90.00140000
_symmetry_Int_Tables_number   1
_chemical_formula_structural   TmH16C18N3O8
_chemical_formula_sum   'Tm2 H32 C36 N6 O16'
_cell_volume   1006.39859797
_cell_formula_units_Z   2
loop_
 _symmetry_equiv_pos_site_id
 _symmetry_equiv_pos_as_xyz
  1  'x, y, z'
loop_
 _atom_site_type_symbol
 _atom_site_label
 _atom_site_symmetry_multiplicity
 _atom_site_fract_x
 _atom_site_fract_y
 _atom_site_fract_z
 _atom_site_occupancy
  Tm  Tm0  1  0.25000000  0.53206000  0.00000000  1.0
  Tm  Tm1  1  0.74999000  0.46794000  1.00000000  1.0
  H  H2  1  0.14741000  0.24567000  0.92361000  1.0
  H  H3  1  0.35259000  0.32206000  0.07638000  1.0
  H  H4  1  0.85259000  0.75434000  0.07639000  1.0
  H  H5  1  0.64740000  0.67795000  0.92362000  1.0
  H  H6  1  0.99659000  0.29787000  0.88028000  1.0
  H  H7  1  0.50341000  0.41761000  0.11974000  1.0
  H  H8  1  0.00341000  0.70213000  0.11972000  1.0
  H  H9  1  0.49659000  0.58239000  0.88026000  1.0
  H  H10  1  0.90334000  0.70217000  0.38295000  1.0
  H  H11  1  0.59667000  0.31922000  0.61706000  1.0
  H  H12  1  0.09666000  0.29782000  0.61705000  1.0
  H  H13  1  0.40334000  0.68078000  0.38294000  1.0
  H  H14  1  0.07414000  0.89516000  0.63173000  1.0
  H  H15  1  0.42586000  0.26343000  0.36828000  1.0
  H  H16  1  0.92586000  0.10484000  0.36826000  1.0
  H  H17  1  0.57414000  0.73659000  0.63173000  1.0
  H  H18  1  0.73732000  0.12327000  0.66275000  1.0
  H  H19  1  0.76268000  0.46052000  0.33724000  1.0
  H  H20  1  0.26268000  0.87672000  0.33724000  1.0
  H  H21  1  0.23732000  0.53948000  0.66276000  1.0
  H  H22  1  0.55200000  0.93857000  0.41365000  1.0
  H  H23  1  0.94800000  0.52493000  0.58635000  1.0
  H  H24  1  0.44801000  0.06141000  0.58634000  1.0
  H  H25  1  0.05200000  0.47507000  0.41366000  1.0
  H  H26  1  0.14450000  0.99590000  0.15439000  1.0
  H  H27  1  0.35550000  0.84152000  0.84561000  1.0
  H  H28  1  0.85551000  0.00410000  0.84562000  1.0
  H  H29  1  0.64449000  0.15848000  0.15438000  1.0
  H  H30  1  0.14980000  0.21479000  0.14910000  1.0
  H  H31  1  0.35021000  0.06570000  0.85090000  1.0
  H  H32  1  0.85021000  0.78522000  0.85092000  1.0
  H  H33  1  0.64978000  0.93429000  0.14909000  1.0
  C  C34  1  0.60388000  0.68852000  0.23792000  1.0
  C  C35  1  0.89613000  0.45060000  0.76208000  1.0
  C  C36  1  0.39612000  0.31147000  0.76208000  1.0
  C  C37  1  0.10387000  0.54940000  0.23792000  1.0
  C  C38  1  0.71351000  0.80549000  0.38164000  1.0
  C  C39  1  0.78649000  0.42385000  0.61836000  1.0
  C  C40  1  0.28649000  0.19450000  0.61835000  1.0
  C  C41  1  0.21351000  0.57614000  0.38164000  1.0
  C  C42  1  0.86305000  0.79396000  0.44241000  1.0
  C  C43  1  0.63695000  0.35155000  0.55760000  1.0
  C  C44  1  0.13695000  0.20603000  0.55758000  1.0
  C  C45  1  0.36305000  0.64845000  0.44240000  1.0
  C  C46  1  0.95718000  0.90174000  0.58042000  1.0
  C  C47  1  0.54282000  0.32132000  0.41959000  1.0
  C  C48  1  0.04282000  0.09826000  0.41957000  1.0
  C  C49  1  0.45718000  0.67869000  0.58042000  1.0
  C  C50  1  0.77033000  0.02859000  0.59712000  1.0
  C  C51  1  0.72967000  0.43148000  0.40288000  1.0
  C  C52  1  0.22967000  0.97140000  0.40288000  1.0
  C  C53  1  0.27033000  0.56852000  0.59712000  1.0
  C  C54  1  0.66734000  0.92651000  0.45991000  1.0
  C  C55  1  0.83267000  0.46661000  0.54009000  1.0
  C  C56  1  0.33267000  0.07348000  0.54009000  1.0
  C  C57  1  0.16733000  0.53339000  0.45991000  1.0
  C  C58  1  0.25001000  0.77259000  0.00000000  1.0
  C  C59  1  0.75000000  0.22741000  0.00000000  1.0
  C  C60  1  0.25000000  0.90389000  0.00000000  1.0
  C  C61  1  0.75000000  0.09612000  1.00000000  1.0
  C  C62  1  0.19136000  0.00926000  0.08676000  1.0
  C  C63  1  0.30865000  0.92250000  0.91324000  1.0
  C  C64  1  0.80864000  0.99075000  0.91324000  1.0
  C  C65  1  0.69135000  0.07750000  0.08676000  1.0
  C  C66  1  0.19412000  0.12937000  0.08349000  1.0
  C  C67  1  0.30589000  0.04588000  0.91651000  1.0
  C  C68  1  0.80588000  0.87064000  0.91652000  1.0
  C  C69  1  0.69410000  0.95412000  0.08349000  1.0
  N  N70  1  0.91277000  0.01646000  0.65849000  1.0
  N  N71  1  0.58723000  0.35798000  0.34152000  1.0
  N  N72  1  0.08723000  0.98354000  0.34151000  1.0
  N  N73  1  0.41277000  0.64203000  0.65848000  1.0
  N  N74  1  0.25001000  0.14773000  0.00000000  1.0
  N  N75  1  0.74999000  0.85227000  0.00000000  1.0
  O  O76  1  0.46465000  0.69522000  0.19776000  1.0
  O  O77  1  0.03536000  0.49746000  0.80223000  1.0
  O  O78  1  0.53535000  0.30478000  0.80225000  1.0
  O  O79  1  0.96464000  0.50254000  0.19777000  1.0
  O  O80  1  0.65705000  0.58687000  0.16686000  1.0
  O  O81  1  0.84296000  0.42002000  0.83315000  1.0
  O  O82  1  0.34295000  0.41313000  0.83314000  1.0
  O  O83  1  0.15705000  0.57998000  0.16685000  1.0
  O  O84  1  0.10542000  0.31505000  0.90162000  1.0
  O  O85  1  0.39457000  0.41343000  0.09837000  1.0
  O  O86  1  0.89458000  0.68495000  0.09837000  1.0
  O  O87  1  0.60542000  0.58658000  0.90163000  1.0
  O  O88  1  0.32132000  0.68586000  0.93494000  1.0
  O  O89  1  0.17870000  0.75091000  0.06506000  1.0
  O  O90  1  0.67869000  0.31415000  0.06507000  1.0
  O  O91  1  0.82131000  0.24908000  0.93494000  1.0
