# generated using pymatgen
data_Nd2P3H34C27N3O17
_symmetry_space_group_name_H-M   'P 1'
_cell_length_a   6.93265000
_cell_length_b   20.98610000
_cell_length_c   27.74940000
_cell_angle_alpha   107.34200000
_cell_angle_beta   89.99910000
_cell_angle_gamma   89.99880000
_symmetry_Int_Tables_number   1
_chemical_formula_structural   Nd2P3H34C27N3O17
_chemical_formula_sum   'Nd8 P12 H136 C108 N12 O68'
_cell_volume   3853.71776570
_cell_formula_units_Z   4
loop_
 _symmetry_equiv_pos_site_id
 _symmetry_equiv_pos_as_xyz
  1  'x, y, z'
loop_
 _atom_site_type_symbol
 _atom_site_label
 _atom_site_symmetry_multiplicity
 _atom_site_fract_x
 _atom_site_fract_y
 _atom_site_fract_z
 _atom_site_occupancy
  Nd  Nd0  1  0.91218000  0.90104000  0.66590000  1.0
  Nd  Nd1  1  0.07321000  0.75966000  0.22202000  1.0
  Nd  Nd2  1  0.41218000  0.09897000  0.83410000  1.0
  Nd  Nd3  1  0.57321000  0.24032000  0.27798000  1.0
  Nd  Nd4  1  0.08742000  0.09895000  0.33415000  1.0
  Nd  Nd5  1  0.92706000  0.24042000  0.77802000  1.0
  Nd  Nd6  1  0.58741000  0.90103000  0.16584000  1.0
  Nd  Nd7  1  0.42705000  0.75960000  0.72199000  1.0
  P  P8  1  0.91219000  0.92521000  0.28057000  1.0
  P  P9  1  0.92599000  0.72943000  0.67704000  1.0
  P  P10  1  0.41279000  0.83478000  0.62287000  1.0
  P  P11  1  0.41218000  0.07479000  0.21940000  1.0
  P  P12  1  0.42598000  0.27059000  0.82297000  1.0
  P  P13  1  0.91277000  0.16523000  0.87713000  1.0
  P  P14  1  0.08696000  0.07492000  0.71942000  1.0
  P  P15  1  0.07414000  0.27055000  0.32297000  1.0
  P  P16  1  0.58697000  0.16530000  0.37714000  1.0
  P  P17  1  0.58696000  0.92509000  0.78059000  1.0
  P  P18  1  0.57415000  0.72944000  0.17703000  1.0
  P  P19  1  0.08695000  0.83467000  0.12286000  1.0
  H  H20  1  0.65020000  0.00451000  0.34569000  1.0
  H  H21  1  0.74764000  0.60858000  0.68382000  1.0
  H  H22  1  0.99264000  0.59411000  0.67728000  1.0
  H  H23  1  0.04255000  0.78453000  0.54592000  1.0
  H  H24  1  0.13451000  0.75175000  0.58910000  1.0
  H  H25  1  0.82698000  0.90278000  0.35735000  1.0
  H  H26  1  0.67624000  0.85749000  0.30643000  1.0
  H  H27  1  0.38528000  0.00152000  0.39228000  1.0
  H  H28  1  0.35072000  0.91530000  0.36243000  1.0
  H  H29  1  0.43723000  0.83734000  0.40110000  1.0
  H  H30  1  0.60965000  0.80229000  0.46755000  1.0
  H  H31  1  0.85784000  0.99784000  0.52354000  1.0
  H  H32  1  0.70463000  0.03055000  0.45332000  1.0
  H  H33  1  0.74460000  0.64745000  0.61076000  1.0
  H  H34  1  0.00178000  0.63282000  0.60507000  1.0
  H  H35  1  0.94709000  0.51269000  0.59716000  1.0
  H  H36  1  0.69146000  0.52473000  0.60462000  1.0
  H  H37  1  0.52711000  0.49955000  0.67823000  1.0
  H  H38  1  0.54222000  0.45054000  0.74921000  1.0
  H  H39  1  0.12303000  0.38597000  0.70811000  1.0
  H  H40  1  0.11746000  0.44284000  0.64085000  1.0
  H  H41  1  0.01538000  0.76189000  0.37771000  1.0
  H  H42  1  0.94376000  0.74521000  0.46093000  1.0
  H  H43  1  0.27735000  0.65741000  0.52735000  1.0
  H  H44  1  0.02690000  0.66701000  0.51685000  1.0
  H  H45  1  0.47057000  0.76081000  0.53897000  1.0
  H  H46  1  0.33502000  0.83134000  0.53574000  1.0
  H  H47  1  0.49220000  0.64676000  0.45654000  1.0
  H  H48  1  0.56350000  0.66411000  0.37299000  1.0
  H  H49  1  0.47280000  0.71435000  0.26244000  1.0
  H  H50  1  0.02026000  0.92833000  0.77879000  1.0
  H  H51  1  0.21383000  0.89699000  0.75103000  1.0
  H  H52  1  0.10388000  0.67969000  0.11286000  1.0
  H  H53  1  0.15735000  0.61584000  0.12894000  1.0
  H  H54  1  0.15015000  0.99550000  0.15428000  1.0
  H  H55  1  0.24762000  0.39144000  0.81619000  1.0
  H  H56  1  0.49263000  0.40590000  0.82272000  1.0
  H  H57  1  0.54251000  0.21548000  0.95409000  1.0
  H  H58  1  0.63447000  0.24826000  0.91090000  1.0
  H  H59  1  0.32694000  0.09721000  0.14262000  1.0
  H  H60  1  0.17622000  0.14251000  0.19354000  1.0
  H  H61  1  0.88518000  0.99851000  0.10771000  1.0
  H  H62  1  0.85069000  0.08474000  0.13758000  1.0
  H  H63  1  0.93713000  0.16268000  0.09890000  1.0
  H  H64  1  0.10958000  0.19775000  0.03245000  1.0
  H  H65  1  0.35779000  0.00220000  0.97645000  1.0
  H  H66  1  0.20460000  0.96947000  0.04667000  1.0
  H  H67  1  0.24457000  0.35257000  0.88924000  1.0
  H  H68  1  0.50174000  0.36720000  0.89494000  1.0
  H  H69  1  0.44713000  0.48732000  0.90284000  1.0
  H  H70  1  0.19148000  0.47531000  0.89538000  1.0
  H  H71  1  0.02717000  0.50045000  0.82176000  1.0
  H  H72  1  0.04228000  0.54947000  0.75078000  1.0
  H  H73  1  0.62309000  0.61403000  0.79188000  1.0
  H  H74  1  0.61751000  0.55717000  0.85914000  1.0
  H  H75  1  0.51533000  0.23813000  0.12230000  1.0
  H  H76  1  0.44373000  0.25479000  0.03907000  1.0
  H  H77  1  0.77729000  0.34260000  0.97266000  1.0
  H  H78  1  0.52686000  0.33300000  0.98315000  1.0
  H  H79  1  0.97053000  0.23919000  0.96104000  1.0
  H  H80  1  0.83499000  0.16867000  0.96426000  1.0
  H  H81  1  0.99215000  0.35325000  0.04346000  1.0
  H  H82  1  0.06345000  0.33591000  0.12701000  1.0
  H  H83  1  0.97278000  0.28565000  0.23756000  1.0
  H  H84  1  0.52027000  0.07167000  0.72121000  1.0
  H  H85  1  0.71382000  0.10302000  0.74897000  1.0
  H  H86  1  0.60384000  0.32028000  0.38714000  1.0
  H  H87  1  0.65732000  0.38414000  0.37108000  1.0
  H  H88  1  0.34906000  0.99548000  0.65423000  1.0
  H  H89  1  0.25264000  0.39133000  0.31621000  1.0
  H  H90  1  0.00772000  0.40590000  0.32273000  1.0
  H  H91  1  0.95752000  0.21565000  0.45412000  1.0
  H  H92  1  0.86528000  0.24832000  0.41089000  1.0
  H  H93  1  0.17190000  0.09701000  0.64249000  1.0
  H  H94  1  0.32266000  0.14250000  0.69332000  1.0
  H  H95  1  0.61425000  0.99857000  0.60776000  1.0
  H  H96  1  0.64861000  0.08477000  0.63770000  1.0
  H  H97  1  0.56347000  0.16267000  0.59890000  1.0
  H  H98  1  0.39145000  0.19791000  0.53248000  1.0
  H  H99  1  0.14147000  0.00264000  0.47654000  1.0
  H  H100  1  0.29423000  0.96976000  0.54675000  1.0
  H  H101  1  0.25529000  0.35251000  0.38931000  1.0
  H  H102  1  0.99812000  0.36718000  0.39492000  1.0
  H  H103  1  0.05345000  0.48729000  0.40287000  1.0
  H  H104  1  0.30905000  0.47515000  0.39541000  1.0
  H  H105  1  0.47337000  0.50011000  0.32166000  1.0
  H  H106  1  0.45840000  0.54922000  0.25073000  1.0
  H  H107  1  0.87814000  0.61431000  0.29212000  1.0
  H  H108  1  0.88354000  0.55733000  0.35931000  1.0
  H  H109  1  0.98524000  0.23857000  0.62239000  1.0
  H  H110  1  0.05653000  0.25519000  0.53913000  1.0
  H  H111  1  0.72225000  0.34264000  0.47263000  1.0
  H  H112  1  0.97273000  0.33312000  0.48312000  1.0
  H  H113  1  0.52940000  0.23918000  0.46110000  1.0
  H  H114  1  0.66514000  0.16866000  0.46424000  1.0
  H  H115  1  0.50719000  0.35304000  0.54338000  1.0
  H  H116  1  0.43621000  0.33573000  0.62696000  1.0
  H  H117  1  0.52737000  0.28570000  0.73755000  1.0
  H  H118  1  0.97888000  0.07164000  0.22125000  1.0
  H  H119  1  0.78541000  0.10287000  0.24912000  1.0
  H  H120  1  0.89597000  0.32025000  0.88719000  1.0
  H  H121  1  0.84278000  0.38416000  0.87116000  1.0
  H  H122  1  0.84908000  0.00452000  0.84577000  1.0
  H  H123  1  0.75263000  0.60867000  0.18381000  1.0
  H  H124  1  0.50770000  0.59410000  0.17728000  1.0
  H  H125  1  0.45752000  0.78432000  0.04587000  1.0
  H  H126  1  0.36531000  0.75166000  0.08910000  1.0
  H  H127  1  0.67191000  0.90299000  0.85752000  1.0
  H  H128  1  0.82265000  0.85750000  0.80668000  1.0
  H  H129  1  0.11431000  0.00140000  0.89222000  1.0
  H  H130  1  0.14861000  0.91520000  0.86228000  1.0
  H  H131  1  0.06358000  0.83733000  0.90110000  1.0
  H  H132  1  0.89151000  0.80208000  0.96751000  1.0
  H  H133  1  0.64139000  0.99733000  0.02344000  1.0
  H  H134  1  0.79420000  0.03023000  0.95324000  1.0
  H  H135  1  0.75534000  0.64747000  0.11070000  1.0
  H  H136  1  0.49818000  0.63280000  0.10508000  1.0
  H  H137  1  0.55344000  0.51270000  0.09716000  1.0
  H  H138  1  0.80905000  0.52484000  0.10460000  1.0
  H  H139  1  0.97338000  0.49990000  0.17837000  1.0
  H  H140  1  0.95840000  0.45079000  0.24929000  1.0
  H  H141  1  0.37818000  0.38570000  0.20791000  1.0
  H  H142  1  0.38359000  0.44267000  0.14072000  1.0
  H  H143  1  0.48525000  0.76141000  0.87760000  1.0
  H  H144  1  0.55654000  0.74478000  0.96086000  1.0
  H  H145  1  0.22223000  0.65735000  0.02737000  1.0
  H  H146  1  0.47271000  0.66684000  0.01688000  1.0
  H  H147  1  0.02942000  0.76079000  0.03889000  1.0
  H  H148  1  0.16514000  0.83132000  0.03576000  1.0
  H  H149  1  0.00721000  0.64693000  0.95661000  1.0
  H  H150  1  0.93623000  0.66425000  0.87304000  1.0
  H  H151  1  0.02738000  0.71430000  0.76245000  1.0
  H  H152  1  0.47889000  0.92836000  0.27874000  1.0
  H  H153  1  0.28543000  0.89710000  0.25088000  1.0
  H  H154  1  0.39600000  0.67976000  0.61282000  1.0
  H  H155  1  0.34279000  0.61585000  0.62885000  1.0
  C  C156  1  0.74246000  0.90658000  0.32455000  1.0
  C  C157  1  0.46107000  0.95347000  0.37876000  1.0
  C  C158  1  0.55861000  0.93616000  0.42215000  1.0
  C  C159  1  0.53249000  0.87235000  0.42741000  1.0
  C  C160  1  0.62694000  0.85275000  0.46493000  1.0
  C  C161  1  0.74582000  0.89771000  0.49996000  1.0
  C  C162  1  0.76839000  0.96236000  0.49587000  1.0
  C  C163  1  0.67983000  0.98075000  0.45681000  1.0
  C  C164  1  0.84977000  0.87503000  0.53957000  1.0
  C  C165  1  0.87954000  0.64664000  0.63133000  1.0
  C  C166  1  0.82819000  0.52424000  0.62448000  1.0
  C  C167  1  0.82502000  0.47836000  0.65707000  1.0
  C  C168  1  0.66013000  0.47666000  0.68588000  1.0
  C  C169  1  0.66748000  0.44835000  0.72518000  1.0
  C  C170  1  0.83781000  0.41862000  0.73500000  1.0
  C  C171  1  0.99460000  0.41246000  0.70194000  1.0
  C  C172  1  0.98976000  0.44335000  0.66390000  1.0
  C  C173  1  0.85794000  0.39836000  0.78229000  1.0
  C  C174  1  0.32045000  0.72519000  0.32106000  1.0
  C  C175  1  0.29281000  0.71379000  0.37051000  1.0
  C  C176  1  0.11749000  0.73599000  0.39510000  1.0
  C  C177  1  0.07680000  0.72562000  0.44098000  1.0
  C  C178  1  0.21218000  0.69389000  0.46361000  1.0
  C  C179  1  0.17088000  0.68846000  0.51551000  1.0
  C  C180  1  0.35228000  0.79458000  0.55642000  1.0
  C  C181  1  0.38672000  0.67139000  0.43889000  1.0
  C  C182  1  0.42776000  0.68116000  0.39236000  1.0
  C  C183  1  0.24244000  0.09343000  0.17542000  1.0
  C  C184  1  0.96100000  0.04656000  0.12124000  1.0
  C  C185  1  0.05855000  0.06386000  0.07784000  1.0
  C  C186  1  0.03241000  0.12768000  0.07258000  1.0
  C  C187  1  0.12687000  0.14728000  0.03507000  1.0
  C  C188  1  0.24578000  0.10232000  0.00004000  1.0
  C  C189  1  0.26833000  0.03767000  0.00413000  1.0
  C  C190  1  0.17977000  0.01928000  0.04318000  1.0
  C  C191  1  0.34973000  0.12499000  0.96044000  1.0
  C  C192  1  0.37952000  0.35338000  0.86868000  1.0
  C  C193  1  0.32821000  0.47577000  0.87552000  1.0
  C  C194  1  0.32507000  0.52165000  0.84293000  1.0
  C  C195  1  0.16018000  0.52334000  0.81411000  1.0
  C  C196  1  0.16753000  0.55165000  0.77481000  1.0
  C  C197  1  0.33786000  0.58139000  0.76499000  1.0
  C  C198  1  0.49464000  0.58755000  0.79805000  1.0
  C  C199  1  0.48982000  0.55666000  0.83609000  1.0
  C  C200  1  0.35798000  0.60166000  0.71771000  1.0
  C  C201  1  0.82041000  0.27481000  0.17895000  1.0
  C  C202  1  0.79277000  0.28622000  0.12950000  1.0
  C  C203  1  0.61745000  0.26402000  0.10491000  1.0
  C  C204  1  0.57677000  0.27439000  0.05903000  1.0
  C  C205  1  0.71215000  0.30612000  0.03639000  1.0
  C  C206  1  0.67085000  0.31155000  0.98449000  1.0
  C  C207  1  0.85225000  0.20543000  0.94358000  1.0
  C  C208  1  0.88667000  0.32862000  0.06112000  1.0
  C  C209  1  0.92772000  0.31885000  0.10764000  1.0
  C  C210  1  0.25650000  0.09337000  0.67531000  1.0
  C  C211  1  0.53836000  0.04661000  0.62129000  1.0
  C  C212  1  0.44122000  0.06399000  0.57788000  1.0
  C  C213  1  0.46794000  0.12778000  0.57260000  1.0
  C  C214  1  0.37370000  0.14746000  0.53509000  1.0
  C  C215  1  0.25441000  0.10262000  0.50009000  1.0
  C  C216  1  0.23130000  0.03800000  0.50419000  1.0
  C  C217  1  0.31961000  0.01953000  0.54325000  1.0
  C  C218  1  0.15035000  0.12538000  0.46055000  1.0
  C  C219  1  0.12049000  0.35333000  0.36870000  1.0
  C  C220  1  0.17235000  0.47569000  0.37555000  1.0
  C  C221  1  0.17571000  0.52159000  0.34298000  1.0
  C  C222  1  0.34053000  0.52314000  0.31409000  1.0
  C  C223  1  0.33324000  0.55151000  0.27483000  1.0
  C  C224  1  0.16309000  0.58143000  0.26510000  1.0
  C  C225  1  0.00646000  0.58770000  0.29822000  1.0
  C  C226  1  0.01115000  0.55674000  0.33622000  1.0
  C  C227  1  0.14282000  0.60175000  0.21784000  1.0
  C  C228  1  0.67994000  0.27505000  0.67900000  1.0
  C  C229  1  0.70739000  0.28638000  0.62952000  1.0
  C  C230  1  0.88287000  0.26433000  0.60497000  1.0
  C  C231  1  0.92338000  0.27467000  0.55907000  1.0
  C  C232  1  0.78768000  0.30623000  0.53638000  1.0
  C  C233  1  0.82882000  0.31163000  0.48448000  1.0
  C  C234  1  0.64768000  0.20544000  0.44359000  1.0
  C  C235  1  0.61295000  0.32856000  0.56107000  1.0
  C  C236  1  0.57209000  0.31883000  0.60762000  1.0
  C  C237  1  0.75651000  0.90663000  0.82469000  1.0
  C  C238  1  0.03839000  0.95338000  0.87870000  1.0
  C  C239  1  0.94125000  0.93600000  0.92211000  1.0
  C  C240  1  0.96799000  0.87222000  0.92740000  1.0
  C  C241  1  0.87374000  0.85253000  0.96490000  1.0
  C  C242  1  0.75440000  0.89736000  0.99989000  1.0
  C  C243  1  0.73127000  0.96198000  0.99579000  1.0
  C  C244  1  0.81959000  0.98046000  0.95674000  1.0
  C  C245  1  0.65034000  0.87460000  0.03943000  1.0
  C  C246  1  0.62052000  0.64666000  0.13131000  1.0
  C  C247  1  0.67236000  0.52429000  0.12447000  1.0
  C  C248  1  0.67574000  0.47842000  0.15705000  1.0
  C  C249  1  0.84055000  0.47687000  0.18594000  1.0
  C  C250  1  0.83326000  0.44849000  0.22520000  1.0
  C  C251  1  0.66312000  0.41857000  0.23492000  1.0
  C  C252  1  0.50649000  0.41230000  0.20180000  1.0
  C  C253  1  0.51118000  0.44326000  0.16380000  1.0
  C  C254  1  0.64282000  0.39824000  0.28218000  1.0
  C  C255  1  0.17994000  0.72494000  0.82100000  1.0
  C  C256  1  0.20740000  0.71361000  0.87047000  1.0
  C  C257  1  0.38288000  0.73565000  0.89503000  1.0
  C  C258  1  0.42339000  0.72530000  0.94093000  1.0
  C  C259  1  0.28768000  0.69374000  0.96361000  1.0
  C  C260  1  0.32881000  0.68834000  0.01552000  1.0
  C  C261  1  0.14768000  0.79453000  0.05641000  1.0
  C  C262  1  0.11297000  0.67142000  0.93893000  1.0
  C  C263  1  0.07211000  0.68116000  0.89238000  1.0
  N  N264  1  0.59129000  0.95769000  0.33760000  1.0
  N  N265  1  0.86174000  0.59481000  0.65818000  1.0
  N  N266  1  0.16882000  0.75606000  0.55361000  1.0
  N  N267  1  0.09125000  0.04231000  0.16239000  1.0
  N  N268  1  0.36173000  0.40521000  0.84183000  1.0
  N  N269  1  0.66879000  0.24395000  0.94639000  1.0
  N  N270  1  0.40781000  0.04231000  0.66236000  1.0
  N  N271  1  0.13860000  0.40515000  0.34185000  1.0
  N  N272  1  0.83105000  0.24402000  0.44639000  1.0
  N  N273  1  0.90783000  0.95769000  0.83764000  1.0
  N  N274  1  0.63859000  0.59485000  0.15817000  1.0
  N  N275  1  0.33107000  0.75596000  0.05360000  1.0
  O  O276  1  0.91791000  0.91756000  0.57839000  1.0
  O  O277  1  0.86499000  0.81145000  0.53068000  1.0
  O  O278  1  0.01669000  0.98868000  0.31013000  1.0
  O  O279  1  0.05918000  0.86606000  0.26813000  1.0
  O  O280  1  0.80838000  0.92836000  0.23321000  1.0
  O  O281  1  0.96079000  0.77564000  0.64525000  1.0
  O  O282  1  0.75280000  0.74556000  0.71251000  1.0
  O  O283  1  0.10165000  0.71787000  0.70810000  1.0
  O  O284  1  0.74047000  0.42146000  0.81833000  1.0
  O  O285  1  0.00097000  0.36053000  0.78494000  1.0
  O  O286  1  0.48687000  0.70740000  0.29756000  1.0
  O  O287  1  0.18689000  0.74995000  0.30244000  1.0
  O  O288  1  0.60928000  0.86641000  0.62476000  1.0
  O  O289  1  0.24843000  0.88242000  0.64516000  1.0
  O  O290  1  0.41325000  0.77232000  0.64320000  1.0
  O  O291  1  0.07394000  0.89893000  0.74547000  1.0
  O  O292  1  0.11226000  0.63042000  0.10019000  1.0
  O  O293  1  0.41792000  0.08247000  0.92162000  1.0
  O  O294  1  0.36494000  0.18858000  0.96933000  1.0
  O  O295  1  0.51662000  0.01131000  0.18985000  1.0
  O  O296  1  0.55921000  0.13393000  0.23183000  1.0
  O  O297  1  0.30841000  0.07167000  0.26678000  1.0
  O  O298  1  0.46077000  0.22437000  0.85476000  1.0
  O  O299  1  0.25281000  0.25445000  0.78750000  1.0
  O  O300  1  0.60166000  0.28215000  0.79191000  1.0
  O  O301  1  0.24052000  0.57857000  0.68166000  1.0
  O  O302  1  0.50100000  0.63949000  0.71507000  1.0
  O  O303  1  0.98685000  0.29260000  0.20244000  1.0
  O  O304  1  0.68684000  0.25006000  0.19757000  1.0
  O  O305  1  0.10928000  0.13361000  0.87524000  1.0
  O  O306  1  0.74845000  0.11759000  0.85484000  1.0
  O  O307  1  0.91324000  0.22769000  0.85680000  1.0
  O  O308  1  0.57394000  0.10107000  0.75453000  1.0
  O  O309  1  0.61221000  0.36955000  0.39982000  1.0
  O  O310  1  0.08168000  0.08290000  0.42178000  1.0
  O  O311  1  0.13538000  0.18897000  0.46945000  1.0
  O  O312  1  0.98249000  0.01136000  0.69005000  1.0
  O  O313  1  0.93989000  0.13406000  0.73172000  1.0
  O  O314  1  0.19090000  0.07205000  0.76684000  1.0
  O  O315  1  0.03912000  0.22432000  0.35473000  1.0
  O  O316  1  0.24745000  0.25444000  0.28755000  1.0
  O  O317  1  0.89857000  0.28209000  0.29187000  1.0
  O  O318  1  0.26004000  0.57860000  0.18174000  1.0
  O  O319  1  0.99984000  0.63964000  0.21525000  1.0
  O  O320  1  0.51329000  0.29263000  0.70244000  1.0
  O  O321  1  0.81384000  0.25054000  0.69770000  1.0
  O  O322  1  0.39038000  0.13374000  0.37525000  1.0
  O  O323  1  0.75113000  0.11759000  0.35482000  1.0
  O  O324  1  0.58671000  0.22777000  0.35682000  1.0
  O  O325  1  0.92540000  0.10106000  0.25459000  1.0
  O  O326  1  0.88767000  0.36952000  0.89989000  1.0
  O  O327  1  0.58170000  0.91708000  0.07821000  1.0
  O  O328  1  0.63538000  0.81101000  0.03054000  1.0
  O  O329  1  0.48250000  0.98865000  0.80996000  1.0
  O  O330  1  0.43988000  0.86595000  0.76829000  1.0
  O  O331  1  0.69090000  0.92796000  0.73317000  1.0
  O  O332  1  0.53914000  0.77566000  0.14526000  1.0
  O  O333  1  0.74744000  0.74555000  0.21245000  1.0
  O  O334  1  0.39858000  0.71790000  0.20813000  1.0
  O  O335  1  0.76001000  0.42140000  0.31829000  1.0
  O  O336  1  0.49987000  0.36035000  0.28477000  1.0
  O  O337  1  0.01329000  0.70736000  0.79756000  1.0
  O  O338  1  0.31382000  0.74946000  0.80231000  1.0
  O  O339  1  0.89034000  0.86621000  0.12475000  1.0
  O  O340  1  0.25111000  0.88238000  0.14518000  1.0
  O  O341  1  0.08672000  0.77219000  0.14317000  1.0
  O  O342  1  0.42542000  0.89893000  0.24540000  1.0
  O  O343  1  0.38769000  0.63050000  0.60012000  1.0
