# generated using pymatgen
data_AgH3C6NClO2
_symmetry_space_group_name_H-M   'P 1'
_cell_length_a   3.73941000
_cell_length_b   12.13090000
_cell_length_c   14.48250000
_cell_angle_alpha   90.00030000
_cell_angle_beta   89.63880000
_cell_angle_gamma   89.99960000
_symmetry_Int_Tables_number   1
_chemical_formula_structural   AgH3C6NClO2
_chemical_formula_sum   'Ag4 H12 C24 N4 Cl4 O8'
_cell_volume   656.94803053
_cell_formula_units_Z   4
loop_
 _symmetry_equiv_pos_site_id
 _symmetry_equiv_pos_as_xyz
  1  'x, y, z'
loop_
 _atom_site_type_symbol
 _atom_site_label
 _atom_site_symmetry_multiplicity
 _atom_site_fract_x
 _atom_site_fract_y
 _atom_site_fract_z
 _atom_site_occupancy
  Ag  Ag0  1  0.46894000  0.44115000  0.91759000  1.0
  Ag  Ag1  1  0.03105000  0.94116000  0.58241000  1.0
  Ag  Ag2  1  0.53105000  0.55885000  0.08241000  1.0
  Ag  Ag3  1  0.96897000  0.05885000  0.41759000  1.0
  H  H4  1  0.13331000  0.14988000  0.99734000  1.0
  H  H5  1  0.36671000  0.64988000  0.50266000  1.0
  H  H6  1  0.86669000  0.85013000  0.00266000  1.0
  H  H7  1  0.63329000  0.35012000  0.49734000  1.0
  H  H8  1  0.37854000  0.97540000  0.06990000  1.0
  H  H9  1  0.12150000  0.47541000  0.43010000  1.0
  H  H10  1  0.62150000  0.02461000  0.93010000  1.0
  H  H11  1  0.87849000  0.52460000  0.56991000  1.0
  H  H12  1  0.33083000  0.95522000  0.24229000  1.0
  H  H13  1  0.16922000  0.45522000  0.25770000  1.0
  H  H14  1  0.66922000  0.04478000  0.75770000  1.0
  H  H15  1  0.83077000  0.54478000  0.74230000  1.0
  C  C16  1  0.81863000  0.31981000  0.08099000  1.0
  C  C17  1  0.68138000  0.81981000  0.41901000  1.0
  C  C18  1  0.18135000  0.68019000  0.91901000  1.0
  C  C19  1  0.31861000  0.18019000  0.58099000  1.0
  C  C20  1  0.11632000  0.13516000  0.07141000  1.0
  C  C21  1  0.38369000  0.63516000  0.42859000  1.0
  C  C22  1  0.88368000  0.86485000  0.92859000  1.0
  C  C23  1  0.61631000  0.36484000  0.57141000  1.0
  C  C24  1  0.25146000  0.03958000  0.11114000  1.0
  C  C25  1  0.24857000  0.53958000  0.38886000  1.0
  C  C26  1  0.74857000  0.96043000  0.88886000  1.0
  C  C27  1  0.75142000  0.46042000  0.61114000  1.0
  C  C28  1  0.95951000  0.21717000  0.12661000  1.0
  C  C29  1  0.54049000  0.71717000  0.37338000  1.0
  C  C30  1  0.04048000  0.78283000  0.87338000  1.0
  C  C31  1  0.45951000  0.28283000  0.62662000  1.0
  C  C32  1  0.93783000  0.19457000  0.22171000  1.0
  C  C33  1  0.56219000  0.69457000  0.27829000  1.0
  C  C34  1  0.06218000  0.80543000  0.77829000  1.0
  C  C35  1  0.43781000  0.30543000  0.72172000  1.0
  C  C36  1  0.22253000  0.02659000  0.20632000  1.0
  C  C37  1  0.27751000  0.52659000  0.29368000  1.0
  C  C38  1  0.77751000  0.97342000  0.79368000  1.0
  C  C39  1  0.72248000  0.47341000  0.70633000  1.0
  N  N40  1  0.06237000  0.10233000  0.26013000  1.0
  N  N41  1  0.43767000  0.60234000  0.23986000  1.0
  N  N42  1  0.93766000  0.89767000  0.73986000  1.0
  N  N43  1  0.56232000  0.39766000  0.76014000  1.0
  Cl  Cl44  1  0.73034000  0.28342000  0.29850000  1.0
  Cl  Cl45  1  0.76968000  0.78342000  0.20150000  1.0
  Cl  Cl46  1  0.26966000  0.71658000  0.70150000  1.0
  Cl  Cl47  1  0.23031000  0.21657000  0.79850000  1.0
  O  O48  1  0.67319000  0.30419000  0.00293000  1.0
  O  O49  1  0.82681000  0.80420000  0.49706000  1.0
  O  O50  1  0.32679000  0.69580000  0.99706000  1.0
  O  O51  1  0.17315000  0.19581000  0.50295000  1.0
  O  O52  1  0.85807000  0.41076000  0.12300000  1.0
  O  O53  1  0.64192000  0.91076000  0.37700000  1.0
  O  O54  1  0.14189000  0.58924000  0.87700000  1.0
  O  O55  1  0.35810000  0.08924000  0.62300000  1.0
