# generated using pymatgen
data_CdH22C14(NO3)2
_symmetry_space_group_name_H-M   'P 1'
_cell_length_a   9.24489000
_cell_length_b   10.32680000
_cell_length_c   10.60710000
_cell_angle_alpha   114.86400000
_cell_angle_beta   100.95100000
_cell_angle_gamma   107.10600000
_symmetry_Int_Tables_number   1
_chemical_formula_structural   CdH22C14(NO3)2
_chemical_formula_sum   'Cd2 H44 C28 N4 O12'
_cell_volume   818.69899578
_cell_formula_units_Z   2
loop_
 _symmetry_equiv_pos_site_id
 _symmetry_equiv_pos_as_xyz
  1  'x, y, z'
loop_
 _atom_site_type_symbol
 _atom_site_label
 _atom_site_symmetry_multiplicity
 _atom_site_fract_x
 _atom_site_fract_y
 _atom_site_fract_z
 _atom_site_occupancy
  Cd  Cd0  1  0.18819000  0.45635000  0.36172000  1.0
  Cd  Cd1  1  0.81181000  0.54365000  0.63828000  1.0
  H  H2  1  0.88287000  0.30218000  0.34714000  1.0
  H  H3  1  0.11713000  0.69782000  0.65286000  1.0
  H  H4  1  0.98852000  0.30827000  0.48197000  1.0
  H  H5  1  0.01148000  0.69173000  0.51803000  1.0
  H  H6  1  0.50237000  0.61593000  0.38260000  1.0
  H  H7  1  0.49763000  0.38407000  0.61740000  1.0
  H  H8  1  0.44111000  0.75039000  0.46188000  1.0
  H  H9  1  0.55889000  0.24961000  0.53812000  1.0
  H  H10  1  0.08618000  0.22008000  0.01381000  1.0
  H  H11  1  0.91381000  0.77993000  0.98620000  1.0
  H  H12  1  0.12301000  0.98329000  0.84028000  1.0
  H  H13  1  0.87698000  0.01671000  0.15972000  1.0
  H  H14  1  0.30103000  0.88940000  0.95026000  1.0
  H  H15  1  0.69897000  0.11060000  0.04973000  1.0
  H  H16  1  0.40044000  0.27320000  0.38303000  1.0
  H  H17  1  0.59957000  0.72681000  0.61698000  1.0
  H  H18  1  0.46123000  0.90520000  0.16810000  1.0
  H  H19  1  0.53877000  0.09480000  0.83190000  1.0
  H  H20  1  0.61162000  0.10072000  0.25595000  1.0
  H  H21  1  0.38838000  0.89928000  0.74405000  1.0
  H  H22  1  0.31301000  0.83041000  0.31278000  1.0
  H  H23  1  0.68699000  0.16959000  0.68721000  1.0
  H  H24  1  0.25187000  0.98773000  0.35659000  1.0
  H  H25  1  0.74813000  0.01227000  0.64341000  1.0
  H  H26  1  0.74885000  0.10163000  0.45993000  1.0
  H  H27  1  0.25115000  0.89837000  0.54007000  1.0
  H  H28  1  0.61370000  0.89877000  0.37515000  1.0
  H  H29  1  0.38630000  0.10123000  0.62485000  1.0
  H  H30  1  0.53896000  0.45170000  0.13893000  1.0
  H  H31  1  0.46104000  0.54829000  0.86107000  1.0
  H  H32  1  0.61167000  0.30212000  0.09818000  1.0
  H  H33  1  0.38833000  0.69788000  0.90182000  1.0
  H  H34  1  0.64094000  0.47282000  0.93655000  1.0
  H  H35  1  0.35906000  0.52718000  0.06345000  1.0
  H  H36  1  0.73566000  0.34390000  0.92913000  1.0
  H  H37  1  0.26434000  0.65609000  0.07087000  1.0
  H  H38  1  0.85162000  0.53476000  0.96689000  1.0
  H  H39  1  0.14838000  0.46524000  0.03311000  1.0
  H  H40  1  0.92728000  0.77487000  0.22780000  1.0
  H  H41  1  0.07272000  0.22513000  0.77220000  1.0
  H  H42  1  0.83545000  0.74728000  0.35259000  1.0
  H  H43  1  0.16455000  0.25272000  0.64741000  1.0
  H  H44  1  0.71427000  0.71577000  0.18186000  1.0
  H  H45  1  0.28573000  0.28423000  0.81813000  1.0
  C  C46  1  0.16716000  0.17671000  0.05489000  1.0
  C  C47  1  0.83284000  0.82329000  0.94511000  1.0
  C  C48  1  0.18819000  0.04694000  0.96034000  1.0
  C  C49  1  0.81181000  0.95306000  0.03966000  1.0
  C  C50  1  0.28901000  0.99505000  0.02226000  1.0
  C  C51  1  0.71098000  0.00495000  0.97774000  1.0
  C  C52  1  0.37063000  0.07604000  0.17669000  1.0
  C  C53  1  0.62937000  0.92396000  0.82331000  1.0
  C  C54  1  0.34228000  0.20519000  0.26251000  1.0
  C  C55  1  0.65772000  0.79481000  0.73749000  1.0
  C  C56  1  0.49011000  0.02986000  0.24546000  1.0
  C  C57  1  0.50989000  0.97014000  0.75453000  1.0
  C  C58  1  0.34853000  0.95560000  0.39294000  1.0
  C  C59  1  0.65147000  0.04439000  0.60706000  1.0
  C  C60  1  0.63501000  0.02103000  0.45268000  1.0
  C  C61  1  0.36499000  0.97897000  0.54732000  1.0
  C  C62  1  0.93842000  0.50564000  0.21780000  1.0
  C  C63  1  0.06158000  0.49436000  0.78220000  1.0
  C  C64  1  0.78998000  0.52871000  0.15362000  1.0
  C  C65  1  0.21002000  0.47129000  0.84638000  1.0
  C  C66  1  0.64275000  0.42677000  0.17260000  1.0
  C  C67  1  0.35725000  0.57323000  0.82740000  1.0
  C  C68  1  0.67875000  0.45977000  0.33095000  1.0
  C  C69  1  0.32125000  0.54023000  0.66905000  1.0
  C  C70  1  0.75213000  0.46651000  0.98682000  1.0
  C  C71  1  0.24787000  0.53349000  0.01318000  1.0
  C  C72  1  0.81885000  0.70200000  0.23458000  1.0
  C  C73  1  0.18116000  0.29800000  0.76542000  1.0
  N  N74  1  0.24240000  0.25356000  0.20368000  1.0
  N  N75  1  0.75760000  0.74645000  0.79633000  1.0
  N  N76  1  0.50153000  0.05588000  0.39506000  1.0
  N  N77  1  0.49847000  0.94412000  0.60494000  1.0
  O  O78  1  0.04005000  0.61161000  0.34991000  1.0
  O  O79  1  0.95995000  0.38839000  0.65009000  1.0
  O  O80  1  0.95372000  0.38115000  0.14130000  1.0
  O  O81  1  0.04628000  0.61885000  0.85870000  1.0
  O  O82  1  0.65088000  0.56738000  0.42440000  1.0
  O  O83  1  0.34911000  0.43262000  0.57560000  1.0
  O  O84  1  0.74362000  0.38263000  0.37010000  1.0
  O  O85  1  0.25638000  0.61737000  0.62990000  1.0
  O  O86  1  0.97269000  0.27383000  0.37547000  1.0
  O  O87  1  0.02731000  0.72616000  0.62453000  1.0
  O  O88  1  0.40710000  0.64354000  0.37149000  1.0
  O  O89  1  0.59290000  0.35646000  0.62851000  1.0
