# generated using pymatgen
data_ZnH26C34(N3O2)2
_symmetry_space_group_name_H-M   'P 1'
_cell_length_a   9.58271000
_cell_length_b   11.34630000
_cell_length_c   14.33480000
_cell_angle_alpha   82.31640000
_cell_angle_beta   89.80020000
_cell_angle_gamma   75.69690000
_symmetry_Int_Tables_number   1
_chemical_formula_structural   ZnH26C34(N3O2)2
_chemical_formula_sum   'Zn2 H52 C68 N12 O8'
_cell_volume   1496.01701393
_cell_formula_units_Z   2
loop_
 _symmetry_equiv_pos_site_id
 _symmetry_equiv_pos_as_xyz
  1  'x, y, z'
loop_
 _atom_site_type_symbol
 _atom_site_label
 _atom_site_symmetry_multiplicity
 _atom_site_fract_x
 _atom_site_fract_y
 _atom_site_fract_z
 _atom_site_occupancy
  Zn  Zn0  1  0.47038000  0.11218000  0.32167000  1.0
  Zn  Zn1  1  0.52962000  0.88782000  0.67833000  1.0
  H  H2  1  0.63115000  0.39718000  0.64989000  1.0
  H  H3  1  0.36885000  0.60282000  0.35011000  1.0
  H  H4  1  0.60009000  0.27320000  0.52344000  1.0
  H  H5  1  0.39991000  0.72679000  0.47656000  1.0
  H  H6  1  0.60788000  0.84132000  0.44265000  1.0
  H  H7  1  0.39212000  0.15868000  0.55735000  1.0
  H  H8  1  0.72628000  0.16285000  0.20292000  1.0
  H  H9  1  0.27372000  0.83715000  0.79708000  1.0
  H  H10  1  0.97275000  0.12576000  0.13627000  1.0
  H  H11  1  0.02725000  0.87424000  0.86373000  1.0
  H  H12  1  0.15823000  0.93499000  0.18838000  1.0
  H  H13  1  0.84177000  0.06501000  0.81162000  1.0
  H  H14  1  0.10875000  0.77364000  0.30976000  1.0
  H  H15  1  0.89125000  0.22636000  0.69024000  1.0
  H  H16  1  0.82798000  0.67886000  0.50355000  1.0
  H  H17  1  0.17202000  0.32114000  0.49645000  1.0
  H  H18  1  0.99877000  0.69524000  0.46592000  1.0
  H  H19  1  0.00123000  0.30476000  0.53408000  1.0
  H  H20  1  0.67295000  0.61710000  0.36091000  1.0
  H  H21  1  0.32705000  0.38290000  0.63909000  1.0
  H  H22  1  0.69866000  0.44455000  0.26685000  1.0
  H  H23  1  0.30134000  0.55545000  0.73315000  1.0
  H  H24  1  0.14463000  0.35840000  0.29467000  1.0
  H  H25  1  0.85537000  0.64160000  0.70533000  1.0
  H  H26  1  0.13788000  0.52754000  0.38865000  1.0
  H  H27  1  0.86212000  0.47246000  0.61135000  1.0
  H  H28  1  0.36479000  0.32021000  0.14011000  1.0
  H  H29  1  0.63521000  0.67979000  0.85989000  1.0
  H  H30  1  0.23715000  0.04364000  0.92043000  1.0
  H  H31  1  0.76285000  0.95636000  0.07957000  1.0
  H  H32  1  0.29507000  0.81858000  0.97462000  1.0
  H  H33  1  0.70493000  0.18142000  0.02538000  1.0
  H  H34  1  0.41185000  0.73048000  0.12899000  1.0
  H  H35  1  0.58815000  0.26952000  0.87101000  1.0
  H  H36  1  0.47395000  0.86566000  0.23982000  1.0
  H  H37  1  0.52606000  0.13434000  0.76018000  1.0
  H  H38  1  0.28376000  0.26073000  0.89863000  1.0
  H  H39  1  0.71624000  0.73926000  0.10137000  1.0
  H  H40  1  0.28411000  0.37860000  0.96831000  1.0
  H  H41  1  0.71589000  0.62140000  0.03169000  1.0
  H  H42  1  0.06282000  0.31693000  0.11806000  1.0
  H  H43  1  0.93718000  0.68307000  0.88194000  1.0
  H  H44  1  0.79899000  0.38407000  0.10929000  1.0
  H  H45  1  0.20101000  0.61593000  0.89071000  1.0
  H  H46  1  0.78694000  0.42453000  0.81740000  1.0
  H  H47  1  0.21306000  0.57547000  0.18260000  1.0
  H  H48  1  0.05488000  0.35003000  0.81375000  1.0
  H  H49  1  0.94512000  0.64997000  0.18625000  1.0
  H  H50  1  0.22428000  0.83737000  0.54708000  1.0
  H  H51  1  0.77572000  0.16263000  0.45292000  1.0
  H  H52  1  0.00776000  0.17576000  0.37784000  1.0
  H  H53  1  0.99224000  0.82424000  0.62216000  1.0
  C  C54  1  0.57475000  0.44141000  0.58348000  1.0
  C  C55  1  0.42525000  0.55859000  0.41652000  1.0
  C  C56  1  0.55755000  0.37265000  0.51277000  1.0
  C  C57  1  0.44245000  0.62734000  0.48723000  1.0
  C  C58  1  0.48257000  0.43117000  0.42847000  1.0
  C  C59  1  0.51743000  0.56883000  0.57153000  1.0
  C  C60  1  0.46267000  0.35768000  0.35177000  1.0
  C  C61  1  0.53733000  0.64232000  0.64823000  1.0
  C  C62  1  0.68389000  0.87303000  0.39552000  1.0
  C  C63  1  0.31611000  0.12697000  0.60448000  1.0
  C  C64  1  0.77827000  0.98523000  0.29007000  1.0
  C  C65  1  0.22173000  0.01477000  0.70993000  1.0
  C  C66  1  0.88633000  0.87699000  0.32043000  1.0
  C  C67  1  0.11368000  0.12301000  0.67957000  1.0
  C  C68  1  0.80776000  0.07760000  0.22404000  1.0
  C  C69  1  0.19224000  0.92240000  0.77596000  1.0
  C  C70  1  0.94558000  0.05637000  0.18823000  1.0
  C  C71  1  0.05442000  0.94363000  0.81177000  1.0
  C  C72  1  0.05178000  0.94753000  0.21790000  1.0
  C  C73  1  0.94822000  0.05247000  0.78210000  1.0
  C  C74  1  0.02485000  0.85601000  0.28525000  1.0
  C  C75  1  0.97515000  0.14399000  0.71475000  1.0
  C  C76  1  0.89216000  0.69080000  0.44105000  1.0
  C  C77  1  0.10784000  0.30920000  0.55895000  1.0
  C  C78  1  0.90401000  0.58680000  0.38326000  1.0
  C  C79  1  0.09599000  0.41320000  0.61674000  1.0
  C  C80  1  0.77992000  0.56265000  0.34717000  1.0
  C  C81  1  0.22008000  0.43735000  0.65283000  1.0
  C  C82  1  0.79450000  0.46576000  0.29457000  1.0
  C  C83  1  0.20550000  0.53424000  0.70543000  1.0
  C  C84  1  0.04089000  0.41728000  0.31002000  1.0
  C  C85  1  0.95911000  0.58272000  0.68998000  1.0
  C  C86  1  0.03715000  0.51250000  0.36350000  1.0
  C  C87  1  0.96285000  0.48750000  0.63650000  1.0
  C  C88  1  0.36568000  0.22859000  0.12463000  1.0
  C  C89  1  0.63432000  0.77141000  0.87537000  1.0
  C  C90  1  0.32845000  0.07907000  0.05001000  1.0
  C  C91  1  0.67155000  0.92093000  0.94999000  1.0
  C  C92  1  0.29070000  0.00565000  0.98860000  1.0
  C  C93  1  0.70930000  0.99435000  0.01140000  1.0
  C  C94  1  0.32372000  0.87987000  0.01936000  1.0
  C  C95  1  0.67629000  0.12013000  0.98064000  1.0
  C  C96  1  0.39134000  0.82940000  0.10801000  1.0
  C  C97  1  0.60867000  0.17060000  0.89199000  1.0
  C  C98  1  0.42775000  0.90307000  0.16956000  1.0
  C  C99  1  0.57225000  0.09693000  0.83044000  1.0
  C  C100  1  0.39515000  0.02973000  0.13938000  1.0
  C  C101  1  0.60485000  0.97027000  0.86062000  1.0
  C  C102  1  0.24538000  0.29576000  0.96440000  1.0
  C  C103  1  0.75462000  0.70424000  0.03560000  1.0
  C  C104  1  0.08255000  0.32846000  0.96541000  1.0
  C  C105  1  0.91745000  0.67154000  0.03459000  1.0
  C  C106  1  0.00793000  0.33775000  0.04913000  1.0
  C  C107  1  0.99207000  0.66225000  0.95087000  1.0
  C  C108  1  0.85798000  0.37652000  0.04409000  1.0
  C  C109  1  0.14202000  0.62348000  0.95591000  1.0
  C  C110  1  0.85197000  0.39738000  0.88288000  1.0
  C  C111  1  0.14803000  0.60262000  0.11712000  1.0
  C  C112  1  0.00179000  0.35726000  0.88089000  1.0
  C  C113  1  0.99821000  0.64274000  0.11911000  1.0
  C  C114  1  0.26908000  0.01335000  0.41242000  1.0
  C  C115  1  0.73092000  0.98665000  0.58758000  1.0
  C  C116  1  0.12995000  0.00703000  0.45764000  1.0
  C  C117  1  0.87005000  0.99297000  0.54236000  1.0
  C  C118  1  0.12514000  0.90718000  0.52568000  1.0
  C  C119  1  0.87486000  0.09282000  0.47432000  1.0
  C  C120  1  0.00420000  0.09978000  0.43225000  1.0
  C  C121  1  0.99580000  0.90022000  0.56775000  1.0
  N  N122  1  0.65323000  0.97864000  0.33809000  1.0
  N  N123  1  0.34677000  0.02136000  0.66191000  1.0
  N  N124  1  0.82248000  0.80907000  0.38789000  1.0
  N  N125  1  0.17752000  0.19093000  0.61211000  1.0
  N  N126  1  0.92226000  0.39324000  0.27575000  1.0
  N  N127  1  0.07774000  0.60676000  0.72425000  1.0
  N  N128  1  0.41563000  0.12622000  0.18400000  1.0
  N  N129  1  0.58437000  0.87378000  0.81600000  1.0
  N  N130  1  0.31292000  0.20513000  0.04294000  1.0
  N  N131  1  0.68708000  0.79487000  0.95706000  1.0
  N  N132  1  0.77936000  0.40768000  0.96304000  1.0
  N  N133  1  0.22064000  0.59232000  0.03696000  1.0
  O  O134  1  0.53890000  0.24489000  0.36497000  1.0
  O  O135  1  0.46110000  0.75511000  0.63503000  1.0
  O  O136  1  0.37785000  0.40592000  0.28309000  1.0
  O  O137  1  0.62215000  0.59408000  0.71691000  1.0
  O  O138  1  0.36266000  0.91719000  0.40245000  1.0
  O  O139  1  0.63734000  0.08281000  0.59755000  1.0
  O  O140  1  0.28543000  0.12337000  0.38551000  1.0
  O  O141  1  0.71458000  0.87663000  0.61449000  1.0
